MODEL 1
REMARK VINA RESULT:     -11.1      0.000      0.000
REMARK SMILES CC(C)[C@H](NC(=O)CCNC(=O)c1ccoc1)C(=O)NCCCCNC(=O)c1ccc(-c2c3nc(c(-c4c(F)cccc4F)c4ccc([nH]4)c(-c4c(F)cccc4F)c4nc(c(-c5c(F)cccc5F)c5ccc2[nH]5)C=C4)C=C3)cc1
REMARK SMILES IDX 21 1 20 2 18 3 19 4 4 6 2 7 1 8 3 9 5 10 6 11 7 13 8 14 9 15
REMARK SMILES IDX 10 16 11 17 12 19 13 20 14 21 17 22 15 23 16 24 22 25 23 26
REMARK SMILES IDX 24 27 25 28 26 29 27 31 28 32 29 33 81 34 30 35 80 36 31 37
REMARK SMILES IDX 32 38 33 39 74 40 34 41 79 42 73 43 75 44 35 45 78 46 72 47
REMARK SMILES IDX 71 48 36 50 62 51 45 52 61 53 46 54 49 55 60 56 76 57 47 58
REMARK SMILES IDX 48 59 59 61 77 62 50 63 37 64 38 65 43 66 39 67 40 68 42 69
REMARK SMILES IDX 44 70 41 71 63 72 64 73 69 74 65 75 66 76 68 77 70 78 67 79
REMARK SMILES IDX 51 80 52 81 57 82 53 83 54 84 56 85 58 86 55 87
REMARK H PARENT 20 5 5 12 10 18 25 30 75 49 49 60
REMARK Flexibility Score: inf
ROOT
ATOM      1  C   UNL A   1      31.807  29.761  25.234  1.00  0.00     0.116 C 
ENDROOT
BRANCH   1   2
ATOM      2  N   UNL A   1      33.046  29.704  24.489  1.00  0.00    -0.354 N 
ATOM      3  C   UNL A   1      33.635  28.691  23.805  1.00  0.00     0.242 C 
ATOM      4  O   UNL A   1      34.586  29.001  23.079  1.00  0.00    -0.273 OA
ATOM      5  H   UNL A   1      33.550  30.550  24.477  1.00  0.00     0.163 HD
BRANCH   3   6
ATOM      6  C   UNL A   1      33.126  27.232  23.831  1.00  0.00     0.173 C 
BRANCH   6   7
ATOM      7  C   UNL A   1      34.017  26.215  24.588  1.00  0.00     0.015 C 
ATOM      8  C   UNL A   1      33.670  25.962  26.054  1.00  0.00     0.010 C 
ATOM      9  C   UNL A   1      34.091  24.873  23.849  1.00  0.00     0.010 C 
ENDBRANCH   6   7
BRANCH   6  10
ATOM     10  N   UNL A   1      32.706  26.756  22.510  1.00  0.00    -0.344 N 
ATOM     11  C   UNL A   1      31.455  26.450  22.072  1.00  0.00     0.222 C 
ATOM     12  H   UNL A   1      33.428  26.640  21.850  1.00  0.00     0.164 HD
ATOM     13  O   UNL A   1      31.310  26.135  20.890  1.00  0.00    -0.275 OA
BRANCH  11  14
ATOM     14  C   UNL A   1      30.285  26.438  23.030  1.00  0.00     0.121 C 
BRANCH  14  15
ATOM     15  C   UNL A   1      29.639  27.820  23.083  1.00  0.00     0.126 C 
BRANCH  15  16
ATOM     16  N   UNL A   1      28.184  27.748  23.067  1.00  0.00    -0.351 N 
ATOM     17  C   UNL A   1      27.269  28.768  23.130  1.00  0.00     0.254 C 
ATOM     18  H   UNL A   1      27.805  26.841  23.003  1.00  0.00     0.163 HD
ATOM     19  O   UNL A   1      26.134  28.517  23.530  1.00  0.00    -0.269 OA
BRANCH  17  20
ATOM     20  C   UNL A   1      27.672  30.100  22.739  1.00  0.00     0.077 A 
ATOM     21  C   UNL A   1      27.903  31.260  23.534  1.00  0.00     0.056 A 
ATOM     22  C   UNL A   1      28.014  30.469  21.452  1.00  0.00     0.208 A 
ATOM     23  C   UNL A   1      28.335  32.245  22.678  1.00  0.00     0.195 A 
ATOM     24  O   UNL A   1      28.396  31.772  21.407  1.00  0.00    -0.472 OA
ENDBRANCH  17  20
ENDBRANCH  15  16
ENDBRANCH  14  15
ENDBRANCH  11  14
ENDBRANCH   6  10
ENDBRANCH   3   6
ENDBRANCH   1   2
BRANCH   1  25
ATOM     25  C   UNL A   1      32.010  30.106  26.706  1.00  0.00     0.023 C 
BRANCH  25  26
ATOM     26  C   UNL A   1      31.554  31.504  27.124  1.00  0.00     0.023 C 
BRANCH  26  27
ATOM     27  C   UNL A   1      32.366  32.667  26.562  1.00  0.00     0.116 C 
BRANCH  27  28
ATOM     28  N   UNL A   1      32.254  33.884  27.350  1.00  0.00    -0.352 N 
ATOM     29  C   UNL A   1      33.072  34.346  28.354  1.00  0.00     0.251 C 
ATOM     30  H   UNL A   1      31.485  34.459  27.134  1.00  0.00     0.163 HD
ATOM     31  O   UNL A   1      32.787  35.363  28.978  1.00  0.00    -0.269 OA
BRANCH  29  32
ATOM     32  C   UNL A   1      34.275  33.572  28.709  1.00  0.00     0.039 A 
ATOM     33  C   UNL A   1      35.529  34.100  28.394  1.00  0.00     0.014 A 
ATOM     34  C   UNL A   1      34.161  32.376  29.423  1.00  0.00     0.014 A 
ATOM     35  C   UNL A   1      36.677  33.484  28.892  1.00  0.00     0.010 A 
ATOM     36  C   UNL A   1      35.302  31.798  29.968  1.00  0.00     0.010 A 
ATOM     37  C   UNL A   1      36.566  32.362  29.730  1.00  0.00    -0.014 A 
BRANCH  37  38
ATOM     38  C   UNL A   1      37.750  31.792  30.417  1.00  0.00     0.031 A 
ATOM     39  C   UNL A   1      38.562  30.720  29.755  1.00  0.00     0.074 A 
ATOM     40  C   UNL A   1      38.029  32.173  31.679  1.00  0.00     0.049 A 
ATOM     41  N   UNL A   1      39.543  30.007  30.245  1.00  0.00    -0.248 NA
ATOM     42  C   UNL A   1      38.207  30.389  28.367  1.00  0.00     0.031 C 
ATOM     43  C   UNL A   1      37.290  33.180  32.445  1.00  0.00     0.029 A 
ATOM     44  N   UNL A   1      39.000  31.744  32.547  1.00  0.00    -0.354 N 
ATOM     45  C   UNL A   1      39.910  29.129  29.235  1.00  0.00     0.074 A 
ATOM     46  C   UNL A   1      39.024  29.376  28.117  1.00  0.00     0.031 C 
ATOM     47  C   UNL A   1      37.846  33.301  33.661  1.00  0.00     0.029 A 
ATOM     48  C   UNL A   1      38.949  32.354  33.776  1.00  0.00     0.049 A 
ATOM     49  H   UNL A   1      39.671  31.062  32.311  1.00  0.00     0.167 HD
ATOM     50  C   UNL A   1      40.905  28.212  29.235  1.00  0.00     0.037 A 
ATOM     51  C   UNL A   1      39.698  32.162  34.878  1.00  0.00     0.037 A 
ATOM     52  C   UNL A   1      41.806  27.991  30.334  1.00  0.00     0.049 A 
ATOM     53  C   UNL A   1      40.779  31.119  34.861  1.00  0.00     0.074 A 
ATOM     54  C   UNL A   1      42.900  27.146  30.397  1.00  0.00     0.029 A 
ATOM     55  N   UNL A   1      41.713  28.621  31.566  1.00  0.00    -0.354 N 
ATOM     56  N   UNL A   1      41.147  30.331  33.882  1.00  0.00    -0.248 NA
ATOM     57  C   UNL A   1      41.536  30.932  36.106  1.00  0.00     0.031 C 
ATOM     58  C   UNL A   1      43.451  27.241  31.680  1.00  0.00     0.029 A 
ATOM     59  C   UNL A   1      42.716  28.165  32.405  1.00  0.00     0.049 A 
ATOM     60  H   UNL A   1      41.037  29.294  31.808  1.00  0.00     0.167 HD
ATOM     61  C   UNL A   1      42.186  29.561  34.386  1.00  0.00     0.074 A 
ATOM     62  C   UNL A   1      42.397  29.985  35.755  1.00  0.00     0.031 C 
ATOM     63  C   UNL A   1      42.902  28.591  33.768  1.00  0.00     0.037 A 
BRANCH  50  64
ATOM     64  C   UNL A   1      41.069  27.384  27.999  1.00  0.00     0.057 A 
ATOM     65  C   UNL A   1      40.457  26.131  27.868  1.00  0.00     0.134 A 
ATOM     66  C   UNL A   1      41.836  27.848  26.924  1.00  0.00     0.134 A 
ATOM     67  F   UNL A   1      39.722  25.627  28.870  1.00  0.00    -0.206 F 
ATOM     68  C   UNL A   1      40.623  25.356  26.719  1.00  0.00     0.040 A 
ATOM     69  C   UNL A   1      41.993  27.091  25.762  1.00  0.00     0.040 A 
ATOM     70  F   UNL A   1      42.447  29.041  26.987  1.00  0.00    -0.206 F 
ATOM     71  C   UNL A   1      41.389  25.838  25.659  1.00  0.00     0.006 A 
ENDBRANCH  50  64
BRANCH  51  72
ATOM     72  C   UNL A   1      39.453  32.978  36.089  1.00  0.00     0.057 A 
ATOM     73  C   UNL A   1      38.589  32.528  37.092  1.00  0.00     0.134 A 
ATOM     74  C   UNL A   1      40.079  34.216  36.278  1.00  0.00     0.134 A 
ATOM     75  F   UNL A   1      37.948  31.359  36.954  1.00  0.00    -0.206 F 
ATOM     76  C   UNL A   1      38.348  33.283  38.241  1.00  0.00     0.040 A 
ATOM     77  C   UNL A   1      39.860  34.974  37.429  1.00  0.00     0.040 A 
ATOM     78  F   UNL A   1      40.921  34.698  35.353  1.00  0.00    -0.206 F 
ATOM     79  C   UNL A   1      38.990  34.507  38.414  1.00  0.00     0.006 A 
ENDBRANCH  51  72
BRANCH  63  80
ATOM     80  C   UNL A   1      43.980  27.928  34.567  1.00  0.00     0.057 A 
ATOM     81  C   UNL A   1      45.258  28.490  34.673  1.00  0.00     0.134 A 
ATOM     82  C   UNL A   1      43.728  26.744  35.268  1.00  0.00     0.134 A 
ATOM     83  F   UNL A   1      45.564  29.615  34.011  1.00  0.00    -0.206 F 
ATOM     84  C   UNL A   1      46.254  27.890  35.446  1.00  0.00     0.040 A 
ATOM     85  C   UNL A   1      44.710  26.143  36.057  1.00  0.00     0.040 A 
ATOM     86  F   UNL A   1      42.522  26.160  35.207  1.00  0.00    -0.206 F 
ATOM     87  C   UNL A   1      45.977  26.716  36.146  1.00  0.00     0.006 A 
ENDBRANCH  63  80
ENDBRANCH  37  38
ENDBRANCH  29  32
ENDBRANCH  27  28
ENDBRANCH  26  27
ENDBRANCH  25  26
ENDBRANCH   1  25
TORSDOF 17
ENDMDL
MODEL 2
REMARK VINA RESULT:     -11.1      1.027      6.308
REMARK SMILES CC(C)[C@H](NC(=O)CCNC(=O)c1ccoc1)C(=O)NCCCCNC(=O)c1ccc(-c2c3nc(c(-c4c(F)cccc4F)c4ccc([nH]4)c(-c4c(F)cccc4F)c4nc(c(-c5c(F)cccc5F)c5ccc2[nH]5)C=C4)C=C3)cc1
REMARK SMILES IDX 21 1 20 2 18 3 19 4 4 6 2 7 1 8 3 9 5 10 6 11 7 13 8 14 9 15
REMARK SMILES IDX 10 16 11 17 12 19 13 20 14 21 17 22 15 23 16 24 22 25 23 26
REMARK SMILES IDX 24 27 25 28 26 29 27 31 28 32 29 33 81 34 30 35 80 36 31 37
REMARK SMILES IDX 32 38 33 39 74 40 34 41 79 42 73 43 75 44 35 45 78 46 72 47
REMARK SMILES IDX 71 48 36 50 62 51 45 52 61 53 46 54 49 55 60 56 76 57 47 58
REMARK SMILES IDX 48 59 59 61 77 62 50 63 37 64 38 65 43 66 39 67 40 68 42 69
REMARK SMILES IDX 44 70 41 71 63 72 64 73 69 74 65 75 66 76 68 77 70 78 67 79
REMARK SMILES IDX 51 80 52 81 57 82 53 83 54 84 56 85 58 86 55 87
REMARK H PARENT 20 5 5 12 10 18 25 30 75 49 49 60
REMARK Flexibility Score: inf
ROOT
ATOM      1  C   UNL A   1      31.831  29.875  25.372  1.00  0.00     0.116 C 
ENDROOT
BRANCH   1   2
ATOM      2  N   UNL A   1      33.093  29.713  24.684  1.00  0.00    -0.354 N 
ATOM      3  C   UNL A   1      33.636  28.644  24.050  1.00  0.00     0.242 C 
ATOM      4  O   UNL A   1      34.638  28.867  23.361  1.00  0.00    -0.273 OA
ATOM      5  H   UNL A   1      33.657  30.520  24.676  1.00  0.00     0.163 HD
BRANCH   3   6
ATOM      6  C   UNL A   1      33.023  27.225  24.085  1.00  0.00     0.173 C 
BRANCH   6   7
ATOM      7  C   UNL A   1      33.788  26.175  24.930  1.00  0.00     0.015 C 
ATOM      8  C   UNL A   1      33.021  25.544  26.091  1.00  0.00     0.010 C 
ATOM      9  C   UNL A   1      34.374  25.065  24.051  1.00  0.00     0.010 C 
ENDBRANCH   6   7
BRANCH   6  10
ATOM     10  N   UNL A   1      32.658  26.734  22.754  1.00  0.00    -0.344 N 
ATOM     11  C   UNL A   1      31.427  26.410  22.272  1.00  0.00     0.222 C 
ATOM     12  H   UNL A   1      33.404  26.622  22.121  1.00  0.00     0.164 HD
ATOM     13  O   UNL A   1      31.329  26.085  21.089  1.00  0.00    -0.275 OA
BRANCH  11  14
ATOM     14  C   UNL A   1      30.223  26.391  23.187  1.00  0.00     0.121 C 
BRANCH  14  15
ATOM     15  C   UNL A   1      29.579  27.775  23.232  1.00  0.00     0.126 C 
BRANCH  15  16
ATOM     16  N   UNL A   1      28.124  27.705  23.213  1.00  0.00    -0.351 N 
ATOM     17  C   UNL A   1      27.212  28.729  23.193  1.00  0.00     0.254 C 
ATOM     18  H   UNL A   1      27.743  26.797  23.216  1.00  0.00     0.163 HD
ATOM     19  O   UNL A   1      26.074  28.512  23.604  1.00  0.00    -0.269 OA
BRANCH  17  20
ATOM     20  C   UNL A   1      27.621  30.026  22.703  1.00  0.00     0.077 A 
ATOM     21  C   UNL A   1      27.964  30.443  21.384  1.00  0.00     0.056 A 
ATOM     22  C   UNL A   1      27.659  31.176  23.468  1.00  0.00     0.208 A 
ATOM     23  C   UNL A   1      28.212  31.794  21.450  1.00  0.00     0.195 A 
ATOM     24  O   UNL A   1      28.036  32.244  22.718  1.00  0.00    -0.472 OA
ENDBRANCH  17  20
ENDBRANCH  15  16
ENDBRANCH  14  15
ENDBRANCH  11  14
ENDBRANCH   6  10
ENDBRANCH   3   6
ENDBRANCH   1   2
BRANCH   1  25
ATOM     25  C   UNL A   1      31.987  30.424  26.786  1.00  0.00     0.023 C 
BRANCH  25  26
ATOM     26  C   UNL A   1      31.676  31.912  26.954  1.00  0.00     0.023 C 
BRANCH  26  27
ATOM     27  C   UNL A   1      32.833  32.787  27.427  1.00  0.00     0.116 C 
BRANCH  27  28
ATOM     28  N   UNL A   1      32.434  34.149  27.747  1.00  0.00    -0.352 N 
ATOM     29  C   UNL A   1      32.984  35.022  28.657  1.00  0.00     0.251 C 
ATOM     30  H   UNL A   1      31.664  34.495  27.242  1.00  0.00     0.163 HD
ATOM     31  O   UNL A   1      32.472  36.117  28.863  1.00  0.00    -0.269 OA
BRANCH  29  32
ATOM     32  C   UNL A   1      34.172  34.603  29.422  1.00  0.00     0.039 A 
ATOM     33  C   UNL A   1      33.996  34.114  30.719  1.00  0.00     0.014 A 
ATOM     34  C   UNL A   1      35.436  34.613  28.827  1.00  0.00     0.014 A 
ATOM     35  C   UNL A   1      35.075  33.531  31.384  1.00  0.00     0.010 A 
ATOM     36  C   UNL A   1      36.495  33.978  29.467  1.00  0.00     0.010 A 
ATOM     37  C   UNL A   1      36.316  33.408  30.738  1.00  0.00    -0.014 A 
BRANCH  37  38
ATOM     38  C   UNL A   1      37.429  32.639  31.346  1.00  0.00     0.031 A 
ATOM     39  C   UNL A   1      38.058  33.107  32.624  1.00  0.00     0.074 A 
ATOM     40  C   UNL A   1      37.934  31.577  30.689  1.00  0.00     0.049 A 
ATOM     41  N   UNL A   1      39.121  32.650  33.234  1.00  0.00    -0.248 NA
ATOM     42  C   UNL A   1      37.423  34.254  33.289  1.00  0.00     0.031 C 
ATOM     43  C   UNL A   1      37.433  31.048  29.418  1.00  0.00     0.029 A 
ATOM     44  N   UNL A   1      38.995  30.763  30.991  1.00  0.00    -0.354 N 
ATOM     45  C   UNL A   1      39.295  33.466  34.343  1.00  0.00     0.074 A 
ATOM     46  C   UNL A   1      38.249  34.465  34.304  1.00  0.00     0.031 C 
ATOM     47  C   UNL A   1      38.176  29.989  29.060  1.00  0.00     0.029 A 
ATOM     48  C   UNL A   1      39.229  29.791  30.051  1.00  0.00     0.049 A 
ATOM     49  H   UNL A   1      39.539  30.866  31.806  1.00  0.00     0.167 HD
ATOM     50  C   UNL A   1      40.233  33.378  35.316  1.00  0.00     0.037 A 
ATOM     51  C   UNL A   1      40.193  28.854  29.984  1.00  0.00     0.037 A 
ATOM     52  C   UNL A   1      41.252  32.365  35.372  1.00  0.00     0.049 A 
ATOM     53  C   UNL A   1      41.238  28.795  31.061  1.00  0.00     0.074 A 
ATOM     54  C   UNL A   1      42.193  32.142  36.361  1.00  0.00     0.029 A 
ATOM     55  N   UNL A   1      41.463  31.406  34.393  1.00  0.00    -0.354 N 
ATOM     56  N   UNL A   1      41.361  29.541  32.131  1.00  0.00    -0.248 NA
ATOM     57  C   UNL A   1      42.285  27.773  30.912  1.00  0.00     0.031 C 
ATOM     58  C   UNL A   1      42.995  31.065  35.966  1.00  0.00     0.029 A 
ATOM     59  C   UNL A   1      42.535  30.603  34.743  1.00  0.00     0.049 A 
ATOM     60  H   UNL A   1      40.928  31.308  33.572  1.00  0.00     0.167 HD
ATOM     61  C   UNL A   1      42.490  29.075  32.790  1.00  0.00     0.074 A 
ATOM     62  C   UNL A   1      43.010  27.973  32.005  1.00  0.00     0.031 C 
ATOM     63  C   UNL A   1      43.044  29.519  33.944  1.00  0.00     0.037 A 
BRANCH  50  64
ATOM     64  C   UNL A   1      40.190  34.411  36.399  1.00  0.00     0.057 A 
ATOM     65  C   UNL A   1      40.897  35.616  36.293  1.00  0.00     0.134 A 
ATOM     66  C   UNL A   1      39.426  34.205  37.553  1.00  0.00     0.134 A 
ATOM     67  F   UNL A   1      41.659  35.864  35.218  1.00  0.00    -0.206 F 
ATOM     68  C   UNL A   1      40.865  36.570  37.311  1.00  0.00     0.040 A 
ATOM     69  C   UNL A   1      39.371  35.160  38.569  1.00  0.00     0.040 A 
ATOM     70  F   UNL A   1      38.726  33.071  37.714  1.00  0.00    -0.206 F 
ATOM     71  C   UNL A   1      40.096  36.345  38.452  1.00  0.00     0.006 A 
ENDBRANCH  50  64
BRANCH  51  72
ATOM     72  C   UNL A   1      40.212  27.892  28.859  1.00  0.00     0.057 A 
ATOM     73  C   UNL A   1      40.906  28.184  27.680  1.00  0.00     0.134 A 
ATOM     74  C   UNL A   1      39.550  26.661  28.934  1.00  0.00     0.134 A 
ATOM     75  F   UNL A   1      41.543  29.356  27.546  1.00  0.00    -0.206 F 
ATOM     76  C   UNL A   1      40.937  27.288  26.610  1.00  0.00     0.040 A 
ATOM     77  C   UNL A   1      39.585  25.749  27.878  1.00  0.00     0.040 A 
ATOM     78  F   UNL A   1      38.870  26.324  30.040  1.00  0.00    -0.206 F 
ATOM     79  C   UNL A   1      40.280  26.064  26.710  1.00  0.00     0.006 A 
ENDBRANCH  51  72
BRANCH  63  80
ATOM     80  C   UNL A   1      44.271  28.810  34.426  1.00  0.00     0.057 A 
ATOM     81  C   UNL A   1      45.553  29.271  34.105  1.00  0.00     0.134 A 
ATOM     82  C   UNL A   1      44.171  27.684  35.250  1.00  0.00     0.134 A 
ATOM     83  F   UNL A   1      45.711  30.337  33.304  1.00  0.00    -0.206 F 
ATOM     84  C   UNL A   1      46.697  28.630  34.582  1.00  0.00     0.040 A 
ATOM     85  C   UNL A   1      45.307  27.044  35.747  1.00  0.00     0.040 A 
ATOM     86  F   UNL A   1      42.970  27.197  35.595  1.00  0.00    -0.206 F 
ATOM     87  C   UNL A   1      46.574  27.517  35.412  1.00  0.00     0.006 A 
ENDBRANCH  63  80
ENDBRANCH  37  38
ENDBRANCH  29  32
ENDBRANCH  27  28
ENDBRANCH  26  27
ENDBRANCH  25  26
ENDBRANCH   1  25
TORSDOF 17
ENDMDL
MODEL 3
REMARK VINA RESULT:     -10.9      4.120      8.370
REMARK SMILES CC(C)[C@H](NC(=O)CCNC(=O)c1ccoc1)C(=O)NCCCCNC(=O)c1ccc(-c2c3nc(c(-c4c(F)cccc4F)c4ccc([nH]4)c(-c4c(F)cccc4F)c4nc(c(-c5c(F)cccc5F)c5ccc2[nH]5)C=C4)C=C3)cc1
REMARK SMILES IDX 21 1 20 2 18 3 19 4 4 6 2 7 1 8 3 9 5 10 6 11 7 13 8 14 9 15
REMARK SMILES IDX 10 16 11 17 12 19 13 20 14 21 17 22 15 23 16 24 22 25 23 26
REMARK SMILES IDX 24 27 25 28 26 29 27 31 28 32 29 33 81 34 30 35 80 36 31 37
REMARK SMILES IDX 32 38 33 39 74 40 34 41 79 42 73 43 75 44 35 45 78 46 72 47
REMARK SMILES IDX 71 48 36 50 62 51 45 52 61 53 46 54 49 55 60 56 76 57 47 58
REMARK SMILES IDX 48 59 59 61 77 62 50 63 37 64 38 65 43 66 39 67 40 68 42 69
REMARK SMILES IDX 44 70 41 71 63 72 64 73 69 74 65 75 66 76 68 77 70 78 67 79
REMARK SMILES IDX 51 80 52 81 57 82 53 83 54 84 56 85 58 86 55 87
REMARK H PARENT 20 5 5 12 10 18 25 30 75 49 49 60
REMARK Flexibility Score: inf
ROOT
ATOM      1  C   UNL A   1      31.849  28.707  23.847  1.00  0.00     0.116 C 
ENDROOT
BRANCH   1   2
ATOM      2  N   UNL A   1      30.480  28.266  23.696  1.00  0.00    -0.354 N 
ATOM      3  C   UNL A   1      29.902  27.054  23.891  1.00  0.00     0.242 C 
ATOM      4  O   UNL A   1      28.666  27.031  23.896  1.00  0.00    -0.273 OA
ATOM      5  H   UNL A   1      29.858  28.969  23.398  1.00  0.00     0.163 HD
BRANCH   3   6
ATOM      6  C   UNL A   1      30.699  25.763  24.183  1.00  0.00     0.173 C 
BRANCH   6   7
ATOM      7  C   UNL A   1      31.160  24.954  22.944  1.00  0.00     0.015 C 
ATOM      8  C   UNL A   1      32.603  25.167  22.489  1.00  0.00     0.010 C 
ATOM      9  C   UNL A   1      30.906  23.453  23.126  1.00  0.00     0.010 C 
ENDBRANCH   6   7
BRANCH   6  10
ATOM     10  N   UNL A   1      30.070  24.929  25.211  1.00  0.00    -0.344 N 
ATOM     11  C   UNL A   1      30.640  24.331  26.291  1.00  0.00     0.222 C 
ATOM     12  H   UNL A   1      29.102  24.781  25.105  1.00  0.00     0.164 HD
ATOM     13  O   UNL A   1      29.910  23.729  27.080  1.00  0.00    -0.275 OA
BRANCH  11  14
ATOM     14  C   UNL A   1      32.141  24.354  26.481  1.00  0.00     0.121 C 
BRANCH  14  15
ATOM     15  C   UNL A   1      32.587  23.125  27.271  1.00  0.00     0.126 C 
BRANCH  15  16
ATOM     16  N   UNL A   1      32.133  21.884  26.658  1.00  0.00    -0.351 N 
ATOM     17  C   UNL A   1      32.594  21.263  25.525  1.00  0.00     0.254 C 
ATOM     18  H   UNL A   1      31.393  21.429  27.121  1.00  0.00     0.163 HD
ATOM     19  O   UNL A   1      31.844  20.490  24.932  1.00  0.00    -0.269 OA
BRANCH  17  20
ATOM     20  C   UNL A   1      33.933  21.547  25.062  1.00  0.00     0.077 A 
ATOM     21  C   UNL A   1      34.380  22.410  24.019  1.00  0.00     0.056 A 
ATOM     22  C   UNL A   1      35.085  21.068  25.655  1.00  0.00     0.208 A 
ATOM     23  C   UNL A   1      35.754  22.369  24.036  1.00  0.00     0.195 A 
ATOM     24  O   UNL A   1      36.189  21.547  25.025  1.00  0.00    -0.472 OA
ENDBRANCH  17  20
ENDBRANCH  15  16
ENDBRANCH  14  15
ENDBRANCH  11  14
ENDBRANCH   6  10
ENDBRANCH   3   6
ENDBRANCH   1   2
BRANCH   1  25
ATOM     25  C   UNL A   1      32.161  29.221  25.248  1.00  0.00     0.023 C 
BRANCH  25  26
ATOM     26  C   UNL A   1      33.535  28.841  25.800  1.00  0.00     0.023 C 
BRANCH  26  27
ATOM     27  C   UNL A   1      33.671  28.853  27.319  1.00  0.00     0.116 C 
BRANCH  27  28
ATOM     28  N   UNL A   1      33.787  30.191  27.878  1.00  0.00    -0.352 N 
ATOM     29  C   UNL A   1      34.876  30.796  28.461  1.00  0.00     0.251 C 
ATOM     30  H   UNL A   1      32.973  30.741  27.832  1.00  0.00     0.163 HD
ATOM     31  O   UNL A   1      34.781  31.913  28.959  1.00  0.00    -0.269 OA
BRANCH  29  32
ATOM     32  C   UNL A   1      36.152  30.061  28.526  1.00  0.00     0.039 A 
ATOM     33  C   UNL A   1      37.004  30.097  27.420  1.00  0.00     0.014 A 
ATOM     34  C   UNL A   1      36.537  29.416  29.705  1.00  0.00     0.014 A 
ATOM     35  C   UNL A   1      38.294  29.577  27.530  1.00  0.00     0.010 A 
ATOM     36  C   UNL A   1      37.842  28.954  29.832  1.00  0.00     0.010 A 
ATOM     37  C   UNL A   1      38.738  29.055  28.756  1.00  0.00    -0.014 A 
BRANCH  37  38
ATOM     38  C   UNL A   1      40.153  28.659  28.957  1.00  0.00     0.031 A 
ATOM     39  C   UNL A   1      41.144  29.649  29.490  1.00  0.00     0.074 A 
ATOM     40  C   UNL A   1      40.560  27.436  28.564  1.00  0.00     0.049 A 
ATOM     41  N   UNL A   1      42.442  29.534  29.608  1.00  0.00    -0.248 NA
ATOM     42  C   UNL A   1      40.608  30.948  29.925  1.00  0.00     0.031 C 
ATOM     43  C   UNL A   1      39.698  26.397  27.995  1.00  0.00     0.029 A 
ATOM     44  N   UNL A   1      41.807  26.867  28.565  1.00  0.00    -0.354 N 
ATOM     45  C   UNL A   1      42.882  30.752  30.109  1.00  0.00     0.074 A 
ATOM     46  C   UNL A   1      41.717  31.601  30.243  1.00  0.00     0.031 C 
ATOM     47  C   UNL A   1      40.440  25.313  27.719  1.00  0.00     0.029 A 
ATOM     48  C   UNL A   1      41.833  25.594  28.050  1.00  0.00     0.049 A 
ATOM     49  H   UNL A   1      42.610  27.328  28.904  1.00  0.00     0.167 HD
ATOM     50  C   UNL A   1      44.140  31.121  30.444  1.00  0.00     0.037 A 
ATOM     51  C   UNL A   1      42.865  24.754  27.851  1.00  0.00     0.037 A 
ATOM     52  C   UNL A   1      45.291  30.266  30.343  1.00  0.00     0.049 A 
ATOM     53  C   UNL A   1      44.255  25.197  28.206  1.00  0.00     0.074 A 
ATOM     54  C   UNL A   1      46.593  30.520  30.738  1.00  0.00     0.029 A 
ATOM     55  N   UNL A   1      45.277  28.988  29.804  1.00  0.00    -0.354 N 
ATOM     56  N   UNL A   1      44.650  26.333  28.726  1.00  0.00    -0.248 NA
ATOM     57  C   UNL A   1      45.343  24.247  27.931  1.00  0.00     0.031 C 
ATOM     58  C   UNL A   1      47.374  29.406  30.409  1.00  0.00     0.029 A 
ATOM     59  C   UNL A   1      46.553  28.449  29.834  1.00  0.00     0.049 A 
ATOM     60  H   UNL A   1      44.479  28.530  29.455  1.00  0.00     0.167 HD
ATOM     61  C   UNL A   1      46.028  26.233  28.854  1.00  0.00     0.074 A 
ATOM     62  C   UNL A   1      46.401  24.921  28.365  1.00  0.00     0.031 C 
ATOM     63  C   UNL A   1      46.905  27.147  29.334  1.00  0.00     0.037 A 
BRANCH  50  64
ATOM     64  C   UNL A   1      44.328  32.516  30.956  1.00  0.00     0.057 A 
ATOM     65  C   UNL A   1      44.513  33.598  30.087  1.00  0.00     0.134 A 
ATOM     66  C   UNL A   1      44.310  32.781  32.330  1.00  0.00     0.134 A 
ATOM     67  F   UNL A   1      44.554  33.404  28.760  1.00  0.00    -0.206 F 
ATOM     68  C   UNL A   1      44.701  34.894  30.568  1.00  0.00     0.040 A 
ATOM     69  C   UNL A   1      44.478  34.076  32.823  1.00  0.00     0.040 A 
ATOM     70  F   UNL A   1      44.136  31.787  33.215  1.00  0.00    -0.206 F 
ATOM     71  C   UNL A   1      44.679  35.137  31.941  1.00  0.00     0.006 A 
ENDBRANCH  50  64
BRANCH  51  72
ATOM     72  C   UNL A   1      42.621  23.404  27.293  1.00  0.00     0.057 A 
ATOM     73  C   UNL A   1      42.290  22.334  28.130  1.00  0.00     0.134 A 
ATOM     74  C   UNL A   1      42.703  23.152  25.919  1.00  0.00     0.134 A 
ATOM     75  F   UNL A   1      42.216  22.513  29.457  1.00  0.00    -0.206 F 
ATOM     76  C   UNL A   1      42.054  21.055  27.622  1.00  0.00     0.040 A 
ATOM     77  C   UNL A   1      42.455  21.882  25.395  1.00  0.00     0.040 A 
ATOM     78  F   UNL A   1      43.013  24.139  25.066  1.00  0.00    -0.206 F 
ATOM     79  C   UNL A   1      42.131  20.828  26.249  1.00  0.00     0.006 A 
ENDBRANCH  51  72
BRANCH  63  80
ATOM     80  C   UNL A   1      48.350  26.755  29.358  1.00  0.00     0.057 A 
ATOM     81  C   UNL A   1      48.885  26.007  30.413  1.00  0.00     0.134 A 
ATOM     82  C   UNL A   1      49.202  27.092  28.300  1.00  0.00     0.134 A 
ATOM     83  F   UNL A   1      48.120  25.669  31.463  1.00  0.00    -0.206 F 
ATOM     84  C   UNL A   1      50.223  25.613  30.419  1.00  0.00     0.040 A 
ATOM     85  C   UNL A   1      50.538  26.690  28.287  1.00  0.00     0.040 A 
ATOM     86  F   UNL A   1      48.746  27.805  27.260  1.00  0.00    -0.206 F 
ATOM     87  C   UNL A   1      51.052  25.949  29.349  1.00  0.00     0.006 A 
ENDBRANCH  63  80
ENDBRANCH  37  38
ENDBRANCH  29  32
ENDBRANCH  27  28
ENDBRANCH  26  27
ENDBRANCH  25  26
ENDBRANCH   1  25
TORSDOF 17
ENDMDL
