MODEL 1
REMARK VINA RESULT:     -11.3      0.000      0.000
REMARK SMILES COCC[N@H+]1C[C@@H]2CN(c3nc(CO)cs3)C[C@]2(C(=O)NCCCCNC(=O)c2ccc(-c3c4nc(c(-c5c(F)cccc5F)c5ccc([nH]5)c(-c5c(F)cccc5F)c5nc(c(-c6c(F)cccc6F)c6ccc3[nH]6)C=C5)C=C4)cc2)C1
REMARK SMILES IDX 23 1 22 2 21 3 19 4 20 5 18 7 5 8 6 9 83 10 7 12 8 13 17 14
REMARK SMILES IDX 9 15 4 16 3 17 2 18 1 19 10 20 11 21 16 22 12 23 15 24 13 25
REMARK SMILES IDX 14 26 24 28 25 29 26 30 27 31 28 33 29 34 30 35 82 36 31 37
REMARK SMILES IDX 81 38 32 39 33 40 34 41 75 42 35 43 80 44 74 45 76 46 36 47
REMARK SMILES IDX 79 48 73 49 72 50 37 52 63 53 46 54 62 55 47 56 50 57 61 58
REMARK SMILES IDX 77 59 48 60 49 61 60 63 78 64 51 65 38 66 39 67 44 68 40 69
REMARK SMILES IDX 41 70 43 71 45 72 42 73 64 74 65 75 70 76 66 77 67 78 69 79
REMARK SMILES IDX 71 80 68 81 52 82 53 83 58 84 54 85 55 86 57 87 59 88 56 89
REMARK H PARENT 21 6 5 11 14 27 26 32 76 51 50 62
REMARK Flexibility Score: inf
ROOT
ATOM      1  C   UNL A   1      37.542  21.453  24.817  1.00  0.00     0.023 C 
ENDROOT
BRANCH   1   2
ATOM      2  C   UNL A   1      36.034  21.338  24.605  1.00  0.00     0.116 C 
BRANCH   2   3
ATOM      3  N   UNL A   1      35.399  21.063  25.870  1.00  0.00    -0.355 N 
ATOM      4  C   UNL A   1      34.054  21.132  26.097  1.00  0.00     0.234 C 
ATOM      5  O   UNL A   1      33.684  21.471  27.224  1.00  0.00    -0.274 OA
ATOM      6  H   UNL A   1      35.977  20.806  26.624  1.00  0.00     0.163 HD
BRANCH   4   7
ATOM      7  C   UNL A   1      33.121  20.810  24.931  1.00  0.00     0.125 C 
ATOM      8  N   UNL A   1      33.051  18.452  24.298  1.00  0.00    -0.332 N 
ATOM      9  C   UNL A   1      32.569  19.179  23.145  1.00  0.00     0.269 C 
ATOM     10  C   UNL A   1      32.929  19.314  25.484  1.00  0.00     0.281 C 
ATOM     11  H   UNL A   1      34.046  18.268  24.164  1.00  0.00     0.348 HD
ATOM     12  C   UNL A   1      32.151  20.461  23.806  1.00  0.00     0.087 C 
ATOM     13  C   UNL A   1      32.036  21.676  22.932  1.00  0.00     0.129 C 
ATOM     14  C   UNL A   1      32.183  22.091  25.283  1.00  0.00     0.142 C 
ATOM     15  N   UNL A   1      31.845  22.684  23.955  1.00  0.00    -0.346 N 
BRANCH   8  16
ATOM     16  C   UNL A   1      32.672  17.046  24.417  1.00  0.00     0.291 C 
BRANCH  16  17
ATOM     17  C   UNL A   1      33.176  16.205  25.609  1.00  0.00     0.221 C 
BRANCH  17  18
ATOM     18  O   UNL A   1      34.216  15.288  25.266  1.00  0.00    -0.379 OA
ATOM     19  C   UNL A   1      35.520  15.832  25.377  1.00  0.00     0.195 C 
ENDBRANCH  17  18
ENDBRANCH  16  17
ENDBRANCH   8  16
BRANCH  15  20
ATOM     20  C   UNL A   1      32.133  23.974  23.646  1.00  0.00     0.185 A 
ATOM     21  N   UNL A   1      31.252  24.953  23.683  1.00  0.00    -0.223 NA
ATOM     22  S   UNL A   1      33.729  24.472  23.232  1.00  0.00    -0.105 S 
ATOM     23  C   UNL A   1      31.820  26.151  23.261  1.00  0.00     0.079 A 
ATOM     24  C   UNL A   1      33.184  26.087  23.059  1.00  0.00     0.095 A 
BRANCH  23  25
ATOM     25  C   UNL A   1      30.944  27.339  23.009  1.00  0.00     0.213 C 
BRANCH  25  26
ATOM     26  O   UNL A   1      30.809  27.632  21.627  1.00  0.00    -0.390 OA
ATOM     27  H   UNL A   1      30.268  26.948  21.203  1.00  0.00     0.211 HD
ENDBRANCH  25  26
ENDBRANCH  23  25
ENDBRANCH  15  20
ENDBRANCH   4   7
ENDBRANCH   2   3
ENDBRANCH   1   2
BRANCH   1  28
ATOM     28  C   UNL A   1      38.274  20.133  25.000  1.00  0.00     0.023 C 
BRANCH  28  29
ATOM     29  C   UNL A   1      39.301  20.179  26.113  1.00  0.00     0.116 C 
BRANCH  29  30
ATOM     30  N   UNL A   1      40.288  19.104  26.018  1.00  0.00    -0.352 N 
ATOM     31  C   UNL A   1      41.655  19.207  26.022  1.00  0.00     0.251 C 
ATOM     32  H   UNL A   1      39.924  18.192  25.941  1.00  0.00     0.163 HD
ATOM     33  O   UNL A   1      42.367  18.247  25.759  1.00  0.00    -0.269 OA
BRANCH  31  34
ATOM     34  C   UNL A   1      42.229  20.521  26.341  1.00  0.00     0.039 A 
ATOM     35  C   UNL A   1      42.584  21.389  25.309  1.00  0.00     0.014 A 
ATOM     36  C   UNL A   1      42.281  20.921  27.678  1.00  0.00     0.014 A 
ATOM     37  C   UNL A   1      42.939  22.697  25.628  1.00  0.00     0.010 A 
ATOM     38  C   UNL A   1      42.508  22.251  27.976  1.00  0.00     0.010 A 
ATOM     39  C   UNL A   1      42.867  23.144  26.958  1.00  0.00    -0.014 A 
BRANCH  39  40
ATOM     40  C   UNL A   1      43.210  24.533  27.332  1.00  0.00     0.031 A 
ATOM     41  C   UNL A   1      44.650  24.963  27.306  1.00  0.00     0.074 A 
ATOM     42  C   UNL A   1      42.249  25.371  27.759  1.00  0.00     0.049 A 
ATOM     43  N   UNL A   1      45.182  26.101  27.668  1.00  0.00    -0.248 NA
ATOM     44  C   UNL A   1      45.632  23.960  26.854  1.00  0.00     0.031 C 
ATOM     45  C   UNL A   1      40.826  25.044  27.880  1.00  0.00     0.029 A 
ATOM     46  N   UNL A   1      42.327  26.675  28.175  1.00  0.00    -0.354 N 
ATOM     47  C   UNL A   1      46.551  25.941  27.503  1.00  0.00     0.074 A 
ATOM     48  C   UNL A   1      46.778  24.574  27.097  1.00  0.00     0.031 C 
ATOM     49  C   UNL A   1      40.159  26.133  28.295  1.00  0.00     0.029 A 
ATOM     50  C   UNL A   1      41.110  27.219  28.508  1.00  0.00     0.049 A 
ATOM     51  H   UNL A   1      43.173  27.174  28.228  1.00  0.00     0.167 HD
ATOM     52  C   UNL A   1      47.532  26.864  27.633  1.00  0.00     0.037 A 
ATOM     53  C   UNL A   1      40.805  28.458  28.933  1.00  0.00     0.037 A 
ATOM     54  C   UNL A   1      47.293  28.230  28.013  1.00  0.00     0.049 A 
ATOM     55  C   UNL A   1      41.912  29.464  29.089  1.00  0.00     0.074 A 
ATOM     56  C   UNL A   1      48.201  29.264  28.135  1.00  0.00     0.029 A 
ATOM     57  N   UNL A   1      46.046  28.749  28.333  1.00  0.00    -0.354 N 
ATOM     58  N   UNL A   1      43.198  29.324  28.865  1.00  0.00    -0.248 NA
ATOM     59  C   UNL A   1      41.524  30.805  29.547  1.00  0.00     0.031 C 
ATOM     60  C   UNL A   1      47.511  30.399  28.574  1.00  0.00     0.029 A 
ATOM     61  C   UNL A   1      46.163  30.086  28.670  1.00  0.00     0.049 A 
ATOM     62  H   UNL A   1      45.203  28.240  28.321  1.00  0.00     0.167 HD
ATOM     63  C   UNL A   1      43.766  30.566  29.119  1.00  0.00     0.074 A 
ATOM     64  C   UNL A   1      42.683  31.447  29.504  1.00  0.00     0.031 C 
ATOM     65  C   UNL A   1      45.066  30.945  29.038  1.00  0.00     0.037 A 
BRANCH  52  66
ATOM     66  C   UNL A   1      48.938  26.414  27.355  1.00  0.00     0.057 A 
ATOM     67  C   UNL A   1      49.784  25.955  28.375  1.00  0.00     0.134 A 
ATOM     68  C   UNL A   1      49.460  26.454  26.057  1.00  0.00     0.134 A 
ATOM     69  F   UNL A   1      49.354  25.908  29.647  1.00  0.00    -0.206 F 
ATOM     70  C   UNL A   1      51.109  25.595  28.122  1.00  0.00     0.040 A 
ATOM     71  C   UNL A   1      50.773  26.062  25.786  1.00  0.00     0.040 A 
ATOM     72  F   UNL A   1      48.708  26.880  25.031  1.00  0.00    -0.206 F 
ATOM     73  C   UNL A   1      51.605  25.643  26.822  1.00  0.00     0.006 A 
ENDBRANCH  52  66
BRANCH  53  74
ATOM     74  C   UNL A   1      39.391  28.832  29.188  1.00  0.00     0.057 A 
ATOM     75  C   UNL A   1      38.600  29.380  28.170  1.00  0.00     0.134 A 
ATOM     76  C   UNL A   1      38.796  28.655  30.441  1.00  0.00     0.134 A 
ATOM     77  F   UNL A   1      39.118  29.587  26.951  1.00  0.00    -0.206 F 
ATOM     78  C   UNL A   1      37.275  29.758  28.394  1.00  0.00     0.040 A 
ATOM     79  C   UNL A   1      37.463  29.004  30.674  1.00  0.00     0.040 A 
ATOM     80  F   UNL A   1      39.494  28.124  31.455  1.00  0.00    -0.206 F 
ATOM     81  C   UNL A   1      36.702  29.565  29.650  1.00  0.00     0.006 A 
ENDBRANCH  53  74
BRANCH  65  82
ATOM     82  C   UNL A   1      45.377  32.386  29.321  1.00  0.00     0.057 A 
ATOM     83  C   UNL A   1      45.346  33.365  28.320  1.00  0.00     0.134 A 
ATOM     84  C   UNL A   1      45.673  32.802  30.626  1.00  0.00     0.134 A 
ATOM     85  F   UNL A   1      45.080  33.029  27.049  1.00  0.00    -0.206 F 
ATOM     86  C   UNL A   1      45.626  34.703  28.602  1.00  0.00     0.040 A 
ATOM     87  C   UNL A   1      45.923  34.141  30.926  1.00  0.00     0.040 A 
ATOM     88  F   UNL A   1      45.708  31.916  31.633  1.00  0.00    -0.206 F 
ATOM     89  C   UNL A   1      45.906  35.095  29.910  1.00  0.00     0.006 A 
ENDBRANCH  65  82
ENDBRANCH  39  40
ENDBRANCH  31  34
ENDBRANCH  29  30
ENDBRANCH  28  29
ENDBRANCH   1  28
TORSDOF 17
ENDMDL
MODEL 2
REMARK VINA RESULT:     -11.3      1.785      6.342
REMARK SMILES COCC[N@H+]1C[C@@H]2CN(c3nc(CO)cs3)C[C@]2(C(=O)NCCCCNC(=O)c2ccc(-c3c4nc(c(-c5c(F)cccc5F)c5ccc([nH]5)c(-c5c(F)cccc5F)c5nc(c(-c6c(F)cccc6F)c6ccc3[nH]6)C=C5)C=C4)cc2)C1
REMARK SMILES IDX 23 1 22 2 21 3 19 4 20 5 18 7 5 8 6 9 83 10 7 12 8 13 17 14
REMARK SMILES IDX 9 15 4 16 3 17 2 18 1 19 10 20 11 21 16 22 12 23 15 24 13 25
REMARK SMILES IDX 14 26 24 28 25 29 26 30 27 31 28 33 29 34 30 35 82 36 31 37
REMARK SMILES IDX 81 38 32 39 33 40 34 41 75 42 35 43 80 44 74 45 76 46 36 47
REMARK SMILES IDX 79 48 73 49 72 50 37 52 63 53 46 54 62 55 47 56 50 57 61 58
REMARK SMILES IDX 77 59 48 60 49 61 60 63 78 64 51 65 38 66 39 67 44 68 40 69
REMARK SMILES IDX 41 70 43 71 45 72 42 73 64 74 65 75 70 76 66 77 67 78 69 79
REMARK SMILES IDX 71 80 68 81 52 82 53 83 58 84 54 85 55 86 57 87 59 88 56 89
REMARK H PARENT 21 6 5 11 14 27 26 32 76 51 50 62
REMARK Flexibility Score: inf
ROOT
ATOM      1  C   UNL A   1      36.920  22.006  24.411  1.00  0.00     0.023 C 
ENDROOT
BRANCH   1   2
ATOM      2  C   UNL A   1      36.049  22.819  25.367  1.00  0.00     0.116 C 
BRANCH   2   3
ATOM      3  N   UNL A   1      35.611  21.968  26.445  1.00  0.00    -0.355 N 
ATOM      4  C   UNL A   1      34.310  21.792  26.818  1.00  0.00     0.234 C 
ATOM      5  O   UNL A   1      34.083  21.580  28.012  1.00  0.00    -0.274 OA
ATOM      6  H   UNL A   1      36.301  21.479  26.949  1.00  0.00     0.163 HD
BRANCH   4   7
ATOM      7  C   UNL A   1      33.241  21.897  25.731  1.00  0.00     0.125 C 
ATOM      8  N   UNL A   1      32.967  19.890  24.367  1.00  0.00    -0.332 N 
ATOM      9  C   UNL A   1      32.409  20.971  23.586  1.00  0.00     0.269 C 
ATOM     10  C   UNL A   1      33.021  20.307  25.777  1.00  0.00     0.281 C 
ATOM     11  H   UNL A   1      33.929  19.741  24.062  1.00  0.00     0.348 HD
ATOM     12  C   UNL A   1      32.139  21.965  24.679  1.00  0.00     0.087 C 
ATOM     13  C   UNL A   1      32.004  23.405  24.275  1.00  0.00     0.129 C 
ATOM     14  C   UNL A   1      32.423  23.005  26.596  1.00  0.00     0.142 C 
ATOM     15  N   UNL A   1      31.981  24.015  25.589  1.00  0.00    -0.346 N 
BRANCH   8  16
ATOM     16  C   UNL A   1      32.521  18.533  24.060  1.00  0.00     0.291 C 
BRANCH  16  17
ATOM     17  C   UNL A   1      32.572  18.009  22.609  1.00  0.00     0.221 C 
BRANCH  17  18
ATOM     18  O   UNL A   1      33.636  17.088  22.369  1.00  0.00    -0.379 OA
ATOM     19  C   UNL A   1      34.127  16.458  23.540  1.00  0.00     0.195 C 
ENDBRANCH  17  18
ENDBRANCH  16  17
ENDBRANCH   8  16
BRANCH  15  20
ATOM     20  C   UNL A   1      32.309  25.328  25.692  1.00  0.00     0.185 A 
ATOM     21  N   UNL A   1      31.858  26.128  26.636  1.00  0.00    -0.223 NA
ATOM     22  S   UNL A   1      33.425  26.070  24.608  1.00  0.00    -0.105 S 
ATOM     23  C   UNL A   1      32.320  27.427  26.452  1.00  0.00     0.079 A 
ATOM     24  C   UNL A   1      33.254  27.556  25.444  1.00  0.00     0.095 A 
BRANCH  23  25
ATOM     25  C   UNL A   1      31.750  28.540  27.276  1.00  0.00     0.213 C 
BRANCH  25  26
ATOM     26  O   UNL A   1      31.079  28.071  28.437  1.00  0.00    -0.390 OA
ATOM     27  H   UNL A   1      31.364  28.589  29.206  1.00  0.00     0.211 HD
ENDBRANCH  25  26
ENDBRANCH  23  25
ENDBRANCH  15  20
ENDBRANCH   4   7
ENDBRANCH   2   3
ENDBRANCH   1   2
BRANCH   1  28
ATOM     28  C   UNL A   1      37.541  20.752  25.006  1.00  0.00     0.023 C 
BRANCH  28  29
ATOM     29  C   UNL A   1      38.864  21.021  25.693  1.00  0.00     0.116 C 
BRANCH  29  30
ATOM     30  N   UNL A   1      39.727  19.841  25.742  1.00  0.00    -0.352 N 
ATOM     31  C   UNL A   1      41.064  19.782  26.041  1.00  0.00     0.251 C 
ATOM     32  H   UNL A   1      39.294  18.982  25.532  1.00  0.00     0.163 HD
ATOM     33  O   UNL A   1      41.709  18.755  25.875  1.00  0.00    -0.269 OA
BRANCH  31  34
ATOM     34  C   UNL A   1      41.692  21.006  26.556  1.00  0.00     0.039 A 
ATOM     35  C   UNL A   1      42.175  21.963  25.666  1.00  0.00     0.014 A 
ATOM     36  C   UNL A   1      41.669  21.240  27.934  1.00  0.00     0.014 A 
ATOM     37  C   UNL A   1      42.585  23.196  26.165  1.00  0.00     0.010 A 
ATOM     38  C   UNL A   1      41.955  22.506  28.407  1.00  0.00     0.010 A 
ATOM     39  C   UNL A   1      42.442  23.486  27.533  1.00  0.00    -0.014 A 
BRANCH  39  40
ATOM     40  C   UNL A   1      42.841  24.794  28.097  1.00  0.00     0.031 A 
ATOM     41  C   UNL A   1      41.791  25.846  28.317  1.00  0.00     0.074 A 
ATOM     42  C   UNL A   1      44.139  25.055  28.336  1.00  0.00     0.049 A 
ATOM     43  N   UNL A   1      41.927  27.081  28.725  1.00  0.00    -0.248 NA
ATOM     44  C   UNL A   1      40.402  25.473  27.993  1.00  0.00     0.031 C 
ATOM     45  C   UNL A   1      45.250  24.130  28.104  1.00  0.00     0.029 A 
ATOM     46  N   UNL A   1      44.742  26.183  28.826  1.00  0.00    -0.354 N 
ATOM     47  C   UNL A   1      40.652  27.628  28.688  1.00  0.00     0.074 A 
ATOM     48  C   UNL A   1      39.771  26.627  28.135  1.00  0.00     0.031 C 
ATOM     49  C   UNL A   1      46.395  24.712  28.496  1.00  0.00     0.029 A 
ATOM     50  C   UNL A   1      46.103  26.062  28.966  1.00  0.00     0.049 A 
ATOM     51  H   UNL A   1      44.248  27.002  29.057  1.00  0.00     0.167 HD
ATOM     52  C   UNL A   1      40.241  28.843  29.118  1.00  0.00     0.037 A 
ATOM     53  C   UNL A   1      47.007  26.945  29.428  1.00  0.00     0.037 A 
ATOM     54  C   UNL A   1      41.122  29.824  29.691  1.00  0.00     0.049 A 
ATOM     55  C   UNL A   1      46.531  28.297  29.885  1.00  0.00     0.074 A 
ATOM     56  C   UNL A   1      40.812  31.070  30.201  1.00  0.00     0.029 A 
ATOM     57  N   UNL A   1      42.494  29.662  29.827  1.00  0.00    -0.354 N 
ATOM     58  N   UNL A   1      45.312  28.783  29.910  1.00  0.00    -0.248 NA
ATOM     59  C   UNL A   1      47.557  29.221  30.388  1.00  0.00     0.031 C 
ATOM     60  C   UNL A   1      42.003  31.682  30.604  1.00  0.00     0.029 A 
ATOM     61  C   UNL A   1      43.048  30.794  30.398  1.00  0.00     0.049 A 
ATOM     62  H   UNL A   1      42.997  28.860  29.557  1.00  0.00     0.167 HD
ATOM     63  C   UNL A   1      45.420  30.052  30.464  1.00  0.00     0.074 A 
ATOM     64  C   UNL A   1      46.821  30.254  30.769  1.00  0.00     0.031 C 
ATOM     65  C   UNL A   1      44.446  30.966  30.703  1.00  0.00     0.037 A 
BRANCH  52  66
ATOM     66  C   UNL A   1      38.778  29.158  28.985  1.00  0.00     0.057 A 
ATOM     67  C   UNL A   1      37.895  29.048  30.068  1.00  0.00     0.134 A 
ATOM     68  C   UNL A   1      38.240  29.560  27.756  1.00  0.00     0.134 A 
ATOM     69  F   UNL A   1      38.340  28.649  31.271  1.00  0.00    -0.206 F 
ATOM     70  C   UNL A   1      36.526  29.283  29.926  1.00  0.00     0.040 A 
ATOM     71  C   UNL A   1      36.878  29.832  27.610  1.00  0.00     0.040 A 
ATOM     72  F   UNL A   1      39.025  29.689  26.676  1.00  0.00    -0.206 F 
ATOM     73  C   UNL A   1      36.015  29.682  28.694  1.00  0.00     0.006 A 
ENDBRANCH  52  66
BRANCH  53  74
ATOM     74  C   UNL A   1      48.438  26.563  29.531  1.00  0.00     0.057 A 
ATOM     75  C   UNL A   1      49.341  26.885  28.510  1.00  0.00     0.134 A 
ATOM     76  C   UNL A   1      48.939  25.873  30.640  1.00  0.00     0.134 A 
ATOM     77  F   UNL A   1      48.918  27.534  27.416  1.00  0.00    -0.206 F 
ATOM     78  C   UNL A   1      50.685  26.516  28.578  1.00  0.00     0.040 A 
ATOM     79  C   UNL A   1      50.287  25.519  30.733  1.00  0.00     0.040 A 
ATOM     80  F   UNL A   1      48.129  25.544  31.657  1.00  0.00    -0.206 F 
ATOM     81  C   UNL A   1      51.163  25.834  29.696  1.00  0.00     0.006 A 
ENDBRANCH  53  74
BRANCH  65  82
ATOM     82  C   UNL A   1      44.858  32.245  31.371  1.00  0.00     0.057 A 
ATOM     83  C   UNL A   1      44.895  32.379  32.765  1.00  0.00     0.134 A 
ATOM     84  C   UNL A   1      45.264  33.345  30.604  1.00  0.00     0.134 A 
ATOM     85  F   UNL A   1      44.508  31.366  33.555  1.00  0.00    -0.206 F 
ATOM     86  C   UNL A   1      45.293  33.571  33.371  1.00  0.00     0.040 A 
ATOM     87  C   UNL A   1      45.695  34.531  31.199  1.00  0.00     0.040 A 
ATOM     88  F   UNL A   1      45.264  33.279  29.264  1.00  0.00    -0.206 F 
ATOM     89  C   UNL A   1      45.702  34.648  32.587  1.00  0.00     0.006 A 
ENDBRANCH  65  82
ENDBRANCH  39  40
ENDBRANCH  31  34
ENDBRANCH  29  30
ENDBRANCH  28  29
ENDBRANCH   1  28
TORSDOF 17
ENDMDL
MODEL 3
REMARK VINA RESULT:     -11.3      1.122      1.976
REMARK SMILES COCC[N@H+]1C[C@@H]2CN(c3nc(CO)cs3)C[C@]2(C(=O)NCCCCNC(=O)c2ccc(-c3c4nc(c(-c5c(F)cccc5F)c5ccc([nH]5)c(-c5c(F)cccc5F)c5nc(c(-c6c(F)cccc6F)c6ccc3[nH]6)C=C5)C=C4)cc2)C1
REMARK SMILES IDX 23 1 22 2 21 3 19 4 20 5 18 7 5 8 6 9 83 10 7 12 8 13 17 14
REMARK SMILES IDX 9 15 4 16 3 17 2 18 1 19 10 20 11 21 16 22 12 23 15 24 13 25
REMARK SMILES IDX 14 26 24 28 25 29 26 30 27 31 28 33 29 34 30 35 82 36 31 37
REMARK SMILES IDX 81 38 32 39 33 40 34 41 75 42 35 43 80 44 74 45 76 46 36 47
REMARK SMILES IDX 79 48 73 49 72 50 37 52 63 53 46 54 62 55 47 56 50 57 61 58
REMARK SMILES IDX 77 59 48 60 49 61 60 63 78 64 51 65 38 66 39 67 44 68 40 69
REMARK SMILES IDX 41 70 43 71 45 72 42 73 64 74 65 75 70 76 66 77 67 78 69 79
REMARK SMILES IDX 71 80 68 81 52 82 53 83 58 84 54 85 55 86 57 87 59 88 56 89
REMARK H PARENT 21 6 5 11 14 27 26 32 76 51 50 62
REMARK Flexibility Score: inf
ROOT
ATOM      1  C   UNL A   1      37.498  21.478  24.839  1.00  0.00     0.023 C 
ENDROOT
BRANCH   1   2
ATOM      2  C   UNL A   1      35.979  21.335  24.746  1.00  0.00     0.116 C 
BRANCH   2   3
ATOM      3  N   UNL A   1      35.443  21.133  26.069  1.00  0.00    -0.355 N 
ATOM      4  C   UNL A   1      34.192  21.507  26.467  1.00  0.00     0.234 C 
ATOM      5  O   UNL A   1      34.046  21.845  27.645  1.00  0.00    -0.274 OA
ATOM      6  H   UNL A   1      36.021  20.693  26.733  1.00  0.00     0.163 HD
BRANCH   4   7
ATOM      7  C   UNL A   1      33.082  21.500  25.417  1.00  0.00     0.125 C 
ATOM      8  N   UNL A   1      32.894  19.427  24.140  1.00  0.00    -0.332 N 
ATOM      9  C   UNL A   1      32.240  20.438  23.340  1.00  0.00     0.269 C 
ATOM     10  C   UNL A   1      32.969  19.902  25.531  1.00  0.00     0.281 C 
ATOM     11  H   UNL A   1      33.853  19.329  23.806  1.00  0.00     0.348 HD
ATOM     12  C   UNL A   1      31.943  21.455  24.404  1.00  0.00     0.087 C 
ATOM     13  C   UNL A   1      31.700  22.866  23.952  1.00  0.00     0.129 C 
ATOM     14  C   UNL A   1      32.223  22.586  26.270  1.00  0.00     0.142 C 
ATOM     15  N   UNL A   1      31.682  23.525  25.242  1.00  0.00    -0.346 N 
BRANCH   8  16
ATOM     16  C   UNL A   1      32.528  18.033  23.900  1.00  0.00     0.291 C 
BRANCH  16  17
ATOM     17  C   UNL A   1      33.594  17.020  23.430  1.00  0.00     0.221 C 
BRANCH  17  18
ATOM     18  O   UNL A   1      33.638  15.828  24.213  1.00  0.00    -0.379 OA
ATOM     19  C   UNL A   1      32.958  15.929  25.453  1.00  0.00     0.195 C 
ENDBRANCH  17  18
ENDBRANCH  16  17
ENDBRANCH   8  16
BRANCH  15  20
ATOM     20  C   UNL A   1      31.927  24.859  25.284  1.00  0.00     0.185 A 
ATOM     21  N   UNL A   1      32.083  25.545  26.399  1.00  0.00    -0.223 NA
ATOM     22  S   UNL A   1      32.125  25.790  23.847  1.00  0.00    -0.105 S 
ATOM     23  C   UNL A   1      32.264  26.898  26.131  1.00  0.00     0.079 A 
ATOM     24  C   UNL A   1      32.399  27.194  24.789  1.00  0.00     0.095 A 
BRANCH  23  25
ATOM     25  C   UNL A   1      32.235  27.887  27.255  1.00  0.00     0.213 C 
BRANCH  25  26
ATOM     26  O   UNL A   1      31.028  27.828  28.001  1.00  0.00    -0.390 OA
ATOM     27  H   UNL A   1      31.234  27.811  28.949  1.00  0.00     0.211 HD
ENDBRANCH  25  26
ENDBRANCH  23  25
ENDBRANCH  15  20
ENDBRANCH   4   7
ENDBRANCH   2   3
ENDBRANCH   1   2
BRANCH   1  28
ATOM     28  C   UNL A   1      38.263  20.174  25.001  1.00  0.00     0.023 C 
BRANCH  28  29
ATOM     29  C   UNL A   1      39.276  20.224  26.126  1.00  0.00     0.116 C 
BRANCH  29  30
ATOM     30  N   UNL A   1      40.267  19.151  26.044  1.00  0.00    -0.352 N 
ATOM     31  C   UNL A   1      41.634  19.258  26.051  1.00  0.00     0.251 C 
ATOM     32  H   UNL A   1      39.906  18.237  25.972  1.00  0.00     0.163 HD
ATOM     33  O   UNL A   1      42.350  18.299  25.799  1.00  0.00    -0.269 OA
BRANCH  31  34
ATOM     34  C   UNL A   1      42.203  20.577  26.361  1.00  0.00     0.039 A 
ATOM     35  C   UNL A   1      42.513  21.457  25.326  1.00  0.00     0.014 A 
ATOM     36  C   UNL A   1      42.294  20.968  27.700  1.00  0.00     0.014 A 
ATOM     37  C   UNL A   1      42.863  22.767  25.642  1.00  0.00     0.010 A 
ATOM     38  C   UNL A   1      42.515  22.298  28.001  1.00  0.00     0.010 A 
ATOM     39  C   UNL A   1      42.829  23.203  26.978  1.00  0.00    -0.014 A 
BRANCH  39  40
ATOM     40  C   UNL A   1      43.168  24.593  27.352  1.00  0.00     0.031 A 
ATOM     41  C   UNL A   1      44.604  25.034  27.305  1.00  0.00     0.074 A 
ATOM     42  C   UNL A   1      42.207  25.423  27.797  1.00  0.00     0.049 A 
ATOM     43  N   UNL A   1      45.133  26.175  27.662  1.00  0.00    -0.248 NA
ATOM     44  C   UNL A   1      45.586  24.040  26.834  1.00  0.00     0.031 C 
ATOM     45  C   UNL A   1      40.789  25.084  27.939  1.00  0.00     0.029 A 
ATOM     46  N   UNL A   1      42.282  26.725  28.216  1.00  0.00    -0.354 N 
ATOM     47  C   UNL A   1      46.501  26.026  27.475  1.00  0.00     0.074 A 
ATOM     48  C   UNL A   1      46.731  24.662  27.061  1.00  0.00     0.031 C 
ATOM     49  C   UNL A   1      40.121  26.167  28.368  1.00  0.00     0.029 A 
ATOM     50  C   UNL A   1      41.067  27.259  28.571  1.00  0.00     0.049 A 
ATOM     51  H   UNL A   1      43.125  27.230  28.258  1.00  0.00     0.167 HD
ATOM     52  C   UNL A   1      47.476  26.955  27.594  1.00  0.00     0.037 A 
ATOM     53  C   UNL A   1      40.759  28.495  29.004  1.00  0.00     0.037 A 
ATOM     54  C   UNL A   1      47.233  28.318  27.982  1.00  0.00     0.049 A 
ATOM     55  C   UNL A   1      41.861  29.508  29.146  1.00  0.00     0.074 A 
ATOM     56  C   UNL A   1      48.135  29.358  28.093  1.00  0.00     0.029 A 
ATOM     57  N   UNL A   1      45.987  28.826  28.323  1.00  0.00    -0.354 N 
ATOM     58  N   UNL A   1      43.144  29.379  28.902  1.00  0.00    -0.248 NA
ATOM     59  C   UNL A   1      41.471  30.845  29.616  1.00  0.00     0.031 C 
ATOM     60  C   UNL A   1      47.444  30.486  28.547  1.00  0.00     0.029 A 
ATOM     61  C   UNL A   1      46.100  30.163  28.663  1.00  0.00     0.049 A 
ATOM     62  H   UNL A   1      45.148  28.312  28.323  1.00  0.00     0.167 HD
ATOM     63  C   UNL A   1      43.707  30.624  29.151  1.00  0.00     0.074 A 
ATOM     64  C   UNL A   1      42.623  31.496  29.556  1.00  0.00     0.031 C 
ATOM     65  C   UNL A   1      45.003  31.013  29.051  1.00  0.00     0.037 A 
BRANCH  52  66
ATOM     66  C   UNL A   1      48.881  26.516  27.292  1.00  0.00     0.057 A 
ATOM     67  C   UNL A   1      49.413  26.576  25.996  1.00  0.00     0.134 A 
ATOM     68  C   UNL A   1      49.708  26.012  28.304  1.00  0.00     0.134 A 
ATOM     69  F   UNL A   1      48.670  27.031  24.975  1.00  0.00    -0.206 F 
ATOM     70  C   UNL A   1      50.698  26.111  25.709  1.00  0.00     0.040 A 
ATOM     71  C   UNL A   1      51.007  25.577  28.035  1.00  0.00     0.040 A 
ATOM     72  F   UNL A   1      49.266  25.928  29.568  1.00  0.00    -0.206 F 
ATOM     73  C   UNL A   1      51.501  25.614  26.733  1.00  0.00     0.006 A 
ENDBRANCH  52  66
BRANCH  53  74
ATOM     74  C   UNL A   1      39.347  28.857  29.283  1.00  0.00     0.057 A 
ATOM     75  C   UNL A   1      38.790  28.647  30.550  1.00  0.00     0.134 A 
ATOM     76  C   UNL A   1      38.521  29.417  28.302  1.00  0.00     0.134 A 
ATOM     77  F   UNL A   1      39.527  28.100  31.529  1.00  0.00    -0.206 F 
ATOM     78  C   UNL A   1      37.458  28.960  30.828  1.00  0.00     0.040 A 
ATOM     79  C   UNL A   1      37.194  29.760  28.571  1.00  0.00     0.040 A 
ATOM     80  F   UNL A   1      38.996  29.655  27.071  1.00  0.00    -0.206 F 
ATOM     81  C   UNL A   1      36.657  29.524  29.835  1.00  0.00     0.006 A 
ENDBRANCH  53  74
BRANCH  65  82
ATOM     82  C   UNL A   1      45.308  32.455  29.334  1.00  0.00     0.057 A 
ATOM     83  C   UNL A   1      45.717  32.895  30.599  1.00  0.00     0.134 A 
ATOM     84  C   UNL A   1      45.229  33.408  28.310  1.00  0.00     0.134 A 
ATOM     85  F   UNL A   1      45.802  32.034  31.624  1.00  0.00    -0.206 F 
ATOM     86  C   UNL A   1      46.009  34.238  30.843  1.00  0.00     0.040 A 
ATOM     87  C   UNL A   1      45.549  34.748  28.534  1.00  0.00     0.040 A 
ATOM     88  F   UNL A   1      44.854  33.050  27.072  1.00  0.00    -0.206 F 
ATOM     89  C   UNL A   1      45.934  35.166  29.806  1.00  0.00     0.006 A 
ENDBRANCH  65  82
ENDBRANCH  39  40
ENDBRANCH  31  34
ENDBRANCH  29  30
ENDBRANCH  28  29
ENDBRANCH   1  28
TORSDOF 17
ENDMDL
