MODEL 1
REMARK VINA RESULT:     -12.2      0.000      0.000
REMARK SMILES O=C(NCCCCNC(=O)[C@H]1C[C@](O)(c2ccc(F)cc2)[C@@H](c2ccc(F)cc2)O1)c1ccc(-c2c3nc(c(-c4c(F)cccc4F)c4ccc([nH]4)c(-c4c(F)cccc4F)c4nc(c(-c5c(F)cccc5F)c5ccc2[nH]5)C=C4)C=C3)cc1
REMARK SMILES IDX 5 1 4 2 3 3 1 4 2 5 31 7 32 8 84 9 33 10 83 11 34 12 35 13
REMARK SMILES IDX 36 14 77 15 37 16 82 17 76 18 78 19 38 20 81 21 75 22 74 23
REMARK SMILES IDX 39 25 65 26 48 27 64 28 49 29 52 30 63 31 79 32 50 33 51 34
REMARK SMILES IDX 62 36 80 37 53 38 40 39 41 40 46 41 42 42 43 43 45 44 47 45
REMARK SMILES IDX 44 46 66 47 67 48 72 49 68 50 69 51 71 52 73 53 70 54 54 55
REMARK SMILES IDX 55 56 60 57 56 58 57 59 59 60 61 61 58 62 6 63 7 64 8 65
REMARK SMILES IDX 9 66 10 68 11 69 12 70 30 71 13 72 22 73 15 74 16 75 21 76
REMARK SMILES IDX 17 77 20 78 18 79 19 80 14 81 23 83 24 84 29 85 25 86 28 87
REMARK SMILES IDX 26 88 27 89
REMARK H PARENT 3 6 78 24 52 35 8 67 14 82
REMARK Flexibility Score: inf
ROOT
ATOM      1  C   UNL A   1      38.896  21.274  25.373  1.00  0.00     0.023 C 
ENDROOT
BRANCH   1   2
ATOM      2  C   UNL A   1      39.000  20.016  26.225  1.00  0.00     0.116 C 
BRANCH   2   3
ATOM      3  N   UNL A   1      40.198  19.248  25.923  1.00  0.00    -0.352 N 
ATOM      4  O   UNL A   1      42.378  18.924  25.451  1.00  0.00    -0.269 OA
ATOM      5  C   UNL A   1      41.510  19.652  25.928  1.00  0.00     0.251 C 
ATOM      6  H   UNL A   1      40.046  18.306  25.680  1.00  0.00     0.163 HD
BRANCH   5   7
ATOM      7  C   UNL A   1      41.881  20.964  26.497  1.00  0.00     0.039 A 
ATOM      8  C   UNL A   1      42.296  22.009  25.668  1.00  0.00     0.014 A 
ATOM      9  C   UNL A   1      41.773  21.163  27.878  1.00  0.00     0.014 A 
ATOM     10  C   UNL A   1      42.703  23.217  26.225  1.00  0.00     0.010 A 
ATOM     11  C   UNL A   1      42.113  22.402  28.429  1.00  0.00     0.010 A 
ATOM     12  C   UNL A   1      42.591  23.434  27.608  1.00  0.00    -0.014 A 
BRANCH  12  13
ATOM     13  C   UNL A   1      42.875  24.781  28.162  1.00  0.00     0.031 A 
ATOM     14  C   UNL A   1      41.782  25.788  28.369  1.00  0.00     0.074 A 
ATOM     15  C   UNL A   1      44.150  25.087  28.474  1.00  0.00     0.049 A 
ATOM     16  N   UNL A   1      41.873  27.017  28.808  1.00  0.00    -0.248 NA
ATOM     17  C   UNL A   1      40.410  25.369  28.037  1.00  0.00     0.031 C 
ATOM     18  C   UNL A   1      45.295  24.190  28.303  1.00  0.00     0.029 A 
ATOM     19  N   UNL A   1      44.699  26.229  28.998  1.00  0.00    -0.354 N 
ATOM     20  C   UNL A   1      40.581  27.524  28.793  1.00  0.00     0.074 A 
ATOM     21  C   UNL A   1      39.721  26.476  28.285  1.00  0.00     0.031 C 
ATOM     22  C   UNL A   1      46.405  24.803  28.738  1.00  0.00     0.029 A 
ATOM     23  C   UNL A   1      46.061  26.158  29.157  1.00  0.00     0.049 A 
ATOM     24  H   UNL A   1      44.169  27.024  29.237  1.00  0.00     0.167 HD
ATOM     25  C   UNL A   1      40.157  28.751  29.177  1.00  0.00     0.037 A 
ATOM     26  C   UNL A   1      46.947  27.086  29.564  1.00  0.00     0.037 A 
ATOM     27  C   UNL A   1      41.018  29.779  29.705  1.00  0.00     0.049 A 
ATOM     28  C   UNL A   1      46.452  28.449  29.945  1.00  0.00     0.074 A 
ATOM     29  C   UNL A   1      40.667  31.030  30.180  1.00  0.00     0.029 A 
ATOM     30  N   UNL A   1      42.396  29.678  29.819  1.00  0.00    -0.354 N 
ATOM     31  N   UNL A   1      45.221  28.899  29.967  1.00  0.00    -0.248 NA
ATOM     32  C   UNL A   1      47.463  29.437  30.348  1.00  0.00     0.031 C 
ATOM     33  C   UNL A   1      41.836  31.708  30.534  1.00  0.00     0.029 A 
ATOM     34  C   UNL A   1      42.913  30.861  30.324  1.00  0.00     0.049 A 
ATOM     35  H   UNL A   1      42.928  28.885  29.578  1.00  0.00     0.167 HD
ATOM     36  C   UNL A   1      45.307  30.218  30.389  1.00  0.00     0.074 A 
ATOM     37  C   UNL A   1      46.708  30.491  30.633  1.00  0.00     0.031 C 
ATOM     38  C   UNL A   1      44.310  31.120  30.555  1.00  0.00     0.037 A 
BRANCH  25  39
ATOM     39  C   UNL A   1      38.699  29.076  29.045  1.00  0.00     0.057 A 
ATOM     40  C   UNL A   1      38.185  29.555  27.832  1.00  0.00     0.134 A 
ATOM     41  C   UNL A   1      37.832  29.032  30.143  1.00  0.00     0.134 A 
ATOM     42  F   UNL A   1      38.967  29.632  26.745  1.00  0.00    -0.206 F 
ATOM     43  C   UNL A   1      36.866  29.998  27.723  1.00  0.00     0.040 A 
ATOM     44  C   UNL A   1      36.505  29.455  30.041  1.00  0.00     0.040 A 
ATOM     45  F   UNL A   1      38.261  28.579  31.330  1.00  0.00    -0.206 F 
ATOM     46  C   UNL A   1      36.022  29.951  28.830  1.00  0.00     0.006 A 
ENDBRANCH  25  39
BRANCH  26  47
ATOM     47  C   UNL A   1      48.391  26.750  29.601  1.00  0.00     0.057 A 
ATOM     48  C   UNL A   1      48.967  26.143  30.724  1.00  0.00     0.134 A 
ATOM     49  C   UNL A   1      49.237  27.069  28.535  1.00  0.00     0.134 A 
ATOM     50  F   UNL A   1      48.209  25.821  31.783  1.00  0.00    -0.206 F 
ATOM     51  C   UNL A   1      50.336  25.887  30.797  1.00  0.00     0.040 A 
ATOM     52  C   UNL A   1      50.605  26.795  28.583  1.00  0.00     0.040 A 
ATOM     53  F   UNL A   1      48.742  27.638  27.426  1.00  0.00    -0.206 F 
ATOM     54  C   UNL A   1      51.159  26.211  29.721  1.00  0.00     0.006 A 
ENDBRANCH  26  47
BRANCH  38  55
ATOM     55  C   UNL A   1      44.689  32.493  31.021  1.00  0.00     0.057 A 
ATOM     56  C   UNL A   1      44.744  32.796  32.386  1.00  0.00     0.134 A 
ATOM     57  C   UNL A   1      44.909  33.535  30.114  1.00  0.00     0.134 A 
ATOM     58  F   UNL A   1      44.533  31.841  33.305  1.00  0.00    -0.206 F 
ATOM     59  C   UNL A   1      44.983  34.095  32.834  1.00  0.00     0.040 A 
ATOM     60  C   UNL A   1      45.173  34.835  30.549  1.00  0.00     0.040 A 
ATOM     61  F   UNL A   1      44.882  33.305  28.791  1.00  0.00    -0.206 F 
ATOM     62  C   UNL A   1      45.198  35.119  31.914  1.00  0.00     0.006 A 
ENDBRANCH  38  55
ENDBRANCH  12  13
ENDBRANCH   5   7
ENDBRANCH   2   3
ENDBRANCH   1   2
BRANCH   1  63
ATOM     63  C   UNL A   1      38.439  22.531  26.123  1.00  0.00     0.023 C 
BRANCH  63  64
ATOM     64  C   UNL A   1      37.645  23.535  25.287  1.00  0.00     0.116 C 
BRANCH  64  65
ATOM     65  N   UNL A   1      36.414  23.913  25.949  1.00  0.00    -0.354 N 
ATOM     66  C   UNL A   1      35.241  23.237  26.084  1.00  0.00     0.249 C 
ATOM     67  H   UNL A   1      36.429  24.803  26.370  1.00  0.00     0.163 HD
ATOM     68  O   UNL A   1      34.284  23.891  26.503  1.00  0.00    -0.272 OA
BRANCH  66  69
ATOM     69  C   UNL A   1      35.139  21.737  25.719  1.00  0.00     0.211 C 
ATOM     70  C   UNL A   1      33.946  21.024  26.355  1.00  0.00     0.085 C 
ATOM     71  O   UNL A   1      35.018  21.579  24.296  1.00  0.00    -0.357 OA
ATOM     72  C   UNL A   1      33.141  20.429  25.198  1.00  0.00     0.123 C 
ATOM     73  C   UNL A   1      33.650  21.251  23.983  1.00  0.00     0.186 C 
BRANCH  72  74
ATOM     74  C   UNL A   1      33.332  18.900  25.127  1.00  0.00    -0.013 A 
ATOM     75  C   UNL A   1      32.489  18.057  25.887  1.00  0.00     0.010 A 
ATOM     76  C   UNL A   1      34.293  18.273  24.310  1.00  0.00     0.010 A 
ATOM     77  C   UNL A   1      32.566  16.664  25.793  1.00  0.00     0.039 A 
ATOM     78  C   UNL A   1      34.364  16.878  24.208  1.00  0.00     0.039 A 
ATOM     79  C   UNL A   1      33.495  16.088  24.943  1.00  0.00     0.123 A 
ATOM     80  F   UNL A   1      33.556  14.755  24.833  1.00  0.00    -0.207 F 
ENDBRANCH  72  74
BRANCH  72  81
ATOM     81  O   UNL A   1      31.738  20.647  25.395  1.00  0.00    -0.382 OA
ATOM     82  H   UNL A   1      31.260  19.813  25.263  1.00  0.00     0.212 HD
ENDBRANCH  72  81
BRANCH  73  83
ATOM     83  C   UNL A   1      32.891  22.508  23.555  1.00  0.00    -0.016 A 
ATOM     84  C   UNL A   1      31.564  22.778  23.924  1.00  0.00     0.009 A 
ATOM     85  C   UNL A   1      33.560  23.460  22.760  1.00  0.00     0.009 A 
ATOM     86  C   UNL A   1      30.933  23.963  23.533  1.00  0.00     0.039 A 
ATOM     87  C   UNL A   1      32.923  24.633  22.349  1.00  0.00     0.039 A 
ATOM     88  C   UNL A   1      31.617  24.876  22.746  1.00  0.00     0.123 A 
ATOM     89  F   UNL A   1      31.007  26.006  22.364  1.00  0.00    -0.207 F 
ENDBRANCH  73  83
ENDBRANCH  66  69
ENDBRANCH  64  65
ENDBRANCH  63  64
ENDBRANCH   1  63
TORSDOF 14
ENDMDL
MODEL 2
REMARK VINA RESULT:     -12.2      4.415      6.810
REMARK SMILES O=C(NCCCCNC(=O)[C@H]1C[C@](O)(c2ccc(F)cc2)[C@@H](c2ccc(F)cc2)O1)c1ccc(-c2c3nc(c(-c4c(F)cccc4F)c4ccc([nH]4)c(-c4c(F)cccc4F)c4nc(c(-c5c(F)cccc5F)c5ccc2[nH]5)C=C4)C=C3)cc1
REMARK SMILES IDX 5 1 4 2 3 3 1 4 2 5 31 7 32 8 84 9 33 10 83 11 34 12 35 13
REMARK SMILES IDX 36 14 77 15 37 16 82 17 76 18 78 19 38 20 81 21 75 22 74 23
REMARK SMILES IDX 39 25 65 26 48 27 64 28 49 29 52 30 63 31 79 32 50 33 51 34
REMARK SMILES IDX 62 36 80 37 53 38 40 39 41 40 46 41 42 42 43 43 45 44 47 45
REMARK SMILES IDX 44 46 66 47 67 48 72 49 68 50 69 51 71 52 73 53 70 54 54 55
REMARK SMILES IDX 55 56 60 57 56 58 57 59 59 60 61 61 58 62 6 63 7 64 8 65
REMARK SMILES IDX 9 66 10 68 11 69 12 70 30 71 13 72 22 73 15 74 16 75 21 76
REMARK SMILES IDX 17 77 20 78 18 79 19 80 14 81 23 83 24 84 29 85 25 86 28 87
REMARK SMILES IDX 26 88 27 89
REMARK H PARENT 3 6 78 24 52 35 8 67 14 82
REMARK Flexibility Score: inf
ROOT
ATOM      1  C   UNL A   1      40.493  22.198  27.577  1.00  0.00     0.023 C 
ENDROOT
BRANCH   1   2
ATOM      2  C   UNL A   1      41.664  23.172  27.512  1.00  0.00     0.116 C 
BRANCH   2   3
ATOM      3  N   UNL A   1      41.662  23.948  26.282  1.00  0.00    -0.352 N 
ATOM      4  O   UNL A   1      41.192  25.704  24.949  1.00  0.00    -0.269 OA
ATOM      5  C   UNL A   1      41.330  25.266  26.089  1.00  0.00     0.251 C 
ATOM      6  H   UNL A   1      41.935  23.458  25.473  1.00  0.00     0.163 HD
BRANCH   5   7
ATOM      7  C   UNL A   1      41.132  26.158  27.250  1.00  0.00     0.039 A 
ATOM      8  C   UNL A   1      41.984  27.245  27.467  1.00  0.00     0.014 A 
ATOM      9  C   UNL A   1      40.052  25.929  28.110  1.00  0.00     0.014 A 
ATOM     10  C   UNL A   1      41.822  28.037  28.599  1.00  0.00     0.010 A 
ATOM     11  C   UNL A   1      39.848  26.771  29.206  1.00  0.00     0.010 A 
ATOM     12  C   UNL A   1      40.738  27.824  29.466  1.00  0.00    -0.014 A 
BRANCH  12  13
ATOM     13  C   UNL A   1      40.488  28.779  30.573  1.00  0.00     0.031 A 
ATOM     14  C   UNL A   1      39.432  29.839  30.470  1.00  0.00     0.074 A 
ATOM     15  C   UNL A   1      41.244  28.678  31.685  1.00  0.00     0.049 A 
ATOM     16  N   UNL A   1      39.118  30.769  31.335  1.00  0.00    -0.248 NA
ATOM     17  C   UNL A   1      38.625  29.866  29.240  1.00  0.00     0.031 C 
ATOM     18  C   UNL A   1      42.308  27.693  31.891  1.00  0.00     0.029 A 
ATOM     19  N   UNL A   1      41.235  29.404  32.849  1.00  0.00    -0.354 N 
ATOM     20  C   UNL A   1      38.091  31.501  30.752  1.00  0.00     0.074 A 
ATOM     21  C   UNL A   1      37.843  30.918  29.451  1.00  0.00     0.031 C 
ATOM     22  C   UNL A   1      42.832  27.858  33.113  1.00  0.00     0.029 A 
ATOM     23  C   UNL A   1      42.187  28.999  33.753  1.00  0.00     0.049 A 
ATOM     24  H   UNL A   1      40.608  30.143  33.020  1.00  0.00     0.167 HD
ATOM     25  C   UNL A   1      37.418  32.556  31.266  1.00  0.00     0.037 A 
ATOM     26  C   UNL A   1      42.529  29.506  34.952  1.00  0.00     0.037 A 
ATOM     27  C   UNL A   1      37.656  33.113  32.574  1.00  0.00     0.049 A 
ATOM     28  C   UNL A   1      41.791  30.700  35.478  1.00  0.00     0.074 A 
ATOM     29  C   UNL A   1      36.977  34.142  33.203  1.00  0.00     0.029 A 
ATOM     30  N   UNL A   1      38.650  32.696  33.444  1.00  0.00    -0.354 N 
ATOM     31  N   UNL A   1      40.793  31.353  34.933  1.00  0.00    -0.248 NA
ATOM     32  C   UNL A   1      42.227  31.237  36.774  1.00  0.00     0.031 C 
ATOM     33  C   UNL A   1      37.593  34.382  34.434  1.00  0.00     0.029 A 
ATOM     34  C   UNL A   1      38.626  33.471  34.592  1.00  0.00     0.049 A 
ATOM     35  H   UNL A   1      39.280  31.958  33.273  1.00  0.00     0.167 HD
ATOM     36  C   UNL A   1      40.478  32.372  35.820  1.00  0.00     0.074 A 
ATOM     37  C   UNL A   1      41.376  32.240  36.948  1.00  0.00     0.031 C 
ATOM     38  C   UNL A   1      39.530  33.332  35.704  1.00  0.00     0.037 A 
BRANCH  25  39
ATOM     39  C   UNL A   1      36.353  33.199  30.427  1.00  0.00     0.057 A 
ATOM     40  C   UNL A   1      35.006  32.852  30.602  1.00  0.00     0.134 A 
ATOM     41  C   UNL A   1      36.667  34.063  29.373  1.00  0.00     0.134 A 
ATOM     42  F   UNL A   1      34.639  32.020  31.588  1.00  0.00    -0.206 F 
ATOM     43  C   UNL A   1      34.013  33.327  29.742  1.00  0.00     0.040 A 
ATOM     44  C   UNL A   1      35.681  34.560  28.518  1.00  0.00     0.040 A 
ATOM     45  F   UNL A   1      37.938  34.438  29.157  1.00  0.00    -0.206 F 
ATOM     46  C   UNL A   1      34.350  34.181  28.695  1.00  0.00     0.006 A 
ENDBRANCH  25  39
BRANCH  26  47
ATOM     47  C   UNL A   1      43.644  28.890  35.712  1.00  0.00     0.057 A 
ATOM     48  C   UNL A   1      44.964  29.330  35.550  1.00  0.00     0.134 A 
ATOM     49  C   UNL A   1      43.423  27.818  36.582  1.00  0.00     0.134 A 
ATOM     50  F   UNL A   1      45.242  30.348  34.722  1.00  0.00    -0.206 F 
ATOM     51  C   UNL A   1      46.028  28.711  36.206  1.00  0.00     0.040 A 
ATOM     52  C   UNL A   1      44.475  27.205  37.265  1.00  0.00     0.040 A 
ATOM     53  F   UNL A   1      42.180  27.362  36.790  1.00  0.00    -0.206 F 
ATOM     54  C   UNL A   1      45.783  27.647  37.070  1.00  0.00     0.006 A 
ENDBRANCH  26  47
BRANCH  38  55
ATOM     55  C   UNL A   1      39.408  34.324  36.820  1.00  0.00     0.057 A 
ATOM     56  C   UNL A   1      40.046  35.567  36.746  1.00  0.00     0.134 A 
ATOM     57  C   UNL A   1      38.734  34.008  38.005  1.00  0.00     0.134 A 
ATOM     58  F   UNL A   1      40.716  35.925  35.640  1.00  0.00    -0.206 F 
ATOM     59  C   UNL A   1      40.036  36.456  37.822  1.00  0.00     0.040 A 
ATOM     60  C   UNL A   1      38.698  34.897  39.081  1.00  0.00     0.040 A 
ATOM     61  F   UNL A   1      38.092  32.836  38.132  1.00  0.00    -0.206 F 
ATOM     62  C   UNL A   1      39.361  36.120  38.993  1.00  0.00     0.006 A 
ENDBRANCH  38  55
ENDBRANCH  12  13
ENDBRANCH   5   7
ENDBRANCH   2   3
ENDBRANCH   1   2
BRANCH   1  63
ATOM     63  C   UNL A   1      39.718  22.025  26.266  1.00  0.00     0.023 C 
BRANCH  63  64
ATOM     64  C   UNL A   1      38.366  22.737  26.211  1.00  0.00     0.116 C 
BRANCH  64  65
ATOM     65  N   UNL A   1      37.733  22.564  24.920  1.00  0.00    -0.354 N 
ATOM     66  C   UNL A   1      36.529  23.002  24.462  1.00  0.00     0.249 C 
ATOM     67  H   UNL A   1      38.259  22.046  24.269  1.00  0.00     0.163 HD
ATOM     68  O   UNL A   1      36.146  22.518  23.395  1.00  0.00    -0.272 OA
BRANCH  66  69
ATOM     69  C   UNL A   1      35.705  24.044  25.256  1.00  0.00     0.211 C 
ATOM     70  C   UNL A   1      34.776  24.892  24.388  1.00  0.00     0.085 C 
ATOM     71  O   UNL A   1      34.887  23.387  26.238  1.00  0.00    -0.357 OA
ATOM     72  C   UNL A   1      33.368  24.690  24.951  1.00  0.00     0.123 C 
ATOM     73  C   UNL A   1      33.524  23.380  25.771  1.00  0.00     0.186 C 
BRANCH  72  74
ATOM     74  C   UNL A   1      32.904  25.940  25.727  1.00  0.00    -0.013 A 
ATOM     75  C   UNL A   1      33.801  27.018  25.911  1.00  0.00     0.010 A 
ATOM     76  C   UNL A   1      31.605  26.095  26.248  1.00  0.00     0.010 A 
ATOM     77  C   UNL A   1      33.404  28.205  26.533  1.00  0.00     0.039 A 
ATOM     78  C   UNL A   1      31.204  27.288  26.863  1.00  0.00     0.039 A 
ATOM     79  C   UNL A   1      32.103  28.333  26.991  1.00  0.00     0.123 A 
ATOM     80  F   UNL A   1      31.713  29.477  27.568  1.00  0.00    -0.207 F 
ENDBRANCH  72  74
BRANCH  72  81
ATOM     81  O   UNL A   1      32.422  24.505  23.891  1.00  0.00    -0.382 OA
ATOM     82  H   UNL A   1      32.839  24.726  23.043  1.00  0.00     0.212 HD
ENDBRANCH  72  81
BRANCH  73  83
ATOM     83  C   UNL A   1      33.198  22.039  25.113  1.00  0.00    -0.016 A 
ATOM     84  C   UNL A   1      32.518  21.917  23.891  1.00  0.00     0.009 A 
ATOM     85  C   UNL A   1      33.615  20.856  25.756  1.00  0.00     0.009 A 
ATOM     86  C   UNL A   1      32.280  20.664  23.319  1.00  0.00     0.039 A 
ATOM     87  C   UNL A   1      33.357  19.602  25.196  1.00  0.00     0.039 A 
ATOM     88  C   UNL A   1      32.699  19.518  23.979  1.00  0.00     0.123 A 
ATOM     89  F   UNL A   1      32.461  18.318  23.434  1.00  0.00    -0.207 F 
ENDBRANCH  73  83
ENDBRANCH  66  69
ENDBRANCH  64  65
ENDBRANCH  63  64
ENDBRANCH   1  63
TORSDOF 14
ENDMDL
MODEL 3
REMARK VINA RESULT:     -12.2      1.721      3.781
REMARK SMILES O=C(NCCCCNC(=O)[C@H]1C[C@](O)(c2ccc(F)cc2)[C@@H](c2ccc(F)cc2)O1)c1ccc(-c2c3nc(c(-c4c(F)cccc4F)c4ccc([nH]4)c(-c4c(F)cccc4F)c4nc(c(-c5c(F)cccc5F)c5ccc2[nH]5)C=C4)C=C3)cc1
REMARK SMILES IDX 5 1 4 2 3 3 1 4 2 5 31 7 32 8 84 9 33 10 83 11 34 12 35 13
REMARK SMILES IDX 36 14 77 15 37 16 82 17 76 18 78 19 38 20 81 21 75 22 74 23
REMARK SMILES IDX 39 25 65 26 48 27 64 28 49 29 52 30 63 31 79 32 50 33 51 34
REMARK SMILES IDX 62 36 80 37 53 38 40 39 41 40 46 41 42 42 43 43 45 44 47 45
REMARK SMILES IDX 44 46 66 47 67 48 72 49 68 50 69 51 71 52 73 53 70 54 54 55
REMARK SMILES IDX 55 56 60 57 56 58 57 59 59 60 61 61 58 62 6 63 7 64 8 65
REMARK SMILES IDX 9 66 10 68 11 69 12 70 30 71 13 72 22 73 15 74 16 75 21 76
REMARK SMILES IDX 17 77 20 78 18 79 19 80 14 81 23 83 24 84 29 85 25 86 28 87
REMARK SMILES IDX 26 88 27 89
REMARK H PARENT 3 6 78 24 52 35 8 67 14 82
REMARK Flexibility Score: inf
ROOT
ATOM      1  C   UNL A   1      37.885  18.962  24.998  1.00  0.00     0.023 C 
ENDROOT
BRANCH   1   2
ATOM      2  C   UNL A   1      38.993  19.687  25.751  1.00  0.00     0.116 C 
BRANCH   2   3
ATOM      3  N   UNL A   1      40.204  18.887  25.847  1.00  0.00    -0.352 N 
ATOM      4  O   UNL A   1      42.421  18.504  25.972  1.00  0.00    -0.269 OA
ATOM      5  C   UNL A   1      41.486  19.286  26.130  1.00  0.00     0.251 C 
ATOM      6  H   UNL A   1      40.087  17.923  25.686  1.00  0.00     0.163 HD
BRANCH   5   7
ATOM      7  C   UNL A   1      41.747  20.656  26.616  1.00  0.00     0.039 A 
ATOM      8  C   UNL A   1      41.656  20.959  27.978  1.00  0.00     0.014 A 
ATOM      9  C   UNL A   1      42.129  21.643  25.701  1.00  0.00     0.014 A 
ATOM     10  C   UNL A   1      41.841  22.268  28.411  1.00  0.00     0.010 A 
ATOM     11  C   UNL A   1      42.388  22.942  26.149  1.00  0.00     0.010 A 
ATOM     12  C   UNL A   1      42.234  23.266  27.505  1.00  0.00    -0.014 A 
BRANCH  12  13
ATOM     13  C   UNL A   1      42.586  24.615  28.012  1.00  0.00     0.031 A 
ATOM     14  C   UNL A   1      41.537  25.662  28.245  1.00  0.00     0.074 A 
ATOM     15  C   UNL A   1      43.884  24.888  28.254  1.00  0.00     0.049 A 
ATOM     16  N   UNL A   1      41.688  26.897  28.649  1.00  0.00    -0.248 NA
ATOM     17  C   UNL A   1      40.139  25.281  27.990  1.00  0.00     0.031 C 
ATOM     18  C   UNL A   1      44.991  23.950  28.051  1.00  0.00     0.029 A 
ATOM     19  N   UNL A   1      44.493  26.023  28.723  1.00  0.00    -0.354 N 
ATOM     20  C   UNL A   1      40.413  27.446  28.683  1.00  0.00     0.074 A 
ATOM     21  C   UNL A   1      39.497  26.415  28.243  1.00  0.00     0.031 C 
ATOM     22  C   UNL A   1      46.139  24.537  28.417  1.00  0.00     0.029 A 
ATOM     23  C   UNL A   1      45.859  25.911  28.818  1.00  0.00     0.049 A 
ATOM     24  H   UNL A   1      44.001  26.840  28.968  1.00  0.00     0.167 HD
ATOM     25  C   UNL A   1      40.047  28.695  29.056  1.00  0.00     0.037 A 
ATOM     26  C   UNL A   1      46.792  26.820  29.160  1.00  0.00     0.037 A 
ATOM     27  C   UNL A   1      40.965  29.706  29.517  1.00  0.00     0.049 A 
ATOM     28  C   UNL A   1      46.360  28.207  29.530  1.00  0.00     0.074 A 
ATOM     29  C   UNL A   1      40.676  30.979  29.977  1.00  0.00     0.029 A 
ATOM     30  N   UNL A   1      42.342  29.563  29.567  1.00  0.00    -0.354 N 
ATOM     31  N   UNL A   1      45.146  28.696  29.600  1.00  0.00    -0.248 NA
ATOM     32  C   UNL A   1      47.419  29.170  29.859  1.00  0.00     0.031 C 
ATOM     33  C   UNL A   1      41.882  31.626  30.258  1.00  0.00     0.029 A 
ATOM     34  C   UNL A   1      42.920  30.740  30.018  1.00  0.00     0.049 A 
ATOM     35  H   UNL A   1      42.837  28.748  29.321  1.00  0.00     0.167 HD
ATOM     36  C   UNL A   1      45.293  30.022  29.984  1.00  0.00     0.074 A 
ATOM     37  C   UNL A   1      46.712  30.254  30.154  1.00  0.00     0.031 C 
ATOM     38  C   UNL A   1      44.334  30.959  30.175  1.00  0.00     0.037 A 
BRANCH  25  39
ATOM     39  C   UNL A   1      38.595  29.063  28.986  1.00  0.00     0.057 A 
ATOM     40  C   UNL A   1      38.062  29.630  27.820  1.00  0.00     0.134 A 
ATOM     41  C   UNL A   1      37.757  28.974  30.103  1.00  0.00     0.134 A 
ATOM     42  F   UNL A   1      38.816  29.754  26.718  1.00  0.00    -0.206 F 
ATOM     43  C   UNL A   1      36.752  30.112  27.776  1.00  0.00     0.040 A 
ATOM     44  C   UNL A   1      36.439  29.435  30.066  1.00  0.00     0.040 A 
ATOM     45  F   UNL A   1      38.206  28.436  31.248  1.00  0.00    -0.206 F 
ATOM     46  C   UNL A   1      35.938  30.018  28.902  1.00  0.00     0.006 A 
ENDBRANCH  25  39
BRANCH  26  47
ATOM     47  C   UNL A   1      48.225  26.437  29.136  1.00  0.00     0.057 A 
ATOM     48  C   UNL A   1      49.012  26.641  27.995  1.00  0.00     0.134 A 
ATOM     49  C   UNL A   1      48.829  25.817  30.234  1.00  0.00     0.134 A 
ATOM     50  F   UNL A   1      48.488  27.222  26.905  1.00  0.00    -0.206 F 
ATOM     51  C   UNL A   1      50.340  26.220  27.937  1.00  0.00     0.040 A 
ATOM     52  C   UNL A   1      50.165  25.415  30.200  1.00  0.00     0.040 A 
ATOM     53  F   UNL A   1      48.131  25.609  31.359  1.00  0.00    -0.206 F 
ATOM     54  C   UNL A   1      50.921  25.608  29.045  1.00  0.00     0.006 A 
ENDBRANCH  26  47
BRANCH  38  55
ATOM     55  C   UNL A   1      44.778  32.329  30.588  1.00  0.00     0.057 A 
ATOM     56  C   UNL A   1      44.893  32.667  31.941  1.00  0.00     0.134 A 
ATOM     57  C   UNL A   1      45.002  33.338  29.645  1.00  0.00     0.134 A 
ATOM     58  F   UNL A   1      44.682  31.745  32.894  1.00  0.00    -0.206 F 
ATOM     59  C   UNL A   1      45.195  33.968  32.344  1.00  0.00     0.040 A 
ATOM     60  C   UNL A   1      45.327  34.638  30.033  1.00  0.00     0.040 A 
ATOM     61  F   UNL A   1      44.919  33.073  28.331  1.00  0.00    -0.206 F 
ATOM     62  C   UNL A   1      45.412  34.958  31.388  1.00  0.00     0.006 A 
ENDBRANCH  38  55
ENDBRANCH  12  13
ENDBRANCH   5   7
ENDBRANCH   2   3
ENDBRANCH   1   2
BRANCH   1  63
ATOM     63  C   UNL A   1      36.510  19.637  25.058  1.00  0.00     0.023 C 
BRANCH  63  64
ATOM     64  C   UNL A   1      36.537  21.151  25.269  1.00  0.00     0.116 C 
BRANCH  64  65
ATOM     65  N   UNL A   1      36.707  21.853  24.014  1.00  0.00    -0.354 N 
ATOM     66  C   UNL A   1      36.174  23.029  23.582  1.00  0.00     0.249 C 
ATOM     67  H   UNL A   1      37.304  21.409  23.370  1.00  0.00     0.163 HD
ATOM     68  O   UNL A   1      36.312  23.278  22.382  1.00  0.00    -0.272 OA
BRANCH  66  69
ATOM     69  C   UNL A   1      35.437  23.977  24.558  1.00  0.00     0.211 C 
ATOM     70  C   UNL A   1      34.464  24.937  23.874  1.00  0.00     0.085 C 
ATOM     71  O   UNL A   1      34.681  23.215  25.513  1.00  0.00    -0.357 OA
ATOM     72  C   UNL A   1      33.099  24.688  24.516  1.00  0.00     0.123 C 
ATOM     73  C   UNL A   1      33.286  23.285  25.157  1.00  0.00     0.186 C 
BRANCH  72  74
ATOM     74  C   UNL A   1      32.724  25.839  25.472  1.00  0.00    -0.013 A 
ATOM     75  C   UNL A   1      33.710  26.781  25.848  1.00  0.00     0.010 A 
ATOM     76  C   UNL A   1      31.426  26.036  25.980  1.00  0.00     0.010 A 
ATOM     77  C   UNL A   1      33.402  27.888  26.643  1.00  0.00     0.039 A 
ATOM     78  C   UNL A   1      31.115  27.151  26.769  1.00  0.00     0.039 A 
ATOM     79  C   UNL A   1      32.102  28.069  27.085  1.00  0.00     0.123 A 
ATOM     80  F   UNL A   1      31.799  29.142  27.828  1.00  0.00    -0.207 F 
ENDBRANCH  72  74
BRANCH  72  81
ATOM     81  O   UNL A   1      32.071  24.646  23.518  1.00  0.00    -0.382 OA
ATOM     82  H   UNL A   1      31.333  24.102  23.836  1.00  0.00     0.212 HD
ENDBRANCH  72  81
BRANCH  73  83
ATOM     83  C   UNL A   1      32.880  22.039  24.368  1.00  0.00    -0.016 A 
ATOM     84  C   UNL A   1      32.487  22.065  23.020  1.00  0.00     0.009 A 
ATOM     85  C   UNL A   1      32.916  20.789  25.020  1.00  0.00     0.009 A 
ATOM     86  C   UNL A   1      32.162  20.888  22.341  1.00  0.00     0.039 A 
ATOM     87  C   UNL A   1      32.568  19.615  24.347  1.00  0.00     0.039 A 
ATOM     88  C   UNL A   1      32.202  19.675  23.011  1.00  0.00     0.123 A 
ATOM     89  F   UNL A   1      31.880  18.549  22.361  1.00  0.00    -0.207 F 
ENDBRANCH  73  83
ENDBRANCH  66  69
ENDBRANCH  64  65
ENDBRANCH  63  64
ENDBRANCH   1  63
TORSDOF 14
ENDMDL
