MODEL 1
REMARK VINA RESULT:     -11.6      0.000      0.000
REMARK SMILES O=C(NCCCCNC(=O)[C@H](CO)NC(=O)[C@H](Cc1c[nH]c2ccccc12)NC(=O)c1ccc(F)cc1)c1ccc(-c2c3nc(c(-c4c(F)cccc4F)c4ccc([nH]4)c(-c4c(F)cccc4F)c4nc(c(-c5c(F)cccc5F)c5ccc2[nH]5)C=C4)C=C3)cc1
REMARK SMILES IDX 6 1 5 2 4 3 3 4 1 5 2 6 38 8 39 9 91 10 40 11 90 12 41 13
REMARK SMILES IDX 42 14 43 15 84 16 44 17 89 18 83 19 85 20 45 21 88 22 82 23
REMARK SMILES IDX 81 24 46 26 72 27 55 28 71 29 56 30 59 31 70 32 86 33 57 34
REMARK SMILES IDX 58 35 69 37 87 38 60 39 47 40 48 41 53 42 49 43 50 44 52 45
REMARK SMILES IDX 54 46 51 47 73 48 74 49 79 50 75 51 76 52 78 53 80 54 77 55
REMARK SMILES IDX 61 56 62 57 67 58 63 59 64 60 66 61 68 62 65 63 7 64 8 65
REMARK SMILES IDX 9 66 10 68 11 69 14 70 15 71 16 73 17 74 28 75 29 76 30 78
REMARK SMILES IDX 31 79 32 80 37 81 33 82 36 83 34 84 35 85 18 86 19 87 20 88
REMARK SMILES IDX 27 89 21 90 22 91 26 92 23 94 25 95 24 96 12 97 13 98
REMARK H PARENT 3 7 85 25 59 36 8 67 14 72 28 77 21 93 13 99
REMARK Flexibility Score: inf
ROOT
ATOM      1  C   UNL A   1      35.624  22.578  23.796  1.00  0.00     0.023 C 
ENDROOT
BRANCH   1   2
ATOM      2  C   UNL A   1      36.317  23.650  24.641  1.00  0.00     0.023 C 
BRANCH   2   3
ATOM      3  C   UNL A   1      36.729  23.242  26.053  1.00  0.00     0.116 C 
BRANCH   3   4
ATOM      4  N   UNL A   1      37.894  22.379  26.106  1.00  0.00    -0.352 N 
ATOM      5  O   UNL A   1      40.065  21.835  26.410  1.00  0.00    -0.269 OA
ATOM      6  C   UNL A   1      39.188  22.686  26.466  1.00  0.00     0.251 C 
ATOM      7  H   UNL A   1      37.738  21.441  25.847  1.00  0.00     0.163 HD
BRANCH   6   8
ATOM      8  C   UNL A   1      39.527  24.060  26.897  1.00  0.00     0.039 A 
ATOM      9  C   UNL A   1      40.042  24.997  25.997  1.00  0.00     0.014 A 
ATOM     10  C   UNL A   1      39.310  24.416  28.232  1.00  0.00     0.014 A 
ATOM     11  C   UNL A   1      40.443  26.249  26.449  1.00  0.00     0.010 A 
ATOM     12  C   UNL A   1      39.676  25.689  28.678  1.00  0.00     0.010 A 
ATOM     13  C   UNL A   1      40.271  26.601  27.793  1.00  0.00    -0.014 A 
BRANCH  13  14
ATOM     14  C   UNL A   1      40.716  27.933  28.259  1.00  0.00     0.031 A 
ATOM     15  C   UNL A   1      39.708  28.960  28.688  1.00  0.00     0.074 A 
ATOM     16  C   UNL A   1      42.034  28.198  28.320  1.00  0.00     0.049 A 
ATOM     17  N   UNL A   1      39.908  30.188  29.091  1.00  0.00    -0.248 NA
ATOM     18  C   UNL A   1      38.293  28.558  28.664  1.00  0.00     0.031 C 
ATOM     19  C   UNL A   1      43.098  27.264  27.947  1.00  0.00     0.029 A 
ATOM     20  N   UNL A   1      42.704  29.326  28.721  1.00  0.00    -0.354 N 
ATOM     21  C   UNL A   1      38.647  30.710  29.353  1.00  0.00     0.074 A 
ATOM     22  C   UNL A   1      37.686  29.672  29.052  1.00  0.00     0.031 C 
ATOM     23  C   UNL A   1      44.287  27.853  28.147  1.00  0.00     0.029 A 
ATOM     24  C   UNL A   1      44.068  29.218  28.612  1.00  0.00     0.049 A 
ATOM     25  H   UNL A   1      42.250  30.133  29.053  1.00  0.00     0.167 HD
ATOM     26  C   UNL A   1      38.331  31.944  29.808  1.00  0.00     0.037 A 
ATOM     27  C   UNL A   1      45.034  30.129  28.836  1.00  0.00     0.037 A 
ATOM     28  C   UNL A   1      39.297  32.962  30.126  1.00  0.00     0.049 A 
ATOM     29  C   UNL A   1      44.648  31.504  29.297  1.00  0.00     0.074 A 
ATOM     30  C   UNL A   1      39.073  34.231  30.632  1.00  0.00     0.029 A 
ATOM     31  N   UNL A   1      40.667  32.829  29.965  1.00  0.00    -0.354 N 
ATOM     32  N   UNL A   1      43.453  31.980  29.555  1.00  0.00    -0.248 NA
ATOM     33  C   UNL A   1      45.736  32.472  29.490  1.00  0.00     0.031 C 
ATOM     34  C   UNL A   1      40.306  34.880  30.741  1.00  0.00     0.029 A 
ATOM     35  C   UNL A   1      41.299  34.003  30.338  1.00  0.00     0.049 A 
ATOM     36  H   UNL A   1      41.122  32.022  29.635  1.00  0.00     0.167 HD
ATOM     37  C   UNL A   1      43.645  33.298  29.941  1.00  0.00     0.074 A 
ATOM     38  C   UNL A   1      45.073  33.542  29.907  1.00  0.00     0.031 C 
ATOM     39  C   UNL A   1      42.721  34.226  30.288  1.00  0.00     0.037 A 
BRANCH  26  40
ATOM     40  C   UNL A   1      36.882  32.281  29.990  1.00  0.00     0.057 A 
ATOM     41  C   UNL A   1      36.156  32.878  28.951  1.00  0.00     0.134 A 
ATOM     42  C   UNL A   1      36.237  32.116  31.221  1.00  0.00     0.134 A 
ATOM     43  F   UNL A   1      36.719  33.068  27.749  1.00  0.00    -0.206 F 
ATOM     44  C   UNL A   1      34.844  33.318  29.138  1.00  0.00     0.040 A 
ATOM     45  C   UNL A   1      34.920  32.537  31.414  1.00  0.00     0.040 A 
ATOM     46  F   UNL A   1      36.876  31.540  32.251  1.00  0.00    -0.206 F 
ATOM     47  C   UNL A   1      34.224  33.151  30.374  1.00  0.00     0.006 A 
ENDBRANCH  26  40
BRANCH  27  48
ATOM     48  C   UNL A   1      46.451  29.767  28.596  1.00  0.00     0.057 A 
ATOM     49  C   UNL A   1      47.246  29.231  29.617  1.00  0.00     0.134 A 
ATOM     50  C   UNL A   1      47.052  29.971  27.350  1.00  0.00     0.134 A 
ATOM     51  F   UNL A   1      46.729  29.015  30.836  1.00  0.00    -0.206 F 
ATOM     52  C   UNL A   1      48.593  28.930  29.415  1.00  0.00     0.040 A 
ATOM     53  C   UNL A   1      48.393  29.653  27.126  1.00  0.00     0.040 A 
ATOM     54  F   UNL A   1      46.337  30.464  26.328  1.00  0.00    -0.206 F 
ATOM     55  C   UNL A   1      49.169  29.138  28.163  1.00  0.00     0.006 A 
ENDBRANCH  27  48
BRANCH  39  56
ATOM     56  C   UNL A   1      43.220  35.589  30.654  1.00  0.00     0.057 A 
ATOM     57  C   UNL A   1      43.405  36.572  29.674  1.00  0.00     0.134 A 
ATOM     58  C   UNL A   1      43.585  35.902  31.969  1.00  0.00     0.134 A 
ATOM     59  F   UNL A   1      43.084  36.327  28.395  1.00  0.00    -0.206 F 
ATOM     60  C   UNL A   1      43.948  37.818  29.990  1.00  0.00     0.040 A 
ATOM     61  C   UNL A   1      44.109  37.151  32.300  1.00  0.00     0.040 A 
ATOM     62  F   UNL A   1      43.421  35.003  32.952  1.00  0.00    -0.206 F 
ATOM     63  C   UNL A   1      44.301  38.110  31.305  1.00  0.00     0.006 A 
ENDBRANCH  39  56
ENDBRANCH  13  14
ENDBRANCH   6   8
ENDBRANCH   3   4
ENDBRANCH   2   3
ENDBRANCH   1   2
BRANCH   1  64
ATOM     64  C   UNL A   1      34.127  22.762  23.565  1.00  0.00     0.116 C 
BRANCH  64  65
ATOM     65  N   UNL A   1      33.347  21.588  23.922  1.00  0.00    -0.354 N 
ATOM     66  C   UNL A   1      32.538  21.396  25.011  1.00  0.00     0.244 C 
ATOM     67  H   UNL A   1      33.408  20.829  23.297  1.00  0.00     0.163 HD
ATOM     68  O   UNL A   1      31.831  20.386  25.034  1.00  0.00    -0.273 OA
BRANCH  66  69
ATOM     69  C   UNL A   1      32.587  22.377  26.197  1.00  0.00     0.197 C 
BRANCH  69  70
ATOM     70  N   UNL A   1      31.228  22.531  26.734  1.00  0.00    -0.340 N 
ATOM     71  C   UNL A   1      30.343  23.559  26.777  1.00  0.00     0.243 C 
ATOM     72  H   UNL A   1      30.884  21.710  27.154  1.00  0.00     0.164 HD
ATOM     73  O   UNL A   1      29.276  23.321  27.361  1.00  0.00    -0.273 OA
BRANCH  71  74
ATOM     74  C   UNL A   1      30.502  24.916  26.040  1.00  0.00     0.176 C 
BRANCH  74  75
ATOM     75  N   UNL A   1      29.366  25.407  25.259  1.00  0.00    -0.340 N 
ATOM     76  C   UNL A   1      29.260  26.226  24.173  1.00  0.00     0.251 C 
ATOM     77  H   UNL A   1      28.498  25.079  25.587  1.00  0.00     0.164 HD
ATOM     78  O   UNL A   1      28.146  26.426  23.692  1.00  0.00    -0.269 OA
BRANCH  76  79
ATOM     79  C   UNL A   1      30.414  26.999  23.664  1.00  0.00     0.040 A 
ATOM     80  C   UNL A   1      31.452  26.444  22.910  1.00  0.00     0.017 A 
ATOM     81  C   UNL A   1      30.435  28.366  23.986  1.00  0.00     0.017 A 
ATOM     82  C   UNL A   1      32.550  27.237  22.560  1.00  0.00     0.040 A 
ATOM     83  C   UNL A   1      31.521  29.158  23.619  1.00  0.00     0.040 A 
ATOM     84  C   UNL A   1      32.578  28.580  22.927  1.00  0.00     0.123 A 
ATOM     85  F   UNL A   1      33.640  29.329  22.603  1.00  0.00    -0.207 F 
ENDBRANCH  76  79
ENDBRANCH  74  75
BRANCH  74  86
ATOM     86  C   UNL A   1      31.029  25.977  27.027  1.00  0.00     0.072 C 
BRANCH  86  87
ATOM     87  C   UNL A   1      32.326  26.603  26.613  1.00  0.00    -0.020 A 
ATOM     88  C   UNL A   1      33.380  25.972  25.983  1.00  0.00     0.087 A 
ATOM     89  C   UNL A   1      32.705  27.970  26.792  1.00  0.00     0.003 A 
ATOM     90  N   UNL A   1      34.384  26.883  25.808  1.00  0.00    -0.361 N 
ATOM     91  C   UNL A   1      34.008  28.103  26.316  1.00  0.00     0.046 A 
ATOM     92  C   UNL A   1      32.065  29.109  27.327  1.00  0.00     0.010 A 
ATOM     93  H   UNL A   1      35.250  26.692  25.382  1.00  0.00     0.166 HD
ATOM     94  C   UNL A   1      34.710  29.310  26.382  1.00  0.00     0.026 A 
ATOM     95  C   UNL A   1      32.755  30.325  27.389  1.00  0.00     0.001 A 
ATOM     96  C   UNL A   1      34.067  30.418  26.937  1.00  0.00     0.002 A 
ENDBRANCH  86  87
ENDBRANCH  74  86
ENDBRANCH  71  74
ENDBRANCH  69  70
BRANCH  69  97
ATOM     97  C   UNL A   1      33.530  21.791  27.263  1.00  0.00     0.191 C 
BRANCH  97  98
ATOM     98  O   UNL A   1      34.289  20.700  26.743  1.00  0.00    -0.394 OA
ATOM     99  H   UNL A   1      34.665  20.948  25.885  1.00  0.00     0.210 HD
ENDBRANCH  97  98
ENDBRANCH  69  97
ENDBRANCH  66  69
ENDBRANCH  64  65
ENDBRANCH   1  64
TORSDOF 19
ENDMDL
MODEL 2
REMARK VINA RESULT:     -11.4      0.377      5.826
REMARK SMILES O=C(NCCCCNC(=O)[C@H](CO)NC(=O)[C@H](Cc1c[nH]c2ccccc12)NC(=O)c1ccc(F)cc1)c1ccc(-c2c3nc(c(-c4c(F)cccc4F)c4ccc([nH]4)c(-c4c(F)cccc4F)c4nc(c(-c5c(F)cccc5F)c5ccc2[nH]5)C=C4)C=C3)cc1
REMARK SMILES IDX 6 1 5 2 4 3 3 4 1 5 2 6 38 8 39 9 91 10 40 11 90 12 41 13
REMARK SMILES IDX 42 14 43 15 84 16 44 17 89 18 83 19 85 20 45 21 88 22 82 23
REMARK SMILES IDX 81 24 46 26 72 27 55 28 71 29 56 30 59 31 70 32 86 33 57 34
REMARK SMILES IDX 58 35 69 37 87 38 60 39 47 40 48 41 53 42 49 43 50 44 52 45
REMARK SMILES IDX 54 46 51 47 73 48 74 49 79 50 75 51 76 52 78 53 80 54 77 55
REMARK SMILES IDX 61 56 62 57 67 58 63 59 64 60 66 61 68 62 65 63 7 64 8 65
REMARK SMILES IDX 9 66 10 68 11 69 14 70 15 71 16 73 17 74 28 75 29 76 30 78
REMARK SMILES IDX 31 79 32 80 37 81 33 82 36 83 34 84 35 85 18 86 19 87 20 88
REMARK SMILES IDX 27 89 21 90 22 91 26 92 23 94 25 95 24 96 12 97 13 98
REMARK H PARENT 3 7 85 25 59 36 8 67 14 72 28 77 21 93 13 99
REMARK Flexibility Score: inf
ROOT
ATOM      1  C   UNL A   1      35.603  22.702  23.730  1.00  0.00     0.023 C 
ENDROOT
BRANCH   1   2
ATOM      2  C   UNL A   1      36.363  23.688  24.620  1.00  0.00     0.023 C 
BRANCH   2   3
ATOM      3  C   UNL A   1      36.728  23.200  26.019  1.00  0.00     0.116 C 
BRANCH   3   4
ATOM      4  N   UNL A   1      37.886  22.326  26.060  1.00  0.00    -0.352 N 
ATOM      5  O   UNL A   1      40.052  21.759  26.350  1.00  0.00    -0.269 OA
ATOM      6  C   UNL A   1      39.184  22.618  26.417  1.00  0.00     0.251 C 
ATOM      7  H   UNL A   1      37.720  21.392  25.795  1.00  0.00     0.163 HD
BRANCH   6   8
ATOM      8  C   UNL A   1      39.538  23.986  26.857  1.00  0.00     0.039 A 
ATOM      9  C   UNL A   1      40.026  24.935  25.955  1.00  0.00     0.014 A 
ATOM     10  C   UNL A   1      39.363  24.322  28.203  1.00  0.00     0.014 A 
ATOM     11  C   UNL A   1      40.442  26.179  26.412  1.00  0.00     0.010 A 
ATOM     12  C   UNL A   1      39.744  25.588  28.656  1.00  0.00     0.010 A 
ATOM     13  C   UNL A   1      40.313  26.512  27.767  1.00  0.00    -0.014 A 
BRANCH  13  14
ATOM     14  C   UNL A   1      40.774  27.837  28.237  1.00  0.00     0.031 A 
ATOM     15  C   UNL A   1      42.237  28.172  28.240  1.00  0.00     0.074 A 
ATOM     16  C   UNL A   1      39.862  28.745  28.630  1.00  0.00     0.049 A 
ATOM     17  N   UNL A   1      42.829  29.265  28.646  1.00  0.00    -0.248 NA
ATOM     18  C   UNL A   1      43.157  27.149  27.717  1.00  0.00     0.031 C 
ATOM     19  C   UNL A   1      38.414  28.531  28.647  1.00  0.00     0.029 A 
ATOM     20  N   UNL A   1      40.015  30.029  29.089  1.00  0.00    -0.354 N 
ATOM     21  C   UNL A   1      44.187  29.057  28.445  1.00  0.00     0.074 A 
ATOM     22  C   UNL A   1      44.338  27.730  27.892  1.00  0.00     0.031 C 
ATOM     23  C   UNL A   1      37.810  29.648  29.081  1.00  0.00     0.029 A 
ATOM     24  C   UNL A   1      38.828  30.635  29.421  1.00  0.00     0.049 A 
ATOM     25  H   UNL A   1      40.890  30.471  29.171  1.00  0.00     0.167 HD
ATOM     26  C   UNL A   1      45.210  29.906  28.698  1.00  0.00     0.037 A 
ATOM     27  C   UNL A   1      38.591  31.843  29.966  1.00  0.00     0.037 A 
ATOM     28  C   UNL A   1      45.048  31.234  29.228  1.00  0.00     0.049 A 
ATOM     29  C   UNL A   1      39.751  32.745  30.277  1.00  0.00     0.074 A 
ATOM     30  C   UNL A   1      46.023  32.184  29.479  1.00  0.00     0.029 A 
ATOM     31  N   UNL A   1      43.835  31.798  29.589  1.00  0.00    -0.354 N 
ATOM     32  N   UNL A   1      41.029  32.542  30.068  1.00  0.00    -0.248 NA
ATOM     33  C   UNL A   1      39.440  34.035  30.906  1.00  0.00     0.031 C 
ATOM     34  C   UNL A   1      45.403  33.309  30.030  1.00  0.00     0.029 A 
ATOM     35  C   UNL A   1      44.039  33.074  30.086  1.00  0.00     0.049 A 
ATOM     36  H   UNL A   1      42.959  31.358  29.505  1.00  0.00     0.167 HD
ATOM     37  C   UNL A   1      41.675  33.676  30.537  1.00  0.00     0.074 A 
ATOM     38  C   UNL A   1      40.646  34.575  31.020  1.00  0.00     0.031 C 
ATOM     39  C   UNL A   1      43.002  33.947  30.569  1.00  0.00     0.037 A 
BRANCH  26  40
ATOM     40  C   UNL A   1      46.606  29.437  28.416  1.00  0.00     0.057 A 
ATOM     41  C   UNL A   1      47.154  29.573  27.134  1.00  0.00     0.134 A 
ATOM     42  C   UNL A   1      47.362  28.758  29.377  1.00  0.00     0.134 A 
ATOM     43  F   UNL A   1      46.477  30.209  26.168  1.00  0.00    -0.206 F 
ATOM     44  C   UNL A   1      48.400  29.030  26.814  1.00  0.00     0.040 A 
ATOM     45  C   UNL A   1      48.617  28.226  29.073  1.00  0.00     0.040 A 
ATOM     46  F   UNL A   1      46.896  28.606  30.626  1.00  0.00    -0.206 F 
ATOM     47  C   UNL A   1      49.133  28.351  27.784  1.00  0.00     0.006 A 
ENDBRANCH  26  40
BRANCH  27  48
ATOM     48  C   UNL A   1      37.198  32.246  30.274  1.00  0.00     0.057 A 
ATOM     49  C   UNL A   1      36.634  32.002  31.533  1.00  0.00     0.134 A 
ATOM     50  C   UNL A   1      36.391  32.862  29.312  1.00  0.00     0.134 A 
ATOM     51  F   UNL A   1      37.356  31.412  32.496  1.00  0.00    -0.206 F 
ATOM     52  C   UNL A   1      35.309  32.335  31.818  1.00  0.00     0.040 A 
ATOM     53  C   UNL A   1      35.071  33.222  29.591  1.00  0.00     0.040 A 
ATOM     54  F   UNL A   1      36.882  33.138  28.095  1.00  0.00    -0.206 F 
ATOM     55  C   UNL A   1      34.525  32.952  30.844  1.00  0.00     0.006 A 
ENDBRANCH  27  48
BRANCH  39  56
ATOM     56  C   UNL A   1      43.419  35.263  31.148  1.00  0.00     0.057 A 
ATOM     57  C   UNL A   1      43.552  35.429  32.532  1.00  0.00     0.134 A 
ATOM     58  C   UNL A   1      43.621  36.385  30.335  1.00  0.00     0.134 A 
ATOM     59  F   UNL A   1      43.360  34.393  33.362  1.00  0.00    -0.206 F 
ATOM     60  C   UNL A   1      43.858  36.670  33.088  1.00  0.00     0.040 A 
ATOM     61  C   UNL A   1      43.949  37.626  30.878  1.00  0.00     0.040 A 
ATOM     62  F   UNL A   1      43.519  36.285  29.001  1.00  0.00    -0.206 F 
ATOM     63  C   UNL A   1      44.059  37.773  32.261  1.00  0.00     0.006 A 
ENDBRANCH  39  56
ENDBRANCH  13  14
ENDBRANCH   6   8
ENDBRANCH   3   4
ENDBRANCH   2   3
ENDBRANCH   1   2
BRANCH   1  64
ATOM     64  C   UNL A   1      34.094  22.907  23.630  1.00  0.00     0.116 C 
BRANCH  64  65
ATOM     65  N   UNL A   1      33.333  21.711  23.955  1.00  0.00    -0.354 N 
ATOM     66  C   UNL A   1      32.535  21.475  25.043  1.00  0.00     0.244 C 
ATOM     67  H   UNL A   1      33.402  20.972  23.307  1.00  0.00     0.163 HD
ATOM     68  O   UNL A   1      31.842  20.454  25.039  1.00  0.00    -0.273 OA
BRANCH  66  69
ATOM     69  C   UNL A   1      32.577  22.420  26.258  1.00  0.00     0.197 C 
BRANCH  69  70
ATOM     70  N   UNL A   1      31.213  22.569  26.783  1.00  0.00    -0.340 N 
ATOM     71  C   UNL A   1      30.320  23.591  26.807  1.00  0.00     0.243 C 
ATOM     72  H   UNL A   1      30.872  21.750  27.209  1.00  0.00     0.164 HD
ATOM     73  O   UNL A   1      29.250  23.352  27.386  1.00  0.00    -0.273 OA
BRANCH  71  74
ATOM     74  C   UNL A   1      30.475  24.942  26.058  1.00  0.00     0.176 C 
BRANCH  74  75
ATOM     75  N   UNL A   1      29.339  25.420  25.268  1.00  0.00    -0.340 N 
ATOM     76  C   UNL A   1      29.234  26.226  24.172  1.00  0.00     0.251 C 
ATOM     77  H   UNL A   1      28.472  25.092  25.597  1.00  0.00     0.164 HD
ATOM     78  O   UNL A   1      28.120  26.416  23.686  1.00  0.00    -0.269 OA
BRANCH  76  79
ATOM     79  C   UNL A   1      30.385  26.998  23.659  1.00  0.00     0.040 A 
ATOM     80  C   UNL A   1      31.436  26.436  22.927  1.00  0.00     0.017 A 
ATOM     81  C   UNL A   1      30.391  28.371  23.950  1.00  0.00     0.017 A 
ATOM     82  C   UNL A   1      32.531  27.231  22.572  1.00  0.00     0.040 A 
ATOM     83  C   UNL A   1      31.474  29.165  23.577  1.00  0.00     0.040 A 
ATOM     84  C   UNL A   1      32.543  28.582  22.909  1.00  0.00     0.123 A 
ATOM     85  F   UNL A   1      33.602  29.334  22.580  1.00  0.00    -0.207 F 
ENDBRANCH  76  79
ENDBRANCH  74  75
BRANCH  74  86
ATOM     86  C   UNL A   1      30.994  26.015  27.036  1.00  0.00     0.072 C 
BRANCH  86  87
ATOM     87  C   UNL A   1      32.295  26.634  26.626  1.00  0.00    -0.020 A 
ATOM     88  C   UNL A   1      33.356  25.994  26.018  1.00  0.00     0.087 A 
ATOM     89  C   UNL A   1      32.672  28.005  26.788  1.00  0.00     0.003 A 
ATOM     90  N   UNL A   1      34.361  26.903  25.839  1.00  0.00    -0.361 N 
ATOM     91  C   UNL A   1      33.980  28.131  26.323  1.00  0.00     0.046 A 
ATOM     92  C   UNL A   1      32.026  29.152  27.297  1.00  0.00     0.010 A 
ATOM     93  H   UNL A   1      35.232  26.706  25.425  1.00  0.00     0.166 HD
ATOM     94  C   UNL A   1      34.681  29.339  26.378  1.00  0.00     0.026 A 
ATOM     95  C   UNL A   1      32.715  30.369  27.347  1.00  0.00     0.001 A 
ATOM     96  C   UNL A   1      34.032  30.455  26.908  1.00  0.00     0.002 A 
ENDBRANCH  86  87
ENDBRANCH  74  86
ENDBRANCH  71  74
ENDBRANCH  69  70
BRANCH  69  97
ATOM     97  C   UNL A   1      33.501  21.795  27.317  1.00  0.00     0.191 C 
BRANCH  97  98
ATOM     98  O   UNL A   1      33.994  20.524  26.894  1.00  0.00    -0.394 OA
ATOM     99  H   UNL A   1      34.319  20.590  25.984  1.00  0.00     0.210 HD
ENDBRANCH  97  98
ENDBRANCH  69  97
ENDBRANCH  66  69
ENDBRANCH  64  65
ENDBRANCH   1  64
TORSDOF 19
ENDMDL
MODEL 3
REMARK VINA RESULT:     -11.3      4.028      8.447
REMARK SMILES O=C(NCCCCNC(=O)[C@H](CO)NC(=O)[C@H](Cc1c[nH]c2ccccc12)NC(=O)c1ccc(F)cc1)c1ccc(-c2c3nc(c(-c4c(F)cccc4F)c4ccc([nH]4)c(-c4c(F)cccc4F)c4nc(c(-c5c(F)cccc5F)c5ccc2[nH]5)C=C4)C=C3)cc1
REMARK SMILES IDX 6 1 5 2 4 3 3 4 1 5 2 6 38 8 39 9 91 10 40 11 90 12 41 13
REMARK SMILES IDX 42 14 43 15 84 16 44 17 89 18 83 19 85 20 45 21 88 22 82 23
REMARK SMILES IDX 81 24 46 26 72 27 55 28 71 29 56 30 59 31 70 32 86 33 57 34
REMARK SMILES IDX 58 35 69 37 87 38 60 39 47 40 48 41 53 42 49 43 50 44 52 45
REMARK SMILES IDX 54 46 51 47 73 48 74 49 79 50 75 51 76 52 78 53 80 54 77 55
REMARK SMILES IDX 61 56 62 57 67 58 63 59 64 60 66 61 68 62 65 63 7 64 8 65
REMARK SMILES IDX 9 66 10 68 11 69 14 70 15 71 16 73 17 74 28 75 29 76 30 78
REMARK SMILES IDX 31 79 32 80 37 81 33 82 36 83 34 84 35 85 18 86 19 87 20 88
REMARK SMILES IDX 27 89 21 90 22 91 26 92 23 94 25 95 24 96 12 97 13 98
REMARK H PARENT 3 7 85 25 59 36 8 67 14 72 28 77 21 93 13 99
REMARK Flexibility Score: inf
ROOT
ATOM      1  C   UNL A   1      31.725  30.388  26.697  1.00  0.00     0.023 C 
ENDROOT
BRANCH   1   2
ATOM      2  C   UNL A   1      31.493  31.900  26.765  1.00  0.00     0.023 C 
BRANCH   2   3
ATOM      3  C   UNL A   1      32.704  32.759  27.117  1.00  0.00     0.116 C 
BRANCH   3   4
ATOM      4  N   UNL A   1      32.371  34.095  27.577  1.00  0.00    -0.352 N 
ATOM      5  O   UNL A   1      32.543  35.962  28.836  1.00  0.00    -0.269 OA
ATOM      6  C   UNL A   1      32.988  34.861  28.541  1.00  0.00     0.251 C 
ATOM      7  H   UNL A   1      31.595  34.512  27.137  1.00  0.00     0.163 HD
BRANCH   6   8
ATOM      8  C   UNL A   1      34.181  34.340  29.246  1.00  0.00     0.039 A 
ATOM      9  C   UNL A   1      35.465  34.507  28.719  1.00  0.00     0.014 A 
ATOM     10  C   UNL A   1      34.004  33.683  30.467  1.00  0.00     0.014 A 
ATOM     11  C   UNL A   1      36.557  33.925  29.351  1.00  0.00     0.010 A 
ATOM     12  C   UNL A   1      35.107  33.132  31.123  1.00  0.00     0.010 A 
ATOM     13  C   UNL A   1      36.385  33.226  30.553  1.00  0.00    -0.014 A 
BRANCH  13  14
ATOM     14  C   UNL A   1      37.558  32.601  31.204  1.00  0.00     0.031 A 
ATOM     15  C   UNL A   1      38.234  31.418  30.573  1.00  0.00     0.074 A 
ATOM     16  C   UNL A   1      38.027  33.128  32.350  1.00  0.00     0.049 A 
ATOM     17  N   UNL A   1      39.248  30.720  31.013  1.00  0.00    -0.248 NA
ATOM     18  C   UNL A   1      37.703  30.957  29.280  1.00  0.00     0.031 C 
ATOM     19  C   UNL A   1      37.460  34.290  33.037  1.00  0.00     0.029 A 
ATOM     20  N   UNL A   1      39.088  32.759  33.138  1.00  0.00    -0.354 N 
ATOM     21  C   UNL A   1      39.468  29.731  30.063  1.00  0.00     0.074 A 
ATOM     22  C   UNL A   1      38.474  29.908  29.027  1.00  0.00     0.031 C 
ATOM     23  C   UNL A   1      38.184  34.546  34.136  1.00  0.00     0.029 A 
ATOM     24  C   UNL A   1      39.233  33.539  34.259  1.00  0.00     0.049 A 
ATOM     25  H   UNL A   1      39.686  32.010  32.920  1.00  0.00     0.167 HD
ATOM     26  C   UNL A   1      40.418  28.769  30.061  1.00  0.00     0.037 A 
ATOM     27  C   UNL A   1      40.098  33.436  35.285  1.00  0.00     0.037 A 
ATOM     28  C   UNL A   1      41.417  28.616  31.086  1.00  0.00     0.049 A 
ATOM     29  C   UNL A   1      41.113  32.330  35.276  1.00  0.00     0.074 A 
ATOM     30  C   UNL A   1      42.449  27.695  31.150  1.00  0.00     0.029 A 
ATOM     31  N   UNL A   1      41.506  29.400  32.225  1.00  0.00    -0.354 N 
ATOM     32  N   UNL A   1      41.319  31.411  34.365  1.00  0.00    -0.248 NA
ATOM     33  C   UNL A   1      42.007  32.238  36.438  1.00  0.00     0.031 C 
ATOM     34  C   UNL A   1      43.139  27.897  32.349  1.00  0.00     0.029 A 
ATOM     35  C   UNL A   1      42.561  28.966  33.012  1.00  0.00     0.049 A 
ATOM     36  H   UNL A   1      40.911  30.151  32.444  1.00  0.00     0.167 HD
ATOM     37  C   UNL A   1      42.365  30.633  34.839  1.00  0.00     0.074 A 
ATOM     38  C   UNL A   1      42.768  31.202  36.110  1.00  0.00     0.031 C 
ATOM     39  C   UNL A   1      42.938  29.542  34.276  1.00  0.00     0.037 A 
BRANCH  26  40
ATOM     40  C   UNL A   1      40.436  27.793  28.924  1.00  0.00     0.057 A 
ATOM     41  C   UNL A   1      41.211  28.045  27.784  1.00  0.00     0.134 A 
ATOM     42  C   UNL A   1      39.609  26.664  28.911  1.00  0.00     0.134 A 
ATOM     43  F   UNL A   1      42.020  29.113  27.734  1.00  0.00    -0.206 F 
ATOM     44  C   UNL A   1      41.145  27.218  26.661  1.00  0.00     0.040 A 
ATOM     45  C   UNL A   1      39.548  25.821  27.799  1.00  0.00     0.040 A 
ATOM     46  F   UNL A   1      38.852  26.363  29.976  1.00  0.00    -0.206 F 
ATOM     47  C   UNL A   1      40.309  26.104  26.666  1.00  0.00     0.006 A 
ENDBRANCH  26  40
BRANCH  27  48
ATOM     48  C   UNL A   1      40.012  34.394  36.414  1.00  0.00     0.057 A 
ATOM     49  C   UNL A   1      39.235  34.115  37.545  1.00  0.00     0.134 A 
ATOM     50  C   UNL A   1      40.685  35.619  36.378  1.00  0.00     0.134 A 
ATOM     51  F   UNL A   1      38.563  32.958  37.636  1.00  0.00    -0.206 F 
ATOM     52  C   UNL A   1      39.111  35.030  38.591  1.00  0.00     0.040 A 
ATOM     53  C   UNL A   1      40.589  36.534  37.428  1.00  0.00     0.040 A 
ATOM     54  F   UNL A   1      41.460  35.934  35.330  1.00  0.00    -0.206 F 
ATOM     55  C   UNL A   1      39.794  36.243  38.535  1.00  0.00     0.006 A 
ENDBRANCH  27  48
BRANCH  39  56
ATOM     56  C   UNL A   1      44.056  28.890  35.027  1.00  0.00     0.057 A 
ATOM     57  C   UNL A   1      43.795  27.920  36.003  1.00  0.00     0.134 A 
ATOM     58  C   UNL A   1      45.388  29.276  34.832  1.00  0.00     0.134 A 
ATOM     59  F   UNL A   1      42.538  27.517  36.243  1.00  0.00    -0.206 F 
ATOM     60  C   UNL A   1      44.821  27.365  36.768  1.00  0.00     0.040 A 
ATOM     61  C   UNL A   1      46.424  28.713  35.576  1.00  0.00     0.040 A 
ATOM     62  F   UNL A   1      45.700  30.193  33.904  1.00  0.00    -0.206 F 
ATOM     63  C   UNL A   1      46.140  27.760  36.554  1.00  0.00     0.006 A 
ENDBRANCH  39  56
ENDBRANCH  13  14
ENDBRANCH   6   8
ENDBRANCH   3   4
ENDBRANCH   2   3
ENDBRANCH   1   2
BRANCH   1  64
ATOM     64  C   UNL A   1      32.021  29.812  25.315  1.00  0.00     0.116 C 
BRANCH  64  65
ATOM     65  N   UNL A   1      30.876  29.859  24.421  1.00  0.00    -0.354 N 
ATOM     66  C   UNL A   1      30.175  28.817  23.873  1.00  0.00     0.244 C 
ATOM     67  H   UNL A   1      30.561  30.760  24.177  1.00  0.00     0.163 HD
ATOM     68  O   UNL A   1      29.127  29.077  23.277  1.00  0.00    -0.273 OA
BRANCH  66  69
ATOM     69  C   UNL A   1      30.736  27.384  23.935  1.00  0.00     0.197 C 
BRANCH  69  70
ATOM     70  N   UNL A   1      29.942  26.612  24.900  1.00  0.00    -0.340 N 
ATOM     71  C   UNL A   1      30.222  25.586  25.743  1.00  0.00     0.243 C 
ATOM     72  H   UNL A   1      29.003  26.900  24.944  1.00  0.00     0.164 HD
ATOM     73  O   UNL A   1      29.262  25.154  26.397  1.00  0.00    -0.273 OA
BRANCH  71  74
ATOM     74  C   UNL A   1      31.640  25.033  26.049  1.00  0.00     0.176 C 
BRANCH  74  75
ATOM     75  N   UNL A   1      32.704  25.997  26.333  1.00  0.00    -0.340 N 
ATOM     76  C   UNL A   1      33.995  26.119  25.909  1.00  0.00     0.251 C 
ATOM     77  H   UNL A   1      32.431  26.703  26.962  1.00  0.00     0.164 HD
ATOM     78  O   UNL A   1      34.652  27.086  26.290  1.00  0.00    -0.269 OA
BRANCH  76  79
ATOM     79  C   UNL A   1      34.668  25.048  25.143  1.00  0.00     0.040 A 
ATOM     80  C   UNL A   1      35.771  24.329  25.614  1.00  0.00     0.017 A 
ATOM     81  C   UNL A   1      34.144  24.772  23.870  1.00  0.00     0.017 A 
ATOM     82  C   UNL A   1      36.401  23.405  24.774  1.00  0.00     0.040 A 
ATOM     83  C   UNL A   1      34.762  23.835  23.043  1.00  0.00     0.040 A 
ATOM     84  C   UNL A   1      35.897  23.176  23.496  1.00  0.00     0.123 A 
ATOM     85  F   UNL A   1      36.514  22.301  22.691  1.00  0.00    -0.207 F 
ENDBRANCH  76  79
ENDBRANCH  74  75
BRANCH  74  86
ATOM     86  C   UNL A   1      31.542  23.941  27.135  1.00  0.00     0.072 C 
BRANCH  86  87
ATOM     87  C   UNL A   1      32.569  22.859  27.005  1.00  0.00    -0.020 A 
ATOM     88  C   UNL A   1      33.532  22.522  27.935  1.00  0.00     0.087 A 
ATOM     89  C   UNL A   1      32.734  21.973  25.894  1.00  0.00     0.003 A 
ATOM     90  N   UNL A   1      34.287  21.504  27.422  1.00  0.00    -0.361 N 
ATOM     91  C   UNL A   1      33.837  21.167  26.168  1.00  0.00     0.046 A 
ATOM     92  C   UNL A   1      32.053  21.787  24.672  1.00  0.00     0.010 A 
ATOM     93  H   UNL A   1      35.043  21.076  27.884  1.00  0.00     0.166 HD
ATOM     94  C   UNL A   1      34.311  20.213  25.264  1.00  0.00     0.026 A 
ATOM     95  C   UNL A   1      32.512  20.827  23.763  1.00  0.00     0.001 A 
ATOM     96  C   UNL A   1      33.638  20.062  24.050  1.00  0.00     0.002 A 
ENDBRANCH  86  87
ENDBRANCH  74  86
ENDBRANCH  71  74
ENDBRANCH  69  70
BRANCH  69  97
ATOM     97  C   UNL A   1      30.633  26.770  22.529  1.00  0.00     0.191 C 
BRANCH  97  98
ATOM     98  O   UNL A   1      30.947  27.726  21.518  1.00  0.00    -0.394 OA
ATOM     99  H   UNL A   1      30.823  27.326  20.644  1.00  0.00     0.210 HD
ENDBRANCH  97  98
ENDBRANCH  69  97
ENDBRANCH  66  69
ENDBRANCH  64  65
ENDBRANCH   1  64
TORSDOF 19
ENDMDL
