MODEL 1
REMARK VINA RESULT:     -10.8      0.000      0.000
REMARK SMILES Cc1nnc(S[C@@H](C)CCO)c(C(=O)NCCCCNC(=O)c2ccc(-c3c4nc(c(-c5c(F)cccc5F)c5ccc([nH]5)c(-c5c(F)cccc5F)c5nc(c(-c6c(F)cccc6F)c6ccc3[nH]6)C=C5)C=C4)cc2)c1C
REMARK SMILES IDX 16 1 15 2 13 3 14 4 12 6 1 7 2 8 3 9 77 10 4 11 78 12 5 13
REMARK SMILES IDX 6 14 7 15 8 16 9 17 10 18 11 19 17 21 18 22 19 23 20 24
REMARK SMILES IDX 21 25 22 27 23 28 24 29 76 30 25 31 75 32 26 33 27 34 28 35
REMARK SMILES IDX 69 36 29 37 74 38 68 39 70 40 30 41 73 42 67 43 66 44 31 46
REMARK SMILES IDX 57 47 40 48 56 49 41 50 44 51 55 52 71 53 42 54 43 55 54 57
REMARK SMILES IDX 72 58 45 59 32 60 33 61 38 62 34 63 35 64 37 65 39 66 36 67
REMARK SMILES IDX 58 68 59 69 64 70 60 71 61 72 63 73 65 74 62 75 46 76 47 77
REMARK SMILES IDX 52 78 48 79 49 80 51 81 53 82 50 83
REMARK H PARENT 15 5 11 20 20 26 70 45 44 56
REMARK Flexibility Score: inf
ROOT
ATOM      1  C   UNL A   1      36.888  22.173  25.417  1.00  0.00     0.116 C 
ENDROOT
BRANCH   1   2
ATOM      2  N   UNL A   1      36.018  22.665  26.472  1.00  0.00    -0.352 N 
ATOM      3  C   UNL A   1      34.655  22.915  26.470  1.00  0.00     0.254 C 
ATOM      4  O   UNL A   1      34.089  22.933  27.556  1.00  0.00    -0.269 OA
ATOM      5  H   UNL A   1      36.470  22.851  27.326  1.00  0.00     0.163 HD
BRANCH   3   6
ATOM      6  C   UNL A   1      33.894  23.186  25.229  1.00  0.00     0.078 A 
ATOM      7  C   UNL A   1      32.153  21.322  22.373  1.00  0.00     0.069 C 
ATOM      8  C   UNL A   1      32.763  22.376  23.247  1.00  0.00     0.064 A 
ATOM      9  N   UNL A   1      32.786  23.612  22.733  1.00  0.00    -0.155 NA
ATOM     10  C   UNL A   1      33.284  22.115  24.516  1.00  0.00    -0.012 A 
ATOM     11  N   UNL A   1      33.214  24.659  23.500  1.00  0.00    -0.143 NA
ATOM     12  C   UNL A   1      33.098  20.735  25.090  1.00  0.00     0.047 C 
ATOM     13  C   UNL A   1      33.714  24.493  24.752  1.00  0.00     0.132 A 
BRANCH  13  14
ATOM     14  S   UNL A   1      33.651  26.093  25.545  1.00  0.00    -0.101 SA
BRANCH  14  15
ATOM     15  C   UNL A   1      32.106  26.418  26.475  1.00  0.00     0.052 C 
ATOM     16  C   UNL A   1      32.137  27.826  27.077  1.00  0.00     0.020 C 
BRANCH  15  17
ATOM     17  C   UNL A   1      30.778  25.973  25.857  1.00  0.00     0.043 C 
BRANCH  17  18
ATOM     18  C   UNL A   1      30.459  24.502  26.135  1.00  0.00     0.157 C 
BRANCH  18  19
ATOM     19  O   UNL A   1      31.207  24.030  27.251  1.00  0.00    -0.396 OA
ATOM     20  H   UNL A   1      30.769  24.304  28.073  1.00  0.00     0.210 HD
ENDBRANCH  18  19
ENDBRANCH  17  18
ENDBRANCH  15  17
ENDBRANCH  14  15
ENDBRANCH  13  14
ENDBRANCH   3   6
ENDBRANCH   1   2
BRANCH   1  21
ATOM     21  C   UNL A   1      36.709  20.716  25.003  1.00  0.00     0.023 C 
BRANCH  21  22
ATOM     22  C   UNL A   1      37.969  19.877  24.808  1.00  0.00     0.023 C 
BRANCH  22  23
ATOM     23  C   UNL A   1      39.131  20.132  25.759  1.00  0.00     0.116 C 
BRANCH  23  24
ATOM     24  N   UNL A   1      40.144  19.089  25.766  1.00  0.00    -0.352 N 
ATOM     25  C   UNL A   1      41.491  19.179  26.050  1.00  0.00     0.251 C 
ATOM     26  H   UNL A   1      39.822  18.188  25.533  1.00  0.00     0.163 HD
ATOM     27  O   UNL A   1      42.218  18.206  25.978  1.00  0.00    -0.269 OA
BRANCH  25  28
ATOM     28  C   UNL A   1      42.044  20.502  26.404  1.00  0.00     0.039 A 
ATOM     29  C   UNL A   1      42.396  21.378  25.376  1.00  0.00     0.014 A 
ATOM     30  C   UNL A   1      42.122  20.892  27.742  1.00  0.00     0.014 A 
ATOM     31  C   UNL A   1      42.745  22.691  25.690  1.00  0.00     0.010 A 
ATOM     32  C   UNL A   1      42.393  22.220  28.046  1.00  0.00     0.010 A 
ATOM     33  C   UNL A   1      42.711  23.128  27.023  1.00  0.00    -0.014 A 
BRANCH  33  34
ATOM     34  C   UNL A   1      43.067  24.520  27.380  1.00  0.00     0.031 A 
ATOM     35  C   UNL A   1      44.509  24.936  27.342  1.00  0.00     0.074 A 
ATOM     36  C   UNL A   1      42.115  25.386  27.777  1.00  0.00     0.049 A 
ATOM     37  N   UNL A   1      45.049  26.087  27.646  1.00  0.00    -0.248 NA
ATOM     38  C   UNL A   1      45.475  23.905  26.931  1.00  0.00     0.031 C 
ATOM     39  C   UNL A   1      40.686  25.089  27.882  1.00  0.00     0.029 A 
ATOM     40  N   UNL A   1      42.213  26.696  28.171  1.00  0.00    -0.354 N 
ATOM     41  C   UNL A   1      46.414  25.917  27.460  1.00  0.00     0.074 A 
ATOM     42  C   UNL A   1      46.626  24.533  27.099  1.00  0.00     0.031 C 
ATOM     43  C   UNL A   1      40.037  26.195  28.282  1.00  0.00     0.029 A 
ATOM     44  C   UNL A   1      41.006  27.267  28.492  1.00  0.00     0.049 A 
ATOM     45  H   UNL A   1      43.068  27.182  28.218  1.00  0.00     0.167 HD
ATOM     46  C   UNL A   1      47.402  26.839  27.545  1.00  0.00     0.037 A 
ATOM     47  C   UNL A   1      40.723  28.517  28.903  1.00  0.00     0.037 A 
ATOM     48  C   UNL A   1      47.188  28.212  27.910  1.00  0.00     0.049 A 
ATOM     49  C   UNL A   1      41.846  29.508  29.061  1.00  0.00     0.074 A 
ATOM     50  C   UNL A   1      48.109  29.238  28.002  1.00  0.00     0.029 A 
ATOM     51  N   UNL A   1      45.955  28.747  28.256  1.00  0.00    -0.354 N 
ATOM     52  N   UNL A   1      43.126  29.355  28.816  1.00  0.00    -0.248 NA
ATOM     53  C   UNL A   1      41.481  30.844  29.548  1.00  0.00     0.031 C 
ATOM     54  C   UNL A   1      47.442  30.384  28.450  1.00  0.00     0.029 A 
ATOM     55  C   UNL A   1      46.095  30.083  28.589  1.00  0.00     0.049 A 
ATOM     56  H   UNL A   1      45.105  28.249  28.265  1.00  0.00     0.167 HD
ATOM     57  C   UNL A   1      43.714  30.585  29.088  1.00  0.00     0.074 A 
ATOM     58  C   UNL A   1      42.648  31.473  29.503  1.00  0.00     0.031 C 
ATOM     59  C   UNL A   1      45.018  30.949  28.999  1.00  0.00     0.037 A 
BRANCH  46  60
ATOM     60  C   UNL A   1      48.793  26.363  27.242  1.00  0.00     0.057 A 
ATOM     61  C   UNL A   1      49.293  26.391  25.936  1.00  0.00     0.134 A 
ATOM     62  C   UNL A   1      49.658  25.921  28.256  1.00  0.00     0.134 A 
ATOM     63  F   UNL A   1      48.520  26.800  24.918  1.00  0.00    -0.206 F 
ATOM     64  C   UNL A   1      50.606  26.014  25.650  1.00  0.00     0.040 A 
ATOM     65  C   UNL A   1      50.983  25.574  27.987  1.00  0.00     0.040 A 
ATOM     66  F   UNL A   1      49.248  25.891  29.533  1.00  0.00    -0.206 F 
ATOM     67  C   UNL A   1      51.460  25.619  26.679  1.00  0.00     0.006 A 
ENDBRANCH  46  60
BRANCH  47  68
ATOM     68  C   UNL A   1      39.318  28.925  29.162  1.00  0.00     0.057 A 
ATOM     69  C   UNL A   1      38.516  29.487  28.162  1.00  0.00     0.134 A 
ATOM     70  C   UNL A   1      38.737  28.731  30.421  1.00  0.00     0.134 A 
ATOM     71  F   UNL A   1      39.015  29.703  26.936  1.00  0.00    -0.206 F 
ATOM     72  C   UNL A   1      37.188  29.841  28.405  1.00  0.00     0.040 A 
ATOM     73  C   UNL A   1      37.404  29.059  30.671  1.00  0.00     0.040 A 
ATOM     74  F   UNL A   1      39.448  28.178  31.414  1.00  0.00    -0.206 F 
ATOM     75  C   UNL A   1      36.625  29.619  29.660  1.00  0.00     0.006 A 
ENDBRANCH  47  68
BRANCH  59  76
ATOM     76  C   UNL A   1      45.351  32.376  29.325  1.00  0.00     0.057 A 
ATOM     77  C   UNL A   1      45.703  32.743  30.630  1.00  0.00     0.134 A 
ATOM     78  C   UNL A   1      45.298  33.389  28.359  1.00  0.00     0.134 A 
ATOM     79  F   UNL A   1      45.765  31.824  31.604  1.00  0.00    -0.206 F 
ATOM     80  C   UNL A   1      45.988  34.068  30.963  1.00  0.00     0.040 A 
ATOM     81  C   UNL A   1      45.610  34.712  28.673  1.00  0.00     0.040 A 
ATOM     82  F   UNL A   1      44.982  33.100  27.087  1.00  0.00    -0.206 F 
ATOM     83  C   UNL A   1      45.950  35.056  29.981  1.00  0.00     0.006 A 
ENDBRANCH  59  76
ENDBRANCH  33  34
ENDBRANCH  25  28
ENDBRANCH  23  24
ENDBRANCH  22  23
ENDBRANCH  21  22
ENDBRANCH   1  21
TORSDOF 16
ENDMDL
MODEL 2
REMARK VINA RESULT:     -10.6      5.342     10.147
REMARK SMILES Cc1nnc(S[C@@H](C)CCO)c(C(=O)NCCCCNC(=O)c2ccc(-c3c4nc(c(-c5c(F)cccc5F)c5ccc([nH]5)c(-c5c(F)cccc5F)c5nc(c(-c6c(F)cccc6F)c6ccc3[nH]6)C=C5)C=C4)cc2)c1C
REMARK SMILES IDX 16 1 15 2 13 3 14 4 12 6 1 7 2 8 3 9 77 10 4 11 78 12 5 13
REMARK SMILES IDX 6 14 7 15 8 16 9 17 10 18 11 19 17 21 18 22 19 23 20 24
REMARK SMILES IDX 21 25 22 27 23 28 24 29 76 30 25 31 75 32 26 33 27 34 28 35
REMARK SMILES IDX 69 36 29 37 74 38 68 39 70 40 30 41 73 42 67 43 66 44 31 46
REMARK SMILES IDX 57 47 40 48 56 49 41 50 44 51 55 52 71 53 42 54 43 55 54 57
REMARK SMILES IDX 72 58 45 59 32 60 33 61 38 62 34 63 35 64 37 65 39 66 36 67
REMARK SMILES IDX 58 68 59 69 64 70 60 71 61 72 63 73 65 74 62 75 46 76 47 77
REMARK SMILES IDX 52 78 48 79 49 80 51 81 53 82 50 83
REMARK H PARENT 15 5 11 20 20 26 70 45 44 56
REMARK Flexibility Score: inf
ROOT
ATOM      1  C   UNL A   1      32.969  29.715  26.590  1.00  0.00     0.116 C 
ENDROOT
BRANCH   1   2
ATOM      2  N   UNL A   1      33.619  29.571  25.298  1.00  0.00    -0.352 N 
ATOM      3  C   UNL A   1      33.186  28.951  24.138  1.00  0.00     0.254 C 
ATOM      4  O   UNL A   1      33.711  29.301  23.088  1.00  0.00    -0.269 OA
ATOM      5  H   UNL A   1      34.513  29.980  25.239  1.00  0.00     0.163 HD
BRANCH   3   6
ATOM      6  C   UNL A   1      32.158  27.885  24.136  1.00  0.00     0.078 A 
ATOM      7  C   UNL A   1      31.766  24.166  24.960  1.00  0.00     0.069 C 
ATOM      8  C   UNL A   1      31.542  25.569  24.482  1.00  0.00     0.064 A 
ATOM      9  N   UNL A   1      30.396  25.779  23.821  1.00  0.00    -0.155 NA
ATOM     10  C   UNL A   1      32.452  26.608  24.691  1.00  0.00    -0.012 A 
ATOM     11  N   UNL A   1      30.048  27.048  23.450  1.00  0.00    -0.143 NA
ATOM     12  C   UNL A   1      33.651  26.336  25.561  1.00  0.00     0.047 C 
ATOM     13  C   UNL A   1      30.866  28.116  23.638  1.00  0.00     0.132 A 
BRANCH  13  14
ATOM     14  S   UNL A   1      29.844  29.575  23.501  1.00  0.00    -0.101 SA
BRANCH  14  15
ATOM     15  C   UNL A   1      28.423  29.401  22.358  1.00  0.00     0.052 C 
ATOM     16  C   UNL A   1      27.178  28.945  23.126  1.00  0.00     0.020 C 
BRANCH  15  17
ATOM     17  C   UNL A   1      28.207  30.483  21.296  1.00  0.00     0.043 C 
BRANCH  17  18
ATOM     18  C   UNL A   1      28.763  31.845  21.719  1.00  0.00     0.157 C 
BRANCH  18  19
ATOM     19  O   UNL A   1      27.713  32.702  22.155  1.00  0.00    -0.396 OA
ATOM     20  H   UNL A   1      26.869  32.224  22.116  1.00  0.00     0.210 HD
ENDBRANCH  18  19
ENDBRANCH  17  18
ENDBRANCH  15  17
ENDBRANCH  14  15
ENDBRANCH  13  14
ENDBRANCH   3   6
ENDBRANCH   1   2
BRANCH   1  21
ATOM     21  C   UNL A   1      31.614  30.416  26.602  1.00  0.00     0.023 C 
BRANCH  21  22
ATOM     22  C   UNL A   1      31.607  31.942  26.535  1.00  0.00     0.023 C 
BRANCH  22  23
ATOM     23  C   UNL A   1      32.807  32.670  27.126  1.00  0.00     0.116 C 
BRANCH  23  24
ATOM     24  N   UNL A   1      32.515  34.004  27.626  1.00  0.00    -0.352 N 
ATOM     25  C   UNL A   1      33.151  34.726  28.615  1.00  0.00     0.251 C 
ATOM     26  H   UNL A   1      31.752  34.457  27.199  1.00  0.00     0.163 HD
ATOM     27  O   UNL A   1      32.758  35.830  28.942  1.00  0.00    -0.269 OA
BRANCH  25  28
ATOM     28  C   UNL A   1      34.302  34.107  29.302  1.00  0.00     0.039 A 
ATOM     29  C   UNL A   1      34.058  33.160  30.299  1.00  0.00     0.014 A 
ATOM     30  C   UNL A   1      35.604  34.402  28.892  1.00  0.00     0.014 A 
ATOM     31  C   UNL A   1      35.126  32.436  30.827  1.00  0.00     0.010 A 
ATOM     32  C   UNL A   1      36.654  33.625  29.363  1.00  0.00     0.010 A 
ATOM     33  C   UNL A   1      36.425  32.640  30.337  1.00  0.00    -0.014 A 
BRANCH  33  34
ATOM     34  C   UNL A   1      37.573  31.876  30.874  1.00  0.00     0.031 A 
ATOM     35  C   UNL A   1      38.058  32.172  32.263  1.00  0.00     0.074 A 
ATOM     36  C   UNL A   1      38.201  30.962  30.110  1.00  0.00     0.049 A 
ATOM     37  N   UNL A   1      39.063  31.652  32.920  1.00  0.00    -0.248 NA
ATOM     38  C   UNL A   1      37.328  33.213  33.002  1.00  0.00     0.031 C 
ATOM     39  C   UNL A   1      37.839  30.610  28.736  1.00  0.00     0.029 A 
ATOM     40  N   UNL A   1      39.282  30.164  30.384  1.00  0.00    -0.354 N 
ATOM     41  C   UNL A   1      39.081  32.302  34.146  1.00  0.00     0.074 A 
ATOM     42  C   UNL A   1      38.043  33.308  34.110  1.00  0.00     0.031 C 
ATOM     43  C   UNL A   1      38.665  29.644  28.299  1.00  0.00     0.029 A 
ATOM     44  C   UNL A   1      39.631  29.332  29.349  1.00  0.00     0.049 A 
ATOM     45  H   UNL A   1      39.762  30.185  31.244  1.00  0.00     0.167 HD
ATOM     46  C   UNL A   1      39.866  32.059  35.222  1.00  0.00     0.037 A 
ATOM     47  C   UNL A   1      40.618  28.422  29.266  1.00  0.00     0.037 A 
ATOM     48  C   UNL A   1      40.899  31.062  35.252  1.00  0.00     0.049 A 
ATOM     49  C   UNL A   1      41.526  28.218  30.450  1.00  0.00     0.074 A 
ATOM     50  C   UNL A   1      41.736  30.712  36.294  1.00  0.00     0.029 A 
ATOM     51  N   UNL A   1      41.244  30.258  34.174  1.00  0.00    -0.354 N 
ATOM     52  N   UNL A   1      41.491  28.790  31.630  1.00  0.00    -0.248 NA
ATOM     53  C   UNL A   1      42.608  27.237  30.289  1.00  0.00     0.031 C 
ATOM     54  C   UNL A   1      42.619  29.729  35.833  1.00  0.00     0.029 A 
ATOM     55  C   UNL A   1      42.299  29.432  34.517  1.00  0.00     0.049 A 
ATOM     56  H   UNL A   1      40.802  30.275  33.293  1.00  0.00     0.167 HD
ATOM     57  C   UNL A   1      42.524  28.217  32.362  1.00  0.00     0.074 A 
ATOM     58  C   UNL A   1      43.157  27.243  31.496  1.00  0.00     0.031 C 
ATOM     59  C   UNL A   1      42.913  28.468  33.637  1.00  0.00     0.037 A 
BRANCH  46  60
ATOM     60  C   UNL A   1      39.621  32.906  36.437  1.00  0.00     0.057 A 
ATOM     61  C   UNL A   1      40.339  34.088  36.645  1.00  0.00     0.134 A 
ATOM     62  C   UNL A   1      38.635  32.574  37.380  1.00  0.00     0.134 A 
ATOM     63  F   UNL A   1      41.297  34.466  35.785  1.00  0.00    -0.206 F 
ATOM     64  C   UNL A   1      40.075  34.919  37.736  1.00  0.00     0.040 A 
ATOM     65  C   UNL A   1      38.340  33.413  38.456  1.00  0.00     0.040 A 
ATOM     66  F   UNL A   1      37.896  31.465  37.227  1.00  0.00    -0.206 F 
ATOM     67  C   UNL A   1      39.063  34.590  38.637  1.00  0.00     0.006 A 
ENDBRANCH  46  60
BRANCH  47  68
ATOM     68  C   UNL A   1      40.786  27.601  28.039  1.00  0.00     0.057 A 
ATOM     69  C   UNL A   1      41.578  28.029  26.967  1.00  0.00     0.134 A 
ATOM     70  C   UNL A   1      40.174  26.347  27.928  1.00  0.00     0.134 A 
ATOM     71  F   UNL A   1      42.188  29.222  27.010  1.00  0.00    -0.206 F 
ATOM     72  C   UNL A   1      41.755  27.239  25.830  1.00  0.00     0.040 A 
ATOM     73  C   UNL A   1      40.362  25.537  26.807  1.00  0.00     0.040 A 
ATOM     74  F   UNL A   1      39.420  25.873  28.931  1.00  0.00    -0.206 F 
ATOM     75  C   UNL A   1      41.153  25.985  25.751  1.00  0.00     0.006 A 
ENDBRANCH  47  68
BRANCH  59  76
ATOM     76  C   UNL A   1      44.052  27.653  34.176  1.00  0.00     0.057 A 
ATOM     77  C   UNL A   1      43.816  26.407  34.771  1.00  0.00     0.134 A 
ATOM     78  C   UNL A   1      45.376  28.108  34.131  1.00  0.00     0.134 A 
ATOM     79  F   UNL A   1      42.570  25.916  34.853  1.00  0.00    -0.206 F 
ATOM     80  C   UNL A   1      44.855  25.644  35.304  1.00  0.00     0.040 A 
ATOM     81  C   UNL A   1      46.428  27.341  34.634  1.00  0.00     0.040 A 
ATOM     82  F   UNL A   1      45.671  29.286  33.561  1.00  0.00    -0.206 F 
ATOM     83  C   UNL A   1      46.168  26.108  35.229  1.00  0.00     0.006 A 
ENDBRANCH  59  76
ENDBRANCH  33  34
ENDBRANCH  25  28
ENDBRANCH  23  24
ENDBRANCH  22  23
ENDBRANCH  21  22
ENDBRANCH   1  21
TORSDOF 16
ENDMDL
MODEL 3
REMARK VINA RESULT:     -10.6      1.669      2.888
REMARK SMILES Cc1nnc(S[C@@H](C)CCO)c(C(=O)NCCCCNC(=O)c2ccc(-c3c4nc(c(-c5c(F)cccc5F)c5ccc([nH]5)c(-c5c(F)cccc5F)c5nc(c(-c6c(F)cccc6F)c6ccc3[nH]6)C=C5)C=C4)cc2)c1C
REMARK SMILES IDX 16 1 15 2 13 3 14 4 12 6 1 7 2 8 3 9 77 10 4 11 78 12 5 13
REMARK SMILES IDX 6 14 7 15 8 16 9 17 10 18 11 19 17 21 18 22 19 23 20 24
REMARK SMILES IDX 21 25 22 27 23 28 24 29 76 30 25 31 75 32 26 33 27 34 28 35
REMARK SMILES IDX 69 36 29 37 74 38 68 39 70 40 30 41 73 42 67 43 66 44 31 46
REMARK SMILES IDX 57 47 40 48 56 49 41 50 44 51 55 52 71 53 42 54 43 55 54 57
REMARK SMILES IDX 72 58 45 59 32 60 33 61 38 62 34 63 35 64 37 65 39 66 36 67
REMARK SMILES IDX 58 68 59 69 64 70 60 71 61 72 63 73 65 74 62 75 46 76 47 77
REMARK SMILES IDX 52 78 48 79 49 80 51 81 53 82 50 83
REMARK H PARENT 15 5 11 20 20 26 70 45 44 56
REMARK Flexibility Score: inf
ROOT
ATOM      1  C   UNL A   1      37.281  22.142  25.372  1.00  0.00     0.116 C 
ENDROOT
BRANCH   1   2
ATOM      2  N   UNL A   1      36.315  22.258  26.451  1.00  0.00    -0.352 N 
ATOM      3  C   UNL A   1      34.951  22.017  26.466  1.00  0.00     0.254 C 
ATOM      4  O   UNL A   1      34.434  21.793  27.554  1.00  0.00    -0.269 OA
ATOM      5  H   UNL A   1      36.690  22.557  27.311  1.00  0.00     0.163 HD
BRANCH   3   6
ATOM      6  C   UNL A   1      34.119  22.053  25.242  1.00  0.00     0.078 A 
ATOM      7  C   UNL A   1      32.457  24.568  22.880  1.00  0.00     0.069 C 
ATOM      8  C   UNL A   1      32.884  23.316  23.585  1.00  0.00     0.064 A 
ATOM      9  N   UNL A   1      32.282  22.190  23.181  1.00  0.00    -0.155 NA
ATOM     10  C   UNL A   1      33.840  23.295  24.604  1.00  0.00    -0.012 A 
ATOM     11  N   UNL A   1      32.688  20.985  23.681  1.00  0.00    -0.143 NA
ATOM     12  C   UNL A   1      34.578  24.571  24.911  1.00  0.00     0.047 C 
ATOM     13  C   UNL A   1      33.627  20.876  24.656  1.00  0.00     0.132 A 
BRANCH  13  14
ATOM     14  S   UNL A   1      34.205  19.186  24.625  1.00  0.00    -0.101 SA
BRANCH  14  15
ATOM     15  C   UNL A   1      32.872  17.930  24.551  1.00  0.00     0.052 C 
ATOM     16  C   UNL A   1      32.726  17.397  23.123  1.00  0.00     0.020 C 
BRANCH  15  17
ATOM     17  C   UNL A   1      32.786  16.894  25.675  1.00  0.00     0.043 C 
BRANCH  17  18
ATOM     18  C   UNL A   1      32.955  15.459  25.171  1.00  0.00     0.157 C 
BRANCH  18  19
ATOM     19  O   UNL A   1      31.763  14.709  25.386  1.00  0.00    -0.396 OA
ATOM     20  H   UNL A   1      31.129  15.247  25.887  1.00  0.00     0.210 HD
ENDBRANCH  18  19
ENDBRANCH  17  18
ENDBRANCH  15  17
ENDBRANCH  14  15
ENDBRANCH  13  14
ENDBRANCH   3   6
ENDBRANCH   1   2
BRANCH   1  21
ATOM     21  C   UNL A   1      37.249  20.853  24.557  1.00  0.00     0.023 C 
BRANCH  21  22
ATOM     22  C   UNL A   1      38.083  19.677  25.061  1.00  0.00     0.023 C 
BRANCH  22  23
ATOM     23  C   UNL A   1      39.334  20.005  25.865  1.00  0.00     0.116 C 
BRANCH  23  24
ATOM     24  N   UNL A   1      40.370  18.986  25.806  1.00  0.00    -0.352 N 
ATOM     25  C   UNL A   1      41.726  19.103  26.035  1.00  0.00     0.251 C 
ATOM     26  H   UNL A   1      40.060  18.083  25.567  1.00  0.00     0.163 HD
ATOM     27  O   UNL A   1      42.471  18.150  25.911  1.00  0.00    -0.269 OA
BRANCH  25  28
ATOM     28  C   UNL A   1      42.263  20.431  26.394  1.00  0.00     0.039 A 
ATOM     29  C   UNL A   1      42.641  21.301  25.370  1.00  0.00     0.014 A 
ATOM     30  C   UNL A   1      42.300  20.833  27.731  1.00  0.00     0.014 A 
ATOM     31  C   UNL A   1      42.976  22.617  25.682  1.00  0.00     0.010 A 
ATOM     32  C   UNL A   1      42.556  22.164  28.031  1.00  0.00     0.010 A 
ATOM     33  C   UNL A   1      42.900  23.066  27.010  1.00  0.00    -0.014 A 
BRANCH  33  34
ATOM     34  C   UNL A   1      43.240  24.462  27.366  1.00  0.00     0.031 A 
ATOM     35  C   UNL A   1      44.677  24.893  27.331  1.00  0.00     0.074 A 
ATOM     36  C   UNL A   1      42.277  25.318  27.758  1.00  0.00     0.049 A 
ATOM     37  N   UNL A   1      45.204  26.051  27.634  1.00  0.00    -0.248 NA
ATOM     38  C   UNL A   1      45.655  23.873  26.924  1.00  0.00     0.031 C 
ATOM     39  C   UNL A   1      40.851  25.006  27.859  1.00  0.00     0.029 A 
ATOM     40  N   UNL A   1      42.360  26.630  28.150  1.00  0.00    -0.354 N 
ATOM     41  C   UNL A   1      46.571  25.896  27.453  1.00  0.00     0.074 A 
ATOM     42  C   UNL A   1      46.799  24.514  27.095  1.00  0.00     0.031 C 
ATOM     43  C   UNL A   1      40.188  26.105  28.256  1.00  0.00     0.029 A 
ATOM     44  C   UNL A   1      41.145  27.188  28.466  1.00  0.00     0.049 A 
ATOM     45  H   UNL A   1      43.209  27.125  28.198  1.00  0.00     0.167 HD
ATOM     46  C   UNL A   1      47.548  26.829  27.539  1.00  0.00     0.037 A 
ATOM     47  C   UNL A   1      40.847  28.435  28.874  1.00  0.00     0.037 A 
ATOM     48  C   UNL A   1      47.318  28.200  27.900  1.00  0.00     0.049 A 
ATOM     49  C   UNL A   1      41.959  29.439  29.033  1.00  0.00     0.074 A 
ATOM     50  C   UNL A   1      48.227  29.236  27.993  1.00  0.00     0.029 A 
ATOM     51  N   UNL A   1      46.078  28.723  28.242  1.00  0.00    -0.354 N 
ATOM     52  N   UNL A   1      43.240  29.300  28.792  1.00  0.00    -0.248 NA
ATOM     53  C   UNL A   1      41.577  30.772  29.517  1.00  0.00     0.031 C 
ATOM     54  C   UNL A   1      47.546  30.376  28.437  1.00  0.00     0.029 A 
ATOM     55  C   UNL A   1      46.202  30.061  28.573  1.00  0.00     0.049 A 
ATOM     56  H   UNL A   1      45.234  28.215  28.250  1.00  0.00     0.167 HD
ATOM     57  C   UNL A   1      43.814  30.537  29.064  1.00  0.00     0.074 A 
ATOM     58  C   UNL A   1      42.737  31.414  29.474  1.00  0.00     0.031 C 
ATOM     59  C   UNL A   1      45.115  30.915  28.978  1.00  0.00     0.037 A 
BRANCH  46  60
ATOM     60  C   UNL A   1      48.945  26.368  27.241  1.00  0.00     0.057 A 
ATOM     61  C   UNL A   1      49.456  26.419  25.939  1.00  0.00     0.134 A 
ATOM     62  C   UNL A   1      49.805  25.918  28.255  1.00  0.00     0.134 A 
ATOM     63  F   UNL A   1      48.689  26.837  24.921  1.00  0.00    -0.206 F 
ATOM     64  C   UNL A   1      50.775  26.056  25.660  1.00  0.00     0.040 A 
ATOM     65  C   UNL A   1      51.135  25.585  27.993  1.00  0.00     0.040 A 
ATOM     66  F   UNL A   1      49.385  25.867  29.529  1.00  0.00    -0.206 F 
ATOM     67  C   UNL A   1      51.622  25.652  26.690  1.00  0.00     0.006 A 
ENDBRANCH  46  60
BRANCH  47  68
ATOM     68  C   UNL A   1      39.437  28.829  29.128  1.00  0.00     0.057 A 
ATOM     69  C   UNL A   1      38.629  29.371  28.122  1.00  0.00     0.134 A 
ATOM     70  C   UNL A   1      38.857  28.639  30.388  1.00  0.00     0.134 A 
ATOM     71  F   UNL A   1      39.126  29.582  26.894  1.00  0.00    -0.206 F 
ATOM     72  C   UNL A   1      37.296  29.711  28.360  1.00  0.00     0.040 A 
ATOM     73  C   UNL A   1      37.520  28.952  30.634  1.00  0.00     0.040 A 
ATOM     74  F   UNL A   1      39.574  28.104  31.387  1.00  0.00    -0.206 F 
ATOM     75  C   UNL A   1      36.735  29.493  29.617  1.00  0.00     0.006 A 
ENDBRANCH  47  68
BRANCH  59  76
ATOM     76  C   UNL A   1      45.430  32.346  29.302  1.00  0.00     0.057 A 
ATOM     77  C   UNL A   1      45.377  33.329  28.307  1.00  0.00     0.134 A 
ATOM     78  C   UNL A   1      45.811  32.748  30.589  1.00  0.00     0.134 A 
ATOM     79  F   UNL A   1      45.027  33.010  27.052  1.00  0.00    -0.206 F 
ATOM     80  C   UNL A   1      45.694  34.661  28.578  1.00  0.00     0.040 A 
ATOM     81  C   UNL A   1      46.102  34.082  30.880  1.00  0.00     0.040 A 
ATOM     82  F   UNL A   1      45.867  31.858  31.591  1.00  0.00    -0.206 F 
ATOM     83  C   UNL A   1      46.051  35.042  29.870  1.00  0.00     0.006 A 
ENDBRANCH  59  76
ENDBRANCH  33  34
ENDBRANCH  25  28
ENDBRANCH  23  24
ENDBRANCH  22  23
ENDBRANCH  21  22
ENDBRANCH   1  21
TORSDOF 16
ENDMDL
