MODEL 1
REMARK VINA RESULT:     -11.2      0.000      0.000
REMARK SMILES C[C@@H]1[C@H](C)CCC[C@H]1NC(=O)C(=O)NCCCCNC(=O)c1ccc(-c2c3nc(c(-c4c(F)cccc4F)c4ccc([nH]4)c(-c4c(F)cccc4F)c4nc(c(-c5c(F)cccc5F)c5ccc2[nH]5)C=C4)C=C3)cc1
REMARK SMILES IDX 17 1 16 2 15 3 14 4 12 5 13 6 10 8 9 9 11 11 8 12 1 13 2 14
REMARK SMILES IDX 3 15 4 16 5 17 7 18 6 19 18 20 19 21 20 22 21 24 22 25 23 26
REMARK SMILES IDX 75 27 24 28 74 29 25 30 26 31 27 32 68 33 28 34 73 35 67 36
REMARK SMILES IDX 69 37 29 38 72 39 66 40 65 41 30 43 56 44 39 45 55 46 40 47
REMARK SMILES IDX 43 48 54 49 70 50 41 51 42 52 53 54 71 55 44 56 31 57 32 58
REMARK SMILES IDX 37 59 33 60 34 61 36 62 38 63 35 64 57 65 58 66 63 67 59 68
REMARK SMILES IDX 60 69 62 70 64 71 61 72 45 73 46 74 51 75 47 76 48 77 50 78
REMARK SMILES IDX 52 79 49 80
REMARK H PARENT 14 7 9 10 19 23 69 42 43 53
REMARK Flexibility Score: inf
ROOT
ATOM      1  C   UNL A   1      34.608  34.766  28.083  1.00  0.00     0.023 C 
ENDROOT
BRANCH   1   2
ATOM      2  C   UNL A   1      33.320  34.971  28.886  1.00  0.00     0.023 C 
BRANCH   2   3
ATOM      3  C   UNL A   1      33.280  36.258  29.706  1.00  0.00     0.116 C 
BRANCH   3   4
ATOM      4  N   UNL A   1      32.273  36.203  30.751  1.00  0.00    -0.348 N 
ATOM      5  C   UNL A   1      32.361  36.456  32.104  1.00  0.00     0.309 C 
ATOM      6  O   UNL A   1      31.334  36.368  32.770  1.00  0.00    -0.264 OA
ATOM      7  H   UNL A   1      31.376  35.941  30.442  1.00  0.00     0.163 HD
BRANCH   5   8
ATOM      8  C   UNL A   1      33.722  36.855  32.746  1.00  0.00     0.309 C 
ATOM      9  N   UNL A   1      34.635  35.906  33.130  1.00  0.00    -0.345 N 
ATOM     10  H   UNL A   1      35.461  36.286  33.504  1.00  0.00     0.164 HD
ATOM     11  O   UNL A   1      34.029  38.026  32.940  1.00  0.00    -0.264 OA
BRANCH   9  12
ATOM     12  C   UNL A   1      34.627  34.441  33.096  1.00  0.00     0.085 C 
ATOM     13  C   UNL A   1      35.104  32.459  31.582  1.00  0.00     0.010 C 
ATOM     14  C   UNL A   1      35.376  33.950  31.832  1.00  0.00     0.011 C 
ATOM     15  C   UNL A   1      36.889  34.285  31.922  1.00  0.00    -0.009 C 
ATOM     16  C   UNL A   1      37.675  33.802  30.702  1.00  0.00     0.008 C 
ATOM     17  C   UNL A   1      37.523  33.762  33.221  1.00  0.00     0.004 C 
ATOM     18  C   UNL A   1      35.263  33.893  34.380  1.00  0.00     0.025 C 
ATOM     19  C   UNL A   1      36.758  34.203  34.468  1.00  0.00     0.002 C 
ENDBRANCH   9  12
ENDBRANCH   5   8
ENDBRANCH   3   4
ENDBRANCH   2   3
ENDBRANCH   1   2
BRANCH   1  20
ATOM     20  C   UNL A   1      35.149  33.340  28.068  1.00  0.00     0.116 C 
BRANCH  20  21
ATOM     21  N   UNL A   1      34.166  32.361  27.633  1.00  0.00    -0.352 N 
ATOM     22  C   UNL A   1      34.281  30.994  27.557  1.00  0.00     0.251 C 
ATOM     23  H   UNL A   1      33.296  32.729  27.356  1.00  0.00     0.163 HD
ATOM     24  O   UNL A   1      33.390  30.327  27.038  1.00  0.00    -0.269 OA
BRANCH  22  25
ATOM     25  C   UNL A   1      35.497  30.326  28.068  1.00  0.00     0.039 A 
ATOM     26  C   UNL A   1      36.627  30.268  27.250  1.00  0.00     0.014 A 
ATOM     27  C   UNL A   1      35.529  29.771  29.350  1.00  0.00     0.014 A 
ATOM     28  C   UNL A   1      37.810  29.711  27.742  1.00  0.00     0.010 A 
ATOM     29  C   UNL A   1      36.728  29.287  29.864  1.00  0.00     0.010 A 
ATOM     30  C   UNL A   1      37.882  29.250  29.066  1.00  0.00    -0.014 A 
BRANCH  30  31
ATOM     31  C   UNL A   1      39.153  28.727  29.632  1.00  0.00     0.031 A 
ATOM     32  C   UNL A   1      39.761  29.368  30.849  1.00  0.00     0.074 A 
ATOM     33  C   UNL A   1      39.791  27.714  29.013  1.00  0.00     0.049 A 
ATOM     34  N   UNL A   1      40.890  29.092  31.452  1.00  0.00    -0.248 NA
ATOM     35  C   UNL A   1      39.015  30.481  31.458  1.00  0.00     0.031 C 
ATOM     36  C   UNL A   1      39.329  27.034  27.800  1.00  0.00     0.029 A 
ATOM     37  N   UNL A   1      40.973  27.082  29.315  1.00  0.00    -0.354 N 
ATOM     38  C   UNL A   1      40.999  30.007  32.491  1.00  0.00     0.074 A 
ATOM     39  C   UNL A   1      39.845  30.877  32.411  1.00  0.00     0.031 C 
ATOM     40  C   UNL A   1      40.203  26.065  27.479  1.00  0.00     0.029 A 
ATOM     41  C   UNL A   1      41.305  26.080  28.435  1.00  0.00     0.049 A 
ATOM     42  H   UNL A   1      41.530  27.325  30.090  1.00  0.00     0.167 HD
ATOM     43  C   UNL A   1      41.962  30.103  33.438  1.00  0.00     0.037 A 
ATOM     44  C   UNL A   1      42.380  25.270  28.399  1.00  0.00     0.037 A 
ATOM     45  C   UNL A   1      43.091  29.215  33.537  1.00  0.00     0.049 A 
ATOM     46  C   UNL A   1      43.439  25.408  29.460  1.00  0.00     0.074 A 
ATOM     47  C   UNL A   1      44.078  29.185  34.506  1.00  0.00     0.029 A 
ATOM     48  N   UNL A   1      43.386  28.206  32.634  1.00  0.00    -0.354 N 
ATOM     49  N   UNL A   1      43.485  26.224  30.484  1.00  0.00    -0.248 NA
ATOM     50  C   UNL A   1      44.595  24.504  29.361  1.00  0.00     0.031 C 
ATOM     51  C   UNL A   1      45.000  28.192  34.160  1.00  0.00     0.029 A 
ATOM     52  C   UNL A   1      44.556  27.567  33.008  1.00  0.00     0.049 A 
ATOM     53  H   UNL A   1      42.843  27.979  31.843  1.00  0.00     0.167 HD
ATOM     54  C   UNL A   1      44.650  25.907  31.172  1.00  0.00     0.074 A 
ATOM     55  C   UNL A   1      45.275  24.815  30.455  1.00  0.00     0.031 C 
ATOM     56  C   UNL A   1      45.156  26.467  32.297  1.00  0.00     0.037 A 
BRANCH  43  57
ATOM     57  C   UNL A   1      41.843  31.206  34.450  1.00  0.00     0.057 A 
ATOM     58  C   UNL A   1      42.417  32.467  34.245  1.00  0.00     0.134 A 
ATOM     59  C   UNL A   1      41.089  31.022  35.617  1.00  0.00     0.134 A 
ATOM     60  F   UNL A   1      43.158  32.707  33.153  1.00  0.00    -0.206 F 
ATOM     61  C   UNL A   1      42.264  33.499  35.173  1.00  0.00     0.040 A 
ATOM     62  C   UNL A   1      40.906  32.055  36.538  1.00  0.00     0.040 A 
ATOM     63  F   UNL A   1      40.506  29.841  35.873  1.00  0.00    -0.206 F 
ATOM     64  C   UNL A   1      41.498  33.296  36.319  1.00  0.00     0.006 A 
ENDBRANCH  43  57
BRANCH  44  65
ATOM     65  C   UNL A   1      42.513  24.238  27.338  1.00  0.00     0.057 A 
ATOM     66  C   UNL A   1      42.088  22.922  27.555  1.00  0.00     0.134 A 
ATOM     67  C   UNL A   1      43.105  24.528  26.103  1.00  0.00     0.134 A 
ATOM     68  F   UNL A   1      41.532  22.577  28.725  1.00  0.00    -0.206 F 
ATOM     69  C   UNL A   1      42.277  21.924  26.597  1.00  0.00     0.040 A 
ATOM     70  C   UNL A   1      43.273  23.545  25.125  1.00  0.00     0.040 A 
ATOM     71  F   UNL A   1      43.528  25.770  25.828  1.00  0.00    -0.206 F 
ATOM     72  C   UNL A   1      42.869  22.236  25.376  1.00  0.00     0.006 A 
ENDBRANCH  44  65
BRANCH  56  73
ATOM     73  C   UNL A   1      46.418  25.875  32.856  1.00  0.00     0.057 A 
ATOM     74  C   UNL A   1      47.686  26.340  32.487  1.00  0.00     0.134 A 
ATOM     75  C   UNL A   1      46.357  24.846  33.805  1.00  0.00     0.134 A 
ATOM     76  F   UNL A   1      47.814  27.315  31.574  1.00  0.00    -0.206 F 
ATOM     77  C   UNL A   1      48.850  25.785  33.022  1.00  0.00     0.040 A 
ATOM     78  C   UNL A   1      47.513  24.304  34.370  1.00  0.00     0.040 A 
ATOM     79  F   UNL A   1      45.174  24.361  34.211  1.00  0.00    -0.206 F 
ATOM     80  C   UNL A   1      48.764  24.768  33.973  1.00  0.00     0.006 A 
ENDBRANCH  56  73
ENDBRANCH  30  31
ENDBRANCH  22  25
ENDBRANCH  20  21
ENDBRANCH   1  20
TORSDOF 12
ENDMDL
MODEL 2
REMARK VINA RESULT:     -10.9      4.828     11.965
REMARK SMILES C[C@@H]1[C@H](C)CCC[C@H]1NC(=O)C(=O)NCCCCNC(=O)c1ccc(-c2c3nc(c(-c4c(F)cccc4F)c4ccc([nH]4)c(-c4c(F)cccc4F)c4nc(c(-c5c(F)cccc5F)c5ccc2[nH]5)C=C4)C=C3)cc1
REMARK SMILES IDX 17 1 16 2 15 3 14 4 12 5 13 6 10 8 9 9 11 11 8 12 1 13 2 14
REMARK SMILES IDX 3 15 4 16 5 17 7 18 6 19 18 20 19 21 20 22 21 24 22 25 23 26
REMARK SMILES IDX 75 27 24 28 74 29 25 30 26 31 27 32 68 33 28 34 73 35 67 36
REMARK SMILES IDX 69 37 29 38 72 39 66 40 65 41 30 43 56 44 39 45 55 46 40 47
REMARK SMILES IDX 43 48 54 49 70 50 41 51 42 52 53 54 71 55 44 56 31 57 32 58
REMARK SMILES IDX 37 59 33 60 34 61 36 62 38 63 35 64 57 65 58 66 63 67 59 68
REMARK SMILES IDX 60 69 62 70 64 71 61 72 45 73 46 74 51 75 47 76 48 77 50 78
REMARK SMILES IDX 52 79 49 80
REMARK H PARENT 14 7 9 10 19 23 69 42 43 53
REMARK Flexibility Score: inf
ROOT
ATOM      1  C   UNL A   1      41.354  20.105  26.142  1.00  0.00     0.023 C 
ENDROOT
BRANCH   1   2
ATOM      2  C   UNL A   1      42.441  19.477  27.017  1.00  0.00     0.023 C 
BRANCH   2   3
ATOM      3  C   UNL A   1      43.234  18.360  26.343  1.00  0.00     0.116 C 
BRANCH   3   4
ATOM      4  N   UNL A   1      43.488  18.644  24.942  1.00  0.00    -0.348 N 
ATOM      5  C   UNL A   1      44.547  19.276  24.325  1.00  0.00     0.309 C 
ATOM      6  O   UNL A   1      44.531  19.357  23.101  1.00  0.00    -0.264 OA
ATOM      7  H   UNL A   1      42.784  18.333  24.328  1.00  0.00     0.163 HD
BRANCH   5   8
ATOM      8  C   UNL A   1      45.725  19.846  25.168  1.00  0.00     0.309 C 
ATOM      9  N   UNL A   1      45.651  21.085  25.750  1.00  0.00    -0.345 N 
ATOM     10  H   UNL A   1      46.451  21.323  26.271  1.00  0.00     0.164 HD
ATOM     11  O   UNL A   1      46.763  19.217  25.340  1.00  0.00    -0.264 OA
BRANCH   9  12
ATOM     12  C   UNL A   1      44.621  22.128  25.751  1.00  0.00     0.085 C 
ATOM     13  C   UNL A   1      43.438  23.789  27.264  1.00  0.00     0.010 C 
ATOM     14  C   UNL A   1      44.694  22.925  27.078  1.00  0.00     0.011 C 
ATOM     15  C   UNL A   1      46.011  23.741  27.160  1.00  0.00    -0.009 C 
ATOM     16  C   UNL A   1      46.120  24.559  28.447  1.00  0.00     0.008 C 
ATOM     17  C   UNL A   1      46.219  24.635  25.926  1.00  0.00     0.004 C 
ATOM     18  C   UNL A   1      44.811  23.040  24.532  1.00  0.00     0.025 C 
ATOM     19  C   UNL A   1      46.098  23.862  24.613  1.00  0.00     0.002 C 
ENDBRANCH   9  12
ENDBRANCH   5   8
ENDBRANCH   3   4
ENDBRANCH   2   3
ENDBRANCH   1   2
BRANCH   1  20
ATOM     20  C   UNL A   1      40.680  21.343  26.725  1.00  0.00     0.116 C 
BRANCH  20  21
ATOM     21  N   UNL A   1      39.364  21.596  26.161  1.00  0.00    -0.352 N 
ATOM     22  C   UNL A   1      38.636  22.761  26.149  1.00  0.00     0.251 C 
ATOM     23  H   UNL A   1      38.935  20.824  25.727  1.00  0.00     0.163 HD
ATOM     24  O   UNL A   1      37.477  22.762  25.742  1.00  0.00    -0.269 OA
BRANCH  22  25
ATOM     25  C   UNL A   1      39.237  24.012  26.659  1.00  0.00     0.039 A 
ATOM     26  C   UNL A   1      39.912  24.847  25.766  1.00  0.00     0.014 A 
ATOM     27  C   UNL A   1      39.127  24.367  28.006  1.00  0.00     0.014 A 
ATOM     28  C   UNL A   1      40.420  26.070  26.210  1.00  0.00     0.010 A 
ATOM     29  C   UNL A   1      39.566  25.619  28.429  1.00  0.00     0.010 A 
ATOM     30  C   UNL A   1      40.218  26.484  27.537  1.00  0.00    -0.014 A 
BRANCH  30  31
ATOM     31  C   UNL A   1      40.681  27.815  28.008  1.00  0.00     0.031 A 
ATOM     32  C   UNL A   1      42.147  28.154  27.998  1.00  0.00     0.074 A 
ATOM     33  C   UNL A   1      39.789  28.696  28.504  1.00  0.00     0.049 A 
ATOM     34  N   UNL A   1      42.748  29.237  28.422  1.00  0.00    -0.248 NA
ATOM     35  C   UNL A   1      43.061  27.134  27.459  1.00  0.00     0.031 C 
ATOM     36  C   UNL A   1      38.345  28.472  28.610  1.00  0.00     0.029 A 
ATOM     37  N   UNL A   1      39.966  29.956  29.020  1.00  0.00    -0.354 N 
ATOM     38  C   UNL A   1      44.105  29.019  28.224  1.00  0.00     0.074 A 
ATOM     39  C   UNL A   1      44.245  27.685  27.684  1.00  0.00     0.031 C 
ATOM     40  C   UNL A   1      37.767  29.568  29.131  1.00  0.00     0.029 A 
ATOM     41  C   UNL A   1      38.799  30.554  29.433  1.00  0.00     0.049 A 
ATOM     42  H   UNL A   1      40.847  30.391  29.087  1.00  0.00     0.167 HD
ATOM     43  C   UNL A   1      45.141  29.862  28.454  1.00  0.00     0.037 A 
ATOM     44  C   UNL A   1      38.587  31.756  29.999  1.00  0.00     0.037 A 
ATOM     45  C   UNL A   1      44.996  31.202  28.958  1.00  0.00     0.049 A 
ATOM     46  C   UNL A   1      39.759  32.667  30.251  1.00  0.00     0.074 A 
ATOM     47  C   UNL A   1      45.978  32.158  29.151  1.00  0.00     0.029 A 
ATOM     48  N   UNL A   1      43.798  31.774  29.355  1.00  0.00    -0.354 N 
ATOM     49  N   UNL A   1      41.028  32.478  29.981  1.00  0.00    -0.248 NA
ATOM     50  C   UNL A   1      39.467  33.962  30.882  1.00  0.00     0.031 C 
ATOM     51  C   UNL A   1      45.382  33.290  29.715  1.00  0.00     0.029 A 
ATOM     52  C   UNL A   1      44.020  33.060  29.819  1.00  0.00     0.049 A 
ATOM     53  H   UNL A   1      42.919  31.331  29.313  1.00  0.00     0.167 HD
ATOM     54  C   UNL A   1      41.677  33.643  30.371  1.00  0.00     0.074 A 
ATOM     55  C   UNL A   1      40.661  34.537  30.886  1.00  0.00     0.031 C 
ATOM     56  C   UNL A   1      42.996  33.946  30.308  1.00  0.00     0.037 A 
BRANCH  43  57
ATOM     57  C   UNL A   1      46.527  29.364  28.160  1.00  0.00     0.057 A 
ATOM     58  C   UNL A   1      47.297  28.701  29.124  1.00  0.00     0.134 A 
ATOM     59  C   UNL A   1      47.073  29.497  26.877  1.00  0.00     0.134 A 
ATOM     60  F   UNL A   1      46.837  28.549  30.375  1.00  0.00    -0.206 F 
ATOM     61  C   UNL A   1      48.569  28.206  28.828  1.00  0.00     0.040 A 
ATOM     62  C   UNL A   1      48.331  28.981  26.561  1.00  0.00     0.040 A 
ATOM     63  F   UNL A   1      46.387  30.116  25.904  1.00  0.00    -0.206 F 
ATOM     64  C   UNL A   1      49.084  28.337  27.540  1.00  0.00     0.006 A 
ENDBRANCH  43  57
BRANCH  44  65
ATOM     65  C   UNL A   1      37.211  32.193  30.355  1.00  0.00     0.057 A 
ATOM     66  C   UNL A   1      36.462  32.993  29.484  1.00  0.00     0.134 A 
ATOM     67  C   UNL A   1      36.630  31.859  31.584  1.00  0.00     0.134 A 
ATOM     68  F   UNL A   1      36.971  33.363  28.301  1.00  0.00    -0.206 F 
ATOM     69  C   UNL A   1      35.199  33.475  29.836  1.00  0.00     0.040 A 
ATOM     70  C   UNL A   1      35.356  32.309  31.936  1.00  0.00     0.040 A 
ATOM     71  F   UNL A   1      37.291  31.089  32.460  1.00  0.00    -0.206 F 
ATOM     72  C   UNL A   1      34.643  33.130  31.065  1.00  0.00     0.006 A 
ENDBRANCH  44  65
BRANCH  56  73
ATOM     73  C   UNL A   1      43.411  35.320  30.753  1.00  0.00     0.057 A 
ATOM     74  C   UNL A   1      43.463  36.405  29.871  1.00  0.00     0.134 A 
ATOM     75  C   UNL A   1      43.727  35.563  32.097  1.00  0.00     0.134 A 
ATOM     76  F   UNL A   1      43.183  36.237  28.569  1.00  0.00    -0.206 F 
ATOM     77  C   UNL A   1      43.840  37.678  30.301  1.00  0.00     0.040 A 
ATOM     78  C   UNL A   1      44.076  36.838  32.546  1.00  0.00     0.040 A 
ATOM     79  F   UNL A   1      43.687  34.570  32.998  1.00  0.00    -0.206 F 
ATOM     80  C   UNL A   1      44.141  37.898  31.645  1.00  0.00     0.006 A 
ENDBRANCH  56  73
ENDBRANCH  30  31
ENDBRANCH  22  25
ENDBRANCH  20  21
ENDBRANCH   1  20
TORSDOF 12
ENDMDL
MODEL 3
REMARK VINA RESULT:     -10.9      1.763      2.485
REMARK SMILES C[C@@H]1[C@H](C)CCC[C@H]1NC(=O)C(=O)NCCCCNC(=O)c1ccc(-c2c3nc(c(-c4c(F)cccc4F)c4ccc([nH]4)c(-c4c(F)cccc4F)c4nc(c(-c5c(F)cccc5F)c5ccc2[nH]5)C=C4)C=C3)cc1
REMARK SMILES IDX 17 1 16 2 15 3 14 4 12 5 13 6 10 8 9 9 11 11 8 12 1 13 2 14
REMARK SMILES IDX 3 15 4 16 5 17 7 18 6 19 18 20 19 21 20 22 21 24 22 25 23 26
REMARK SMILES IDX 75 27 24 28 74 29 25 30 26 31 27 32 68 33 28 34 73 35 67 36
REMARK SMILES IDX 69 37 29 38 72 39 66 40 65 41 30 43 56 44 39 45 55 46 40 47
REMARK SMILES IDX 43 48 54 49 70 50 41 51 42 52 53 54 71 55 44 56 31 57 32 58
REMARK SMILES IDX 37 59 33 60 34 61 36 62 38 63 35 64 57 65 58 66 63 67 59 68
REMARK SMILES IDX 60 69 62 70 64 71 61 72 45 73 46 74 51 75 47 76 48 77 50 78
REMARK SMILES IDX 52 79 49 80
REMARK H PARENT 14 7 9 10 19 23 69 42 43 53
REMARK Flexibility Score: inf
ROOT
ATOM      1  C   UNL A   1      33.801  34.151  28.934  1.00  0.00     0.023 C 
ENDROOT
BRANCH   1   2
ATOM      2  C   UNL A   1      34.387  35.517  28.568  1.00  0.00     0.023 C 
BRANCH   2   3
ATOM      3  C   UNL A   1      33.590  36.711  29.088  1.00  0.00     0.116 C 
BRANCH   3   4
ATOM      4  N   UNL A   1      32.585  36.313  30.058  1.00  0.00    -0.348 N 
ATOM      5  C   UNL A   1      32.599  36.344  31.437  1.00  0.00     0.309 C 
ATOM      6  O   UNL A   1      31.589  35.974  32.027  1.00  0.00    -0.264 OA
ATOM      7  H   UNL A   1      31.754  35.960  29.665  1.00  0.00     0.163 HD
BRANCH   5   8
ATOM      8  C   UNL A   1      33.856  36.851  32.202  1.00  0.00     0.309 C 
ATOM      9  N   UNL A   1      34.876  36.000  32.541  1.00  0.00    -0.345 N 
ATOM     10  H   UNL A   1      35.621  36.444  33.005  1.00  0.00     0.164 HD
ATOM     11  O   UNL A   1      33.981  38.023  32.539  1.00  0.00    -0.264 OA
BRANCH   9  12
ATOM     12  C   UNL A   1      35.081  34.561  32.351  1.00  0.00     0.085 C 
ATOM     13  C   UNL A   1      36.754  32.862  31.475  1.00  0.00     0.010 C 
ATOM     14  C   UNL A   1      36.567  34.292  32.007  1.00  0.00     0.011 C 
ATOM     15  C   UNL A   1      37.482  34.613  33.219  1.00  0.00    -0.009 C 
ATOM     16  C   UNL A   1      38.960  34.346  32.931  1.00  0.00     0.008 C 
ATOM     17  C   UNL A   1      37.033  33.883  34.495  1.00  0.00     0.004 C 
ATOM     18  C   UNL A   1      34.648  33.808  33.616  1.00  0.00     0.025 C 
ATOM     19  C   UNL A   1      35.554  34.105  34.811  1.00  0.00     0.002 C 
ENDBRANCH   9  12
ENDBRANCH   5   8
ENDBRANCH   3   4
ENDBRANCH   2   3
ENDBRANCH   1   2
BRANCH   1  20
ATOM     20  C   UNL A   1      34.608  32.946  28.463  1.00  0.00     0.116 C 
BRANCH  20  21
ATOM     21  N   UNL A   1      33.777  31.829  28.044  1.00  0.00    -0.352 N 
ATOM     22  C   UNL A   1      34.132  30.522  27.820  1.00  0.00     0.251 C 
ATOM     23  H   UNL A   1      32.826  32.040  27.902  1.00  0.00     0.163 HD
ATOM     24  O   UNL A   1      33.321  29.735  27.339  1.00  0.00    -0.269 OA
BRANCH  22  25
ATOM     25  C   UNL A   1      35.505  30.067  28.126  1.00  0.00     0.039 A 
ATOM     26  C   UNL A   1      36.466  30.097  27.112  1.00  0.00     0.014 A 
ATOM     27  C   UNL A   1      35.850  29.626  29.406  1.00  0.00     0.014 A 
ATOM     28  C   UNL A   1      37.787  29.746  27.399  1.00  0.00     0.010 A 
ATOM     29  C   UNL A   1      37.181  29.351  29.708  1.00  0.00     0.010 A 
ATOM     30  C   UNL A   1      38.164  29.407  28.708  1.00  0.00    -0.014 A 
BRANCH  30  31
ATOM     31  C   UNL A   1      39.579  29.107  29.049  1.00  0.00     0.031 A 
ATOM     32  C   UNL A   1      40.422  30.133  29.757  1.00  0.00     0.074 A 
ATOM     33  C   UNL A   1      40.123  27.934  28.667  1.00  0.00     0.049 A 
ATOM     34  N   UNL A   1      41.688  30.079  30.085  1.00  0.00    -0.248 NA
ATOM     35  C   UNL A   1      39.762  31.396  30.125  1.00  0.00     0.031 C 
ATOM     36  C   UNL A   1      39.426  26.873  27.937  1.00  0.00     0.029 A 
ATOM     37  N   UNL A   1      41.394  27.440  28.832  1.00  0.00    -0.354 N 
ATOM     38  C   UNL A   1      41.979  31.302  30.674  1.00  0.00     0.074 A 
ATOM     39  C   UNL A   1      40.772  32.097  30.619  1.00  0.00     0.031 C 
ATOM     40  C   UNL A   1      40.269  25.845  27.743  1.00  0.00     0.029 A 
ATOM     41  C   UNL A   1      41.575  26.188  28.296  1.00  0.00     0.049 A 
ATOM     42  H   UNL A   1      42.109  27.938  29.293  1.00  0.00     0.167 HD
ATOM     43  C   UNL A   1      43.143  31.719  31.229  1.00  0.00     0.037 A 
ATOM     44  C   UNL A   1      42.672  25.409  28.248  1.00  0.00     0.037 A 
ATOM     45  C   UNL A   1      44.333  30.914  31.315  1.00  0.00     0.049 A 
ATOM     46  C   UNL A   1      43.953  25.905  28.864  1.00  0.00     0.074 A 
ATOM     47  C   UNL A   1      45.536  31.221  31.926  1.00  0.00     0.029 A 
ATOM     48  N   UNL A   1      44.473  29.648  30.769  1.00  0.00    -0.354 N 
ATOM     49  N   UNL A   1      44.189  27.031  29.491  1.00  0.00    -0.248 NA
ATOM     50  C   UNL A   1      45.119  25.014  28.770  1.00  0.00     0.031 C 
ATOM     51  C   UNL A   1      46.421  30.162  31.705  1.00  0.00     0.029 A 
ATOM     52  C   UNL A   1      45.751  29.172  31.005  1.00  0.00     0.049 A 
ATOM     53  H   UNL A   1      43.767  29.159  30.285  1.00  0.00     0.167 HD
ATOM     54  C   UNL A   1      45.516  26.968  29.900  1.00  0.00     0.074 A 
ATOM     55  C   UNL A   1      46.029  25.688  29.460  1.00  0.00     0.031 C 
ATOM     56  C   UNL A   1      46.243  27.887  30.580  1.00  0.00     0.037 A 
BRANCH  43  57
ATOM     57  C   UNL A   1      43.191  33.110  31.792  1.00  0.00     0.057 A 
ATOM     58  C   UNL A   1      43.578  34.212  31.018  1.00  0.00     0.134 A 
ATOM     59  C   UNL A   1      42.784  33.359  33.109  1.00  0.00     0.134 A 
ATOM     60  F   UNL A   1      43.988  34.042  29.752  1.00  0.00    -0.206 F 
ATOM     61  C   UNL A   1      43.579  35.507  31.539  1.00  0.00     0.040 A 
ATOM     62  C   UNL A   1      42.754  34.653  33.633  1.00  0.00     0.040 A 
ATOM     63  F   UNL A   1      42.394  32.351  33.905  1.00  0.00    -0.206 F 
ATOM     64  C   UNL A   1      43.156  35.730  32.848  1.00  0.00     0.006 A 
ENDBRANCH  43  57
BRANCH  44  65
ATOM     65  C   UNL A   1      42.618  24.066  27.612  1.00  0.00     0.057 A 
ATOM     66  C   UNL A   1      42.730  23.921  26.224  1.00  0.00     0.134 A 
ATOM     67  C   UNL A   1      42.411  22.905  28.366  1.00  0.00     0.134 A 
ATOM     68  F   UNL A   1      42.909  24.998  25.446  1.00  0.00    -0.206 F 
ATOM     69  C   UNL A   1      42.605  22.677  25.605  1.00  0.00     0.040 A 
ATOM     70  C   UNL A   1      42.313  21.650  27.762  1.00  0.00     0.040 A 
ATOM     71  F   UNL A   1      42.302  22.973  29.700  1.00  0.00    -0.206 F 
ATOM     72  C   UNL A   1      42.398  21.535  26.376  1.00  0.00     0.006 A 
ENDBRANCH  44  65
BRANCH  56  73
ATOM     73  C   UNL A   1      47.654  27.520  30.941  1.00  0.00     0.057 A 
ATOM     74  C   UNL A   1      47.966  26.829  32.118  1.00  0.00     0.134 A 
ATOM     75  C   UNL A   1      48.711  27.833  30.076  1.00  0.00     0.134 A 
ATOM     76  F   UNL A   1      47.002  26.509  32.996  1.00  0.00    -0.206 F 
ATOM     77  C   UNL A   1      49.282  26.486  32.436  1.00  0.00     0.040 A 
ATOM     78  C   UNL A   1      50.026  27.469  30.367  1.00  0.00     0.040 A 
ATOM     79  F   UNL A   1      48.480  28.484  28.925  1.00  0.00    -0.206 F 
ATOM     80  C   UNL A   1      50.315  26.800  31.554  1.00  0.00     0.006 A 
ENDBRANCH  56  73
ENDBRANCH  30  31
ENDBRANCH  22  25
ENDBRANCH  20  21
ENDBRANCH   1  20
TORSDOF 12
ENDMDL
