MODEL 1
REMARK VINA RESULT:     -11.6      0.000      0.000
REMARK SMILES Cc1cc(C)cc(C2(C(=O)NCCCCNC(=O)c3ccc(-c4c5nc(c(-c6c(F)cccc6F)c6ccc([nH]6)c(-c6c(F)cccc6F)c6nc(c(-c7c(F)cccc7F)c7ccc4[nH]7)C=C6)C=C5)cc3)CCOCC2)c1
REMARK SMILES IDX 14 1 13 2 12 3 11 4 9 5 10 6 8 8 73 9 77 10 74 11 76 12
REMARK SMILES IDX 75 13 7 14 1 15 2 16 3 17 78 18 4 19 5 20 6 21 15 22 16 23
REMARK SMILES IDX 17 24 18 26 19 27 20 28 72 29 21 30 71 31 22 32 23 33 24 34
REMARK SMILES IDX 65 35 25 36 70 37 64 38 66 39 26 40 69 41 63 42 62 43 27 45
REMARK SMILES IDX 53 46 36 47 52 48 37 49 40 50 51 51 67 52 38 53 39 54 50 56
REMARK SMILES IDX 68 57 41 58 28 59 29 60 34 61 30 62 31 63 33 64 35 65 32 66
REMARK SMILES IDX 54 67 55 68 60 69 56 70 57 71 59 72 61 73 58 74 42 75 43 76
REMARK SMILES IDX 48 77 44 78 45 79 47 80 49 81 46 82
REMARK H PARENT 11 7 16 25 66 44 40 55
REMARK Flexibility Score: inf
ROOT
ATOM      1  C   UNL A   1      37.746  20.537  24.834  1.00  0.00     0.023 C 
ENDROOT
BRANCH   1   2
ATOM      2  C   UNL A   1      36.526  21.376  25.207  1.00  0.00     0.023 C 
BRANCH   2   3
ATOM      3  C   UNL A   1      36.729  22.877  25.078  1.00  0.00     0.116 C 
BRANCH   3   4
ATOM      4  N   UNL A   1      35.994  23.646  26.055  1.00  0.00    -0.355 N 
ATOM      5  C   UNL A   1      34.639  23.546  26.218  1.00  0.00     0.230 C 
ATOM      6  O   UNL A   1      34.279  23.076  27.304  1.00  0.00    -0.274 OA
ATOM      7  H   UNL A   1      36.491  24.271  26.630  1.00  0.00     0.163 HD
BRANCH   5   8
ATOM      8  C   UNL A   1      33.610  23.998  25.114  1.00  0.00     0.078 C 
ATOM      9  C   UNL A   1      33.949  23.484  23.684  1.00  0.00     0.050 C 
ATOM     10  C   UNL A   1      32.216  23.533  25.627  1.00  0.00     0.050 C 
ATOM     11  C   UNL A   1      33.192  22.256  23.188  1.00  0.00     0.161 C 
ATOM     12  C   UNL A   1      31.787  22.180  25.097  1.00  0.00     0.161 C 
ATOM     13  O   UNL A   1      31.865  22.169  23.681  1.00  0.00    -0.381 OA
BRANCH   8  14
ATOM     14  C   UNL A   1      33.596  25.572  24.998  1.00  0.00    -0.032 A 
ATOM     15  C   UNL A   1      33.081  28.568  27.343  1.00  0.00     0.044 C 
ATOM     16  C   UNL A   1      33.328  27.760  26.103  1.00  0.00    -0.051 A 
ATOM     17  C   UNL A   1      33.547  28.403  24.884  1.00  0.00     0.006 A 
ATOM     18  C   UNL A   1      33.355  26.359  26.148  1.00  0.00     0.008 A 
ATOM     19  C   UNL A   1      33.762  27.661  23.720  1.00  0.00    -0.051 A 
ATOM     20  C   UNL A   1      34.002  28.375  22.420  1.00  0.00     0.044 C 
ATOM     21  C   UNL A   1      33.764  26.258  23.781  1.00  0.00     0.008 A 
ENDBRANCH   8  14
ENDBRANCH   5   8
ENDBRANCH   3   4
ENDBRANCH   2   3
ENDBRANCH   1   2
BRANCH   1  22
ATOM     22  C   UNL A   1      38.967  20.714  25.735  1.00  0.00     0.116 C 
BRANCH  22  23
ATOM     23  N   UNL A   1      39.903  19.598  25.695  1.00  0.00    -0.352 N 
ATOM     24  C   UNL A   1      41.231  19.591  26.059  1.00  0.00     0.251 C 
ATOM     25  H   UNL A   1      39.541  18.743  25.368  1.00  0.00     0.163 HD
ATOM     26  O   UNL A   1      41.921  18.588  25.918  1.00  0.00    -0.269 OA
BRANCH  24  27
ATOM     27  C   UNL A   1      41.821  20.839  26.577  1.00  0.00     0.039 A 
ATOM     28  C   UNL A   1      42.310  21.780  25.668  1.00  0.00     0.014 A 
ATOM     29  C   UNL A   1      41.782  21.114  27.945  1.00  0.00     0.014 A 
ATOM     30  C   UNL A   1      42.678  23.044  26.127  1.00  0.00     0.010 A 
ATOM     31  C   UNL A   1      42.082  22.396  28.389  1.00  0.00     0.010 A 
ATOM     32  C   UNL A   1      42.520  23.376  27.483  1.00  0.00    -0.014 A 
BRANCH  32  33
ATOM     33  C   UNL A   1      42.790  24.748  27.976  1.00  0.00     0.031 A 
ATOM     34  C   UNL A   1      44.185  25.138  28.371  1.00  0.00     0.074 A 
ATOM     35  C   UNL A   1      41.769  25.610  28.148  1.00  0.00     0.049 A 
ATOM     36  N   UNL A   1      44.609  26.249  28.917  1.00  0.00    -0.248 NA
ATOM     37  C   UNL A   1      45.237  24.133  28.155  1.00  0.00     0.031 C 
ATOM     38  C   UNL A   1      40.360  25.328  27.859  1.00  0.00     0.029 A 
ATOM     39  N   UNL A   1      41.757  26.898  28.622  1.00  0.00    -0.354 N 
ATOM     40  C   UNL A   1      45.969  26.067  29.129  1.00  0.00     0.074 A 
ATOM     41  C   UNL A   1      46.290  24.724  28.699  1.00  0.00     0.031 C 
ATOM     42  C   UNL A   1      39.626  26.416  28.144  1.00  0.00     0.029 A 
ATOM     43  C   UNL A   1      40.504  27.460  28.662  1.00  0.00     0.049 A 
ATOM     44  H   UNL A   1      42.570  27.373  28.908  1.00  0.00     0.167 HD
ATOM     45  C   UNL A   1      46.874  26.949  29.615  1.00  0.00     0.037 A 
ATOM     46  C   UNL A   1      40.111  28.681  29.072  1.00  0.00     0.037 A 
ATOM     47  C   UNL A   1      46.560  28.296  30.004  1.00  0.00     0.049 A 
ATOM     48  C   UNL A   1      41.141  29.654  29.575  1.00  0.00     0.074 A 
ATOM     49  C   UNL A   1      47.416  29.287  30.454  1.00  0.00     0.029 A 
ATOM     50  N   UNL A   1      45.287  28.847  29.980  1.00  0.00    -0.354 N 
ATOM     51  N   UNL A   1      42.434  29.488  29.713  1.00  0.00    -0.248 NA
ATOM     52  C   UNL A   1      40.659  30.985  29.969  1.00  0.00     0.031 C 
ATOM     53  C   UNL A   1      46.656  30.430  30.724  1.00  0.00     0.029 A 
ATOM     54  C   UNL A   1      45.334  30.161  30.412  1.00  0.00     0.049 A 
ATOM     55  H   UNL A   1      44.471  28.372  29.699  1.00  0.00     0.167 HD
ATOM     56  C   UNL A   1      42.923  30.698  30.187  1.00  0.00     0.074 A 
ATOM     57  C   UNL A   1      41.790  31.593  30.298  1.00  0.00     0.031 C 
ATOM     58  C   UNL A   1      44.196  31.038  30.502  1.00  0.00     0.037 A 
BRANCH  45  59
ATOM     59  C   UNL A   1      48.292  26.480  29.733  1.00  0.00     0.057 A 
ATOM     60  C   UNL A   1      48.755  25.825  30.883  1.00  0.00     0.134 A 
ATOM     61  C   UNL A   1      49.200  26.664  28.683  1.00  0.00     0.134 A 
ATOM     62  F   UNL A   1      47.939  25.632  31.929  1.00  0.00    -0.206 F 
ATOM     63  C   UNL A   1      50.077  25.393  30.993  1.00  0.00     0.040 A 
ATOM     64  C   UNL A   1      50.518  26.215  28.772  1.00  0.00     0.040 A 
ATOM     65  F   UNL A   1      48.819  27.282  27.555  1.00  0.00    -0.206 F 
ATOM     66  C   UNL A   1      50.961  25.582  29.932  1.00  0.00     0.006 A 
ENDBRANCH  45  59
BRANCH  46  67
ATOM     67  C   UNL A   1      38.680  29.068  28.998  1.00  0.00     0.057 A 
ATOM     68  C   UNL A   1      38.128  29.555  27.808  1.00  0.00     0.134 A 
ATOM     69  C   UNL A   1      37.837  28.973  30.112  1.00  0.00     0.134 A 
ATOM     70  F   UNL A   1      38.892  29.684  26.714  1.00  0.00    -0.206 F 
ATOM     71  C   UNL A   1      36.794  29.957  27.732  1.00  0.00     0.040 A 
ATOM     72  C   UNL A   1      36.495  29.352  30.044  1.00  0.00     0.040 A 
ATOM     73  F   UNL A   1      38.305  28.506  31.278  1.00  0.00    -0.206 F 
ATOM     74  C   UNL A   1      35.972  29.853  28.853  1.00  0.00     0.006 A 
ENDBRANCH  46  67
BRANCH  58  75
ATOM     75  C   UNL A   1      44.434  32.444  30.963  1.00  0.00     0.057 A 
ATOM     76  C   UNL A   1      44.415  32.785  32.320  1.00  0.00     0.134 A 
ATOM     77  C   UNL A   1      44.729  33.454  30.041  1.00  0.00     0.134 A 
ATOM     78  F   UNL A   1      44.125  31.863  33.250  1.00  0.00    -0.206 F 
ATOM     79  C   UNL A   1      44.665  34.091  32.744  1.00  0.00     0.040 A 
ATOM     80  C   UNL A   1      45.001  34.759  30.454  1.00  0.00     0.040 A 
ATOM     81  F   UNL A   1      44.768  33.187  28.727  1.00  0.00    -0.206 F 
ATOM     82  C   UNL A   1      44.965  35.081  31.809  1.00  0.00     0.006 A 
ENDBRANCH  58  75
ENDBRANCH  32  33
ENDBRANCH  24  27
ENDBRANCH  22  23
ENDBRANCH   1  22
TORSDOF 12
ENDMDL
MODEL 2
REMARK VINA RESULT:     -11.6      4.757      9.300
REMARK SMILES Cc1cc(C)cc(C2(C(=O)NCCCCNC(=O)c3ccc(-c4c5nc(c(-c6c(F)cccc6F)c6ccc([nH]6)c(-c6c(F)cccc6F)c6nc(c(-c7c(F)cccc7F)c7ccc4[nH]7)C=C6)C=C5)cc3)CCOCC2)c1
REMARK SMILES IDX 14 1 13 2 12 3 11 4 9 5 10 6 8 8 73 9 77 10 74 11 76 12
REMARK SMILES IDX 75 13 7 14 1 15 2 16 3 17 78 18 4 19 5 20 6 21 15 22 16 23
REMARK SMILES IDX 17 24 18 26 19 27 20 28 72 29 21 30 71 31 22 32 23 33 24 34
REMARK SMILES IDX 65 35 25 36 70 37 64 38 66 39 26 40 69 41 63 42 62 43 27 45
REMARK SMILES IDX 53 46 36 47 52 48 37 49 40 50 51 51 67 52 38 53 39 54 50 56
REMARK SMILES IDX 68 57 41 58 28 59 29 60 34 61 30 62 31 63 33 64 35 65 32 66
REMARK SMILES IDX 54 67 55 68 60 69 56 70 57 71 59 72 61 73 58 74 42 75 43 76
REMARK SMILES IDX 48 77 44 78 45 79 47 80 49 81 46 82
REMARK H PARENT 11 7 16 25 66 44 40 55
REMARK Flexibility Score: inf
ROOT
ATOM      1  C   UNL A   1      31.149  32.181  26.778  1.00  0.00     0.023 C 
ENDROOT
BRANCH   1   2
ATOM      2  C   UNL A   1      31.069  31.064  25.739  1.00  0.00     0.023 C 
BRANCH   2   3
ATOM      3  C   UNL A   1      32.022  29.905  25.984  1.00  0.00     0.116 C 
BRANCH   3   4
ATOM      4  N   UNL A   1      31.401  28.608  25.848  1.00  0.00    -0.355 N 
ATOM      5  C   UNL A   1      31.814  27.674  24.938  1.00  0.00     0.230 C 
ATOM      6  O   UNL A   1      32.298  26.647  25.428  1.00  0.00    -0.274 OA
ATOM      7  H   UNL A   1      30.646  28.386  26.439  1.00  0.00     0.163 HD
BRANCH   5   8
ATOM      8  C   UNL A   1      31.680  27.881  23.382  1.00  0.00     0.078 C 
ATOM      9  C   UNL A   1      32.751  28.835  22.775  1.00  0.00     0.050 C 
ATOM     10  C   UNL A   1      31.703  26.451  22.767  1.00  0.00     0.050 C 
ATOM     11  C   UNL A   1      33.952  28.188  22.090  1.00  0.00     0.161 C 
ATOM     12  C   UNL A   1      33.077  25.996  22.322  1.00  0.00     0.161 C 
ATOM     13  O   UNL A   1      33.648  26.960  21.451  1.00  0.00    -0.381 OA
BRANCH   8  14
ATOM     14  C   UNL A   1      30.291  28.546  23.041  1.00  0.00    -0.032 A 
ATOM     15  C   UNL A   1      26.579  27.822  23.705  1.00  0.00     0.044 C 
ATOM     16  C   UNL A   1      27.831  28.483  23.210  1.00  0.00    -0.051 A 
ATOM     17  C   UNL A   1      27.750  29.665  22.471  1.00  0.00     0.006 A 
ATOM     18  C   UNL A   1      29.093  27.939  23.486  1.00  0.00     0.008 A 
ATOM     19  C   UNL A   1      28.908  30.281  21.990  1.00  0.00    -0.051 A 
ATOM     20  C   UNL A   1      28.796  31.557  21.204  1.00  0.00     0.044 C 
ATOM     21  C   UNL A   1      30.162  29.709  22.259  1.00  0.00     0.008 A 
ENDBRANCH   8  14
ENDBRANCH   5   8
ENDBRANCH   3   4
ENDBRANCH   2   3
ENDBRANCH   1   2
BRANCH   1  22
ATOM     22  C   UNL A   1      32.458  32.967  26.800  1.00  0.00     0.116 C 
BRANCH  22  23
ATOM     23  N   UNL A   1      32.414  34.174  27.616  1.00  0.00    -0.352 N 
ATOM     24  C   UNL A   1      33.289  34.561  28.606  1.00  0.00     0.251 C 
ATOM     25  H   UNL A   1      31.666  34.788  27.436  1.00  0.00     0.163 HD
ATOM     26  O   UNL A   1      33.098  35.581  29.257  1.00  0.00    -0.269 OA
BRANCH  24  27
ATOM     27  C   UNL A   1      34.440  33.689  28.903  1.00  0.00     0.039 A 
ATOM     28  C   UNL A   1      35.729  34.216  28.795  1.00  0.00     0.014 A 
ATOM     29  C   UNL A   1      34.230  32.398  29.391  1.00  0.00     0.014 A 
ATOM     30  C   UNL A   1      36.810  33.475  29.269  1.00  0.00     0.010 A 
ATOM     31  C   UNL A   1      35.300  31.692  29.926  1.00  0.00     0.010 A 
ATOM     32  C   UNL A   1      36.597  32.228  29.882  1.00  0.00    -0.014 A 
BRANCH  32  33
ATOM     33  C   UNL A   1      37.714  31.474  30.500  1.00  0.00     0.031 A 
ATOM     34  C   UNL A   1      38.093  31.739  31.929  1.00  0.00     0.074 A 
ATOM     35  C   UNL A   1      38.438  30.617  29.753  1.00  0.00     0.049 A 
ATOM     36  N   UNL A   1      39.097  31.261  32.620  1.00  0.00    -0.248 NA
ATOM     37  C   UNL A   1      37.253  32.693  32.668  1.00  0.00     0.031 C 
ATOM     38  C   UNL A   1      38.207  30.321  28.336  1.00  0.00     0.029 A 
ATOM     39  N   UNL A   1      39.525  29.847  30.078  1.00  0.00    -0.354 N 
ATOM     40  C   UNL A   1      39.019  31.872  33.863  1.00  0.00     0.074 A 
ATOM     41  C   UNL A   1      37.903  32.791  33.817  1.00  0.00     0.031 C 
ATOM     42  C   UNL A   1      39.113  29.420  27.922  1.00  0.00     0.029 A 
ATOM     43  C   UNL A   1      40.004  29.097  29.031  1.00  0.00     0.049 A 
ATOM     44  H   UNL A   1      39.925  29.834  30.978  1.00  0.00     0.167 HD
ATOM     45  C   UNL A   1      39.795  31.669  34.955  1.00  0.00     0.037 A 
ATOM     46  C   UNL A   1      41.047  28.247  28.975  1.00  0.00     0.037 A 
ATOM     47  C   UNL A   1      40.878  30.727  35.010  1.00  0.00     0.049 A 
ATOM     48  C   UNL A   1      41.870  28.012  30.211  1.00  0.00     0.074 A 
ATOM     49  C   UNL A   1      41.687  30.404  36.087  1.00  0.00     0.029 A 
ATOM     50  N   UNL A   1      41.300  29.947  33.944  1.00  0.00    -0.354 N 
ATOM     51  N   UNL A   1      41.749  28.553  31.399  1.00  0.00    -0.248 NA
ATOM     52  C   UNL A   1      42.969  27.042  30.101  1.00  0.00     0.031 C 
ATOM     53  C   UNL A   1      42.613  29.444  35.664  1.00  0.00     0.029 A 
ATOM     54  C   UNL A   1      42.360  29.147  34.335  1.00  0.00     0.049 A 
ATOM     55  H   UNL A   1      40.904  29.961  33.043  1.00  0.00     0.167 HD
ATOM     56  C   UNL A   1      42.737  27.974  32.182  1.00  0.00     0.074 A 
ATOM     57  C   UNL A   1      43.440  27.029  31.340  1.00  0.00     0.031 C 
ATOM     58  C   UNL A   1      43.036  28.204  33.484  1.00  0.00     0.037 A 
BRANCH  45  59
ATOM     59  C   UNL A   1      39.479  32.473  36.179  1.00  0.00     0.057 A 
ATOM     60  C   UNL A   1      40.125  33.688  36.446  1.00  0.00     0.134 A 
ATOM     61  C   UNL A   1      38.506  32.044  37.090  1.00  0.00     0.134 A 
ATOM     62  F   UNL A   1      41.078  34.146  35.620  1.00  0.00    -0.206 F 
ATOM     63  C   UNL A   1      39.833  34.433  37.588  1.00  0.00     0.040 A 
ATOM     64  C   UNL A   1      38.189  32.792  38.224  1.00  0.00     0.040 A 
ATOM     65  F   UNL A   1      37.850  30.891  36.891  1.00  0.00    -0.206 F 
ATOM     66  C   UNL A   1      38.857  33.989  38.478  1.00  0.00     0.006 A 
ENDBRANCH  45  59
BRANCH  46  67
ATOM     67  C   UNL A   1      41.357  27.529  27.714  1.00  0.00     0.057 A 
ATOM     68  C   UNL A   1      40.797  26.276  27.444  1.00  0.00     0.134 A 
ATOM     69  C   UNL A   1      42.226  28.069  26.758  1.00  0.00     0.134 A 
ATOM     70  F   UNL A   1      39.971  25.702  28.330  1.00  0.00    -0.206 F 
ATOM     71  C   UNL A   1      41.107  25.572  26.279  1.00  0.00     0.040 A 
ATOM     72  C   UNL A   1      42.528  27.385  25.579  1.00  0.00     0.040 A 
ATOM     73  F   UNL A   1      42.789  29.270  26.955  1.00  0.00    -0.206 F 
ATOM     74  C   UNL A   1      41.973  26.129  25.341  1.00  0.00     0.006 A 
ENDBRANCH  46  67
BRANCH  58  75
ATOM     75  C   UNL A   1      44.148  27.397  34.082  1.00  0.00     0.057 A 
ATOM     76  C   UNL A   1      45.470  27.855  34.085  1.00  0.00     0.134 A 
ATOM     77  C   UNL A   1      43.883  26.170  34.701  1.00  0.00     0.134 A 
ATOM     78  F   UNL A   1      45.789  29.018  33.496  1.00  0.00    -0.206 F 
ATOM     79  C   UNL A   1      46.496  27.111  34.669  1.00  0.00     0.040 A 
ATOM     80  C   UNL A   1      44.896  25.426  35.306  1.00  0.00     0.040 A 
ATOM     81  F   UNL A   1      42.634  25.680  34.736  1.00  0.00    -0.206 F 
ATOM     82  C   UNL A   1      46.208  25.895  35.287  1.00  0.00     0.006 A 
ENDBRANCH  58  75
ENDBRANCH  32  33
ENDBRANCH  24  27
ENDBRANCH  22  23
ENDBRANCH   1  22
TORSDOF 12
ENDMDL
MODEL 3
REMARK VINA RESULT:     -11.5      4.398      9.438
REMARK SMILES Cc1cc(C)cc(C2(C(=O)NCCCCNC(=O)c3ccc(-c4c5nc(c(-c6c(F)cccc6F)c6ccc([nH]6)c(-c6c(F)cccc6F)c6nc(c(-c7c(F)cccc7F)c7ccc4[nH]7)C=C6)C=C5)cc3)CCOCC2)c1
REMARK SMILES IDX 14 1 13 2 12 3 11 4 9 5 10 6 8 8 73 9 77 10 74 11 76 12
REMARK SMILES IDX 75 13 7 14 1 15 2 16 3 17 78 18 4 19 5 20 6 21 15 22 16 23
REMARK SMILES IDX 17 24 18 26 19 27 20 28 72 29 21 30 71 31 22 32 23 33 24 34
REMARK SMILES IDX 65 35 25 36 70 37 64 38 66 39 26 40 69 41 63 42 62 43 27 45
REMARK SMILES IDX 53 46 36 47 52 48 37 49 40 50 51 51 67 52 38 53 39 54 50 56
REMARK SMILES IDX 68 57 41 58 28 59 29 60 34 61 30 62 31 63 33 64 35 65 32 66
REMARK SMILES IDX 54 67 55 68 60 69 56 70 57 71 59 72 61 73 58 74 42 75 43 76
REMARK SMILES IDX 48 77 44 78 45 79 47 80 49 81 46 82
REMARK H PARENT 11 7 16 25 66 44 40 55
REMARK Flexibility Score: inf
ROOT
ATOM      1  C   UNL A   1      31.716  31.862  26.891  1.00  0.00     0.023 C 
ENDROOT
BRANCH   1   2
ATOM      2  C   UNL A   1      32.148  30.490  26.376  1.00  0.00     0.023 C 
BRANCH   2   3
ATOM      3  C   UNL A   1      31.712  29.324  27.247  1.00  0.00     0.116 C 
BRANCH   3   4
ATOM      4  N   UNL A   1      32.765  28.367  27.500  1.00  0.00    -0.355 N 
ATOM      5  C   UNL A   1      33.605  27.905  26.524  1.00  0.00     0.230 C 
ATOM      6  O   UNL A   1      34.789  28.236  26.656  1.00  0.00    -0.274 OA
ATOM      7  H   UNL A   1      32.884  28.033  28.418  1.00  0.00     0.163 HD
BRANCH   5   8
ATOM      8  C   UNL A   1      33.110  27.015  25.322  1.00  0.00     0.078 C 
ATOM      9  C   UNL A   1      31.561  26.888  25.225  1.00  0.00     0.050 C 
ATOM     10  C   UNL A   1      33.763  27.628  24.050  1.00  0.00     0.050 C 
ATOM     11  C   UNL A   1      30.851  27.782  24.213  1.00  0.00     0.161 C 
ATOM     12  C   UNL A   1      32.883  28.627  23.328  1.00  0.00     0.161 C 
ATOM     13  O   UNL A   1      31.619  28.045  23.050  1.00  0.00    -0.381 OA
BRANCH   8  14
ATOM     14  C   UNL A   1      33.638  25.537  25.489  1.00  0.00    -0.032 A 
ATOM     15  C   UNL A   1      36.120  23.213  23.707  1.00  0.00     0.044 C 
ATOM     16  C   UNL A   1      35.096  23.722  24.679  1.00  0.00    -0.051 A 
ATOM     17  C   UNL A   1      34.638  22.894  25.705  1.00  0.00     0.006 A 
ATOM     18  C   UNL A   1      34.595  25.026  24.581  1.00  0.00     0.008 A 
ATOM     19  C   UNL A   1      33.673  23.351  26.606  1.00  0.00    -0.051 A 
ATOM     20  C   UNL A   1      33.200  22.446  27.708  1.00  0.00     0.044 C 
ATOM     21  C   UNL A   1      33.167  24.656  26.479  1.00  0.00     0.008 A 
ENDBRANCH   8  14
ENDBRANCH   5   8
ENDBRANCH   3   4
ENDBRANCH   2   3
ENDBRANCH   1   2
BRANCH   1  22
ATOM     22  C   UNL A   1      32.850  32.790  27.321  1.00  0.00     0.116 C 
BRANCH  22  23
ATOM     23  N   UNL A   1      32.417  34.139  27.666  1.00  0.00    -0.352 N 
ATOM     24  C   UNL A   1      32.977  35.002  28.580  1.00  0.00     0.251 C 
ATOM     25  H   UNL A   1      31.626  34.473  27.183  1.00  0.00     0.163 HD
ATOM     26  O   UNL A   1      32.471  36.094  28.812  1.00  0.00    -0.269 OA
BRANCH  24  27
ATOM     27  C   UNL A   1      34.176  34.561  29.315  1.00  0.00     0.039 A 
ATOM     28  C   UNL A   1      34.015  33.943  30.556  1.00  0.00     0.014 A 
ATOM     29  C   UNL A   1      35.435  34.662  28.720  1.00  0.00     0.014 A 
ATOM     30  C   UNL A   1      35.115  33.338  31.164  1.00  0.00     0.010 A 
ATOM     31  C   UNL A   1      36.513  33.997  29.293  1.00  0.00     0.010 A 
ATOM     32  C   UNL A   1      36.359  33.319  30.513  1.00  0.00    -0.014 A 
BRANCH  32  33
ATOM     33  C   UNL A   1      37.514  32.580  31.080  1.00  0.00     0.031 A 
ATOM     34  C   UNL A   1      38.143  33.050  32.360  1.00  0.00     0.074 A 
ATOM     35  C   UNL A   1      38.044  31.545  30.401  1.00  0.00     0.049 A 
ATOM     36  N   UNL A   1      39.216  32.606  32.964  1.00  0.00    -0.248 NA
ATOM     37  C   UNL A   1      37.502  34.191  33.031  1.00  0.00     0.031 C 
ATOM     38  C   UNL A   1      37.560  31.033  29.116  1.00  0.00     0.029 A 
ATOM     39  N   UNL A   1      39.120  30.744  30.692  1.00  0.00    -0.354 N 
ATOM     40  C   UNL A   1      39.389  33.426  34.071  1.00  0.00     0.074 A 
ATOM     41  C   UNL A   1      38.342  34.424  34.029  1.00  0.00     0.031 C 
ATOM     42  C   UNL A   1      38.324  29.994  28.741  1.00  0.00     0.029 A 
ATOM     43  C   UNL A   1      39.367  29.784  29.740  1.00  0.00     0.049 A 
ATOM     44  H   UNL A   1      39.664  30.848  31.506  1.00  0.00     0.167 HD
ATOM     45  C   UNL A   1      40.322  33.341  35.049  1.00  0.00     0.037 A 
ATOM     46  C   UNL A   1      40.328  28.844  29.681  1.00  0.00     0.037 A 
ATOM     47  C   UNL A   1      41.337  32.326  35.109  1.00  0.00     0.049 A 
ATOM     48  C   UNL A   1      41.331  28.748  30.797  1.00  0.00     0.074 A 
ATOM     49  C   UNL A   1      42.292  32.118  36.089  1.00  0.00     0.029 A 
ATOM     50  N   UNL A   1      41.522  31.339  34.153  1.00  0.00    -0.354 N 
ATOM     51  N   UNL A   1      41.446  29.494  31.870  1.00  0.00    -0.248 NA
ATOM     52  C   UNL A   1      42.331  27.676  30.701  1.00  0.00     0.031 C 
ATOM     53  C   UNL A   1      43.071  31.018  35.713  1.00  0.00     0.029 A 
ATOM     54  C   UNL A   1      42.580  30.523  34.517  1.00  0.00     0.049 A 
ATOM     55  H   UNL A   1      40.982  31.235  33.336  1.00  0.00     0.167 HD
ATOM     56  C   UNL A   1      42.512  28.968  32.585  1.00  0.00     0.074 A 
ATOM     57  C   UNL A   1      43.002  27.831  31.833  1.00  0.00     0.031 C 
ATOM     58  C   UNL A   1      43.040  29.388  33.760  1.00  0.00     0.037 A 
BRANCH  45  59
ATOM     59  C   UNL A   1      40.269  34.369  36.137  1.00  0.00     0.057 A 
ATOM     60  C   UNL A   1      41.001  35.562  36.057  1.00  0.00     0.134 A 
ATOM     61  C   UNL A   1      39.464  34.179  37.267  1.00  0.00     0.134 A 
ATOM     62  F   UNL A   1      41.803  35.797  35.008  1.00  0.00    -0.206 F 
ATOM     63  C   UNL A   1      40.954  36.515  37.074  1.00  0.00     0.040 A 
ATOM     64  C   UNL A   1      39.390  35.136  38.279  1.00  0.00     0.040 A 
ATOM     65  F   UNL A   1      38.736  33.060  37.403  1.00  0.00    -0.206 F 
ATOM     66  C   UNL A   1      40.141  36.307  38.186  1.00  0.00     0.006 A 
ENDBRANCH  45  59
BRANCH  46  67
ATOM     67  C   UNL A   1      40.375  27.895  28.542  1.00  0.00     0.057 A 
ATOM     68  C   UNL A   1      39.707  26.666  28.601  1.00  0.00     0.134 A 
ATOM     69  C   UNL A   1      41.095  28.184  27.376  1.00  0.00     0.134 A 
ATOM     70  F   UNL A   1      39.015  26.328  29.699  1.00  0.00    -0.206 F 
ATOM     71  C   UNL A   1      39.771  25.748  27.552  1.00  0.00     0.040 A 
ATOM     72  C   UNL A   1      41.150  27.283  26.311  1.00  0.00     0.040 A 
ATOM     73  F   UNL A   1      41.750  29.347  27.255  1.00  0.00    -0.206 F 
ATOM     74  C   UNL A   1      40.493  26.057  26.401  1.00  0.00     0.006 A 
ENDBRANCH  46  67
BRANCH  58  75
ATOM     75  C   UNL A   1      44.183  28.596  34.318  1.00  0.00     0.057 A 
ATOM     76  C   UNL A   1      45.514  28.925  34.035  1.00  0.00     0.134 A 
ATOM     77  C   UNL A   1      43.948  27.521  35.183  1.00  0.00     0.134 A 
ATOM     78  F   UNL A   1      45.803  29.936  33.203  1.00  0.00    -0.206 F 
ATOM     79  C   UNL A   1      46.573  28.199  34.582  1.00  0.00     0.040 A 
ATOM     80  C   UNL A   1      44.999  26.800  35.751  1.00  0.00     0.040 A 
ATOM     81  F   UNL A   1      42.694  27.161  35.497  1.00  0.00    -0.206 F 
ATOM     82  C   UNL A   1      46.316  27.137  35.447  1.00  0.00     0.006 A 
ENDBRANCH  58  75
ENDBRANCH  32  33
ENDBRANCH  24  27
ENDBRANCH  22  23
ENDBRANCH   1  22
TORSDOF 12
ENDMDL
