MODEL 1
REMARK VINA RESULT:     -11.4      0.000      0.000
REMARK SMILES CC(=O)Nc1cccc(NC(=O)N[C@H](C(=O)NCCCCNC(=O)c2ccc(-c3c4nc(c(-c5c(F)cccc5F)c5ccc([nH]5)c(-c5c(F)cccc5F)c5nc(c(-c6c(F)cccc6F)c6ccc3[nH]6)C=C5)C=C4)cc2)C(C)C)c1
REMARK SMILES IDX 19 1 18 2 17 3 15 4 16 5 14 7 13 8 10 9 11 10 12 12 9 14
REMARK SMILES IDX 5 15 6 16 82 17 7 18 8 19 4 20 1 21 2 22 3 23 79 25 80 26
REMARK SMILES IDX 81 27 20 28 21 29 22 30 23 31 24 33 25 34 26 35 78 36 27 37
REMARK SMILES IDX 77 38 28 39 29 40 30 41 71 42 31 43 76 44 70 45 72 46 32 47
REMARK SMILES IDX 75 48 69 49 68 50 33 52 59 53 42 54 58 55 43 56 46 57 57 58
REMARK SMILES IDX 73 59 44 60 45 61 56 63 74 64 47 65 34 66 35 67 40 68 36 69
REMARK SMILES IDX 37 70 39 71 41 72 38 73 60 74 61 75 66 76 62 77 63 78 65 79
REMARK SMILES IDX 67 80 64 81 48 82 49 83 54 84 50 85 51 86 53 87 55 88 52 89
REMARK H PARENT 17 6 10 11 13 13 4 24 22 32 72 51 46 62
REMARK Flexibility Score: inf
ROOT
ATOM      1  C   UNL A   1      35.866  22.950  23.146  1.00  0.00     0.023 C 
ENDROOT
BRANCH   1   2
ATOM      2  C   UNL A   1      34.359  23.047  22.933  1.00  0.00     0.116 C 
BRANCH   2   3
ATOM      3  N   UNL A   1      33.629  21.911  23.454  1.00  0.00    -0.354 N 
ATOM      4  C   UNL A   1      32.673  21.842  24.431  1.00  0.00     0.242 C 
ATOM      5  O   UNL A   1      32.178  20.728  24.624  1.00  0.00    -0.273 OA
ATOM      6  H   UNL A   1      33.857  21.048  23.041  1.00  0.00     0.163 HD
BRANCH   4   7
ATOM      7  C   UNL A   1      32.374  23.055  25.370  1.00  0.00     0.175 C 
BRANCH   7   8
ATOM      8  N   UNL A   1      31.229  22.829  26.251  1.00  0.00    -0.326 N 
ATOM      9  N   UNL A   1      29.876  24.797  26.506  1.00  0.00    -0.308 N 
ATOM     10  C   UNL A   1      30.247  23.543  26.799  1.00  0.00     0.319 C 
ATOM     11  H   UNL A   1      29.040  25.032  26.970  1.00  0.00     0.171 HD
ATOM     12  O   UNL A   1      29.516  22.931  27.589  1.00  0.00    -0.248 OA
ATOM     13  H   UNL A   1      31.167  21.883  26.513  1.00  0.00     0.166 HD
BRANCH   9  14
ATOM     14  C   UNL A   1      30.333  25.870  25.730  1.00  0.00     0.044 A 
ATOM     15  C   UNL A   1      31.335  28.098  25.800  1.00  0.00     0.043 A 
ATOM     16  C   UNL A   1      30.995  28.263  24.454  1.00  0.00     0.026 A 
ATOM     17  C   UNL A   1      31.018  26.889  26.422  1.00  0.00     0.052 A 
ATOM     18  C   UNL A   1      30.443  27.206  23.729  1.00  0.00     0.004 A 
ATOM     19  C   UNL A   1      30.148  26.000  24.364  1.00  0.00     0.026 A 
BRANCH  15  20
ATOM     20  N   UNL A   1      31.898  29.210  26.448  1.00  0.00    -0.326 N 
ATOM     21  C   UNL A   1      34.326  28.627  26.549  1.00  0.00     0.114 C 
ATOM     22  C   UNL A   1      33.155  29.501  26.892  1.00  0.00     0.221 C 
ATOM     23  O   UNL A   1      33.313  30.541  27.538  1.00  0.00    -0.275 OA
ATOM     24  H   UNL A   1      31.250  29.931  26.617  1.00  0.00     0.169 HD
ENDBRANCH  15  20
ENDBRANCH   9  14
ENDBRANCH   7   8
BRANCH   7  25
ATOM     25  C   UNL A   1      33.638  23.408  26.223  1.00  0.00     0.015 C 
ATOM     26  C   UNL A   1      33.934  24.912  26.172  1.00  0.00     0.010 C 
ATOM     27  C   UNL A   1      33.566  22.966  27.693  1.00  0.00     0.010 C 
ENDBRANCH   7  25
ENDBRANCH   4   7
ENDBRANCH   2   3
ENDBRANCH   1   2
BRANCH   1  28
ATOM     28  C   UNL A   1      36.321  22.362  24.478  1.00  0.00     0.023 C 
BRANCH  28  29
ATOM     29  C   UNL A   1      37.383  23.180  25.203  1.00  0.00     0.116 C 
BRANCH  29  30
ATOM     30  N   UNL A   1      38.653  22.493  25.401  1.00  0.00    -0.352 N 
ATOM     31  C   UNL A   1      39.756  22.918  26.116  1.00  0.00     0.251 C 
ATOM     32  H   UNL A   1      38.736  21.613  24.970  1.00  0.00     0.163 HD
ATOM     33  O   UNL A   1      40.760  22.222  26.177  1.00  0.00    -0.269 OA
BRANCH  31  34
ATOM     34  C   UNL A   1      39.722  24.249  26.767  1.00  0.00     0.039 A 
ATOM     35  C   UNL A   1      39.111  24.387  28.016  1.00  0.00     0.014 A 
ATOM     36  C   UNL A   1      40.375  25.335  26.185  1.00  0.00     0.014 A 
ATOM     37  C   UNL A   1      39.251  25.585  28.725  1.00  0.00     0.010 A 
ATOM     38  C   UNL A   1      40.606  26.481  26.935  1.00  0.00     0.010 A 
ATOM     39  C   UNL A   1      40.053  26.620  28.218  1.00  0.00    -0.014 A 
BRANCH  39  40
ATOM     40  C   UNL A   1      40.341  27.861  28.990  1.00  0.00     0.031 A 
ATOM     41  C   UNL A   1      41.619  27.971  29.780  1.00  0.00     0.074 A 
ATOM     42  C   UNL A   1      39.412  28.834  29.082  1.00  0.00     0.049 A 
ATOM     43  N   UNL A   1      41.977  28.875  30.657  1.00  0.00    -0.248 NA
ATOM     44  C   UNL A   1      42.600  26.889  29.598  1.00  0.00     0.031 C 
ATOM     45  C   UNL A   1      38.104  28.831  28.423  1.00  0.00     0.029 A 
ATOM     46  N   UNL A   1      39.423  30.014  29.787  1.00  0.00    -0.354 N 
ATOM     47  C   UNL A   1      43.199  28.446  31.160  1.00  0.00     0.074 A 
ATOM     48  C   UNL A   1      43.494  27.176  30.532  1.00  0.00     0.031 C 
ATOM     49  C   UNL A   1      37.453  29.966  28.730  1.00  0.00     0.029 A 
ATOM     50  C   UNL A   1      38.276  30.757  29.638  1.00  0.00     0.049 A 
ATOM     51  H   UNL A   1      40.181  30.300  30.346  1.00  0.00     0.167 HD
ATOM     52  C   UNL A   1      44.020  29.065  32.042  1.00  0.00     0.037 A 
ATOM     53  C   UNL A   1      37.927  31.941  30.177  1.00  0.00     0.037 A 
ATOM     54  C   UNL A   1      43.763  30.360  32.612  1.00  0.00     0.049 A 
ATOM     55  C   UNL A   1      38.879  32.638  31.109  1.00  0.00     0.074 A 
ATOM     56  C   UNL A   1      44.569  31.108  33.454  1.00  0.00     0.029 A 
ATOM     57  N   UNL A   1      42.620  31.109  32.382  1.00  0.00    -0.354 N 
ATOM     58  N   UNL A   1      40.054  32.243  31.536  1.00  0.00    -0.248 NA
ATOM     59  C   UNL A   1      38.458  33.946  31.632  1.00  0.00     0.031 C 
ATOM     60  C   UNL A   1      43.903  32.301  33.749  1.00  0.00     0.029 A 
ATOM     61  C   UNL A   1      42.697  32.309  33.066  1.00  0.00     0.049 A 
ATOM     62  H   UNL A   1      41.865  30.827  31.816  1.00  0.00     0.167 HD
ATOM     63  C   UNL A   1      40.524  33.265  32.351  1.00  0.00     0.074 A 
ATOM     64  C   UNL A   1      39.513  34.301  32.351  1.00  0.00     0.031 C 
ATOM     65  C   UNL A   1      41.690  33.338  33.038  1.00  0.00     0.037 A 
BRANCH  52  66
ATOM     66  C   UNL A   1      45.284  28.352  32.423  1.00  0.00     0.057 A 
ATOM     67  C   UNL A   1      45.335  27.478  33.517  1.00  0.00     0.134 A 
ATOM     68  C   UNL A   1      46.458  28.527  31.682  1.00  0.00     0.134 A 
ATOM     69  F   UNL A   1      44.249  27.276  34.277  1.00  0.00    -0.206 F 
ATOM     70  C   UNL A   1      46.519  26.832  33.882  1.00  0.00     0.040 A 
ATOM     71  C   UNL A   1      47.640  27.865  32.019  1.00  0.00     0.040 A 
ATOM     72  F   UNL A   1      46.478  29.344  30.618  1.00  0.00    -0.206 F 
ATOM     73  C   UNL A   1      47.674  27.022  33.127  1.00  0.00     0.006 A 
ENDBRANCH  52  66
BRANCH  53  74
ATOM     74  C   UNL A   1      36.631  32.571  29.817  1.00  0.00     0.057 A 
ATOM     75  C   UNL A   1      36.539  33.442  28.724  1.00  0.00     0.134 A 
ATOM     76  C   UNL A   1      35.466  32.337  30.555  1.00  0.00     0.134 A 
ATOM     77  F   UNL A   1      37.628  33.721  27.992  1.00  0.00    -0.206 F 
ATOM     78  C   UNL A   1      35.340  34.072  28.389  1.00  0.00     0.040 A 
ATOM     79  C   UNL A   1      34.254  32.944  30.219  1.00  0.00     0.040 A 
ATOM     80  F   UNL A   1      35.488  31.508  31.609  1.00  0.00    -0.206 F 
ATOM     81  C   UNL A   1      34.191  33.820  29.137  1.00  0.00     0.006 A 
ENDBRANCH  53  74
BRANCH  65  82
ATOM     82  C   UNL A   1      41.955  34.595  33.810  1.00  0.00     0.057 A 
ATOM     83  C   UNL A   1      41.588  34.726  35.155  1.00  0.00     0.134 A 
ATOM     84  C   UNL A   1      42.627  35.668  33.211  1.00  0.00     0.134 A 
ATOM     85  F   UNL A   1      40.930  33.738  35.779  1.00  0.00    -0.206 F 
ATOM     86  C   UNL A   1      41.867  35.890  35.873  1.00  0.00     0.040 A 
ATOM     87  C   UNL A   1      42.930  36.827  33.925  1.00  0.00     0.040 A 
ATOM     88  F   UNL A   1      43.011  35.600  31.927  1.00  0.00    -0.206 F 
ATOM     89  C   UNL A   1      42.546  36.942  35.260  1.00  0.00     0.006 A 
ENDBRANCH  65  82
ENDBRANCH  39  40
ENDBRANCH  31  34
ENDBRANCH  29  30
ENDBRANCH  28  29
ENDBRANCH   1  28
TORSDOF 15
ENDMDL
MODEL 2
REMARK VINA RESULT:     -11.3      3.043      7.456
REMARK SMILES CC(=O)Nc1cccc(NC(=O)N[C@H](C(=O)NCCCCNC(=O)c2ccc(-c3c4nc(c(-c5c(F)cccc5F)c5ccc([nH]5)c(-c5c(F)cccc5F)c5nc(c(-c6c(F)cccc6F)c6ccc3[nH]6)C=C5)C=C4)cc2)C(C)C)c1
REMARK SMILES IDX 19 1 18 2 17 3 15 4 16 5 14 7 13 8 10 9 11 10 12 12 9 14
REMARK SMILES IDX 5 15 6 16 82 17 7 18 8 19 4 20 1 21 2 22 3 23 79 25 80 26
REMARK SMILES IDX 81 27 20 28 21 29 22 30 23 31 24 33 25 34 26 35 78 36 27 37
REMARK SMILES IDX 77 38 28 39 29 40 30 41 71 42 31 43 76 44 70 45 72 46 32 47
REMARK SMILES IDX 75 48 69 49 68 50 33 52 59 53 42 54 58 55 43 56 46 57 57 58
REMARK SMILES IDX 73 59 44 60 45 61 56 63 74 64 47 65 34 66 35 67 40 68 36 69
REMARK SMILES IDX 37 70 39 71 41 72 38 73 60 74 61 75 66 76 62 77 63 78 65 79
REMARK SMILES IDX 67 80 64 81 48 82 49 83 54 84 50 85 51 86 53 87 55 88 52 89
REMARK H PARENT 17 6 10 11 13 13 4 24 22 32 72 51 46 62
REMARK Flexibility Score: inf
ROOT
ATOM      1  C   UNL A   1      31.589  30.665  26.135  1.00  0.00     0.023 C 
ENDROOT
BRANCH   1   2
ATOM      2  C   UNL A   1      31.563  29.428  27.027  1.00  0.00     0.116 C 
BRANCH   2   3
ATOM      3  N   UNL A   1      32.827  28.722  27.069  1.00  0.00    -0.354 N 
ATOM      4  C   UNL A   1      33.367  27.817  26.196  1.00  0.00     0.242 C 
ATOM      5  O   UNL A   1      34.505  27.420  26.466  1.00  0.00    -0.273 OA
ATOM      6  H   UNL A   1      33.387  28.923  27.851  1.00  0.00     0.163 HD
BRANCH   4   7
ATOM      7  C   UNL A   1      32.521  27.183  25.045  1.00  0.00     0.175 C 
BRANCH   7   8
ATOM      8  N   UNL A   1      33.236  27.127  23.771  1.00  0.00    -0.326 N 
ATOM      9  N   UNL A   1      31.886  27.889  21.937  1.00  0.00    -0.308 N 
ATOM     10  C   UNL A   1      32.974  27.326  22.481  1.00  0.00     0.319 C 
ATOM     11  H   UNL A   1      32.010  28.027  20.970  1.00  0.00     0.171 HD
ATOM     12  O   UNL A   1      33.899  27.067  21.700  1.00  0.00    -0.248 OA
ATOM     13  H   UNL A   1      34.177  26.871  23.906  1.00  0.00     0.166 HD
BRANCH   9  14
ATOM     14  C   UNL A   1      30.624  28.337  22.346  1.00  0.00     0.044 A 
ATOM     15  C   UNL A   1      29.312  30.299  22.980  1.00  0.00     0.043 A 
ATOM     16  C   UNL A   1      28.327  29.443  23.484  1.00  0.00     0.026 A 
ATOM     17  C   UNL A   1      30.446  29.733  22.394  1.00  0.00     0.052 A 
ATOM     18  C   UNL A   1      28.435  28.062  23.313  1.00  0.00     0.004 A 
ATOM     19  C   UNL A   1      29.568  27.517  22.711  1.00  0.00     0.026 A 
BRANCH  15  20
ATOM     20  N   UNL A   1      29.116  31.675  23.185  1.00  0.00    -0.326 N 
ATOM     21  C   UNL A   1      27.983  32.397  21.077  1.00  0.00     0.114 C 
ATOM     22  C   UNL A   1      28.633  32.681  22.401  1.00  0.00     0.221 C 
ATOM     23  O   UNL A   1      28.691  33.834  22.839  1.00  0.00    -0.275 OA
ATOM     24  H   UNL A   1      29.382  31.976  24.083  1.00  0.00     0.169 HD
ENDBRANCH  15  20
ENDBRANCH   9  14
ENDBRANCH   7   8
BRANCH   7  25
ATOM     25  C   UNL A   1      32.043  25.748  25.448  1.00  0.00     0.015 C 
ATOM     26  C   UNL A   1      30.598  25.774  25.961  1.00  0.00     0.010 C 
ATOM     27  C   UNL A   1      32.155  24.696  24.334  1.00  0.00     0.010 C 
ENDBRANCH   7  25
ENDBRANCH   4   7
ENDBRANCH   2   3
ENDBRANCH   1   2
BRANCH   1  28
ATOM     28  C   UNL A   1      31.288  31.995  26.819  1.00  0.00     0.023 C 
BRANCH  28  29
ATOM     29  C   UNL A   1      32.439  32.994  26.798  1.00  0.00     0.116 C 
BRANCH  29  30
ATOM     30  N   UNL A   1      32.239  34.173  27.633  1.00  0.00    -0.352 N 
ATOM     31  C   UNL A   1      33.048  34.657  28.641  1.00  0.00     0.251 C 
ATOM     32  H   UNL A   1      31.421  34.690  27.453  1.00  0.00     0.163 HD
ATOM     33  O   UNL A   1      32.730  35.663  29.261  1.00  0.00    -0.269 OA
BRANCH  31  34
ATOM     34  C   UNL A   1      34.280  33.914  28.994  1.00  0.00     0.039 A 
ATOM     35  C   UNL A   1      35.527  34.512  28.784  1.00  0.00     0.014 A 
ATOM     36  C   UNL A   1      34.199  32.669  29.616  1.00  0.00     0.014 A 
ATOM     37  C   UNL A   1      36.678  33.906  29.299  1.00  0.00     0.010 A 
ATOM     38  C   UNL A   1      35.326  32.126  30.220  1.00  0.00     0.010 A 
ATOM     39  C   UNL A   1      36.580  32.739  30.075  1.00  0.00    -0.014 A 
BRANCH  39  40
ATOM     40  C   UNL A   1      37.758  32.128  30.752  1.00  0.00     0.031 A 
ATOM     41  C   UNL A   1      38.534  31.037  30.062  1.00  0.00     0.074 A 
ATOM     42  C   UNL A   1      38.058  32.460  32.024  1.00  0.00     0.049 A 
ATOM     43  N   UNL A   1      39.466  30.252  30.540  1.00  0.00    -0.248 NA
ATOM     44  C   UNL A   1      38.174  30.758  28.662  1.00  0.00     0.031 C 
ATOM     45  C   UNL A   1      37.351  33.452  32.838  1.00  0.00     0.029 A 
ATOM     46  N   UNL A   1      39.034  31.980  32.865  1.00  0.00    -0.354 N 
ATOM     47  C   UNL A   1      39.769  29.362  29.517  1.00  0.00     0.074 A 
ATOM     48  C   UNL A   1      38.884  29.668  28.414  1.00  0.00     0.031 C 
ATOM     49  C   UNL A   1      37.935  33.529  34.045  1.00  0.00     0.029 A 
ATOM     50  C   UNL A   1      39.028  32.564  34.109  1.00  0.00     0.049 A 
ATOM     51  H   UNL A   1      39.676  31.283  32.601  1.00  0.00     0.167 HD
ATOM     52  C   UNL A   1      40.717  28.396  29.483  1.00  0.00     0.037 A 
ATOM     53  C   UNL A   1      39.813  32.345  35.181  1.00  0.00     0.037 A 
ATOM     54  C   UNL A   1      41.645  28.138  30.551  1.00  0.00     0.049 A 
ATOM     55  C   UNL A   1      40.897  31.306  35.101  1.00  0.00     0.074 A 
ATOM     56  C   UNL A   1      42.694  27.234  30.583  1.00  0.00     0.029 A 
ATOM     57  N   UNL A   1      41.647  28.799  31.769  1.00  0.00    -0.354 N 
ATOM     58  N   UNL A   1      41.203  30.506  34.109  1.00  0.00    -0.248 NA
ATOM     59  C   UNL A   1      41.747  31.141  36.290  1.00  0.00     0.031 C 
ATOM     60  C   UNL A   1      43.318  27.335  31.831  1.00  0.00     0.029 A 
ATOM     61  C   UNL A   1      42.677  28.323  32.561  1.00  0.00     0.049 A 
ATOM     62  H   UNL A   1      41.010  29.502  32.031  1.00  0.00     0.167 HD
ATOM     63  C   UNL A   1      42.298  29.767  34.540  1.00  0.00     0.074 A 
ATOM     64  C   UNL A   1      42.608  30.220  35.880  1.00  0.00     0.031 C 
ATOM     65  C   UNL A   1      42.984  28.800  33.885  1.00  0.00     0.037 A 
BRANCH  52  66
ATOM     66  C   UNL A   1      40.807  27.563  28.238  1.00  0.00     0.057 A 
ATOM     67  C   UNL A   1      41.591  27.955  27.144  1.00  0.00     0.134 A 
ATOM     68  C   UNL A   1      40.115  26.351  28.134  1.00  0.00     0.134 A 
ATOM     69  F   UNL A   1      42.268  29.113  27.174  1.00  0.00    -0.206 F 
ATOM     70  C   UNL A   1      41.656  27.189  25.979  1.00  0.00     0.040 A 
ATOM     71  C   UNL A   1      40.194  25.562  26.985  1.00  0.00     0.040 A 
ATOM     72  F   UNL A   1      39.352  25.912  29.146  1.00  0.00    -0.206 F 
ATOM     73  C   UNL A   1      40.959  25.985  25.900  1.00  0.00     0.006 A 
ENDBRANCH  52  66
BRANCH  53  74
ATOM     74  C   UNL A   1      39.635  33.152  36.415  1.00  0.00     0.057 A 
ATOM     75  C   UNL A   1      40.338  34.350  36.591  1.00  0.00     0.134 A 
ATOM     76  C   UNL A   1      38.781  32.747  37.446  1.00  0.00     0.134 A 
ATOM     77  F   UNL A   1      41.187  34.779  35.645  1.00  0.00    -0.206 F 
ATOM     78  C   UNL A   1      40.213  35.108  37.757  1.00  0.00     0.040 A 
ATOM     79  C   UNL A   1      38.630  33.505  38.608  1.00  0.00     0.040 A 
ATOM     80  F   UNL A   1      38.075  31.612  37.333  1.00  0.00    -0.206 F 
ATOM     81  C   UNL A   1      39.352  34.686  38.769  1.00  0.00     0.006 A 
ENDBRANCH  53  74
BRANCH  65  82
ATOM     82  C   UNL A   1      44.162  28.197  34.588  1.00  0.00     0.057 A 
ATOM     83  C   UNL A   1      44.044  27.039  35.366  1.00  0.00     0.134 A 
ATOM     84  C   UNL A   1      45.437  28.758  34.445  1.00  0.00     0.134 A 
ATOM     85  F   UNL A   1      42.847  26.464  35.551  1.00  0.00    -0.206 F 
ATOM     86  C   UNL A   1      45.154  26.469  35.992  1.00  0.00     0.040 A 
ATOM     87  C   UNL A   1      46.557  28.185  35.048  1.00  0.00     0.040 A 
ATOM     88  F   UNL A   1      45.617  29.864  33.706  1.00  0.00    -0.206 F 
ATOM     89  C   UNL A   1      46.416  27.038  35.828  1.00  0.00     0.006 A 
ENDBRANCH  65  82
ENDBRANCH  39  40
ENDBRANCH  31  34
ENDBRANCH  29  30
ENDBRANCH  28  29
ENDBRANCH   1  28
TORSDOF 15
ENDMDL
MODEL 3
REMARK VINA RESULT:     -11.3      2.046      2.861
REMARK SMILES CC(=O)Nc1cccc(NC(=O)N[C@H](C(=O)NCCCCNC(=O)c2ccc(-c3c4nc(c(-c5c(F)cccc5F)c5ccc([nH]5)c(-c5c(F)cccc5F)c5nc(c(-c6c(F)cccc6F)c6ccc3[nH]6)C=C5)C=C4)cc2)C(C)C)c1
REMARK SMILES IDX 19 1 18 2 17 3 15 4 16 5 14 7 13 8 10 9 11 10 12 12 9 14
REMARK SMILES IDX 5 15 6 16 82 17 7 18 8 19 4 20 1 21 2 22 3 23 79 25 80 26
REMARK SMILES IDX 81 27 20 28 21 29 22 30 23 31 24 33 25 34 26 35 78 36 27 37
REMARK SMILES IDX 77 38 28 39 29 40 30 41 71 42 31 43 76 44 70 45 72 46 32 47
REMARK SMILES IDX 75 48 69 49 68 50 33 52 59 53 42 54 58 55 43 56 46 57 57 58
REMARK SMILES IDX 73 59 44 60 45 61 56 63 74 64 47 65 34 66 35 67 40 68 36 69
REMARK SMILES IDX 37 70 39 71 41 72 38 73 60 74 61 75 66 76 62 77 63 78 65 79
REMARK SMILES IDX 67 80 64 81 48 82 49 83 54 84 50 85 51 86 53 87 55 88 52 89
REMARK H PARENT 17 6 10 11 13 13 4 24 22 32 72 51 46 62
REMARK Flexibility Score: inf
ROOT
ATOM      1  C   UNL A   1      35.883  22.956  23.251  1.00  0.00     0.023 C 
ENDROOT
BRANCH   1   2
ATOM      2  C   UNL A   1      34.386  22.667  23.250  1.00  0.00     0.116 C 
BRANCH   2   3
ATOM      3  N   UNL A   1      33.996  21.643  24.197  1.00  0.00    -0.354 N 
ATOM      4  C   UNL A   1      33.072  21.671  25.205  1.00  0.00     0.242 C 
ATOM      5  O   UNL A   1      32.911  20.612  25.819  1.00  0.00    -0.273 OA
ATOM      6  H   UNL A   1      34.474  20.789  24.100  1.00  0.00     0.163 HD
BRANCH   4   7
ATOM      7  C   UNL A   1      32.410  23.008  25.672  1.00  0.00     0.175 C 
BRANCH   7   8
ATOM      8  N   UNL A   1      31.185  22.802  26.443  1.00  0.00    -0.326 N 
ATOM      9  N   UNL A   1      29.813  24.772  26.510  1.00  0.00    -0.308 N 
ATOM     10  C   UNL A   1      30.154  23.528  26.873  1.00  0.00     0.319 C 
ATOM     11  H   UNL A   1      28.935  25.017  26.884  1.00  0.00     0.171 HD
ATOM     12  O   UNL A   1      29.349  22.935  27.604  1.00  0.00    -0.248 OA
ATOM     13  H   UNL A   1      31.098  21.863  26.723  1.00  0.00     0.166 HD
BRANCH   9  14
ATOM     14  C   UNL A   1      30.343  25.825  25.754  1.00  0.00     0.044 A 
ATOM     15  C   UNL A   1      31.401  28.025  25.864  1.00  0.00     0.043 A 
ATOM     16  C   UNL A   1      31.143  28.187  24.499  1.00  0.00     0.026 A 
ATOM     17  C   UNL A   1      31.016  26.830  26.475  1.00  0.00     0.052 A 
ATOM     18  C   UNL A   1      30.603  27.139  23.752  1.00  0.00     0.004 A 
ATOM     19  C   UNL A   1      30.238  25.947  24.378  1.00  0.00     0.026 A 
BRANCH  15  20
ATOM     20  N   UNL A   1      31.959  29.127  26.534  1.00  0.00    -0.326 N 
ATOM     21  C   UNL A   1      34.403  28.605  26.531  1.00  0.00     0.114 C 
ATOM     22  C   UNL A   1      33.222  29.434  26.946  1.00  0.00     0.221 C 
ATOM     23  O   UNL A   1      33.377  30.453  27.626  1.00  0.00    -0.275 OA
ATOM     24  H   UNL A   1      31.299  29.823  26.753  1.00  0.00     0.169 HD
ENDBRANCH  15  20
ENDBRANCH   9  14
ENDBRANCH   7   8
BRANCH   7  25
ATOM     25  C   UNL A   1      33.427  23.855  26.508  1.00  0.00     0.015 C 
ATOM     26  C   UNL A   1      34.456  22.953  27.199  1.00  0.00     0.010 C 
ATOM     27  C   UNL A   1      34.171  24.938  25.710  1.00  0.00     0.010 C 
ENDBRANCH   7  25
ENDBRANCH   4   7
ENDBRANCH   2   3
ENDBRANCH   1   2
BRANCH   1  28
ATOM     28  C   UNL A   1      36.750  22.017  24.083  1.00  0.00     0.023 C 
BRANCH  28  29
ATOM     29  C   UNL A   1      37.476  22.685  25.245  1.00  0.00     0.116 C 
BRANCH  29  30
ATOM     30  N   UNL A   1      38.618  21.941  25.761  1.00  0.00    -0.352 N 
ATOM     31  C   UNL A   1      39.685  22.411  26.501  1.00  0.00     0.251 C 
ATOM     32  H   UNL A   1      38.630  20.979  25.555  1.00  0.00     0.163 HD
ATOM     33  O   UNL A   1      40.578  21.652  26.852  1.00  0.00    -0.269 OA
BRANCH  31  34
ATOM     34  C   UNL A   1      39.756  23.856  26.822  1.00  0.00     0.039 A 
ATOM     35  C   UNL A   1      39.354  24.299  28.085  1.00  0.00     0.014 A 
ATOM     36  C   UNL A   1      40.307  24.754  25.909  1.00  0.00     0.014 A 
ATOM     37  C   UNL A   1      39.607  25.622  28.465  1.00  0.00     0.010 A 
ATOM     38  C   UNL A   1      40.656  26.033  26.327  1.00  0.00     0.010 A 
ATOM     39  C   UNL A   1      40.317  26.483  27.612  1.00  0.00    -0.014 A 
BRANCH  39  40
ATOM     40  C   UNL A   1      40.725  27.855  28.020  1.00  0.00     0.031 A 
ATOM     41  C   UNL A   1      42.185  28.229  28.034  1.00  0.00     0.074 A 
ATOM     42  C   UNL A   1      39.809  28.725  28.491  1.00  0.00     0.049 A 
ATOM     43  N   UNL A   1      42.764  29.296  28.523  1.00  0.00    -0.248 NA
ATOM     44  C   UNL A   1      43.122  27.244  27.468  1.00  0.00     0.031 C 
ATOM     45  C   UNL A   1      38.370  28.474  28.597  1.00  0.00     0.029 A 
ATOM     46  N   UNL A   1      39.959  29.997  28.988  1.00  0.00    -0.354 N 
ATOM     47  C   UNL A   1      44.129  29.089  28.365  1.00  0.00     0.074 A 
ATOM     48  C   UNL A   1      44.293  27.773  27.785  1.00  0.00     0.031 C 
ATOM     49  C   UNL A   1      37.767  29.567  29.095  1.00  0.00     0.029 A 
ATOM     50  C   UNL A   1      38.778  30.579  29.384  1.00  0.00     0.049 A 
ATOM     51  H   UNL A   1      40.830  30.450  29.054  1.00  0.00     0.167 HD
ATOM     52  C   UNL A   1      45.154  29.927  28.647  1.00  0.00     0.037 A 
ATOM     53  C   UNL A   1      38.538  31.790  29.922  1.00  0.00     0.037 A 
ATOM     54  C   UNL A   1      44.990  31.262  29.156  1.00  0.00     0.049 A 
ATOM     55  C   UNL A   1      39.687  32.727  30.174  1.00  0.00     0.074 A 
ATOM     56  C   UNL A   1      45.961  32.218  29.400  1.00  0.00     0.029 A 
ATOM     57  N   UNL A   1      43.771  31.835  29.480  1.00  0.00    -0.354 N 
ATOM     58  N   UNL A   1      40.968  32.535  29.972  1.00  0.00    -0.248 NA
ATOM     59  C   UNL A   1      39.357  34.049  30.725  1.00  0.00     0.031 C 
ATOM     60  C   UNL A   1      45.330  33.365  29.892  1.00  0.00     0.029 A 
ATOM     61  C   UNL A   1      43.964  33.132  29.923  1.00  0.00     0.049 A 
ATOM     62  H   UNL A   1      42.898  31.386  29.406  1.00  0.00     0.167 HD
ATOM     63  C   UNL A   1      41.592  33.720  30.342  1.00  0.00     0.074 A 
ATOM     64  C   UNL A   1      40.549  34.628  30.771  1.00  0.00     0.031 C 
ATOM     65  C   UNL A   1      42.912  34.028  30.327  1.00  0.00     0.037 A 
BRANCH  52  66
ATOM     66  C   UNL A   1      46.545  29.424  28.388  1.00  0.00     0.057 A 
ATOM     67  C   UNL A   1      47.170  29.594  27.145  1.00  0.00     0.134 A 
ATOM     68  C   UNL A   1      47.273  28.777  29.393  1.00  0.00     0.134 A 
ATOM     69  F   UNL A   1      46.522  30.194  26.135  1.00  0.00    -0.206 F 
ATOM     70  C   UNL A   1      48.455  29.106  26.900  1.00  0.00     0.040 A 
ATOM     71  C   UNL A   1      48.569  28.310  29.169  1.00  0.00     0.040 A 
ATOM     72  F   UNL A   1      46.738  28.587  30.608  1.00  0.00    -0.206 F 
ATOM     73  C   UNL A   1      49.160  28.466  27.918  1.00  0.00     0.006 A 
ENDBRANCH  52  66
BRANCH  53  74
ATOM     74  C   UNL A   1      37.146  32.211  30.224  1.00  0.00     0.057 A 
ATOM     75  C   UNL A   1      36.585  31.972  31.485  1.00  0.00     0.134 A 
ATOM     76  C   UNL A   1      36.342  32.841  29.268  1.00  0.00     0.134 A 
ATOM     77  F   UNL A   1      37.302  31.353  32.435  1.00  0.00    -0.206 F 
ATOM     78  C   UNL A   1      35.268  32.328  31.779  1.00  0.00     0.040 A 
ATOM     79  C   UNL A   1      35.030  33.221  29.555  1.00  0.00     0.040 A 
ATOM     80  F   UNL A   1      36.824  33.103  28.045  1.00  0.00    -0.206 F 
ATOM     81  C   UNL A   1      34.487  32.958  30.812  1.00  0.00     0.006 A 
ENDBRANCH  53  74
BRANCH  65  82
ATOM     82  C   UNL A   1      43.298  35.414  30.745  1.00  0.00     0.057 A 
ATOM     83  C   UNL A   1      43.441  36.452  29.815  1.00  0.00     0.134 A 
ATOM     84  C   UNL A   1      43.485  35.723  32.098  1.00  0.00     0.134 A 
ATOM     85  F   UNL A   1      43.288  36.216  28.504  1.00  0.00    -0.206 F 
ATOM     86  C   UNL A   1      43.772  37.747  30.218  1.00  0.00     0.040 A 
ATOM     87  C   UNL A   1      43.795  37.018  32.514  1.00  0.00     0.040 A 
ATOM     88  F   UNL A   1      43.356  34.773  33.037  1.00  0.00    -0.206 F 
ATOM     89  C   UNL A   1      43.942  38.034  31.572  1.00  0.00     0.006 A 
ENDBRANCH  65  82
ENDBRANCH  39  40
ENDBRANCH  31  34
ENDBRANCH  29  30
ENDBRANCH  28  29
ENDBRANCH   1  28
TORSDOF 15
ENDMDL
