MODEL 1
REMARK VINA RESULT:     -10.7      0.000      0.000
REMARK SMILES CC[NH2+]C(C)(C)C(=O)N[C@@](C)(C(=O)NCCCCNC(=O)c1ccc(-c2c3nc(c(-c4c(F)cccc4F)c4ccc([nH]4)c(-c4c(F)cccc4F)c4nc(c(-c5c(F)cccc5F)c5ccc2[nH]5)C=C4)C=C3)cc1)C(F)(F)F
REMARK SMILES IDX 15 1 14 2 12 3 13 4 10 6 11 7 9 8 7 9 8 10 4 12 5 13 6 14
REMARK SMILES IDX 3 15 2 18 1 19 76 20 77 21 78 22 79 23 16 24 17 25 18 26
REMARK SMILES IDX 19 27 20 28 21 30 22 31 23 32 75 33 24 34 74 35 25 36 26 37
REMARK SMILES IDX 27 38 68 39 28 40 73 41 67 42 69 43 29 44 72 45 66 46 65 47
REMARK SMILES IDX 30 49 56 50 39 51 55 52 40 53 43 54 54 55 70 56 41 57 42 58
REMARK SMILES IDX 53 60 71 61 44 62 31 63 32 64 37 65 33 66 34 67 36 68 38 69
REMARK SMILES IDX 35 70 57 71 58 72 63 73 59 74 60 75 62 76 64 77 61 78 45 79
REMARK SMILES IDX 46 80 51 81 47 82 48 83 50 84 52 85 49 86
REMARK H PARENT 14 5 9 11 3 16 3 17 19 29 69 48 43 59
REMARK Flexibility Score: inf
ROOT
ATOM      1  C   UNL A   1      36.099  21.410  25.648  1.00  0.00     0.116 C 
ENDROOT
BRANCH   1   2
ATOM      2  N   UNL A   1      34.932  20.550  25.753  1.00  0.00    -0.354 N 
ATOM      3  C   UNL A   1      33.585  20.764  25.683  1.00  0.00     0.254 C 
ATOM      4  O   UNL A   1      32.900  19.744  25.797  1.00  0.00    -0.272 OA
ATOM      5  H   UNL A   1      35.163  19.606  25.909  1.00  0.00     0.163 HD
BRANCH   3   6
ATOM      6  C   UNL A   1      32.955  22.166  25.504  1.00  0.00     0.212 C 
ATOM      7  C   UNL A   1      31.416  22.086  25.367  1.00  0.00     0.056 C 
BRANCH   6   8
ATOM      8  N   UNL A   1      33.503  22.682  24.178  1.00  0.00    -0.329 N 
ATOM      9  C   UNL A   1      33.537  23.765  23.357  1.00  0.00     0.281 C 
ATOM     10  O   UNL A   1      34.392  23.666  22.466  1.00  0.00    -0.268 OA
ATOM     11  H   UNL A   1      34.028  21.961  23.761  1.00  0.00     0.165 HD
BRANCH   9  12
ATOM     12  C   UNL A   1      32.596  24.991  23.475  1.00  0.00     0.169 C 
ATOM     13  C   UNL A   1      31.157  24.556  23.173  1.00  0.00     0.090 C 
ATOM     14  C   UNL A   1      33.146  26.063  22.509  1.00  0.00     0.090 C 
BRANCH  12  15
ATOM     15  N   UNL A   1      32.666  25.696  24.788  1.00  0.00    -0.334 N 
ATOM     16  H   UNL A   1      31.930  26.403  24.787  1.00  0.00     0.347 HD
ATOM     17  H   UNL A   1      32.575  24.948  25.475  1.00  0.00     0.347 HD
BRANCH  15  18
ATOM     18  C   UNL A   1      33.905  26.368  25.162  1.00  0.00     0.257 C 
ATOM     19  C   UNL A   1      33.553  27.630  25.947  1.00  0.00     0.071 C 
ENDBRANCH  15  18
ENDBRANCH  12  15
ENDBRANCH   9  12
ENDBRANCH   6   8
BRANCH   6  20
ATOM     20  C   UNL A   1      33.166  22.881  26.876  1.00  0.00     0.420 C 
ATOM     21  F   UNL A   1      33.290  22.076  27.943  1.00  0.00    -0.168 F 
ATOM     22  F   UNL A   1      34.262  23.679  26.860  1.00  0.00    -0.168 F 
ATOM     23  F   UNL A   1      32.131  23.725  27.145  1.00  0.00    -0.168 F 
ENDBRANCH   6  20
ENDBRANCH   3   6
ENDBRANCH   1   2
BRANCH   1  24
ATOM     24  C   UNL A   1      37.064  20.935  24.567  1.00  0.00     0.023 C 
BRANCH  24  25
ATOM     25  C   UNL A   1      37.960  19.764  24.971  1.00  0.00     0.023 C 
BRANCH  25  26
ATOM     26  C   UNL A   1      39.169  20.134  25.822  1.00  0.00     0.116 C 
BRANCH  26  27
ATOM     27  N   UNL A   1      40.191  19.099  25.840  1.00  0.00    -0.352 N 
ATOM     28  C   UNL A   1      41.545  19.218  26.036  1.00  0.00     0.251 C 
ATOM     29  H   UNL A   1      39.867  18.182  25.686  1.00  0.00     0.163 HD
ATOM     30  O   UNL A   1      42.278  18.246  25.883  1.00  0.00    -0.269 OA
BRANCH  28  31
ATOM     31  C   UNL A   1      42.122  20.530  26.399  1.00  0.00     0.039 A 
ATOM     32  C   UNL A   1      42.509  21.399  25.376  1.00  0.00     0.014 A 
ATOM     33  C   UNL A   1      42.254  20.912  27.736  1.00  0.00     0.014 A 
ATOM     34  C   UNL A   1      42.959  22.681  25.695  1.00  0.00     0.010 A 
ATOM     35  C   UNL A   1      42.624  22.217  28.048  1.00  0.00     0.010 A 
ATOM     36  C   UNL A   1      42.977  23.117  27.031  1.00  0.00    -0.014 A 
BRANCH  36  37
ATOM     37  C   UNL A   1      43.341  24.516  27.373  1.00  0.00     0.031 A 
ATOM     38  C   UNL A   1      44.775  24.965  27.323  1.00  0.00     0.074 A 
ATOM     39  C   UNL A   1      42.382  25.369  27.784  1.00  0.00     0.049 A 
ATOM     40  N   UNL A   1      45.286  26.131  27.626  1.00  0.00    -0.248 NA
ATOM     41  C   UNL A   1      45.770  23.966  26.898  1.00  0.00     0.031 C 
ATOM     42  C   UNL A   1      40.962  25.040  27.928  1.00  0.00     0.029 A 
ATOM     43  N   UNL A   1      42.456  26.686  28.162  1.00  0.00    -0.354 N 
ATOM     44  C   UNL A   1      46.656  26.005  27.435  1.00  0.00     0.074 A 
ATOM     45  C   UNL A   1      46.904  24.634  27.048  1.00  0.00     0.031 C 
ATOM     46  C   UNL A   1      40.297  26.132  28.337  1.00  0.00     0.029 A 
ATOM     47  C   UNL A   1      41.245  27.225  28.524  1.00  0.00     0.049 A 
ATOM     48  H   UNL A   1      43.297  27.196  28.174  1.00  0.00     0.167 HD
ATOM     49  C   UNL A   1      47.617  26.953  27.545  1.00  0.00     0.037 A 
ATOM     50  C   UNL A   1      40.933  28.459  28.964  1.00  0.00     0.037 A 
ATOM     51  C   UNL A   1      47.367  28.321  27.918  1.00  0.00     0.049 A 
ATOM     52  C   UNL A   1      42.022  29.488  29.094  1.00  0.00     0.074 A 
ATOM     53  C   UNL A   1      48.267  29.368  28.008  1.00  0.00     0.029 A 
ATOM     54  N   UNL A   1      46.125  28.831  28.265  1.00  0.00    -0.354 N 
ATOM     55  N   UNL A   1      43.303  29.373  28.839  1.00  0.00    -0.248 NA
ATOM     56  C   UNL A   1      41.621  30.821  29.564  1.00  0.00     0.031 C 
ATOM     57  C   UNL A   1      47.580  30.499  28.460  1.00  0.00     0.029 A 
ATOM     58  C   UNL A   1      46.241  30.173  28.595  1.00  0.00     0.049 A 
ATOM     59  H   UNL A   1      45.286  28.317  28.276  1.00  0.00     0.167 HD
ATOM     60  C   UNL A   1      43.855  30.624  29.091  1.00  0.00     0.074 A 
ATOM     61  C   UNL A   1      42.766  31.485  29.498  1.00  0.00     0.031 C 
ATOM     62  C   UNL A   1      45.147  31.021  28.994  1.00  0.00     0.037 A 
BRANCH  49  63
ATOM     63  C   UNL A   1      49.033  26.545  27.250  1.00  0.00     0.057 A 
ATOM     64  C   UNL A   1      49.893  26.085  28.257  1.00  0.00     0.134 A 
ATOM     65  C   UNL A   1      49.527  26.566  25.941  1.00  0.00     0.134 A 
ATOM     66  F   UNL A   1      49.487  26.050  29.535  1.00  0.00    -0.206 F 
ATOM     67  C   UNL A   1      51.200  25.683  27.974  1.00  0.00     0.040 A 
ATOM     68  C   UNL A   1      50.822  26.139  25.641  1.00  0.00     0.040 A 
ATOM     69  F   UNL A   1      48.756  26.989  24.927  1.00  0.00    -0.206 F 
ATOM     70  C   UNL A   1      51.665  25.700  26.662  1.00  0.00     0.006 A 
ENDBRANCH  49  63
BRANCH  50  71
ATOM     71  C   UNL A   1      39.527  28.798  29.305  1.00  0.00     0.057 A 
ATOM     72  C   UNL A   1      38.659  29.338  28.348  1.00  0.00     0.134 A 
ATOM     73  C   UNL A   1      39.024  28.612  30.598  1.00  0.00     0.134 A 
ATOM     74  F   UNL A   1      39.088  29.559  27.096  1.00  0.00    -0.206 F 
ATOM     75  C   UNL A   1      37.352  29.705  28.670  1.00  0.00     0.040 A 
ATOM     76  C   UNL A   1      37.709  28.946  30.926  1.00  0.00     0.040 A 
ATOM     77  F   UNL A   1      39.800  28.090  31.559  1.00  0.00    -0.206 F 
ATOM     78  C   UNL A   1      36.872  29.505  29.963  1.00  0.00     0.006 A 
ENDBRANCH  50  71
BRANCH  62  79
ATOM     79  C   UNL A   1      45.447  32.461  29.301  1.00  0.00     0.057 A 
ATOM     80  C   UNL A   1      45.364  33.460  28.323  1.00  0.00     0.134 A 
ATOM     81  C   UNL A   1      45.796  32.854  30.599  1.00  0.00     0.134 A 
ATOM     82  F   UNL A   1      45.047  33.150  27.057  1.00  0.00    -0.206 F 
ATOM     83  C   UNL A   1      45.646  34.795  28.619  1.00  0.00     0.040 A 
ATOM     84  C   UNL A   1      46.049  34.189  30.915  1.00  0.00     0.040 A 
ATOM     85  F   UNL A   1      45.883  31.949  31.586  1.00  0.00    -0.206 F 
ATOM     86  C   UNL A   1      45.984  35.163  29.921  1.00  0.00     0.006 A 
ENDBRANCH  62  79
ENDBRANCH  36  37
ENDBRANCH  28  31
ENDBRANCH  26  27
ENDBRANCH  25  26
ENDBRANCH  24  25
ENDBRANCH   1  24
TORSDOF 16
ENDMDL
MODEL 2
REMARK VINA RESULT:     -10.6      0.552      6.279
REMARK SMILES CC[NH2+]C(C)(C)C(=O)N[C@@](C)(C(=O)NCCCCNC(=O)c1ccc(-c2c3nc(c(-c4c(F)cccc4F)c4ccc([nH]4)c(-c4c(F)cccc4F)c4nc(c(-c5c(F)cccc5F)c5ccc2[nH]5)C=C4)C=C3)cc1)C(F)(F)F
REMARK SMILES IDX 15 1 14 2 12 3 13 4 10 6 11 7 9 8 7 9 8 10 4 12 5 13 6 14
REMARK SMILES IDX 3 15 2 18 1 19 76 20 77 21 78 22 79 23 16 24 17 25 18 26
REMARK SMILES IDX 19 27 20 28 21 30 22 31 23 32 75 33 24 34 74 35 25 36 26 37
REMARK SMILES IDX 27 38 68 39 28 40 73 41 67 42 69 43 29 44 72 45 66 46 65 47
REMARK SMILES IDX 30 49 56 50 39 51 55 52 40 53 43 54 54 55 70 56 41 57 42 58
REMARK SMILES IDX 53 60 71 61 44 62 31 63 32 64 37 65 33 66 34 67 36 68 38 69
REMARK SMILES IDX 35 70 57 71 58 72 63 73 59 74 60 75 62 76 64 77 61 78 45 79
REMARK SMILES IDX 46 80 51 81 47 82 48 83 50 84 52 85 49 86
REMARK H PARENT 14 5 9 11 3 16 3 17 19 29 69 48 43 59
REMARK Flexibility Score: inf
ROOT
ATOM      1  C   UNL A   1      36.102  21.480  25.692  1.00  0.00     0.116 C 
ENDROOT
BRANCH   1   2
ATOM      2  N   UNL A   1      34.957  20.588  25.752  1.00  0.00    -0.354 N 
ATOM      3  C   UNL A   1      33.606  20.769  25.673  1.00  0.00     0.254 C 
ATOM      4  O   UNL A   1      32.946  19.729  25.743  1.00  0.00    -0.272 OA
ATOM      5  H   UNL A   1      35.211  19.645  25.878  1.00  0.00     0.163 HD
BRANCH   3   6
ATOM      6  C   UNL A   1      32.941  22.161  25.537  1.00  0.00     0.212 C 
ATOM      7  C   UNL A   1      31.403  22.048  25.416  1.00  0.00     0.056 C 
BRANCH   6   8
ATOM      8  N   UNL A   1      33.461  22.721  24.218  1.00  0.00    -0.329 N 
ATOM      9  C   UNL A   1      33.737  23.875  23.553  1.00  0.00     0.281 C 
ATOM     10  O   UNL A   1      34.402  23.691  22.525  1.00  0.00    -0.268 OA
ATOM     11  H   UNL A   1      33.676  21.965  23.625  1.00  0.00     0.165 HD
BRANCH   9  12
ATOM     12  C   UNL A   1      33.255  25.281  23.991  1.00  0.00     0.169 C 
ATOM     13  C   UNL A   1      31.749  25.234  24.275  1.00  0.00     0.090 C 
ATOM     14  C   UNL A   1      33.653  26.255  22.860  1.00  0.00     0.090 C 
BRANCH  12  15
ATOM     15  N   UNL A   1      33.991  25.849  25.159  1.00  0.00    -0.334 N 
ATOM     16  H   UNL A   1      34.348  25.061  25.699  1.00  0.00     0.347 HD
ATOM     17  H   UNL A   1      34.687  26.462  24.736  1.00  0.00     0.347 HD
BRANCH  15  18
ATOM     18  C   UNL A   1      33.276  26.717  26.089  1.00  0.00     0.257 C 
ATOM     19  C   UNL A   1      33.972  28.075  26.113  1.00  0.00     0.071 C 
ENDBRANCH  15  18
ENDBRANCH  12  15
ENDBRANCH   9  12
ENDBRANCH   6   8
BRANCH   6  20
ATOM     20  C   UNL A   1      33.154  22.846  26.924  1.00  0.00     0.420 C 
ATOM     21  F   UNL A   1      34.302  23.522  27.073  1.00  0.00    -0.168 F 
ATOM     22  F   UNL A   1      32.150  23.711  27.211  1.00  0.00    -0.168 F 
ATOM     23  F   UNL A   1      33.111  21.926  27.928  1.00  0.00    -0.168 F 
ENDBRANCH   6  20
ENDBRANCH   3   6
ENDBRANCH   1   2
BRANCH   1  24
ATOM     24  C   UNL A   1      37.103  21.055  24.623  1.00  0.00     0.023 C 
BRANCH  24  25
ATOM     25  C   UNL A   1      37.987  19.868  25.001  1.00  0.00     0.023 C 
BRANCH  25  26
ATOM     26  C   UNL A   1      39.234  20.215  25.806  1.00  0.00     0.116 C 
BRANCH  26  27
ATOM     27  N   UNL A   1      40.198  19.127  25.860  1.00  0.00    -0.352 N 
ATOM     28  C   UNL A   1      41.555  19.179  26.070  1.00  0.00     0.251 C 
ATOM     29  H   UNL A   1      39.826  18.225  25.725  1.00  0.00     0.163 HD
ATOM     30  O   UNL A   1      42.236  18.165  25.948  1.00  0.00    -0.269 OA
BRANCH  28  31
ATOM     31  C   UNL A   1      42.197  20.466  26.409  1.00  0.00     0.039 A 
ATOM     32  C   UNL A   1      42.719  21.247  25.376  1.00  0.00     0.014 A 
ATOM     33  C   UNL A   1      42.259  20.913  27.731  1.00  0.00     0.014 A 
ATOM     34  C   UNL A   1      43.238  22.511  25.662  1.00  0.00     0.010 A 
ATOM     35  C   UNL A   1      42.699  22.205  28.003  1.00  0.00     0.010 A 
ATOM     36  C   UNL A   1      43.189  23.020  26.972  1.00  0.00    -0.014 A 
BRANCH  36  37
ATOM     37  C   UNL A   1      43.629  24.407  27.269  1.00  0.00     0.031 A 
ATOM     38  C   UNL A   1      42.632  25.447  27.701  1.00  0.00     0.074 A 
ATOM     39  C   UNL A   1      44.922  24.745  27.094  1.00  0.00     0.049 A 
ATOM     40  N   UNL A   1      42.823  26.716  27.962  1.00  0.00    -0.248 NA
ATOM     41  C   UNL A   1      41.233  25.011  27.835  1.00  0.00     0.031 C 
ATOM     42  C   UNL A   1      45.976  23.842  26.626  1.00  0.00     0.029 A 
ATOM     43  N   UNL A   1      45.570  25.940  27.284  1.00  0.00    -0.354 N 
ATOM     44  C   UNL A   1      41.573  27.228  28.285  1.00  0.00     0.074 A 
ATOM     45  C   UNL A   1      40.622  26.150  28.129  1.00  0.00     0.031 C 
ATOM     46  C   UNL A   1      47.141  24.507  26.591  1.00  0.00     0.029 A 
ATOM     47  C   UNL A   1      46.912  25.891  26.993  1.00  0.00     0.049 A 
ATOM     48  H   UNL A   1      45.116  26.754  27.598  1.00  0.00     0.167 HD
ATOM     49  C   UNL A   1      41.251  28.476  28.701  1.00  0.00     0.037 A 
ATOM     50  C   UNL A   1      47.851  26.855  27.038  1.00  0.00     0.037 A 
ATOM     51  C   UNL A   1      42.202  29.544  28.868  1.00  0.00     0.049 A 
ATOM     52  C   UNL A   1      47.464  28.238  27.486  1.00  0.00     0.074 A 
ATOM     53  C   UNL A   1      41.980  30.829  29.332  1.00  0.00     0.029 A 
ATOM     54  N   UNL A   1      43.554  29.453  28.575  1.00  0.00    -0.354 N 
ATOM     55  N   UNL A   1      46.290  28.687  27.858  1.00  0.00    -0.248 NA
ATOM     56  C   UNL A   1      48.533  29.244  27.529  1.00  0.00     0.031 C 
ATOM     57  C   UNL A   1      43.188  31.531  29.270  1.00  0.00     0.029 A 
ATOM     58  C   UNL A   1      44.174  30.668  28.824  1.00  0.00     0.049 A 
ATOM     59  H   UNL A   1      44.006  28.646  28.239  1.00  0.00     0.167 HD
ATOM     60  C   UNL A   1      46.485  30.018  28.205  1.00  0.00     0.074 A 
ATOM     61  C   UNL A   1      47.893  30.295  28.019  1.00  0.00     0.031 C 
ATOM     62  C   UNL A   1      45.579  30.929  28.638  1.00  0.00     0.037 A 
BRANCH  49  63
ATOM     63  C   UNL A   1      39.808  28.754  29.012  1.00  0.00     0.057 A 
ATOM     64  C   UNL A   1      39.298  28.636  30.313  1.00  0.00     0.134 A 
ATOM     65  C   UNL A   1      38.929  29.189  28.013  1.00  0.00     0.134 A 
ATOM     66  F   UNL A   1      40.082  28.213  31.315  1.00  0.00    -0.206 F 
ATOM     67  C   UNL A   1      37.962  28.919  30.602  1.00  0.00     0.040 A 
ATOM     68  C   UNL A   1      37.599  29.503  28.295  1.00  0.00     0.040 A 
ATOM     69  F   UNL A   1      39.352  29.330  26.747  1.00  0.00    -0.206 F 
ATOM     70  C   UNL A   1      37.110  29.363  29.593  1.00  0.00     0.006 A 
ENDBRANCH  49  63
BRANCH  50  71
ATOM     71  C   UNL A   1      49.255  26.548  26.658  1.00  0.00     0.057 A 
ATOM     72  C   UNL A   1      50.165  26.040  27.593  1.00  0.00     0.134 A 
ATOM     73  C   UNL A   1      49.727  26.776  25.360  1.00  0.00     0.134 A 
ATOM     74  F   UNL A   1      49.778  25.819  28.859  1.00  0.00    -0.206 F 
ATOM     75  C   UNL A   1      51.498  25.795  27.260  1.00  0.00     0.040 A 
ATOM     76  C   UNL A   1      51.049  26.506  25.005  1.00  0.00     0.040 A 
ATOM     77  F   UNL A   1      48.905  27.252  24.414  1.00  0.00    -0.206 F 
ATOM     78  C   UNL A   1      51.942  26.024  25.960  1.00  0.00     0.006 A 
ENDBRANCH  50  71
BRANCH  62  79
ATOM     79  C   UNL A   1      46.091  32.300  28.974  1.00  0.00     0.057 A 
ATOM     80  C   UNL A   1      46.163  33.320  28.017  1.00  0.00     0.134 A 
ATOM     81  C   UNL A   1      46.491  32.610  30.281  1.00  0.00     0.134 A 
ATOM     82  F   UNL A   1      45.807  33.087  26.745  1.00  0.00    -0.206 F 
ATOM     83  C   UNL A   1      46.642  34.591  28.340  1.00  0.00     0.040 A 
ATOM     84  C   UNL A   1      46.942  33.885  30.623  1.00  0.00     0.040 A 
ATOM     85  F   UNL A   1      46.438  31.683  31.248  1.00  0.00    -0.206 F 
ATOM     86  C   UNL A   1      47.028  34.878  29.649  1.00  0.00     0.006 A 
ENDBRANCH  62  79
ENDBRANCH  36  37
ENDBRANCH  28  31
ENDBRANCH  26  27
ENDBRANCH  25  26
ENDBRANCH  24  25
ENDBRANCH   1  24
TORSDOF 16
ENDMDL
MODEL 3
REMARK VINA RESULT:     -10.6      5.288     10.259
REMARK SMILES CC[NH2+]C(C)(C)C(=O)N[C@@](C)(C(=O)NCCCCNC(=O)c1ccc(-c2c3nc(c(-c4c(F)cccc4F)c4ccc([nH]4)c(-c4c(F)cccc4F)c4nc(c(-c5c(F)cccc5F)c5ccc2[nH]5)C=C4)C=C3)cc1)C(F)(F)F
REMARK SMILES IDX 15 1 14 2 12 3 13 4 10 6 11 7 9 8 7 9 8 10 4 12 5 13 6 14
REMARK SMILES IDX 3 15 2 18 1 19 76 20 77 21 78 22 79 23 16 24 17 25 18 26
REMARK SMILES IDX 19 27 20 28 21 30 22 31 23 32 75 33 24 34 74 35 25 36 26 37
REMARK SMILES IDX 27 38 68 39 28 40 73 41 67 42 69 43 29 44 72 45 66 46 65 47
REMARK SMILES IDX 30 49 56 50 39 51 55 52 40 53 43 54 54 55 70 56 41 57 42 58
REMARK SMILES IDX 53 60 71 61 44 62 31 63 32 64 37 65 33 66 34 67 36 68 38 69
REMARK SMILES IDX 35 70 57 71 58 72 63 73 59 74 60 75 62 76 64 77 61 78 45 79
REMARK SMILES IDX 46 80 51 81 47 82 48 83 50 84 52 85 49 86
REMARK H PARENT 14 5 9 11 3 16 3 17 19 29 69 48 43 59
REMARK Flexibility Score: inf
ROOT
ATOM      1  C   UNL A   1      32.283  29.936  25.528  1.00  0.00     0.116 C 
ENDROOT
BRANCH   1   2
ATOM      2  N   UNL A   1      31.561  29.900  24.267  1.00  0.00    -0.354 N 
ATOM      3  C   UNL A   1      31.271  28.916  23.366  1.00  0.00     0.254 C 
ATOM      4  O   UNL A   1      30.592  29.288  22.405  1.00  0.00    -0.272 OA
ATOM      5  H   UNL A   1      31.202  30.779  24.005  1.00  0.00     0.163 HD
BRANCH   3   6
ATOM      6  C   UNL A   1      31.769  27.458  23.509  1.00  0.00     0.212 C 
ATOM      7  C   UNL A   1      31.155  26.537  22.429  1.00  0.00     0.056 C 
BRANCH   6   8
ATOM      8  N   UNL A   1      31.241  26.988  24.860  1.00  0.00    -0.329 N 
ATOM      9  C   UNL A   1      31.401  26.049  25.830  1.00  0.00     0.281 C 
ATOM     10  O   UNL A   1      30.800  26.330  26.876  1.00  0.00    -0.268 OA
ATOM     11  H   UNL A   1      30.511  27.590  25.131  1.00  0.00     0.165 HD
BRANCH   9  12
ATOM     12  C   UNL A   1      32.213  24.740  25.663  1.00  0.00     0.169 C 
ATOM     13  C   UNL A   1      31.772  23.729  26.729  1.00  0.00     0.090 C 
ATOM     14  C   UNL A   1      33.705  25.133  25.748  1.00  0.00     0.090 C 
BRANCH  12  15
ATOM     15  N   UNL A   1      32.133  24.135  24.301  1.00  0.00    -0.334 N 
ATOM     16  H   UNL A   1      31.300  23.547  24.284  1.00  0.00     0.347 HD
ATOM     17  H   UNL A   1      32.134  24.938  23.674  1.00  0.00     0.347 HD
BRANCH  15  18
ATOM     18  C   UNL A   1      33.244  23.316  23.827  1.00  0.00     0.257 C 
ATOM     19  C   UNL A   1      32.904  22.804  22.429  1.00  0.00     0.071 C 
ENDBRANCH  15  18
ENDBRANCH  12  15
ENDBRANCH   9  12
ENDBRANCH   6   8
BRANCH   6  20
ATOM     20  C   UNL A   1      33.284  27.510  23.132  1.00  0.00     0.420 C 
ATOM     21  F   UNL A   1      34.128  27.787  24.136  1.00  0.00    -0.168 F 
ATOM     22  F   UNL A   1      33.701  26.344  22.579  1.00  0.00    -0.168 F 
ATOM     23  F   UNL A   1      33.508  28.447  22.167  1.00  0.00    -0.168 F 
ENDBRANCH   6  20
ENDBRANCH   3   6
ENDBRANCH   1   2
BRANCH   1  24
ATOM     24  C   UNL A   1      31.454  30.560  26.645  1.00  0.00     0.023 C 
BRANCH  24  25
ATOM     25  C   UNL A   1      31.402  32.087  26.635  1.00  0.00     0.023 C 
BRANCH  25  26
ATOM     26  C   UNL A   1      32.615  32.783  27.240  1.00  0.00     0.116 C 
BRANCH  26  27
ATOM     27  N   UNL A   1      32.348  34.160  27.626  1.00  0.00    -0.352 N 
ATOM     28  C   UNL A   1      32.979  34.937  28.567  1.00  0.00     0.251 C 
ATOM     29  H   UNL A   1      31.607  34.598  27.146  1.00  0.00     0.163 HD
ATOM     30  O   UNL A   1      32.529  36.042  28.856  1.00  0.00    -0.269 OA
BRANCH  28  31
ATOM     31  C   UNL A   1      34.182  34.424  29.255  1.00  0.00     0.039 A 
ATOM     32  C   UNL A   1      34.024  33.750  30.469  1.00  0.00     0.014 A 
ATOM     33  C   UNL A   1      35.453  34.581  28.697  1.00  0.00     0.014 A 
ATOM     34  C   UNL A   1      35.134  33.169  31.084  1.00  0.00     0.010 A 
ATOM     35  C   UNL A   1      36.543  33.931  29.267  1.00  0.00     0.010 A 
ATOM     36  C   UNL A   1      36.395  33.214  30.465  1.00  0.00    -0.014 A 
BRANCH  36  37
ATOM     37  C   UNL A   1      37.559  32.500  31.049  1.00  0.00     0.031 A 
ATOM     38  C   UNL A   1      38.198  32.992  32.317  1.00  0.00     0.074 A 
ATOM     39  C   UNL A   1      38.076  31.435  30.403  1.00  0.00     0.049 A 
ATOM     40  N   UNL A   1      39.244  32.524  32.951  1.00  0.00    -0.248 NA
ATOM     41  C   UNL A   1      37.599  34.181  32.946  1.00  0.00     0.031 C 
ATOM     42  C   UNL A   1      37.581  30.892  29.136  1.00  0.00     0.029 A 
ATOM     43  N   UNL A   1      39.136  30.623  30.720  1.00  0.00    -0.354 N 
ATOM     44  C   UNL A   1      39.430  33.361  34.044  1.00  0.00     0.074 A 
ATOM     45  C   UNL A   1      38.428  34.400  33.956  1.00  0.00     0.031 C 
ATOM     46  C   UNL A   1      38.318  29.823  28.799  1.00  0.00     0.029 A 
ATOM     47  C   UNL A   1      39.361  29.628  29.799  1.00  0.00     0.049 A 
ATOM     48  H   UNL A   1      39.682  30.742  31.529  1.00  0.00     0.167 HD
ATOM     49  C   UNL A   1      40.336  33.257  35.046  1.00  0.00     0.037 A 
ATOM     50  C   UNL A   1      40.307  28.670  29.762  1.00  0.00     0.037 A 
ATOM     51  C   UNL A   1      41.324  32.214  35.138  1.00  0.00     0.049 A 
ATOM     52  C   UNL A   1      41.313  28.588  30.877  1.00  0.00     0.074 A 
ATOM     53  C   UNL A   1      42.254  31.995  36.140  1.00  0.00     0.029 A 
ATOM     54  N   UNL A   1      41.514  31.218  34.193  1.00  0.00    -0.354 N 
ATOM     55  N   UNL A   1      41.430  29.343  31.942  1.00  0.00    -0.248 NA
ATOM     56  C   UNL A   1      42.311  27.514  30.790  1.00  0.00     0.031 C 
ATOM     57  C   UNL A   1      43.040  30.897  35.776  1.00  0.00     0.029 A 
ATOM     58  C   UNL A   1      42.563  30.396  34.576  1.00  0.00     0.049 A 
ATOM     59  H   UNL A   1      40.983  31.111  33.371  1.00  0.00     0.167 HD
ATOM     60  C   UNL A   1      42.495  28.820  32.665  1.00  0.00     0.074 A 
ATOM     61  C   UNL A   1      42.975  27.671  31.927  1.00  0.00     0.031 C 
ATOM     62  C   UNL A   1      43.028  29.253  33.834  1.00  0.00     0.037 A 
BRANCH  49  63
ATOM     63  C   UNL A   1      40.296  34.297  36.129  1.00  0.00     0.057 A 
ATOM     64  C   UNL A   1      41.046  35.479  36.047  1.00  0.00     0.134 A 
ATOM     65  C   UNL A   1      39.464  34.138  37.244  1.00  0.00     0.134 A 
ATOM     66  F   UNL A   1      41.871  35.689  35.011  1.00  0.00    -0.206 F 
ATOM     67  C   UNL A   1      40.985  36.453  37.045  1.00  0.00     0.040 A 
ATOM     68  C   UNL A   1      39.373  35.119  38.234  1.00  0.00     0.040 A 
ATOM     69  F   UNL A   1      38.714  33.034  37.385  1.00  0.00    -0.206 F 
ATOM     70  C   UNL A   1      40.141  36.279  38.138  1.00  0.00     0.006 A 
ENDBRANCH  49  63
BRANCH  50  71
ATOM     71  C   UNL A   1      40.347  27.703  28.634  1.00  0.00     0.057 A 
ATOM     72  C   UNL A   1      39.641  26.495  28.691  1.00  0.00     0.134 A 
ATOM     73  C   UNL A   1      41.106  27.951  27.485  1.00  0.00     0.134 A 
ATOM     74  F   UNL A   1      38.911  26.190  29.775  1.00  0.00    -0.206 F 
ATOM     75  C   UNL A   1      39.710  25.557  27.659  1.00  0.00     0.040 A 
ATOM     76  C   UNL A   1      41.160  27.036  26.433  1.00  0.00     0.040 A 
ATOM     77  F   UNL A   1      41.798  29.093  27.363  1.00  0.00    -0.206 F 
ATOM     78  C   UNL A   1      40.469  25.830  26.523  1.00  0.00     0.006 A 
ENDBRANCH  50  71
BRANCH  62  79
ATOM     79  C   UNL A   1      44.169  28.458  34.404  1.00  0.00     0.057 A 
ATOM     80  C   UNL A   1      43.959  27.358  35.245  1.00  0.00     0.134 A 
ATOM     81  C   UNL A   1      45.492  28.784  34.082  1.00  0.00     0.134 A 
ATOM     82  F   UNL A   1      42.717  26.999  35.601  1.00  0.00    -0.206 F 
ATOM     83  C   UNL A   1      45.027  26.627  35.769  1.00  0.00     0.040 A 
ATOM     84  C   UNL A   1      46.567  28.043  34.575  1.00  0.00     0.040 A 
ATOM     85  F   UNL A   1      45.763  29.820  33.275  1.00  0.00    -0.206 F 
ATOM     86  C   UNL A   1      46.336  26.967  35.429  1.00  0.00     0.006 A 
ENDBRANCH  62  79
ENDBRANCH  36  37
ENDBRANCH  28  31
ENDBRANCH  26  27
ENDBRANCH  25  26
ENDBRANCH  24  25
ENDBRANCH   1  24
TORSDOF 16
ENDMDL
