MODEL 1
REMARK VINA RESULT:     -12.8      0.000      0.000
REMARK SMILES C[C@@H]1[C@H](C(=O)NCCCCNC(=O)c2ccc(-c3c4nc(c(-c5c(F)cccc5F)c5ccc([nH]5)c(-c5c(F)cccc5F)c5nc(c(-c6c(F)cccc6F)c6ccc3[nH]6)C=C5)C=C4)cc2)CC[N@H+]1Cc1cnn(-c2ccccc2)c1
REMARK SMILES IDX 8 1 7 2 6 3 4 4 5 5 3 7 1 8 2 9 70 10 68 11 69 12 71 14
REMARK SMILES IDX 72 15 73 16 82 17 74 18 75 19 76 20 77 21 81 22 78 23 80 24
REMARK SMILES IDX 79 25 9 26 10 27 11 28 12 29 13 31 14 32 15 33 67 34 16 35
REMARK SMILES IDX 66 36 17 37 18 38 19 39 60 40 20 41 65 42 59 43 61 44 21 45
REMARK SMILES IDX 64 46 58 47 57 48 22 50 48 51 31 52 47 53 32 54 35 55 46 56
REMARK SMILES IDX 62 57 33 58 34 59 45 61 63 62 36 63 23 64 24 65 29 66 25 67
REMARK SMILES IDX 26 68 28 69 30 70 27 71 49 72 50 73 55 74 51 75 52 76 54 77
REMARK SMILES IDX 56 78 53 79 37 80 38 81 43 82 39 83 40 84 42 85 44 86 41 87
REMARK H PARENT 6 6 70 13 11 30 61 49 35 60
REMARK Flexibility Score: inf
ROOT
ATOM      1  C   UNL A   1      31.879  27.438  26.845  1.00  0.00     0.023 C 
ENDROOT
BRANCH   1   2
ATOM      2  C   UNL A   1      31.231  26.294  26.069  1.00  0.00     0.116 C 
BRANCH   2   3
ATOM      3  N   UNL A   1      31.148  25.093  26.869  1.00  0.00    -0.356 N 
ATOM      4  C   UNL A   1      31.798  23.909  26.751  1.00  0.00     0.229 C 
ATOM      5  O   UNL A   1      31.460  23.013  27.532  1.00  0.00    -0.275 OA
ATOM      6  H   UNL A   1      30.516  25.144  27.623  1.00  0.00     0.163 HD
BRANCH   4   7
ATOM      7  C   UNL A   1      32.910  23.648  25.742  1.00  0.00     0.142 C 
ATOM      8  C   UNL A   1      31.112  23.514  23.820  1.00  0.00     0.076 C 
ATOM      9  C   UNL A   1      32.566  23.439  24.251  1.00  0.00     0.193 C 
ATOM     10  N   UNL A   1      33.473  24.361  23.589  1.00  0.00    -0.328 N 
ATOM     11  C   UNL A   1      34.068  24.656  25.777  1.00  0.00     0.081 C 
ATOM     12  C   UNL A   1      34.655  24.598  24.377  1.00  0.00     0.263 C 
ATOM     13  H   UNL A   1      32.893  24.938  22.979  1.00  0.00     0.348 HD
BRANCH  10  14
ATOM     14  C   UNL A   1      33.309  24.917  22.274  1.00  0.00     0.302 C 
BRANCH  14  15
ATOM     15  C   UNL A   1      32.663  26.263  22.376  1.00  0.00     0.045 A 
ATOM     16  C   UNL A   1      33.286  27.510  22.601  1.00  0.00     0.145 A 
ATOM     17  C   UNL A   1      31.327  26.595  22.256  1.00  0.00     0.124 A 
ATOM     18  N   UNL A   1      32.431  28.531  22.603  1.00  0.00    -0.176 NA
ATOM     19  N   UNL A   1      31.215  27.962  22.415  1.00  0.00    -0.240 N 
BRANCH  19  20
ATOM     20  C   UNL A   1      30.029  28.744  22.466  1.00  0.00     0.065 A 
ATOM     21  C   UNL A   1      28.879  28.206  23.059  1.00  0.00     0.028 A 
ATOM     22  C   UNL A   1      29.978  30.020  21.886  1.00  0.00     0.028 A 
ATOM     23  C   UNL A   1      27.694  28.945  23.082  1.00  0.00     0.002 A 
ATOM     24  C   UNL A   1      28.773  30.729  21.869  1.00  0.00     0.002 A 
ATOM     25  C   UNL A   1      27.636  30.197  22.475  1.00  0.00     0.000 A 
ENDBRANCH  19  20
ENDBRANCH  14  15
ENDBRANCH  10  14
ENDBRANCH   4   7
ENDBRANCH   2   3
ENDBRANCH   1   2
BRANCH   1  26
ATOM     26  C   UNL A   1      33.065  28.117  26.190  1.00  0.00     0.023 C 
BRANCH  26  27
ATOM     27  C   UNL A   1      34.132  28.610  27.146  1.00  0.00     0.116 C 
BRANCH  27  28
ATOM     28  N   UNL A   1      33.868  29.913  27.742  1.00  0.00    -0.352 N 
ATOM     29  C   UNL A   1      34.764  30.754  28.364  1.00  0.00     0.251 C 
ATOM     30  H   UNL A   1      32.937  30.230  27.693  1.00  0.00     0.163 HD
ATOM     31  O   UNL A   1      34.477  31.886  28.715  1.00  0.00    -0.269 OA
BRANCH  29  32
ATOM     32  C   UNL A   1      36.124  30.254  28.596  1.00  0.00     0.039 A 
ATOM     33  C   UNL A   1      36.424  29.591  29.788  1.00  0.00     0.014 A 
ATOM     34  C   UNL A   1      37.071  30.401  27.584  1.00  0.00     0.014 A 
ATOM     35  C   UNL A   1      37.693  29.039  29.954  1.00  0.00     0.010 A 
ATOM     36  C   UNL A   1      38.290  29.765  27.708  1.00  0.00     0.010 A 
ATOM     37  C   UNL A   1      38.625  29.116  28.908  1.00  0.00    -0.014 A 
BRANCH  37  38
ATOM     38  C   UNL A   1      40.021  28.653  29.056  1.00  0.00     0.031 A 
ATOM     39  C   UNL A   1      41.045  29.655  29.512  1.00  0.00     0.074 A 
ATOM     40  C   UNL A   1      40.378  27.412  28.683  1.00  0.00     0.049 A 
ATOM     41  N   UNL A   1      42.349  29.582  29.488  1.00  0.00    -0.248 NA
ATOM     42  C   UNL A   1      40.522  30.942  30.005  1.00  0.00     0.031 C 
ATOM     43  C   UNL A   1      39.469  26.370  28.205  1.00  0.00     0.029 A 
ATOM     44  N   UNL A   1      41.618  26.832  28.619  1.00  0.00    -0.354 N 
ATOM     45  C   UNL A   1      42.796  30.827  29.913  1.00  0.00     0.074 A 
ATOM     46  C   UNL A   1      41.630  31.653  30.130  1.00  0.00     0.031 C 
ATOM     47  C   UNL A   1      40.183  25.272  27.904  1.00  0.00     0.029 A 
ATOM     48  C   UNL A   1      41.599  25.552  28.123  1.00  0.00     0.049 A 
ATOM     49  H   UNL A   1      42.443  27.288  28.902  1.00  0.00     0.167 HD
ATOM     50  C   UNL A   1      44.067  31.236  30.127  1.00  0.00     0.037 A 
ATOM     51  C   UNL A   1      42.619  24.713  27.862  1.00  0.00     0.037 A 
ATOM     52  C   UNL A   1      45.211  30.382  29.954  1.00  0.00     0.049 A 
ATOM     53  C   UNL A   1      44.026  25.181  28.127  1.00  0.00     0.074 A 
ATOM     54  C   UNL A   1      46.543  30.662  30.195  1.00  0.00     0.029 A 
ATOM     55  N   UNL A   1      45.147  29.069  29.506  1.00  0.00    -0.354 N 
ATOM     56  N   UNL A   1      44.443  26.347  28.560  1.00  0.00    -0.248 NA
ATOM     57  C   UNL A   1      45.102  24.214  27.874  1.00  0.00     0.031 C 
ATOM     58  C   UNL A   1      47.289  29.527  29.860  1.00  0.00     0.029 A 
ATOM     59  C   UNL A   1      46.418  28.526  29.459  1.00  0.00     0.049 A 
ATOM     60  H   UNL A   1      44.319  28.596  29.260  1.00  0.00     0.167 HD
ATOM     61  C   UNL A   1      45.824  26.244  28.667  1.00  0.00     0.074 A 
ATOM     62  C   UNL A   1      46.172  24.897  28.259  1.00  0.00     0.031 C 
ATOM     63  C   UNL A   1      46.726  27.174  29.067  1.00  0.00     0.037 A 
BRANCH  50  64
ATOM     64  C   UNL A   1      44.271  32.657  30.567  1.00  0.00     0.057 A 
ATOM     65  C   UNL A   1      44.438  33.703  29.648  1.00  0.00     0.134 A 
ATOM     66  C   UNL A   1      44.307  32.984  31.928  1.00  0.00     0.134 A 
ATOM     67  F   UNL A   1      44.434  33.457  28.329  1.00  0.00    -0.206 F 
ATOM     68  C   UNL A   1      44.673  35.014  30.067  1.00  0.00     0.040 A 
ATOM     69  C   UNL A   1      44.508  34.298  32.359  1.00  0.00     0.040 A 
ATOM     70  F   UNL A   1      44.152  32.035  32.863  1.00  0.00    -0.206 F 
ATOM     71  C   UNL A   1      44.702  35.315  31.427  1.00  0.00     0.006 A 
ENDBRANCH  50  64
BRANCH  51  72
ATOM     72  C   UNL A   1      42.350  23.346  27.353  1.00  0.00     0.057 A 
ATOM     73  C   UNL A   1      42.430  23.062  25.985  1.00  0.00     0.134 A 
ATOM     74  C   UNL A   1      42.015  22.291  28.212  1.00  0.00     0.134 A 
ATOM     75  F   UNL A   1      42.731  24.033  25.111  1.00  0.00    -0.206 F 
ATOM     76  C   UNL A   1      42.168  21.785  25.485  1.00  0.00     0.040 A 
ATOM     77  C   UNL A   1      41.775  21.003  27.728  1.00  0.00     0.040 A 
ATOM     78  F   UNL A   1      41.933  22.494  29.535  1.00  0.00    -0.206 F 
ATOM     79  C   UNL A   1      41.844  20.750  26.359  1.00  0.00     0.006 A 
ENDBRANCH  51  72
BRANCH  63  80
ATOM     80  C   UNL A   1      48.162  26.747  29.137  1.00  0.00     0.057 A 
ATOM     81  C   UNL A   1      49.057  26.972  28.084  1.00  0.00     0.134 A 
ATOM     82  C   UNL A   1      48.662  26.143  30.298  1.00  0.00     0.134 A 
ATOM     83  F   UNL A   1      48.635  27.537  26.943  1.00  0.00    -0.206 F 
ATOM     84  C   UNL A   1      50.395  26.588  28.175  1.00  0.00     0.040 A 
ATOM     85  C   UNL A   1      50.004  25.780  30.410  1.00  0.00     0.040 A 
ATOM     86  F   UNL A   1      47.858  25.910  31.346  1.00  0.00    -0.206 F 
ATOM     87  C   UNL A   1      50.873  25.997  29.343  1.00  0.00     0.006 A 
ENDBRANCH  63  80
ENDBRANCH  37  38
ENDBRANCH  29  32
ENDBRANCH  27  28
ENDBRANCH  26  27
ENDBRANCH   1  26
TORSDOF 14
ENDMDL
MODEL 2
REMARK VINA RESULT:     -12.8      4.428      8.854
REMARK SMILES C[C@@H]1[C@H](C(=O)NCCCCNC(=O)c2ccc(-c3c4nc(c(-c5c(F)cccc5F)c5ccc([nH]5)c(-c5c(F)cccc5F)c5nc(c(-c6c(F)cccc6F)c6ccc3[nH]6)C=C5)C=C4)cc2)CC[N@H+]1Cc1cnn(-c2ccccc2)c1
REMARK SMILES IDX 8 1 7 2 6 3 4 4 5 5 3 7 1 8 2 9 70 10 68 11 69 12 71 14
REMARK SMILES IDX 72 15 73 16 82 17 74 18 75 19 76 20 77 21 81 22 78 23 80 24
REMARK SMILES IDX 79 25 9 26 10 27 11 28 12 29 13 31 14 32 15 33 67 34 16 35
REMARK SMILES IDX 66 36 17 37 18 38 19 39 60 40 20 41 65 42 59 43 61 44 21 45
REMARK SMILES IDX 64 46 58 47 57 48 22 50 48 51 31 52 47 53 32 54 35 55 46 56
REMARK SMILES IDX 62 57 33 58 34 59 45 61 63 62 36 63 23 64 24 65 29 66 25 67
REMARK SMILES IDX 26 68 28 69 30 70 27 71 49 72 50 73 55 74 51 75 52 76 54 77
REMARK SMILES IDX 56 78 53 79 37 80 38 81 43 82 39 83 40 84 42 85 44 86 41 87
REMARK H PARENT 6 6 70 13 11 30 61 49 35 60
REMARK Flexibility Score: inf
ROOT
ATOM      1  C   UNL A   1      32.140  29.993  26.848  1.00  0.00     0.023 C 
ENDROOT
BRANCH   1   2
ATOM      2  C   UNL A   1      33.172  29.513  25.832  1.00  0.00     0.116 C 
BRANCH   2   3
ATOM      3  N   UNL A   1      32.671  29.618  24.480  1.00  0.00    -0.356 N 
ATOM      4  C   UNL A   1      32.641  28.705  23.478  1.00  0.00     0.229 C 
ATOM      5  O   UNL A   1      32.231  29.100  22.381  1.00  0.00    -0.275 OA
ATOM      6  H   UNL A   1      32.290  30.496  24.249  1.00  0.00     0.163 HD
BRANCH   4   7
ATOM      7  C   UNL A   1      33.056  27.247  23.645  1.00  0.00     0.142 C 
ATOM      8  C   UNL A   1      30.737  26.734  24.787  1.00  0.00     0.076 C 
ATOM      9  C   UNL A   1      32.094  26.243  24.315  1.00  0.00     0.193 C 
ATOM     10  N   UNL A   1      32.077  25.144  23.366  1.00  0.00    -0.328 N 
ATOM     11  C   UNL A   1      33.561  26.567  22.364  1.00  0.00     0.081 C 
ATOM     12  C   UNL A   1      33.295  25.089  22.598  1.00  0.00     0.263 C 
ATOM     13  H   UNL A   1      31.094  24.964  23.160  1.00  0.00     0.348 HD
BRANCH  10  14
ATOM     14  C   UNL A   1      31.048  24.150  23.234  1.00  0.00     0.302 C 
BRANCH  14  15
ATOM     15  C   UNL A   1      31.522  22.856  23.815  1.00  0.00     0.045 A 
ATOM     16  C   UNL A   1      31.588  22.487  25.176  1.00  0.00     0.145 A 
ATOM     17  C   UNL A   1      31.984  21.729  23.160  1.00  0.00     0.124 A 
ATOM     18  N   UNL A   1      32.027  21.243  25.363  1.00  0.00    -0.176 NA
ATOM     19  N   UNL A   1      32.297  20.783  24.116  1.00  0.00    -0.240 N 
BRANCH  19  20
ATOM     20  C   UNL A   1      32.894  19.508  23.924  1.00  0.00     0.065 A 
ATOM     21  C   UNL A   1      34.074  19.193  24.611  1.00  0.00     0.028 A 
ATOM     22  C   UNL A   1      32.352  18.583  23.019  1.00  0.00     0.028 A 
ATOM     23  C   UNL A   1      34.696  17.960  24.404  1.00  0.00     0.002 A 
ATOM     24  C   UNL A   1      33.011  17.374  22.780  1.00  0.00     0.002 A 
ATOM     25  C   UNL A   1      34.175  17.058  23.478  1.00  0.00     0.000 A 
ENDBRANCH  19  20
ENDBRANCH  14  15
ENDBRANCH  10  14
ENDBRANCH   4   7
ENDBRANCH   2   3
ENDBRANCH   1   2
BRANCH   1  26
ATOM     26  C   UNL A   1      31.737  31.452  26.770  1.00  0.00     0.023 C 
BRANCH  26  27
ATOM     27  C   UNL A   1      32.835  32.442  27.107  1.00  0.00     0.116 C 
BRANCH  27  28
ATOM     28  N   UNL A   1      32.368  33.728  27.608  1.00  0.00    -0.352 N 
ATOM     29  C   UNL A   1      33.012  34.578  28.479  1.00  0.00     0.251 C 
ATOM     30  H   UNL A   1      31.488  34.026  27.283  1.00  0.00     0.163 HD
ATOM     31  O   UNL A   1      32.603  35.698  28.738  1.00  0.00    -0.269 OA
BRANCH  29  32
ATOM     32  C   UNL A   1      34.251  34.105  29.107  1.00  0.00     0.039 A 
ATOM     33  C   UNL A   1      35.484  34.578  28.650  1.00  0.00     0.014 A 
ATOM     34  C   UNL A   1      34.160  33.238  30.194  1.00  0.00     0.014 A 
ATOM     35  C   UNL A   1      36.645  34.193  29.317  1.00  0.00     0.010 A 
ATOM     36  C   UNL A   1      35.300  32.944  30.915  1.00  0.00     0.010 A 
ATOM     37  C   UNL A   1      36.554  33.384  30.459  1.00  0.00    -0.014 A 
BRANCH  37  38
ATOM     38  C   UNL A   1      37.747  32.848  31.147  1.00  0.00     0.031 A 
ATOM     39  C   UNL A   1      38.434  31.661  30.533  1.00  0.00     0.074 A 
ATOM     40  C   UNL A   1      38.129  33.334  32.341  1.00  0.00     0.049 A 
ATOM     41  N   UNL A   1      39.330  30.860  31.046  1.00  0.00    -0.248 NA
ATOM     42  C   UNL A   1      38.004  31.292  29.172  1.00  0.00     0.031 C 
ATOM     43  C   UNL A   1      37.518  34.468  33.036  1.00  0.00     0.029 A 
ATOM     44  N   UNL A   1      39.112  32.907  33.195  1.00  0.00    -0.354 N 
ATOM     45  C   UNL A   1      39.528  29.870  30.092  1.00  0.00     0.074 A 
ATOM     46  C   UNL A   1      38.620  30.135  28.999  1.00  0.00     0.031 C 
ATOM     47  C   UNL A   1      38.147  34.650  34.209  1.00  0.00     0.029 A 
ATOM     48  C   UNL A   1      39.170  33.621  34.365  1.00  0.00     0.049 A 
ATOM     49  H   UNL A   1      39.719  32.160  32.987  1.00  0.00     0.167 HD
ATOM     50  C   UNL A   1      40.408  28.843  30.116  1.00  0.00     0.037 A 
ATOM     51  C   UNL A   1      39.953  33.442  35.446  1.00  0.00     0.037 A 
ATOM     52  C   UNL A   1      41.339  28.627  31.190  1.00  0.00     0.049 A 
ATOM     53  C   UNL A   1      40.941  32.307  35.444  1.00  0.00     0.074 A 
ATOM     54  C   UNL A   1      42.319  27.659  31.303  1.00  0.00     0.029 A 
ATOM     55  N   UNL A   1      41.408  29.408  32.336  1.00  0.00    -0.354 N 
ATOM     56  N   UNL A   1      41.149  31.392  34.526  1.00  0.00    -0.248 NA
ATOM     57  C   UNL A   1      41.808  32.183  36.623  1.00  0.00     0.031 C 
ATOM     58  C   UNL A   1      42.959  27.834  32.534  1.00  0.00     0.029 A 
ATOM     59  C   UNL A   1      42.412  28.940  33.164  1.00  0.00     0.049 A 
ATOM     60  H   UNL A   1      40.829  30.180  32.528  1.00  0.00     0.167 HD
ATOM     61  C   UNL A   1      42.193  30.606  34.999  1.00  0.00     0.074 A 
ATOM     62  C   UNL A   1      42.579  31.159  36.282  1.00  0.00     0.031 C 
ATOM     63  C   UNL A   1      42.783  29.528  34.427  1.00  0.00     0.037 A 
BRANCH  50  64
ATOM     64  C   UNL A   1      40.397  27.895  28.952  1.00  0.00     0.057 A 
ATOM     65  C   UNL A   1      41.154  28.129  27.795  1.00  0.00     0.134 A 
ATOM     66  C   UNL A   1      39.612  26.736  28.983  1.00  0.00     0.134 A 
ATOM     67  F   UNL A   1      41.913  29.231  27.690  1.00  0.00    -0.206 F 
ATOM     68  C   UNL A   1      41.102  27.267  26.698  1.00  0.00     0.040 A 
ATOM     69  C   UNL A   1      39.577  25.848  27.905  1.00  0.00     0.040 A 
ATOM     70  F   UNL A   1      38.863  26.447  30.058  1.00  0.00    -0.206 F 
ATOM     71  C   UNL A   1      40.315  26.118  26.755  1.00  0.00     0.006 A 
ENDBRANCH  50  64
BRANCH  51  72
ATOM     72  C   UNL A   1      39.858  34.373  36.598  1.00  0.00     0.057 A 
ATOM     73  C   UNL A   1      39.117  34.032  37.735  1.00  0.00     0.134 A 
ATOM     74  C   UNL A   1      40.505  35.615  36.599  1.00  0.00     0.134 A 
ATOM     75  F   UNL A   1      38.462  32.863  37.788  1.00  0.00    -0.206 F 
ATOM     76  C   UNL A   1      39.005  34.899  38.824  1.00  0.00     0.040 A 
ATOM     77  C   UNL A   1      40.422  36.482  37.691  1.00  0.00     0.040 A 
ATOM     78  F   UNL A   1      41.241  35.998  35.545  1.00  0.00    -0.206 F 
ATOM     79  C   UNL A   1      39.664  36.126  38.805  1.00  0.00     0.006 A 
ENDBRANCH  51  72
BRANCH  63  80
ATOM     80  C   UNL A   1      43.941  28.915  35.158  1.00  0.00     0.057 A 
ATOM     81  C   UNL A   1      43.769  27.896  36.102  1.00  0.00     0.134 A 
ATOM     82  C   UNL A   1      45.251  29.324  34.873  1.00  0.00     0.134 A 
ATOM     83  F   UNL A   1      42.539  27.469  36.424  1.00  0.00    -0.206 F 
ATOM     84  C   UNL A   1      44.859  27.322  36.756  1.00  0.00     0.040 A 
ATOM     85  C   UNL A   1      46.349  28.738  35.500  1.00  0.00     0.040 A 
ATOM     86  F   UNL A   1      45.482  30.289  33.969  1.00  0.00    -0.206 F 
ATOM     87  C   UNL A   1      46.154  27.738  36.450  1.00  0.00     0.006 A 
ENDBRANCH  63  80
ENDBRANCH  37  38
ENDBRANCH  29  32
ENDBRANCH  27  28
ENDBRANCH  26  27
ENDBRANCH   1  26
TORSDOF 14
ENDMDL
MODEL 3
REMARK VINA RESULT:     -12.7      2.530      6.785
REMARK SMILES C[C@@H]1[C@H](C(=O)NCCCCNC(=O)c2ccc(-c3c4nc(c(-c5c(F)cccc5F)c5ccc([nH]5)c(-c5c(F)cccc5F)c5nc(c(-c6c(F)cccc6F)c6ccc3[nH]6)C=C5)C=C4)cc2)CC[N@H+]1Cc1cnn(-c2ccccc2)c1
REMARK SMILES IDX 8 1 7 2 6 3 4 4 5 5 3 7 1 8 2 9 70 10 68 11 69 12 71 14
REMARK SMILES IDX 72 15 73 16 82 17 74 18 75 19 76 20 77 21 81 22 78 23 80 24
REMARK SMILES IDX 79 25 9 26 10 27 11 28 12 29 13 31 14 32 15 33 67 34 16 35
REMARK SMILES IDX 66 36 17 37 18 38 19 39 60 40 20 41 65 42 59 43 61 44 21 45
REMARK SMILES IDX 64 46 58 47 57 48 22 50 48 51 31 52 47 53 32 54 35 55 46 56
REMARK SMILES IDX 62 57 33 58 34 59 45 61 63 62 36 63 23 64 24 65 29 66 25 67
REMARK SMILES IDX 26 68 28 69 30 70 27 71 49 72 50 73 55 74 51 75 52 76 54 77
REMARK SMILES IDX 56 78 53 79 37 80 38 81 43 82 39 83 40 84 42 85 44 86 41 87
REMARK H PARENT 6 6 70 13 11 30 61 49 35 60
REMARK Flexibility Score: inf
ROOT
ATOM      1  C   UNL A   1      37.414  21.460  24.629  1.00  0.00     0.023 C 
ENDROOT
BRANCH   1   2
ATOM      2  C   UNL A   1      36.529  22.115  25.686  1.00  0.00     0.116 C 
BRANCH   2   3
ATOM      3  N   UNL A   1      35.441  21.247  26.076  1.00  0.00    -0.356 N 
ATOM      4  C   UNL A   1      34.137  21.525  26.322  1.00  0.00     0.229 C 
ATOM      5  O   UNL A   1      33.440  20.590  26.732  1.00  0.00    -0.275 OA
ATOM      6  H   UNL A   1      35.687  20.299  26.180  1.00  0.00     0.163 HD
BRANCH   4   7
ATOM      7  C   UNL A   1      33.504  22.894  26.100  1.00  0.00     0.142 C 
ATOM      8  C   UNL A   1      33.283  22.357  23.529  1.00  0.00     0.076 C 
ATOM      9  C   UNL A   1      33.074  23.325  24.681  1.00  0.00     0.193 C 
ATOM     10  N   UNL A   1      31.710  23.777  24.891  1.00  0.00    -0.328 N 
ATOM     11  C   UNL A   1      32.320  23.218  27.023  1.00  0.00     0.081 C 
ATOM     12  C   UNL A   1      31.506  24.236  26.241  1.00  0.00     0.263 C 
ATOM     13  H   UNL A   1      31.138  23.272  24.214  1.00  0.00     0.348 HD
BRANCH  10  14
ATOM     14  C   UNL A   1      30.682  23.870  23.891  1.00  0.00     0.302 C 
BRANCH  14  15
ATOM     15  C   UNL A   1      30.571  25.284  23.415  1.00  0.00     0.045 A 
ATOM     16  C   UNL A   1      31.379  25.946  22.466  1.00  0.00     0.145 A 
ATOM     17  C   UNL A   1      29.652  26.251  23.776  1.00  0.00     0.124 A 
ATOM     18  N   UNL A   1      30.996  27.201  22.234  1.00  0.00    -0.176 NA
ATOM     19  N   UNL A   1      29.943  27.397  23.065  1.00  0.00    -0.240 N 
BRANCH  19  20
ATOM     20  C   UNL A   1      29.331  28.675  23.174  1.00  0.00     0.065 A 
ATOM     21  C   UNL A   1      30.058  29.739  23.726  1.00  0.00     0.028 A 
ATOM     22  C   UNL A   1      27.997  28.874  22.790  1.00  0.00     0.028 A 
ATOM     23  C   UNL A   1      29.459  30.991  23.877  1.00  0.00     0.002 A 
ATOM     24  C   UNL A   1      27.391  30.118  22.994  1.00  0.00     0.002 A 
ATOM     25  C   UNL A   1      28.123  31.177  23.527  1.00  0.00     0.000 A 
ENDBRANCH  19  20
ENDBRANCH  14  15
ENDBRANCH  10  14
ENDBRANCH   4   7
ENDBRANCH   2   3
ENDBRANCH   1   2
BRANCH   1  26
ATOM     26  C   UNL A   1      38.042  20.131  24.997  1.00  0.00     0.023 C 
BRANCH  26  27
ATOM     27  C   UNL A   1      39.198  20.213  25.973  1.00  0.00     0.116 C 
BRANCH  27  28
ATOM     28  N   UNL A   1      40.213  19.180  25.812  1.00  0.00    -0.352 N 
ATOM     29  C   UNL A   1      41.559  19.270  26.086  1.00  0.00     0.251 C 
ATOM     30  H   UNL A   1      39.897  18.314  25.466  1.00  0.00     0.163 HD
ATOM     31  O   UNL A   1      42.310  18.309  26.046  1.00  0.00    -0.269 OA
BRANCH  29  32
ATOM     32  C   UNL A   1      42.097  20.584  26.454  1.00  0.00     0.039 A 
ATOM     33  C   UNL A   1      42.432  21.501  25.454  1.00  0.00     0.014 A 
ATOM     34  C   UNL A   1      42.200  20.909  27.806  1.00  0.00     0.014 A 
ATOM     35  C   UNL A   1      42.851  22.778  25.821  1.00  0.00     0.010 A 
ATOM     36  C   UNL A   1      42.514  22.206  28.162  1.00  0.00     0.010 A 
ATOM     37  C   UNL A   1      42.882  23.137  27.176  1.00  0.00    -0.014 A 
BRANCH  37  38
ATOM     38  C   UNL A   1      43.421  24.432  27.641  1.00  0.00     0.031 A 
ATOM     39  C   UNL A   1      42.438  25.477  28.090  1.00  0.00     0.074 A 
ATOM     40  C   UNL A   1      44.734  24.703  27.552  1.00  0.00     0.049 A 
ATOM     41  N   UNL A   1      42.620  26.753  28.307  1.00  0.00    -0.248 NA
ATOM     42  C   UNL A   1      41.044  25.029  28.259  1.00  0.00     0.031 C 
ATOM     43  C   UNL A   1      45.770  23.769  27.108  1.00  0.00     0.029 A 
ATOM     44  N   UNL A   1      45.415  25.865  27.804  1.00  0.00    -0.354 N 
ATOM     45  C   UNL A   1      41.358  27.263  28.585  1.00  0.00     0.074 A 
ATOM     46  C   UNL A   1      40.414  26.177  28.452  1.00  0.00     0.031 C 
ATOM     47  C   UNL A   1      46.959  24.395  27.127  1.00  0.00     0.029 A 
ATOM     48  C   UNL A   1      46.759  25.782  27.538  1.00  0.00     0.049 A 
ATOM     49  H   UNL A   1      44.983  26.681  28.144  1.00  0.00     0.167 HD
ATOM     50  C   UNL A   1      41.021  28.523  28.944  1.00  0.00     0.037 A 
ATOM     51  C   UNL A   1      47.712  26.731  27.604  1.00  0.00     0.037 A 
ATOM     52  C   UNL A   1      41.983  29.577  29.120  1.00  0.00     0.049 A 
ATOM     53  C   UNL A   1      47.319  28.121  28.026  1.00  0.00     0.074 A 
ATOM     54  C   UNL A   1      41.772  30.877  29.538  1.00  0.00     0.029 A 
ATOM     55  N   UNL A   1      43.346  29.439  28.898  1.00  0.00    -0.354 N 
ATOM     56  N   UNL A   1      46.130  28.592  28.321  1.00  0.00    -0.248 NA
ATOM     57  C   UNL A   1      48.400  29.110  28.132  1.00  0.00     0.031 C 
ATOM     58  C   UNL A   1      43.006  31.536  29.536  1.00  0.00     0.029 A 
ATOM     59  C   UNL A   1      43.990  30.633  29.166  1.00  0.00     0.049 A 
ATOM     60  H   UNL A   1      43.788  28.612  28.596  1.00  0.00     0.167 HD
ATOM     61  C   UNL A   1      46.323  29.920  28.682  1.00  0.00     0.074 A 
ATOM     62  C   UNL A   1      47.747  30.175  28.576  1.00  0.00     0.031 C 
ATOM     63  C   UNL A   1      45.412  30.846  29.069  1.00  0.00     0.037 A 
BRANCH  50  64
ATOM     64  C   UNL A   1      39.565  28.811  29.165  1.00  0.00     0.057 A 
ATOM     65  C   UNL A   1      38.735  29.281  28.136  1.00  0.00     0.134 A 
ATOM     66  C   UNL A   1      38.983  28.625  30.425  1.00  0.00     0.134 A 
ATOM     67  F   UNL A   1      39.232  29.501  26.909  1.00  0.00    -0.206 F 
ATOM     68  C   UNL A   1      37.393  29.591  28.361  1.00  0.00     0.040 A 
ATOM     69  C   UNL A   1      37.633  28.900  30.655  1.00  0.00     0.040 A 
ATOM     70  F   UNL A   1      39.715  28.176  31.456  1.00  0.00    -0.206 F 
ATOM     71  C   UNL A   1      36.837  29.394  29.624  1.00  0.00     0.006 A 
ENDBRANCH  50  64
BRANCH  51  72
ATOM     72  C   UNL A   1      49.124  26.394  27.296  1.00  0.00     0.057 A 
ATOM     73  C   UNL A   1      49.642  26.586  26.010  1.00  0.00     0.134 A 
ATOM     74  C   UNL A   1      49.990  25.882  28.270  1.00  0.00     0.134 A 
ATOM     75  F   UNL A   1      48.858  27.059  25.031  1.00  0.00    -0.206 F 
ATOM     76  C   UNL A   1      50.964  26.264  25.697  1.00  0.00     0.040 A 
ATOM     77  C   UNL A   1      51.322  25.578  27.977  1.00  0.00     0.040 A 
ATOM     78  F   UNL A   1      49.559  25.685  29.525  1.00  0.00    -0.206 F 
ATOM     79  C   UNL A   1      51.809  25.763  26.684  1.00  0.00     0.006 A 
ENDBRANCH  51  72
BRANCH  63  80
ATOM     80  C   UNL A   1      45.934  32.197  29.459  1.00  0.00     0.057 A 
ATOM     81  C   UNL A   1      46.045  33.246  28.539  1.00  0.00     0.134 A 
ATOM     82  C   UNL A   1      46.286  32.460  30.790  1.00  0.00     0.134 A 
ATOM     83  F   UNL A   1      45.732  33.053  27.248  1.00  0.00    -0.206 F 
ATOM     84  C   UNL A   1      46.511  34.503  28.923  1.00  0.00     0.040 A 
ATOM     85  C   UNL A   1      46.727  33.719  31.191  1.00  0.00     0.040 A 
ATOM     86  F   UNL A   1      46.191  31.500  31.722  1.00  0.00    -0.206 F 
ATOM     87  C   UNL A   1      46.847  34.744  30.254  1.00  0.00     0.006 A 
ENDBRANCH  63  80
ENDBRANCH  37  38
ENDBRANCH  29  32
ENDBRANCH  27  28
ENDBRANCH  26  27
ENDBRANCH   1  26
TORSDOF 14
ENDMDL
