MODEL 1
REMARK VINA RESULT:     -12.1      0.000      0.000
REMARK SMILES Cc1cc(F)cc(N[C@@](C)(C(=O)NCCCCNC(=O)c2ccc(-c3c4nc(c(-c5c(F)cccc5F)c5ccc([nH]5)c(-c5c(F)cccc5F)c5nc(c(-c6c(F)cccc6F)c6ccc3[nH]6)C=C5)C=C4)cc2)c2ccc(O)cc2)c1
REMARK SMILES IDX 15 1 14 2 13 3 11 4 12 5 9 7 10 8 8 9 7 11 1 12 2 13 3 14
REMARK SMILES IDX 82 15 4 16 5 17 6 18 75 19 76 20 81 21 77 22 80 23 78 24
REMARK SMILES IDX 79 25 16 27 17 28 18 29 19 30 20 32 21 33 22 34 74 35 23 36
REMARK SMILES IDX 73 37 24 38 25 39 26 40 67 41 27 42 72 43 66 44 68 45 28 46
REMARK SMILES IDX 71 47 65 48 64 49 29 51 55 52 38 53 54 54 39 55 42 56 53 57
REMARK SMILES IDX 69 58 40 59 41 60 52 62 70 63 43 64 30 65 31 66 36 67 32 68
REMARK SMILES IDX 33 69 35 70 37 71 34 72 56 73 57 74 62 75 58 76 59 77 61 78
REMARK SMILES IDX 63 79 60 80 44 81 45 82 50 83 46 84 47 85 49 86 51 87 48 88
REMARK H PARENT 13 6 8 10 79 26 18 31 68 50 42 61
REMARK Flexibility Score: inf
ROOT
ATOM      1  C   UNL A   1      36.430  20.213  25.008  1.00  0.00     0.023 C 
ENDROOT
BRANCH   1   2
ATOM      2  C   UNL A   1      36.048  21.649  25.361  1.00  0.00     0.116 C 
BRANCH   2   3
ATOM      3  N   UNL A   1      35.685  22.420  24.187  1.00  0.00    -0.354 N 
ATOM      4  C   UNL A   1      34.490  22.652  23.555  1.00  0.00     0.250 C 
ATOM      5  O   UNL A   1      34.613  23.221  22.463  1.00  0.00    -0.272 OA
ATOM      6  H   UNL A   1      36.449  22.866  23.759  1.00  0.00     0.163 HD
BRANCH   4   7
ATOM      7  C   UNL A   1      33.089  22.217  24.169  1.00  0.00     0.139 C 
ATOM      8  C   UNL A   1      31.933  22.735  23.276  1.00  0.00     0.051 C 
BRANCH   7   9
ATOM      9  N   UNL A   1      32.969  22.868  25.506  1.00  0.00    -0.368 N 
ATOM     10  H   UNL A   1      33.346  22.343  26.248  1.00  0.00     0.161 HD
BRANCH   9  11
ATOM     11  C   UNL A   1      32.419  24.080  25.885  1.00  0.00     0.038 A 
ATOM     12  C   UNL A   1      33.754  27.665  26.196  1.00  0.00     0.044 C 
ATOM     13  C   UNL A   1      32.805  26.507  26.135  1.00  0.00    -0.046 A 
ATOM     14  C   UNL A   1      31.430  26.721  26.169  1.00  0.00     0.042 A 
ATOM     15  C   UNL A   1      33.281  25.194  25.966  1.00  0.00     0.029 A 
ATOM     16  C   UNL A   1      30.573  25.630  26.152  1.00  0.00     0.125 A 
ATOM     17  F   UNL A   1      29.249  25.840  26.187  1.00  0.00    -0.207 F 
ATOM     18  C   UNL A   1      31.058  24.325  26.064  1.00  0.00     0.065 A 
ENDBRANCH   9  11
ENDBRANCH   7   9
BRANCH   7  19
ATOM     19  C   UNL A   1      32.832  20.683  24.203  1.00  0.00    -0.013 A 
ATOM     20  C   UNL A   1      32.884  19.968  25.421  1.00  0.00     0.010 A 
ATOM     21  C   UNL A   1      32.481  19.950  23.052  1.00  0.00     0.010 A 
ATOM     22  C   UNL A   1      32.762  18.577  25.457  1.00  0.00     0.046 A 
ATOM     23  C   UNL A   1      32.346  18.558  23.085  1.00  0.00     0.046 A 
ATOM     24  C   UNL A   1      32.524  17.881  24.284  1.00  0.00     0.115 A 
BRANCH  24  25
ATOM     25  O   UNL A   1      32.472  16.521  24.342  1.00  0.00    -0.508 OA
ATOM     26  H   UNL A   1      32.867  16.007  23.666  1.00  0.00     0.293 HD
ENDBRANCH  24  25
ENDBRANCH   7  19
ENDBRANCH   4   7
ENDBRANCH   2   3
ENDBRANCH   1   2
BRANCH   1  27
ATOM     27  C   UNL A   1      37.898  19.997  24.636  1.00  0.00     0.023 C 
BRANCH  27  28
ATOM     28  C   UNL A   1      38.909  20.254  25.749  1.00  0.00     0.116 C 
BRANCH  28  29
ATOM     29  N   UNL A   1      39.998  19.291  25.771  1.00  0.00    -0.352 N 
ATOM     30  C   UNL A   1      41.322  19.470  26.103  1.00  0.00     0.251 C 
ATOM     31  H   UNL A   1      39.751  18.375  25.510  1.00  0.00     0.163 HD
ATOM     32  O   UNL A   1      42.119  18.555  25.953  1.00  0.00    -0.269 OA
BRANCH  30  33
ATOM     33  C   UNL A   1      41.787  20.781  26.609  1.00  0.00     0.039 A 
ATOM     34  C   UNL A   1      42.290  21.713  25.696  1.00  0.00     0.014 A 
ATOM     35  C   UNL A   1      41.727  21.095  27.969  1.00  0.00     0.014 A 
ATOM     36  C   UNL A   1      42.657  22.987  26.135  1.00  0.00     0.010 A 
ATOM     37  C   UNL A   1      42.028  22.387  28.395  1.00  0.00     0.010 A 
ATOM     38  C   UNL A   1      42.491  23.348  27.482  1.00  0.00    -0.014 A 
BRANCH  38  39
ATOM     39  C   UNL A   1      42.780  24.728  27.954  1.00  0.00     0.031 A 
ATOM     40  C   UNL A   1      44.177  25.115  28.357  1.00  0.00     0.074 A 
ATOM     41  C   UNL A   1      41.768  25.607  28.101  1.00  0.00     0.049 A 
ATOM     42  N   UNL A   1      44.603  26.235  28.883  1.00  0.00    -0.248 NA
ATOM     43  C   UNL A   1      45.226  24.100  28.174  1.00  0.00     0.031 C 
ATOM     44  C   UNL A   1      40.360  25.337  27.803  1.00  0.00     0.029 A 
ATOM     45  N   UNL A   1      41.766  26.901  28.561  1.00  0.00    -0.354 N 
ATOM     46  C   UNL A   1      45.960  26.049  29.119  1.00  0.00     0.074 A 
ATOM     47  C   UNL A   1      46.280  24.698  28.712  1.00  0.00     0.031 C 
ATOM     48  C   UNL A   1      39.633  26.433  28.080  1.00  0.00     0.029 A 
ATOM     49  C   UNL A   1      40.515  27.469  28.607  1.00  0.00     0.049 A 
ATOM     50  H   UNL A   1      42.584  27.377  28.833  1.00  0.00     0.167 HD
ATOM     51  C   UNL A   1      46.860  26.930  29.615  1.00  0.00     0.037 A 
ATOM     52  C   UNL A   1      40.121  28.682  29.038  1.00  0.00     0.037 A 
ATOM     53  C   UNL A   1      46.552  28.290  29.971  1.00  0.00     0.049 A 
ATOM     54  C   UNL A   1      41.149  29.651  29.553  1.00  0.00     0.074 A 
ATOM     55  C   UNL A   1      47.418  29.286  30.388  1.00  0.00     0.029 A 
ATOM     56  N   UNL A   1      45.282  28.844  29.954  1.00  0.00    -0.354 N 
ATOM     57  N   UNL A   1      42.444  29.491  29.682  1.00  0.00    -0.248 NA
ATOM     58  C   UNL A   1      40.664  30.973  29.975  1.00  0.00     0.031 C 
ATOM     59  C   UNL A   1      46.666  30.433  30.664  1.00  0.00     0.029 A 
ATOM     60  C   UNL A   1      45.338  30.162  30.375  1.00  0.00     0.049 A 
ATOM     61  H   UNL A   1      44.462  28.371  29.683  1.00  0.00     0.167 HD
ATOM     62  C   UNL A   1      42.930  30.698  30.169  1.00  0.00     0.074 A 
ATOM     63  C   UNL A   1      41.794  31.586  30.299  1.00  0.00     0.031 C 
ATOM     64  C   UNL A   1      44.203  31.039  30.482  1.00  0.00     0.037 A 
BRANCH  51  65
ATOM     65  C   UNL A   1      48.274  26.463  29.797  1.00  0.00     0.057 A 
ATOM     66  C   UNL A   1      49.266  26.718  28.844  1.00  0.00     0.134 A 
ATOM     67  C   UNL A   1      48.660  25.814  30.977  1.00  0.00     0.134 A 
ATOM     68  F   UNL A   1      48.958  27.328  27.688  1.00  0.00    -0.206 F 
ATOM     69  C   UNL A   1      50.591  26.332  29.050  1.00  0.00     0.040 A 
ATOM     70  C   UNL A   1      49.987  25.445  31.205  1.00  0.00     0.040 A 
ATOM     71  F   UNL A   1      47.759  25.545  31.935  1.00  0.00    -0.206 F 
ATOM     72  C   UNL A   1      50.956  25.703  30.238  1.00  0.00     0.006 A 
ENDBRANCH  51  65
BRANCH  52  73
ATOM     73  C   UNL A   1      38.686  29.062  28.999  1.00  0.00     0.057 A 
ATOM     74  C   UNL A   1      38.103  29.574  27.833  1.00  0.00     0.134 A 
ATOM     75  C   UNL A   1      37.873  28.958  30.134  1.00  0.00     0.134 A 
ATOM     76  F   UNL A   1      38.837  29.717  26.719  1.00  0.00    -0.206 F 
ATOM     77  C   UNL A   1      36.774  29.997  27.805  1.00  0.00     0.040 A 
ATOM     78  C   UNL A   1      36.534  29.352  30.112  1.00  0.00     0.040 A 
ATOM     79  F   UNL A   1      38.369  28.469  31.280  1.00  0.00    -0.206 F 
ATOM     80  C   UNL A   1      35.983  29.884  28.948  1.00  0.00     0.006 A 
ENDBRANCH  52  73
BRANCH  64  81
ATOM     81  C   UNL A   1      44.443  32.443  30.954  1.00  0.00     0.057 A 
ATOM     82  C   UNL A   1      44.437  32.778  32.313  1.00  0.00     0.134 A 
ATOM     83  C   UNL A   1      44.725  33.463  30.036  1.00  0.00     0.134 A 
ATOM     84  F   UNL A   1      44.161  31.849  33.241  1.00  0.00    -0.206 F 
ATOM     85  C   UNL A   1      44.683  34.083  32.743  1.00  0.00     0.040 A 
ATOM     86  C   UNL A   1      44.999  34.765  30.454  1.00  0.00     0.040 A 
ATOM     87  F   UNL A   1      44.755  33.205  28.719  1.00  0.00    -0.206 F 
ATOM     88  C   UNL A   1      44.972  35.079  31.811  1.00  0.00     0.006 A 
ENDBRANCH  64  81
ENDBRANCH  38  39
ENDBRANCH  30  33
ENDBRANCH  28  29
ENDBRANCH  27  28
ENDBRANCH   1  27
TORSDOF 15
ENDMDL
MODEL 2
REMARK VINA RESULT:     -12.1      1.146      6.166
REMARK SMILES Cc1cc(F)cc(N[C@@](C)(C(=O)NCCCCNC(=O)c2ccc(-c3c4nc(c(-c5c(F)cccc5F)c5ccc([nH]5)c(-c5c(F)cccc5F)c5nc(c(-c6c(F)cccc6F)c6ccc3[nH]6)C=C5)C=C4)cc2)c2ccc(O)cc2)c1
REMARK SMILES IDX 15 1 14 2 13 3 11 4 12 5 9 7 10 8 8 9 7 11 1 12 2 13 3 14
REMARK SMILES IDX 82 15 4 16 5 17 6 18 75 19 76 20 81 21 77 22 80 23 78 24
REMARK SMILES IDX 79 25 16 27 17 28 18 29 19 30 20 32 21 33 22 34 74 35 23 36
REMARK SMILES IDX 73 37 24 38 25 39 26 40 67 41 27 42 72 43 66 44 68 45 28 46
REMARK SMILES IDX 71 47 65 48 64 49 29 51 55 52 38 53 54 54 39 55 42 56 53 57
REMARK SMILES IDX 69 58 40 59 41 60 52 62 70 63 43 64 30 65 31 66 36 67 32 68
REMARK SMILES IDX 33 69 35 70 37 71 34 72 56 73 57 74 62 75 58 76 59 77 61 78
REMARK SMILES IDX 63 79 60 80 44 81 45 82 50 83 46 84 47 85 49 86 51 87 48 88
REMARK H PARENT 13 6 8 10 79 26 18 31 68 50 42 61
REMARK Flexibility Score: inf
ROOT
ATOM      1  C   UNL A   1      36.411  20.312  25.015  1.00  0.00     0.023 C 
ENDROOT
BRANCH   1   2
ATOM      2  C   UNL A   1      35.990  21.747  25.327  1.00  0.00     0.116 C 
BRANCH   2   3
ATOM      3  N   UNL A   1      35.588  22.469  24.135  1.00  0.00    -0.354 N 
ATOM      4  C   UNL A   1      34.381  22.633  23.506  1.00  0.00     0.250 C 
ATOM      5  O   UNL A   1      34.473  23.175  22.397  1.00  0.00    -0.272 OA
ATOM      6  H   UNL A   1      36.331  22.932  23.688  1.00  0.00     0.163 HD
BRANCH   4   7
ATOM      7  C   UNL A   1      33.003  22.161  24.143  1.00  0.00     0.139 C 
ATOM      8  C   UNL A   1      31.818  22.649  23.272  1.00  0.00     0.051 C 
BRANCH   7   9
ATOM      9  N   UNL A   1      32.889  22.805  25.484  1.00  0.00    -0.368 N 
ATOM     10  H   UNL A   1      33.252  22.269  26.224  1.00  0.00     0.161 HD
BRANCH   9  11
ATOM     11  C   UNL A   1      32.360  24.026  25.867  1.00  0.00     0.038 A 
ATOM     12  C   UNL A   1      33.745  27.594  26.147  1.00  0.00     0.044 C 
ATOM     13  C   UNL A   1      32.780  26.447  26.104  1.00  0.00    -0.046 A 
ATOM     14  C   UNL A   1      31.408  26.680  26.159  1.00  0.00     0.042 A 
ATOM     15  C   UNL A   1      33.237  25.128  25.931  1.00  0.00     0.029 A 
ATOM     16  C   UNL A   1      30.537  25.599  26.158  1.00  0.00     0.125 A 
ATOM     17  F   UNL A   1      29.218  25.827  26.212  1.00  0.00    -0.207 F 
ATOM     18  C   UNL A   1      31.004  24.288  26.066  1.00  0.00     0.065 A 
ENDBRANCH   9  11
ENDBRANCH   7   9
BRANCH   7  19
ATOM     19  C   UNL A   1      32.788  20.619  24.178  1.00  0.00    -0.013 A 
ATOM     20  C   UNL A   1      32.848  19.909  25.398  1.00  0.00     0.010 A 
ATOM     21  C   UNL A   1      32.467  19.875  23.026  1.00  0.00     0.010 A 
ATOM     22  C   UNL A   1      32.764  18.515  25.436  1.00  0.00     0.046 A 
ATOM     23  C   UNL A   1      32.370  18.480  23.061  1.00  0.00     0.046 A 
ATOM     24  C   UNL A   1      32.555  17.810  24.262  1.00  0.00     0.115 A 
BRANCH  24  25
ATOM     25  O   UNL A   1      32.540  16.449  24.324  1.00  0.00    -0.508 OA
ATOM     26  H   UNL A   1      33.344  15.970  24.303  1.00  0.00     0.293 HD
ENDBRANCH  24  25
ENDBRANCH   7  19
ENDBRANCH   4   7
ENDBRANCH   2   3
ENDBRANCH   1   2
BRANCH   1  27
ATOM     27  C   UNL A   1      37.885  20.127  24.650  1.00  0.00     0.023 C 
BRANCH  27  28
ATOM     28  C   UNL A   1      38.874  20.232  25.808  1.00  0.00     0.116 C 
BRANCH  28  29
ATOM     29  N   UNL A   1      39.871  19.174  25.810  1.00  0.00    -0.352 N 
ATOM     30  C   UNL A   1      41.222  19.243  26.068  1.00  0.00     0.251 C 
ATOM     31  H   UNL A   1      39.530  18.276  25.597  1.00  0.00     0.163 HD
ATOM     32  O   UNL A   1      41.925  18.254  25.912  1.00  0.00    -0.269 OA
BRANCH  30  33
ATOM     33  C   UNL A   1      41.830  20.522  26.500  1.00  0.00     0.039 A 
ATOM     34  C   UNL A   1      42.319  21.395  25.524  1.00  0.00     0.014 A 
ATOM     35  C   UNL A   1      41.915  20.862  27.852  1.00  0.00     0.014 A 
ATOM     36  C   UNL A   1      42.821  22.644  25.899  1.00  0.00     0.010 A 
ATOM     37  C   UNL A   1      42.351  22.134  28.219  1.00  0.00     0.010 A 
ATOM     38  C   UNL A   1      42.803  23.040  27.247  1.00  0.00    -0.014 A 
BRANCH  38  39
ATOM     39  C   UNL A   1      43.237  24.401  27.658  1.00  0.00     0.031 A 
ATOM     40  C   UNL A   1      42.217  25.439  28.038  1.00  0.00     0.074 A 
ATOM     41  C   UNL A   1      44.544  24.726  27.608  1.00  0.00     0.049 A 
ATOM     42  N   UNL A   1      42.394  26.703  28.330  1.00  0.00    -0.248 NA
ATOM     43  C   UNL A   1      40.809  25.010  28.064  1.00  0.00     0.031 C 
ATOM     44  C   UNL A   1      45.628  23.830  27.199  1.00  0.00     0.029 A 
ATOM     45  N   UNL A   1      45.183  25.912  27.882  1.00  0.00    -0.354 N 
ATOM     46  C   UNL A   1      41.124  27.224  28.544  1.00  0.00     0.074 A 
ATOM     47  C   UNL A   1      40.182  26.150  28.316  1.00  0.00     0.031 C 
ATOM     48  C   UNL A   1      46.794  24.494  27.257  1.00  0.00     0.029 A 
ATOM     49  C   UNL A   1      46.540  25.869  27.671  1.00  0.00     0.049 A 
ATOM     50  H   UNL A   1      44.712  26.716  28.198  1.00  0.00     0.167 HD
ATOM     51  C   UNL A   1      40.777  28.479  28.913  1.00  0.00     0.037 A 
ATOM     52  C   UNL A   1      47.473  26.833  27.785  1.00  0.00     0.037 A 
ATOM     53  C   UNL A   1      41.717  29.532  29.190  1.00  0.00     0.049 A 
ATOM     54  C   UNL A   1      47.060  28.210  28.229  1.00  0.00     0.074 A 
ATOM     55  C   UNL A   1      41.464  30.807  29.666  1.00  0.00     0.029 A 
ATOM     56  N   UNL A   1      43.089  29.435  29.015  1.00  0.00    -0.354 N 
ATOM     57  N   UNL A   1      45.864  28.661  28.518  1.00  0.00    -0.248 NA
ATOM     58  C   UNL A   1      48.128  29.211  28.370  1.00  0.00     0.031 C 
ATOM     59  C   UNL A   1      42.679  31.496  29.740  1.00  0.00     0.029 A 
ATOM     60  C   UNL A   1      43.693  30.635  29.352  1.00  0.00     0.049 A 
ATOM     61  H   UNL A   1      43.563  28.632  28.699  1.00  0.00     0.167 HD
ATOM     62  C   UNL A   1      46.038  29.984  28.904  1.00  0.00     0.074 A 
ATOM     63  C   UNL A   1      47.457  30.260  28.826  1.00  0.00     0.031 C 
ATOM     64  C   UNL A   1      45.107  30.889  29.287  1.00  0.00     0.037 A 
BRANCH  51  65
ATOM     65  C   UNL A   1      39.316  28.791  29.052  1.00  0.00     0.057 A 
ATOM     66  C   UNL A   1      38.635  28.620  30.263  1.00  0.00     0.134 A 
ATOM     67  C   UNL A   1      38.603  29.340  27.980  1.00  0.00     0.134 A 
ATOM     68  F   UNL A   1      39.261  28.090  31.326  1.00  0.00    -0.206 F 
ATOM     69  C   UNL A   1      37.291  28.970  30.399  1.00  0.00     0.040 A 
ATOM     70  C   UNL A   1      37.265  29.717  28.110  1.00  0.00     0.040 A 
ATOM     71  F   UNL A   1      39.198  29.537  26.793  1.00  0.00    -0.206 F 
ATOM     72  C   UNL A   1      36.606  29.530  29.323  1.00  0.00     0.006 A 
ENDBRANCH  51  65
BRANCH  52  73
ATOM     73  C   UNL A   1      48.897  26.539  27.481  1.00  0.00     0.057 A 
ATOM     74  C   UNL A   1      49.421  26.740  26.198  1.00  0.00     0.134 A 
ATOM     75  C   UNL A   1      49.757  26.017  28.455  1.00  0.00     0.134 A 
ATOM     76  F   UNL A   1      48.640  27.219  25.218  1.00  0.00    -0.206 F 
ATOM     77  C   UNL A   1      50.738  26.405  25.886  1.00  0.00     0.040 A 
ATOM     78  C   UNL A   1      51.085  25.702  28.162  1.00  0.00     0.040 A 
ATOM     79  F   UNL A   1      49.319  25.809  29.704  1.00  0.00    -0.206 F 
ATOM     80  C   UNL A   1      51.577  25.886  26.871  1.00  0.00     0.006 A 
ENDBRANCH  52  73
BRANCH  64  81
ATOM     81  C   UNL A   1      45.594  32.248  29.694  1.00  0.00     0.057 A 
ATOM     82  C   UNL A   1      45.985  32.532  31.008  1.00  0.00     0.134 A 
ATOM     83  C   UNL A   1      45.712  33.274  28.746  1.00  0.00     0.134 A 
ATOM     84  F   UNL A   1      45.883  31.596  31.964  1.00  0.00    -0.206 F 
ATOM     85  C   UNL A   1      46.457  33.794  31.371  1.00  0.00     0.040 A 
ATOM     86  C   UNL A   1      46.208  34.531  29.091  1.00  0.00     0.040 A 
ATOM     87  F   UNL A   1      45.363  33.063  27.468  1.00  0.00    -0.206 F 
ATOM     88  C   UNL A   1      46.576  34.796  30.408  1.00  0.00     0.006 A 
ENDBRANCH  64  81
ENDBRANCH  38  39
ENDBRANCH  30  33
ENDBRANCH  28  29
ENDBRANCH  27  28
ENDBRANCH   1  27
TORSDOF 15
ENDMDL
MODEL 3
REMARK VINA RESULT:     -12.1      0.118      1.294
REMARK SMILES Cc1cc(F)cc(N[C@@](C)(C(=O)NCCCCNC(=O)c2ccc(-c3c4nc(c(-c5c(F)cccc5F)c5ccc([nH]5)c(-c5c(F)cccc5F)c5nc(c(-c6c(F)cccc6F)c6ccc3[nH]6)C=C5)C=C4)cc2)c2ccc(O)cc2)c1
REMARK SMILES IDX 15 1 14 2 13 3 11 4 12 5 9 7 10 8 8 9 7 11 1 12 2 13 3 14
REMARK SMILES IDX 82 15 4 16 5 17 6 18 75 19 76 20 81 21 77 22 80 23 78 24
REMARK SMILES IDX 79 25 16 27 17 28 18 29 19 30 20 32 21 33 22 34 74 35 23 36
REMARK SMILES IDX 73 37 24 38 25 39 26 40 67 41 27 42 72 43 66 44 68 45 28 46
REMARK SMILES IDX 71 47 65 48 64 49 29 51 55 52 38 53 54 54 39 55 42 56 53 57
REMARK SMILES IDX 69 58 40 59 41 60 52 62 70 63 43 64 30 65 31 66 36 67 32 68
REMARK SMILES IDX 33 69 35 70 37 71 34 72 56 73 57 74 62 75 58 76 59 77 61 78
REMARK SMILES IDX 63 79 60 80 44 81 45 82 50 83 46 84 47 85 49 86 51 87 48 88
REMARK H PARENT 13 6 8 10 79 26 18 31 68 50 42 61
REMARK Flexibility Score: inf
ROOT
ATOM      1  C   UNL A   1      36.395  20.278  25.032  1.00  0.00     0.023 C 
ENDROOT
BRANCH   1   2
ATOM      2  C   UNL A   1      36.026  21.727  25.340  1.00  0.00     0.116 C 
BRANCH   2   3
ATOM      3  N   UNL A   1      35.641  22.457  24.147  1.00  0.00    -0.354 N 
ATOM      4  C   UNL A   1      34.438  22.648  23.517  1.00  0.00     0.250 C 
ATOM      5  O   UNL A   1      34.544  23.188  22.408  1.00  0.00    -0.272 OA
ATOM      6  H   UNL A   1      36.395  22.904  23.701  1.00  0.00     0.163 HD
BRANCH   4   7
ATOM      7  C   UNL A   1      33.050  22.206  24.153  1.00  0.00     0.139 C 
ATOM      8  C   UNL A   1      31.877  22.714  23.276  1.00  0.00     0.051 C 
BRANCH   7   9
ATOM      9  N   UNL A   1      32.946  22.858  25.490  1.00  0.00    -0.368 N 
ATOM     10  H   UNL A   1      33.352  22.345  26.225  1.00  0.00     0.161 HD
BRANCH   9  11
ATOM     11  C   UNL A   1      32.376  24.059  25.878  1.00  0.00     0.038 A 
ATOM     12  C   UNL A   1      33.635  27.675  26.151  1.00  0.00     0.044 C 
ATOM     13  C   UNL A   1      32.711  26.494  26.113  1.00  0.00    -0.046 A 
ATOM     14  C   UNL A   1      31.332  26.678  26.176  1.00  0.00     0.042 A 
ATOM     15  C   UNL A   1      33.213  25.193  25.937  1.00  0.00     0.029 A 
ATOM     16  C   UNL A   1      30.500  25.567  26.180  1.00  0.00     0.125 A 
ATOM     17  F   UNL A   1      29.174  25.747  26.243  1.00  0.00    -0.207 F 
ATOM     18  C   UNL A   1      31.013  24.273  26.085  1.00  0.00     0.065 A 
ENDBRANCH   9  11
ENDBRANCH   7   9
BRANCH   7  19
ATOM     19  C   UNL A   1      32.804  20.669  24.194  1.00  0.00    -0.013 A 
ATOM     20  C   UNL A   1      32.865  19.961  25.414  1.00  0.00     0.010 A 
ATOM     21  C   UNL A   1      32.454  19.930  23.048  1.00  0.00     0.010 A 
ATOM     22  C   UNL A   1      32.753  18.569  25.456  1.00  0.00     0.046 A 
ATOM     23  C   UNL A   1      32.329  18.537  23.087  1.00  0.00     0.046 A 
ATOM     24  C   UNL A   1      32.515  17.866  24.287  1.00  0.00     0.115 A 
BRANCH  24  25
ATOM     25  O   UNL A   1      32.473  16.506  24.351  1.00  0.00    -0.508 OA
ATOM     26  H   UNL A   1      32.030  16.083  25.060  1.00  0.00     0.293 HD
ENDBRANCH  24  25
ENDBRANCH   7  19
ENDBRANCH   4   7
ENDBRANCH   2   3
ENDBRANCH   1   2
BRANCH   1  27
ATOM     27  C   UNL A   1      37.857  20.041  24.647  1.00  0.00     0.023 C 
BRANCH  27  28
ATOM     28  C   UNL A   1      38.885  20.322  25.739  1.00  0.00     0.116 C 
BRANCH  28  29
ATOM     29  N   UNL A   1      39.967  19.351  25.774  1.00  0.00    -0.352 N 
ATOM     30  C   UNL A   1      41.287  19.522  26.126  1.00  0.00     0.251 C 
ATOM     31  H   UNL A   1      39.718  18.437  25.509  1.00  0.00     0.163 HD
ATOM     32  O   UNL A   1      42.080  18.602  25.985  1.00  0.00    -0.269 OA
BRANCH  30  33
ATOM     33  C   UNL A   1      41.754  20.829  26.640  1.00  0.00     0.039 A 
ATOM     34  C   UNL A   1      42.257  21.766  25.732  1.00  0.00     0.014 A 
ATOM     35  C   UNL A   1      41.694  21.134  28.002  1.00  0.00     0.014 A 
ATOM     36  C   UNL A   1      42.626  23.036  26.180  1.00  0.00     0.010 A 
ATOM     37  C   UNL A   1      41.997  22.423  28.436  1.00  0.00     0.010 A 
ATOM     38  C   UNL A   1      42.461  23.389  27.530  1.00  0.00    -0.014 A 
BRANCH  38  39
ATOM     39  C   UNL A   1      42.751  24.766  28.010  1.00  0.00     0.031 A 
ATOM     40  C   UNL A   1      44.142  25.140  28.442  1.00  0.00     0.074 A 
ATOM     41  C   UNL A   1      41.743  25.652  28.138  1.00  0.00     0.049 A 
ATOM     42  N   UNL A   1      44.568  26.256  28.979  1.00  0.00    -0.248 NA
ATOM     43  C   UNL A   1      45.187  24.117  28.278  1.00  0.00     0.031 C 
ATOM     44  C   UNL A   1      40.339  25.395  27.812  1.00  0.00     0.029 A 
ATOM     45  N   UNL A   1      41.743  26.946  28.601  1.00  0.00    -0.354 N 
ATOM     46  C   UNL A   1      45.918  26.058  29.242  1.00  0.00     0.074 A 
ATOM     47  C   UNL A   1      46.234  24.706  28.839  1.00  0.00     0.031 C 
ATOM     48  C   UNL A   1      39.616  26.496  28.076  1.00  0.00     0.029 A 
ATOM     49  C   UNL A   1      40.495  27.524  28.623  1.00  0.00     0.049 A 
ATOM     50  H   UNL A   1      42.559  27.415  28.891  1.00  0.00     0.167 HD
ATOM     51  C   UNL A   1      46.814  26.931  29.758  1.00  0.00     0.037 A 
ATOM     52  C   UNL A   1      40.103  28.739  29.048  1.00  0.00     0.037 A 
ATOM     53  C   UNL A   1      46.511  28.292  30.111  1.00  0.00     0.049 A 
ATOM     54  C   UNL A   1      41.129  29.699  29.586  1.00  0.00     0.074 A 
ATOM     55  C   UNL A   1      47.376  29.281  30.548  1.00  0.00     0.029 A 
ATOM     56  N   UNL A   1      45.246  28.857  30.069  1.00  0.00    -0.354 N 
ATOM     57  N   UNL A   1      42.419  29.528  29.742  1.00  0.00    -0.248 NA
ATOM     58  C   UNL A   1      40.646  31.024  30.001  1.00  0.00     0.031 C 
ATOM     59  C   UNL A   1      46.628  30.433  30.811  1.00  0.00     0.029 A 
ATOM     60  C   UNL A   1      45.304  30.174  30.495  1.00  0.00     0.049 A 
ATOM     61  H   UNL A   1      44.428  28.391  29.781  1.00  0.00     0.167 HD
ATOM     62  C   UNL A   1      42.905  30.730  30.241  1.00  0.00     0.074 A 
ATOM     63  C   UNL A   1      41.774  31.626  30.350  1.00  0.00     0.031 C 
ATOM     64  C   UNL A   1      44.174  31.060  30.581  1.00  0.00     0.037 A 
BRANCH  51  65
ATOM     65  C   UNL A   1      48.220  26.452  29.968  1.00  0.00     0.057 A 
ATOM     66  C   UNL A   1      48.622  25.836  31.159  1.00  0.00     0.134 A 
ATOM     67  C   UNL A   1      49.162  26.541  28.935  1.00  0.00     0.134 A 
ATOM     68  F   UNL A   1      47.769  25.727  32.190  1.00  0.00    -0.206 F 
ATOM     69  C   UNL A   1      49.916  25.338  31.321  1.00  0.00     0.040 A 
ATOM     70  C   UNL A   1      50.451  26.026  29.077  1.00  0.00     0.040 A 
ATOM     71  F   UNL A   1      48.840  27.114  27.765  1.00  0.00    -0.206 F 
ATOM     72  C   UNL A   1      50.831  25.424  30.275  1.00  0.00     0.006 A 
ENDBRANCH  51  65
BRANCH  52  73
ATOM     73  C   UNL A   1      38.672  29.131  28.982  1.00  0.00     0.057 A 
ATOM     74  C   UNL A   1      37.840  29.031  30.103  1.00  0.00     0.134 A 
ATOM     75  C   UNL A   1      38.094  29.580  27.788  1.00  0.00     0.134 A 
ATOM     76  F   UNL A   1      38.332  28.587  31.270  1.00  0.00    -0.206 F 
ATOM     77  C   UNL A   1      36.480  29.333  30.034  1.00  0.00     0.040 A 
ATOM     78  C   UNL A   1      36.740  29.912  27.712  1.00  0.00     0.040 A 
ATOM     79  F   UNL A   1      38.838  29.706  26.681  1.00  0.00    -0.206 F 
ATOM     80  C   UNL A   1      35.926  29.778  28.835  1.00  0.00     0.006 A 
ENDBRANCH  52  73
BRANCH  64  81
ATOM     81  C   UNL A   1      44.416  32.460  31.060  1.00  0.00     0.057 A 
ATOM     82  C   UNL A   1      44.389  32.792  32.421  1.00  0.00     0.134 A 
ATOM     83  C   UNL A   1      44.721  33.481  30.150  1.00  0.00     0.134 A 
ATOM     84  F   UNL A   1      44.090  31.863  33.341  1.00  0.00    -0.206 F 
ATOM     85  C   UNL A   1      44.637  34.094  32.857  1.00  0.00     0.040 A 
ATOM     86  C   UNL A   1      44.997  34.780  30.577  1.00  0.00     0.040 A 
ATOM     87  F   UNL A   1      44.772  33.226  28.834  1.00  0.00    -0.206 F 
ATOM     88  C   UNL A   1      44.949  35.090  31.933  1.00  0.00     0.006 A 
ENDBRANCH  64  81
ENDBRANCH  38  39
ENDBRANCH  30  33
ENDBRANCH  28  29
ENDBRANCH  27  28
ENDBRANCH   1  27
TORSDOF 15
ENDMDL
