MODEL 1
REMARK VINA RESULT:     -12.6      0.000      0.000
REMARK SMILES O=C(NCCCCNC(=O)c1nccnc1C(=O)Nc1ccc2c(c1)OCO2)c1ccc(-c2c3nc(c(-c4c(F)cccc4F)c4ccc([nH]4)c(-c4c(F)cccc4F)c4nc(c(-c5c(F)cccc5F)c5ccc2[nH]5)C=C4)C=C3)cc1
REMARK SMILES IDX 5 1 4 2 3 3 1 4 2 5 29 7 30 8 82 9 31 10 81 11 32 12 33 13
REMARK SMILES IDX 34 14 75 15 35 16 80 17 74 18 76 19 36 20 79 21 73 22 72 23
REMARK SMILES IDX 37 25 63 26 46 27 62 28 47 29 50 30 61 31 77 32 48 33 49 34
REMARK SMILES IDX 60 36 78 37 51 38 38 39 39 40 44 41 40 42 41 43 43 44 45 45
REMARK SMILES IDX 42 46 64 47 65 48 70 49 66 50 67 51 69 52 71 53 68 54 52 55
REMARK SMILES IDX 53 56 58 57 54 58 55 59 57 60 59 61 56 62 6 63 7 64 8 65
REMARK SMILES IDX 9 66 10 68 11 69 12 70 16 71 13 72 15 73 14 74 17 75 18 76
REMARK SMILES IDX 19 77 20 79 21 80 25 81 22 82 24 83 23 84 26 85 28 86 27 87
REMARK H PARENT 3 6 76 24 50 35 8 67 19 78
REMARK Flexibility Score: inf
ROOT
ATOM      1  C   UNL A   1      31.387  32.209  26.504  1.00  0.00     0.023 C 
ENDROOT
BRANCH   1   2
ATOM      2  C   UNL A   1      32.555  32.805  27.278  1.00  0.00     0.116 C 
BRANCH   2   3
ATOM      3  N   UNL A   1      32.343  34.199  27.626  1.00  0.00    -0.352 N 
ATOM      4  O   UNL A   1      32.527  36.051  28.901  1.00  0.00    -0.269 OA
ATOM      5  C   UNL A   1      32.966  34.945  28.603  1.00  0.00     0.251 C 
ATOM      6  H   UNL A   1      31.663  34.673  27.095  1.00  0.00     0.163 HD
BRANCH   5   7
ATOM      7  C   UNL A   1      34.163  34.417  29.304  1.00  0.00     0.039 A 
ATOM      8  C   UNL A   1      34.038  33.704  30.499  1.00  0.00     0.014 A 
ATOM      9  C   UNL A   1      35.430  34.587  28.729  1.00  0.00     0.014 A 
ATOM     10  C   UNL A   1      35.174  33.252  31.163  1.00  0.00     0.010 A 
ATOM     11  C   UNL A   1      36.567  34.068  29.364  1.00  0.00     0.010 A 
ATOM     12  C   UNL A   1      36.450  33.404  30.593  1.00  0.00    -0.014 A 
BRANCH  12  13
ATOM     13  C   UNL A   1      37.615  32.763  31.260  1.00  0.00     0.031 A 
ATOM     14  C   UNL A   1      38.112  33.216  32.602  1.00  0.00     0.074 A 
ATOM     15  C   UNL A   1      38.200  31.713  30.648  1.00  0.00     0.049 A 
ATOM     16  N   UNL A   1      39.059  32.698  33.346  1.00  0.00    -0.248 NA
ATOM     17  C   UNL A   1      37.475  34.405  33.186  1.00  0.00     0.031 C 
ATOM     18  C   UNL A   1      37.833  31.202  29.324  1.00  0.00     0.029 A 
ATOM     19  N   UNL A   1      39.201  30.872  31.061  1.00  0.00    -0.354 N 
ATOM     20  C   UNL A   1      39.131  33.492  34.483  1.00  0.00     0.074 A 
ATOM     21  C   UNL A   1      38.156  34.551  34.317  1.00  0.00     0.031 C 
ATOM     22  C   UNL A   1      38.560  30.108  29.058  1.00  0.00     0.029 A 
ATOM     23  C   UNL A   1      39.476  29.866  30.167  1.00  0.00     0.049 A 
ATOM     24  H   UNL A   1      39.677  30.979  31.917  1.00  0.00     0.167 HD
ATOM     25  C   UNL A   1      39.929  33.344  35.569  1.00  0.00     0.037 A 
ATOM     26  C   UNL A   1      40.366  28.860  30.227  1.00  0.00     0.037 A 
ATOM     27  C   UNL A   1      40.901  32.292  35.734  1.00  0.00     0.049 A 
ATOM     28  C   UNL A   1      41.232  28.719  31.444  1.00  0.00     0.074 A 
ATOM     29  C   UNL A   1      41.744  32.055  36.807  1.00  0.00     0.029 A 
ATOM     30  N   UNL A   1      41.161  31.301  34.799  1.00  0.00    -0.354 N 
ATOM     31  N   UNL A   1      41.259  29.458  32.527  1.00  0.00    -0.248 NA
ATOM     32  C   UNL A   1      42.188  27.604  31.450  1.00  0.00     0.031 C 
ATOM     33  C   UNL A   1      42.537  30.941  36.507  1.00  0.00     0.029 A 
ATOM     34  C   UNL A   1      42.159  30.459  35.266  1.00  0.00     0.049 A 
ATOM     35  H   UNL A   1      40.704  31.208  33.932  1.00  0.00     0.167 HD
ATOM     36  C   UNL A   1      42.230  28.897  33.343  1.00  0.00     0.074 A 
ATOM     37  C   UNL A   1      42.744  27.735  32.647  1.00  0.00     0.031 C 
ATOM     38  C   UNL A   1      42.667  29.313  34.557  1.00  0.00     0.037 A 
BRANCH  25  39
ATOM     39  C   UNL A   1      39.787  34.346  36.680  1.00  0.00     0.057 A 
ATOM     40  C   UNL A   1      38.990  34.089  37.802  1.00  0.00     0.134 A 
ATOM     41  C   UNL A   1      40.506  35.548  36.660  1.00  0.00     0.134 A 
ATOM     42  F   UNL A   1      38.269  32.959  37.879  1.00  0.00    -0.206 F 
ATOM     43  C   UNL A   1      38.903  34.995  38.860  1.00  0.00     0.040 A 
ATOM     44  C   UNL A   1      40.444  36.453  37.721  1.00  0.00     0.040 A 
ATOM     45  F   UNL A   1      41.296  35.853  35.620  1.00  0.00    -0.206 F 
ATOM     46  C   UNL A   1      39.639  36.178  38.825  1.00  0.00     0.006 A 
ENDBRANCH  25  39
BRANCH  26  47
ATOM     47  C   UNL A   1      40.482  27.907  29.096  1.00  0.00     0.057 A 
ATOM     48  C   UNL A   1      39.732  26.727  29.057  1.00  0.00     0.134 A 
ATOM     49  C   UNL A   1      41.350  28.156  28.025  1.00  0.00     0.134 A 
ATOM     50  F   UNL A   1      38.897  26.424  30.062  1.00  0.00    -0.206 F 
ATOM     51  C   UNL A   1      39.854  25.819  28.004  1.00  0.00     0.040 A 
ATOM     52  C   UNL A   1      41.461  27.273  26.952  1.00  0.00     0.040 A 
ATOM     53  F   UNL A   1      42.090  29.275  28.000  1.00  0.00    -0.206 F 
ATOM     54  C   UNL A   1      40.717  26.095  26.944  1.00  0.00     0.006 A 
ENDBRANCH  26  47
BRANCH  38  55
ATOM     55  C   UNL A   1      43.748  28.496  35.201  1.00  0.00     0.057 A 
ATOM     56  C   UNL A   1      45.105  28.777  34.989  1.00  0.00     0.134 A 
ATOM     57  C   UNL A   1      43.432  27.419  36.037  1.00  0.00     0.134 A 
ATOM     58  F   UNL A   1      45.473  29.786  34.185  1.00  0.00    -0.206 F 
ATOM     59  C   UNL A   1      46.108  27.993  35.562  1.00  0.00     0.040 A 
ATOM     60  C   UNL A   1      44.426  26.644  36.635  1.00  0.00     0.040 A 
ATOM     61  F   UNL A   1      42.152  27.102  36.285  1.00  0.00    -0.206 F 
ATOM     62  C   UNL A   1      45.769  26.926  36.390  1.00  0.00     0.006 A 
ENDBRANCH  38  55
ENDBRANCH  12  13
ENDBRANCH   5   7
ENDBRANCH   2   3
ENDBRANCH   1   2
BRANCH   1  63
ATOM     63  C   UNL A   1      31.501  30.768  25.992  1.00  0.00     0.023 C 
BRANCH  63  64
ATOM     64  C   UNL A   1      32.167  29.715  26.875  1.00  0.00     0.116 C 
BRANCH  64  65
ATOM     65  N   UNL A   1      31.404  28.491  27.086  1.00  0.00    -0.351 N 
ATOM     66  C   UNL A   1      31.291  27.377  26.268  1.00  0.00     0.272 C 
ATOM     67  H   UNL A   1      30.895  28.450  27.929  1.00  0.00     0.163 HD
ATOM     68  O   UNL A   1      30.892  26.311  26.726  1.00  0.00    -0.267 OA
BRANCH  66  69
ATOM     69  C   UNL A   1      31.759  27.434  24.871  1.00  0.00     0.159 A 
ATOM     70  N   UNL A   1      33.133  27.308  24.814  1.00  0.00    -0.247 NA
ATOM     71  C   UNL A   1      30.964  27.513  23.731  1.00  0.00     0.159 A 
ATOM     72  C   UNL A   1      33.698  27.261  23.596  1.00  0.00     0.132 A 
ATOM     73  N   UNL A   1      31.602  27.521  22.505  1.00  0.00    -0.247 NA
ATOM     74  C   UNL A   1      32.943  27.376  22.458  1.00  0.00     0.132 A 
BRANCH  71  75
ATOM     75  C   UNL A   1      29.460  27.459  23.517  1.00  0.00     0.276 C 
ATOM     76  O   UNL A   1      28.920  26.343  23.501  1.00  0.00    -0.267 OA
ATOM     77  N   UNL A   1      28.574  28.506  23.544  1.00  0.00    -0.320 N 
ATOM     78  H   UNL A   1      27.745  28.299  24.032  1.00  0.00     0.170 HD
BRANCH  77  79
ATOM     79  C   UNL A   1      28.595  29.797  23.030  1.00  0.00     0.045 A 
ATOM     80  C   UNL A   1      28.876  30.923  23.819  1.00  0.00     0.030 A 
ATOM     81  C   UNL A   1      28.327  29.928  21.661  1.00  0.00     0.076 A 
ATOM     82  C   UNL A   1      28.776  32.203  23.259  1.00  0.00     0.053 A 
ATOM     83  C   UNL A   1      28.128  31.199  21.177  1.00  0.00     0.167 A 
ATOM     84  C   UNL A   1      28.325  32.307  21.962  1.00  0.00     0.165 A 
ATOM     85  O   UNL A   1      27.654  31.517  19.943  1.00  0.00    -0.454 OA
ATOM     86  O   UNL A   1      27.979  33.459  21.326  1.00  0.00    -0.454 OA
ATOM     87  C   UNL A   1      27.367  32.916  20.134  1.00  0.00     0.468 C 
ENDBRANCH  77  79
ENDBRANCH  71  75
ENDBRANCH  66  69
ENDBRANCH  64  65
ENDBRANCH  63  64
ENDBRANCH   1  63
TORSDOF 13
ENDMDL
MODEL 2
REMARK VINA RESULT:     -12.4      6.145     11.145
REMARK SMILES O=C(NCCCCNC(=O)c1nccnc1C(=O)Nc1ccc2c(c1)OCO2)c1ccc(-c2c3nc(c(-c4c(F)cccc4F)c4ccc([nH]4)c(-c4c(F)cccc4F)c4nc(c(-c5c(F)cccc5F)c5ccc2[nH]5)C=C4)C=C3)cc1
REMARK SMILES IDX 5 1 4 2 3 3 1 4 2 5 29 7 30 8 82 9 31 10 81 11 32 12 33 13
REMARK SMILES IDX 34 14 75 15 35 16 80 17 74 18 76 19 36 20 79 21 73 22 72 23
REMARK SMILES IDX 37 25 63 26 46 27 62 28 47 29 50 30 61 31 77 32 48 33 49 34
REMARK SMILES IDX 60 36 78 37 51 38 38 39 39 40 44 41 40 42 41 43 43 44 45 45
REMARK SMILES IDX 42 46 64 47 65 48 70 49 66 50 67 51 69 52 71 53 68 54 52 55
REMARK SMILES IDX 53 56 58 57 54 58 55 59 57 60 59 61 56 62 6 63 7 64 8 65
REMARK SMILES IDX 9 66 10 68 11 69 12 70 16 71 13 72 15 73 14 74 17 75 18 76
REMARK SMILES IDX 19 77 20 79 21 80 25 81 22 82 24 83 23 84 26 85 28 86 27 87
REMARK H PARENT 3 6 76 24 50 35 8 67 19 78
REMARK Flexibility Score: inf
ROOT
ATOM      1  C   UNL A   1      37.670  19.920  24.690  1.00  0.00     0.023 C 
ENDROOT
BRANCH   1   2
ATOM      2  C   UNL A   1      38.759  20.225  25.711  1.00  0.00     0.116 C 
BRANCH   2   3
ATOM      3  N   UNL A   1      39.790  19.203  25.751  1.00  0.00    -0.352 N 
ATOM      4  O   UNL A   1      41.903  18.414  25.751  1.00  0.00    -0.269 OA
ATOM      5  C   UNL A   1      41.145  19.358  25.948  1.00  0.00     0.251 C 
ATOM      6  H   UNL A   1      39.480  18.278  25.620  1.00  0.00     0.163 HD
BRANCH   5   7
ATOM      7  C   UNL A   1      41.697  20.664  26.389  1.00  0.00     0.039 A 
ATOM      8  C   UNL A   1      42.013  21.659  25.461  1.00  0.00     0.014 A 
ATOM      9  C   UNL A   1      41.850  20.919  27.758  1.00  0.00     0.014 A 
ATOM     10  C   UNL A   1      42.567  22.862  25.891  1.00  0.00     0.010 A 
ATOM     11  C   UNL A   1      42.342  22.158  28.193  1.00  0.00     0.010 A 
ATOM     12  C   UNL A   1      42.715  23.138  27.261  1.00  0.00    -0.014 A 
BRANCH  12  13
ATOM     13  C   UNL A   1      43.160  24.495  27.675  1.00  0.00     0.031 A 
ATOM     14  C   UNL A   1      44.597  24.922  27.590  1.00  0.00     0.074 A 
ATOM     15  C   UNL A   1      42.224  25.372  28.092  1.00  0.00     0.049 A 
ATOM     16  N   UNL A   1      45.120  26.099  27.832  1.00  0.00    -0.248 NA
ATOM     17  C   UNL A   1      45.577  23.902  27.192  1.00  0.00     0.031 C 
ATOM     18  C   UNL A   1      40.799  25.065  28.254  1.00  0.00     0.029 A 
ATOM     19  N   UNL A   1      42.317  26.699  28.427  1.00  0.00    -0.354 N 
ATOM     20  C   UNL A   1      46.485  25.964  27.614  1.00  0.00     0.074 A 
ATOM     21  C   UNL A   1      46.716  24.580  27.254  1.00  0.00     0.031 C 
ATOM     22  C   UNL A   1      40.146  26.182  28.606  1.00  0.00     0.029 A 
ATOM     23  C   UNL A   1      41.108  27.271  28.740  1.00  0.00     0.049 A 
ATOM     24  H   UNL A   1      43.168  27.193  28.442  1.00  0.00     0.167 HD
ATOM     25  C   UNL A   1      47.453  26.911  27.694  1.00  0.00     0.037 A 
ATOM     26  C   UNL A   1      40.801  28.530  29.099  1.00  0.00     0.037 A 
ATOM     27  C   UNL A   1      47.223  28.288  28.053  1.00  0.00     0.049 A 
ATOM     28  C   UNL A   1      41.893  29.557  29.175  1.00  0.00     0.074 A 
ATOM     29  C   UNL A   1      48.141  29.321  28.148  1.00  0.00     0.029 A 
ATOM     30  N   UNL A   1      45.987  28.825  28.379  1.00  0.00    -0.354 N 
ATOM     31  N   UNL A   1      43.173  29.418  28.928  1.00  0.00    -0.248 NA
ATOM     32  C   UNL A   1      41.499  30.913  29.576  1.00  0.00     0.031 C 
ATOM     33  C   UNL A   1      47.466  30.475  28.563  1.00  0.00     0.029 A 
ATOM     34  C   UNL A   1      46.121  30.171  28.686  1.00  0.00     0.049 A 
ATOM     35  H   UNL A   1      45.139  28.326  28.390  1.00  0.00     0.167 HD
ATOM     36  C   UNL A   1      43.736  30.669  29.140  1.00  0.00     0.074 A 
ATOM     37  C   UNL A   1      42.653  31.561  29.501  1.00  0.00     0.031 C 
ATOM     38  C   UNL A   1      45.035  31.043  29.054  1.00  0.00     0.037 A 
BRANCH  25  39
ATOM     39  C   UNL A   1      48.862  26.494  27.383  1.00  0.00     0.057 A 
ATOM     40  C   UNL A   1      49.724  26.019  28.380  1.00  0.00     0.134 A 
ATOM     41  C   UNL A   1      49.340  26.501  26.066  1.00  0.00     0.134 A 
ATOM     42  F   UNL A   1      49.331  25.994  29.663  1.00  0.00    -0.206 F 
ATOM     43  C   UNL A   1      51.015  25.578  28.080  1.00  0.00     0.040 A 
ATOM     44  C   UNL A   1      50.620  26.043  25.751  1.00  0.00     0.040 A 
ATOM     45  F   UNL A   1      48.563  26.934  25.062  1.00  0.00    -0.206 F 
ATOM     46  C   UNL A   1      51.463  25.581  26.761  1.00  0.00     0.006 A 
ENDBRANCH  25  39
BRANCH  26  47
ATOM     47  C   UNL A   1      39.396  28.888  29.415  1.00  0.00     0.057 A 
ATOM     48  C   UNL A   1      38.542  29.413  28.440  1.00  0.00     0.134 A 
ATOM     49  C   UNL A   1      38.877  28.714  30.704  1.00  0.00     0.134 A 
ATOM     50  F   UNL A   1      38.986  29.620  27.192  1.00  0.00    -0.206 F 
ATOM     51  C   UNL A   1      37.226  29.769  28.739  1.00  0.00     0.040 A 
ATOM     52  C   UNL A   1      37.556  29.038  31.010  1.00  0.00     0.040 A 
ATOM     53  F   UNL A   1      39.644  28.207  31.680  1.00  0.00    -0.206 F 
ATOM     54  C   UNL A   1      36.727  29.575  30.027  1.00  0.00     0.006 A 
ENDBRANCH  26  47
BRANCH  38  55
ATOM     55  C   UNL A   1      45.344  32.481  29.353  1.00  0.00     0.057 A 
ATOM     56  C   UNL A   1      45.684  32.906  30.644  1.00  0.00     0.134 A 
ATOM     57  C   UNL A   1      45.299  33.449  28.343  1.00  0.00     0.134 A 
ATOM     58  F   UNL A   1      45.728  32.029  31.659  1.00  0.00    -0.206 F 
ATOM     59  C   UNL A   1      45.936  34.250  30.926  1.00  0.00     0.040 A 
ATOM     60  C   UNL A   1      45.573  34.790  28.607  1.00  0.00     0.040 A 
ATOM     61  F   UNL A   1      44.986  33.106  27.084  1.00  0.00    -0.206 F 
ATOM     62  C   UNL A   1      45.885  35.195  29.904  1.00  0.00     0.006 A 
ENDBRANCH  38  55
ENDBRANCH  12  13
ENDBRANCH   5   7
ENDBRANCH   2   3
ENDBRANCH   1   2
BRANCH   1  63
ATOM     63  C   UNL A   1      36.229  20.341  25.001  1.00  0.00     0.023 C 
BRANCH  63  64
ATOM     64  C   UNL A   1      35.658  21.591  24.333  1.00  0.00     0.116 C 
BRANCH  64  65
ATOM     65  N   UNL A   1      35.928  22.851  25.014  1.00  0.00    -0.351 N 
ATOM     66  C   UNL A   1      35.090  23.941  25.204  1.00  0.00     0.272 C 
ATOM     67  H   UNL A   1      36.832  22.942  25.394  1.00  0.00     0.163 HD
ATOM     68  O   UNL A   1      35.343  24.772  26.070  1.00  0.00    -0.267 OA
BRANCH  66  69
ATOM     69  C   UNL A   1      33.831  24.047  24.445  1.00  0.00     0.159 A 
ATOM     70  N   UNL A   1      34.031  24.745  23.269  1.00  0.00    -0.247 NA
ATOM     71  C   UNL A   1      32.609  23.469  24.776  1.00  0.00     0.159 A 
ATOM     72  C   UNL A   1      32.986  24.853  22.431  1.00  0.00     0.132 A 
ATOM     73  N   UNL A   1      31.552  23.662  23.907  1.00  0.00    -0.247 NA
ATOM     74  C   UNL A   1      31.762  24.327  22.751  1.00  0.00     0.132 A 
BRANCH  71  75
ATOM     75  C   UNL A   1      32.188  22.511  25.878  1.00  0.00     0.276 C 
ATOM     76  O   UNL A   1      31.983  22.984  27.006  1.00  0.00    -0.267 OA
ATOM     77  N   UNL A   1      31.799  21.202  25.745  1.00  0.00    -0.320 N 
ATOM     78  H   UNL A   1      31.015  20.974  26.293  1.00  0.00     0.170 HD
BRANCH  77  79
ATOM     79  C   UNL A   1      32.276  20.129  25.001  1.00  0.00     0.045 A 
ATOM     80  C   UNL A   1      32.153  20.060  23.604  1.00  0.00     0.030 A 
ATOM     81  C   UNL A   1      32.903  19.102  25.718  1.00  0.00     0.076 A 
ATOM     82  C   UNL A   1      32.560  18.901  22.931  1.00  0.00     0.053 A 
ATOM     83  C   UNL A   1      33.185  17.941  25.040  1.00  0.00     0.167 A 
ATOM     84  C   UNL A   1      32.997  17.835  23.685  1.00  0.00     0.165 A 
ATOM     85  O   UNL A   1      33.590  16.769  25.599  1.00  0.00    -0.454 OA
ATOM     86  O   UNL A   1      33.240  16.578  23.226  1.00  0.00    -0.454 OA
ATOM     87  C   UNL A   1      33.411  15.879  24.480  1.00  0.00     0.468 C 
ENDBRANCH  77  79
ENDBRANCH  71  75
ENDBRANCH  66  69
ENDBRANCH  64  65
ENDBRANCH  63  64
ENDBRANCH   1  63
TORSDOF 13
ENDMDL
MODEL 3
REMARK VINA RESULT:     -12.4      6.827     11.675
REMARK SMILES O=C(NCCCCNC(=O)c1nccnc1C(=O)Nc1ccc2c(c1)OCO2)c1ccc(-c2c3nc(c(-c4c(F)cccc4F)c4ccc([nH]4)c(-c4c(F)cccc4F)c4nc(c(-c5c(F)cccc5F)c5ccc2[nH]5)C=C4)C=C3)cc1
REMARK SMILES IDX 5 1 4 2 3 3 1 4 2 5 29 7 30 8 82 9 31 10 81 11 32 12 33 13
REMARK SMILES IDX 34 14 75 15 35 16 80 17 74 18 76 19 36 20 79 21 73 22 72 23
REMARK SMILES IDX 37 25 63 26 46 27 62 28 47 29 50 30 61 31 77 32 48 33 49 34
REMARK SMILES IDX 60 36 78 37 51 38 38 39 39 40 44 41 40 42 41 43 43 44 45 45
REMARK SMILES IDX 42 46 64 47 65 48 70 49 66 50 67 51 69 52 71 53 68 54 52 55
REMARK SMILES IDX 53 56 58 57 54 58 55 59 57 60 59 61 56 62 6 63 7 64 8 65
REMARK SMILES IDX 9 66 10 68 11 69 12 70 16 71 13 72 15 73 14 74 17 75 18 76
REMARK SMILES IDX 19 77 20 79 21 80 25 81 22 82 24 83 23 84 26 85 28 86 27 87
REMARK H PARENT 3 6 76 24 50 35 8 67 19 78
REMARK Flexibility Score: inf
ROOT
ATOM      1  C   UNL A   1      38.110  19.413  25.031  1.00  0.00     0.023 C 
ENDROOT
BRANCH   1   2
ATOM      2  C   UNL A   1      39.329  19.914  25.793  1.00  0.00     0.116 C 
BRANCH   2   3
ATOM      3  N   UNL A   1      40.397  18.930  25.850  1.00  0.00    -0.352 N 
ATOM      4  O   UNL A   1      42.537  18.218  25.869  1.00  0.00    -0.269 OA
ATOM      5  C   UNL A   1      41.744  19.136  26.052  1.00  0.00     0.251 C 
ATOM      6  H   UNL A   1      40.121  17.993  25.726  1.00  0.00     0.163 HD
BRANCH   5   7
ATOM      7  C   UNL A   1      42.246  20.465  26.483  1.00  0.00     0.039 A 
ATOM      8  C   UNL A   1      42.706  21.395  25.548  1.00  0.00     0.014 A 
ATOM      9  C   UNL A   1      42.205  20.809  27.841  1.00  0.00     0.014 A 
ATOM     10  C   UNL A   1      43.211  22.620  25.975  1.00  0.00     0.010 A 
ATOM     11  C   UNL A   1      42.647  22.072  28.261  1.00  0.00     0.010 A 
ATOM     12  C   UNL A   1      43.165  22.985  27.331  1.00  0.00    -0.014 A 
BRANCH  12  13
ATOM     13  C   UNL A   1      43.565  24.365  27.717  1.00  0.00     0.031 A 
ATOM     14  C   UNL A   1      44.991  24.830  27.641  1.00  0.00     0.074 A 
ATOM     15  C   UNL A   1      42.599  25.226  28.097  1.00  0.00     0.049 A 
ATOM     16  N   UNL A   1      45.478  26.028  27.860  1.00  0.00    -0.248 NA
ATOM     17  C   UNL A   1      46.005  23.828  27.282  1.00  0.00     0.031 C 
ATOM     18  C   UNL A   1      41.182  24.883  28.247  1.00  0.00     0.029 A 
ATOM     19  N   UNL A   1      42.650  26.562  28.400  1.00  0.00    -0.354 N 
ATOM     20  C   UNL A   1      46.849  25.925  27.664  1.00  0.00     0.074 A 
ATOM     21  C   UNL A   1      47.124  24.540  27.344  1.00  0.00     0.031 C 
ATOM     22  C   UNL A   1      40.492  25.989  28.562  1.00  0.00     0.029 A 
ATOM     23  C   UNL A   1      41.421  27.108  28.682  1.00  0.00     0.049 A 
ATOM     24  H   UNL A   1      43.487  27.081  28.414  1.00  0.00     0.167 HD
ATOM     25  C   UNL A   1      47.789  26.901  27.734  1.00  0.00     0.037 A 
ATOM     26  C   UNL A   1      41.074  28.367  29.003  1.00  0.00     0.037 A 
ATOM     27  C   UNL A   1      47.515  28.279  28.055  1.00  0.00     0.049 A 
ATOM     28  C   UNL A   1      42.136  29.425  29.069  1.00  0.00     0.074 A 
ATOM     29  C   UNL A   1      48.402  29.340  28.135  1.00  0.00     0.029 A 
ATOM     30  N   UNL A   1      46.259  28.790  28.349  1.00  0.00    -0.354 N 
ATOM     31  N   UNL A   1      43.423  29.317  28.843  1.00  0.00    -0.248 NA
ATOM     32  C   UNL A   1      41.698  30.779  29.429  1.00  0.00     0.031 C 
ATOM     33  C   UNL A   1      47.689  30.485  28.511  1.00  0.00     0.029 A 
ATOM     34  C   UNL A   1      46.351  30.146  28.623  1.00  0.00     0.049 A 
ATOM     35  H   UNL A   1      45.425  28.267  28.361  1.00  0.00     0.167 HD
ATOM     36  C   UNL A   1      43.947  30.588  29.030  1.00  0.00     0.074 A 
ATOM     37  C   UNL A   1      42.834  31.457  29.354  1.00  0.00     0.031 C 
ATOM     38  C   UNL A   1      45.237  30.996  28.954  1.00  0.00     0.037 A 
BRANCH  25  39
ATOM     39  C   UNL A   1      49.213  26.516  27.454  1.00  0.00     0.057 A 
ATOM     40  C   UNL A   1      50.089  26.143  28.481  1.00  0.00     0.134 A 
ATOM     41  C   UNL A   1      49.695  26.452  26.140  1.00  0.00     0.134 A 
ATOM     42  F   UNL A   1      49.692  26.190  29.762  1.00  0.00    -0.206 F 
ATOM     43  C   UNL A   1      51.395  25.730  28.214  1.00  0.00     0.040 A 
ATOM     44  C   UNL A   1      50.992  26.021  25.858  1.00  0.00     0.040 A 
ATOM     45  F   UNL A   1      48.906  26.787  25.108  1.00  0.00    -0.206 F 
ATOM     46  C   UNL A   1      51.848  25.660  26.898  1.00  0.00     0.006 A 
ENDBRANCH  25  39
BRANCH  26  47
ATOM     47  C   UNL A   1      39.655  28.692  29.290  1.00  0.00     0.057 A 
ATOM     48  C   UNL A   1      39.116  28.534  30.571  1.00  0.00     0.134 A 
ATOM     49  C   UNL A   1      38.804  29.169  28.285  1.00  0.00     0.134 A 
ATOM     50  F   UNL A   1      39.876  28.064  31.571  1.00  0.00    -0.206 F 
ATOM     51  C   UNL A   1      37.776  28.820  30.839  1.00  0.00     0.040 A 
ATOM     52  C   UNL A   1      37.472  29.487  28.544  1.00  0.00     0.040 A 
ATOM     53  F   UNL A   1      39.265  29.350  27.038  1.00  0.00    -0.206 F 
ATOM     54  C   UNL A   1      36.952  29.305  29.824  1.00  0.00     0.006 A 
ENDBRANCH  26  47
BRANCH  38  55
ATOM     55  C   UNL A   1      45.501  32.449  29.220  1.00  0.00     0.057 A 
ATOM     56  C   UNL A   1      45.465  33.402  28.194  1.00  0.00     0.134 A 
ATOM     57  C   UNL A   1      45.796  32.899  30.512  1.00  0.00     0.134 A 
ATOM     58  F   UNL A   1      45.204  33.031  26.931  1.00  0.00    -0.206 F 
ATOM     59  C   UNL A   1      45.745  34.747  28.439  1.00  0.00     0.040 A 
ATOM     60  C   UNL A   1      46.054  34.244  30.774  1.00  0.00     0.040 A 
ATOM     61  F   UNL A   1      45.840  32.038  31.541  1.00  0.00    -0.206 F 
ATOM     62  C   UNL A   1      46.037  35.171  29.733  1.00  0.00     0.006 A 
ENDBRANCH  38  55
ENDBRANCH  12  13
ENDBRANCH   5   7
ENDBRANCH   2   3
ENDBRANCH   1   2
BRANCH   1  63
ATOM     63  C   UNL A   1      36.993  20.408  24.691  1.00  0.00     0.023 C 
BRANCH  63  64
ATOM     64  C   UNL A   1      37.353  21.870  24.435  1.00  0.00     0.116 C 
BRANCH  64  65
ATOM     65  N   UNL A   1      36.395  22.626  23.638  1.00  0.00    -0.351 N 
ATOM     66  C   UNL A   1      35.128  23.075  23.983  1.00  0.00     0.272 C 
ATOM     67  H   UNL A   1      36.689  22.851  22.725  1.00  0.00     0.163 HD
ATOM     68  O   UNL A   1      34.591  23.968  23.337  1.00  0.00    -0.267 OA
BRANCH  66  69
ATOM     69  C   UNL A   1      34.467  22.561  25.197  1.00  0.00     0.159 A 
ATOM     70  N   UNL A   1      34.900  23.250  26.313  1.00  0.00    -0.247 NA
ATOM     71  C   UNL A   1      33.476  21.586  25.254  1.00  0.00     0.159 A 
ATOM     72  C   UNL A   1      34.323  22.945  27.488  1.00  0.00     0.132 A 
ATOM     73  N   UNL A   1      32.959  21.270  26.496  1.00  0.00    -0.247 NA
ATOM     74  C   UNL A   1      33.373  21.962  27.578  1.00  0.00     0.132 A 
BRANCH  71  75
ATOM     75  C   UNL A   1      32.700  20.841  24.180  1.00  0.00     0.276 C 
ATOM     76  O   UNL A   1      31.831  21.469  23.557  1.00  0.00    -0.267 OA
ATOM     77  N   UNL A   1      32.975  19.603  23.657  1.00  0.00    -0.320 N 
ATOM     78  H   UNL A   1      32.878  19.566  22.678  1.00  0.00     0.170 HD
BRANCH  77  79
ATOM     79  C   UNL A   1      33.362  18.389  24.212  1.00  0.00     0.045 A 
ATOM     80  C   UNL A   1      34.650  17.856  24.049  1.00  0.00     0.030 A 
ATOM     81  C   UNL A   1      32.394  17.710  24.963  1.00  0.00     0.076 A 
ATOM     82  C   UNL A   1      34.939  16.579  24.546  1.00  0.00     0.053 A 
ATOM     83  C   UNL A   1      32.678  16.418  25.336  1.00  0.00     0.167 A 
ATOM     84  C   UNL A   1      33.911  15.859  25.112  1.00  0.00     0.165 A 
ATOM     85  O   UNL A   1      31.798  15.532  25.875  1.00  0.00    -0.454 OA
ATOM     86  O   UNL A   1      33.954  14.546  25.464  1.00  0.00    -0.454 OA
ATOM     87  C   UNL A   1      32.556  14.313  25.747  1.00  0.00     0.468 C 
ENDBRANCH  77  79
ENDBRANCH  71  75
ENDBRANCH  66  69
ENDBRANCH  64  65
ENDBRANCH  63  64
ENDBRANCH   1  63
TORSDOF 13
ENDMDL
