MODEL 1
REMARK VINA RESULT:     -13.2      0.000      0.000
REMARK SMILES O=C(NCCCCNC(=O)c1cc(-c2cccc(C(F)(F)F)c2)nc2c(F)cccc12)c1ccc(-c2c3nc(c(-c4c(F)cccc4F)c4ccc([nH]4)c(-c4c(F)cccc4F)c4nc(c(-c5c(F)cccc5F)c5ccc2[nH]5)C=C4)C=C3)cc1
REMARK SMILES IDX 5 1 4 2 3 3 1 4 2 5 32 7 33 8 85 9 34 10 84 11 35 12 36 13
REMARK SMILES IDX 37 14 78 15 38 16 83 17 77 18 79 19 39 20 82 21 76 22 75 23
REMARK SMILES IDX 40 25 66 26 49 27 65 28 50 29 53 30 64 31 80 32 51 33 52 34
REMARK SMILES IDX 63 36 81 37 54 38 41 39 42 40 47 41 43 42 44 43 46 44 48 45
REMARK SMILES IDX 45 46 67 47 68 48 73 49 69 50 70 51 72 52 74 53 71 54 55 55
REMARK SMILES IDX 56 56 61 57 57 58 58 59 60 60 62 61 59 62 6 63 7 64 8 65
REMARK SMILES IDX 9 66 10 68 11 69 12 70 31 71 13 72 25 73 30 74 24 75 26 76
REMARK SMILES IDX 29 77 27 78 28 79 14 80 15 81 23 82 16 83 18 84 17 85 19 86
REMARK SMILES IDX 20 87 21 88 22 89
REMARK H PARENT 3 6 79 24 53 35 8 67
REMARK Flexibility Score: inf
ROOT
ATOM      1  C   UNL A   1      37.885  19.735  24.700  1.00  0.00     0.023 C 
ENDROOT
BRANCH   1   2
ATOM      2  C   UNL A   1      38.904  20.106  25.769  1.00  0.00     0.116 C 
BRANCH   2   3
ATOM      3  N   UNL A   1      40.048  19.209  25.793  1.00  0.00    -0.352 N 
ATOM      4  O   UNL A   1      42.226  18.636  25.927  1.00  0.00    -0.269 OA
ATOM      5  C   UNL A   1      41.358  19.487  26.095  1.00  0.00     0.251 C 
ATOM      6  H   UNL A   1      39.856  18.271  25.562  1.00  0.00     0.163 HD
BRANCH   5   7
ATOM      7  C   UNL A   1      41.725  20.825  26.602  1.00  0.00     0.039 A 
ATOM      8  C   UNL A   1      42.126  21.834  25.722  1.00  0.00     0.014 A 
ATOM      9  C   UNL A   1      41.657  21.074  27.975  1.00  0.00     0.014 A 
ATOM     10  C   UNL A   1      42.571  23.052  26.224  1.00  0.00     0.010 A 
ATOM     11  C   UNL A   1      42.031  22.324  28.473  1.00  0.00     0.010 A 
ATOM     12  C   UNL A   1      42.507  23.316  27.601  1.00  0.00    -0.014 A 
BRANCH  12  13
ATOM     13  C   UNL A   1      42.838  24.672  28.100  1.00  0.00     0.031 A 
ATOM     14  C   UNL A   1      41.771  25.700  28.339  1.00  0.00     0.074 A 
ATOM     15  C   UNL A   1      44.133  24.970  28.321  1.00  0.00     0.049 A 
ATOM     16  N   UNL A   1      41.900  26.940  28.736  1.00  0.00    -0.248 NA
ATOM     17  C   UNL A   1      40.379  25.290  28.095  1.00  0.00     0.031 C 
ATOM     18  C   UNL A   1      45.255  24.054  28.101  1.00  0.00     0.029 A 
ATOM     19  N   UNL A   1      44.727  26.119  28.772  1.00  0.00    -0.354 N 
ATOM     20  C   UNL A   1      40.616  27.467  28.769  1.00  0.00     0.074 A 
ATOM     21  C   UNL A   1      39.718  26.415  28.341  1.00  0.00     0.031 C 
ATOM     22  C   UNL A   1      46.398  24.670  28.433  1.00  0.00     0.029 A 
ATOM     23  C   UNL A   1      46.097  26.039  28.831  1.00  0.00     0.049 A 
ATOM     24  H   UNL A   1      44.221  26.924  29.028  1.00  0.00     0.167 HD
ATOM     25  C   UNL A   1      40.230  28.714  29.126  1.00  0.00     0.037 A 
ATOM     26  C   UNL A   1      47.014  26.974  29.137  1.00  0.00     0.037 A 
ATOM     27  C   UNL A   1      41.130  29.744  29.579  1.00  0.00     0.049 A 
ATOM     28  C   UNL A   1      46.554  28.353  29.502  1.00  0.00     0.074 A 
ATOM     29  C   UNL A   1      40.823  31.008  30.055  1.00  0.00     0.029 A 
ATOM     30  N   UNL A   1      42.512  29.634  29.601  1.00  0.00    -0.354 N 
ATOM     31  N   UNL A   1      45.332  28.815  29.595  1.00  0.00    -0.248 NA
ATOM     32  C   UNL A   1      47.599  29.345  29.789  1.00  0.00     0.031 C 
ATOM     33  C   UNL A   1      42.021  31.679  30.317  1.00  0.00     0.029 A 
ATOM     34  C   UNL A   1      43.073  30.822  30.040  1.00  0.00     0.049 A 
ATOM     35  H   UNL A   1      43.019  28.831  29.341  1.00  0.00     0.167 HD
ATOM     36  C   UNL A   1      45.458  30.149  29.955  1.00  0.00     0.074 A 
ATOM     37  C   UNL A   1      46.876  30.415  30.088  1.00  0.00     0.031 C 
ATOM     38  C   UNL A   1      44.486  31.072  30.152  1.00  0.00     0.037 A 
BRANCH  25  39
ATOM     39  C   UNL A   1      38.773  29.057  29.035  1.00  0.00     0.057 A 
ATOM     40  C   UNL A   1      37.922  28.977  30.143  1.00  0.00     0.134 A 
ATOM     41  C   UNL A   1      38.237  29.557  27.841  1.00  0.00     0.134 A 
ATOM     42  F   UNL A   1      38.373  28.501  31.314  1.00  0.00    -0.206 F 
ATOM     43  C   UNL A   1      36.586  29.379  30.067  1.00  0.00     0.040 A 
ATOM     44  C   UNL A   1      36.908  29.978  27.757  1.00  0.00     0.040 A 
ATOM     45  F   UNL A   1      39.002  29.666  26.744  1.00  0.00    -0.206 F 
ATOM     46  C   UNL A   1      36.079  29.889  28.873  1.00  0.00     0.006 A 
ENDBRANCH  25  39
BRANCH  26  47
ATOM     47  C   UNL A   1      48.456  26.639  29.069  1.00  0.00     0.057 A 
ATOM     48  C   UNL A   1      49.209  26.901  27.920  1.00  0.00     0.134 A 
ATOM     49  C   UNL A   1      49.117  26.056  30.159  1.00  0.00     0.134 A 
ATOM     50  F   UNL A   1      48.627  27.442  26.840  1.00  0.00    -0.206 F 
ATOM     51  C   UNL A   1      50.567  26.586  27.852  1.00  0.00     0.040 A 
ATOM     52  C   UNL A   1      50.478  25.759  30.113  1.00  0.00     0.040 A 
ATOM     53  F   UNL A   1      48.450  25.788  31.291  1.00  0.00    -0.206 F 
ATOM     54  C   UNL A   1      51.207  26.019  28.954  1.00  0.00     0.006 A 
ENDBRANCH  26  47
BRANCH  38  55
ATOM     55  C   UNL A   1      44.929  32.452  30.526  1.00  0.00     0.057 A 
ATOM     56  C   UNL A   1      45.131  33.440  29.555  1.00  0.00     0.134 A 
ATOM     57  C   UNL A   1      45.124  32.806  31.866  1.00  0.00     0.134 A 
ATOM     58  F   UNL A   1      44.977  33.157  28.253  1.00  0.00    -0.206 F 
ATOM     59  C   UNL A   1      45.527  34.733  29.905  1.00  0.00     0.040 A 
ATOM     60  C   UNL A   1      45.498  34.100  32.230  1.00  0.00     0.040 A 
ATOM     61  F   UNL A   1      44.941  31.904  32.842  1.00  0.00    -0.206 F 
ATOM     62  C   UNL A   1      45.705  35.066  31.246  1.00  0.00     0.006 A 
ENDBRANCH  38  55
ENDBRANCH  12  13
ENDBRANCH   5   7
ENDBRANCH   2   3
ENDBRANCH   1   2
BRANCH   1  63
ATOM     63  C   UNL A   1      36.443  20.126  25.012  1.00  0.00     0.023 C 
BRANCH  63  64
ATOM     64  C   UNL A   1      36.258  21.524  25.587  1.00  0.00     0.116 C 
BRANCH  64  65
ATOM     65  N   UNL A   1      35.360  21.562  26.733  1.00  0.00    -0.352 N 
ATOM     66  C   UNL A   1      34.001  21.756  26.737  1.00  0.00     0.252 C 
ATOM     67  H   UNL A   1      35.781  21.434  27.613  1.00  0.00     0.163 HD
ATOM     68  O   UNL A   1      33.363  21.769  27.782  1.00  0.00    -0.269 OA
BRANCH  66  69
ATOM     69  C   UNL A   1      33.324  22.017  25.456  1.00  0.00     0.051 A 
ATOM     70  C   UNL A   1      33.256  23.352  25.073  1.00  0.00     0.043 A 
ATOM     71  C   UNL A   1      32.876  20.978  24.617  1.00  0.00     0.016 A 
ATOM     72  C   UNL A   1      32.776  23.635  23.811  1.00  0.00     0.072 A 
ATOM     73  C   UNL A   1      32.462  21.358  23.329  1.00  0.00     0.107 A 
ATOM     74  C   UNL A   1      32.856  19.607  24.991  1.00  0.00     0.011 A 
ATOM     75  N   UNL A   1      32.405  22.658  22.950  1.00  0.00    -0.245 NA
ATOM     76  C   UNL A   1      32.136  20.334  22.436  1.00  0.00     0.149 A 
ATOM     77  C   UNL A   1      32.510  18.617  24.078  1.00  0.00     0.004 A 
ATOM     78  F   UNL A   1      31.794  20.637  21.173  1.00  0.00    -0.205 F 
ATOM     79  C   UNL A   1      32.167  18.982  22.787  1.00  0.00     0.041 A 
BRANCH  72  80
ATOM     80  C   UNL A   1      32.624  25.015  23.334  1.00  0.00     0.001 A 
ATOM     81  C   UNL A   1      33.678  25.700  22.705  1.00  0.00     0.010 A 
ATOM     82  C   UNL A   1      31.417  25.704  23.538  1.00  0.00     0.023 A 
ATOM     83  C   UNL A   1      33.538  27.032  22.312  1.00  0.00     0.001 A 
ATOM     84  C   UNL A   1      31.266  27.049  23.162  1.00  0.00     0.056 A 
ATOM     85  C   UNL A   1      32.341  27.705  22.546  1.00  0.00     0.013 A 
BRANCH  84  86
ATOM     86  C   UNL A   1      29.985  27.795  23.441  1.00  0.00     0.416 C 
ATOM     87  F   UNL A   1      30.193  28.905  24.201  1.00  0.00    -0.166 F 
ATOM     88  F   UNL A   1      29.374  28.230  22.305  1.00  0.00    -0.166 F 
ATOM     89  F   UNL A   1      29.053  27.059  24.108  1.00  0.00    -0.166 F 
ENDBRANCH  84  86
ENDBRANCH  72  80
ENDBRANCH  66  69
ENDBRANCH  64  65
ENDBRANCH  63  64
ENDBRANCH   1  63
TORSDOF 13
ENDMDL
MODEL 2
REMARK VINA RESULT:     -13.2      4.772      9.622
REMARK SMILES O=C(NCCCCNC(=O)c1cc(-c2cccc(C(F)(F)F)c2)nc2c(F)cccc12)c1ccc(-c2c3nc(c(-c4c(F)cccc4F)c4ccc([nH]4)c(-c4c(F)cccc4F)c4nc(c(-c5c(F)cccc5F)c5ccc2[nH]5)C=C4)C=C3)cc1
REMARK SMILES IDX 5 1 4 2 3 3 1 4 2 5 32 7 33 8 85 9 34 10 84 11 35 12 36 13
REMARK SMILES IDX 37 14 78 15 38 16 83 17 77 18 79 19 39 20 82 21 76 22 75 23
REMARK SMILES IDX 40 25 66 26 49 27 65 28 50 29 53 30 64 31 80 32 51 33 52 34
REMARK SMILES IDX 63 36 81 37 54 38 41 39 42 40 47 41 43 42 44 43 46 44 48 45
REMARK SMILES IDX 45 46 67 47 68 48 73 49 69 50 70 51 72 52 74 53 71 54 55 55
REMARK SMILES IDX 56 56 61 57 57 58 58 59 60 60 62 61 59 62 6 63 7 64 8 65
REMARK SMILES IDX 9 66 10 68 11 69 12 70 31 71 13 72 25 73 30 74 24 75 26 76
REMARK SMILES IDX 29 77 27 78 28 79 14 80 15 81 23 82 16 83 18 84 17 85 19 86
REMARK SMILES IDX 20 87 21 88 22 89
REMARK H PARENT 3 6 79 24 53 35 8 67
REMARK Flexibility Score: inf
ROOT
ATOM      1  C   UNL A   1      31.341  31.894  26.691  1.00  0.00     0.023 C 
ENDROOT
BRANCH   1   2
ATOM      2  C   UNL A   1      32.675  32.602  26.888  1.00  0.00     0.116 C 
BRANCH   2   3
ATOM      3  N   UNL A   1      32.528  33.940  27.438  1.00  0.00    -0.352 N 
ATOM      4  O   UNL A   1      32.865  35.627  28.897  1.00  0.00    -0.269 OA
ATOM      5  C   UNL A   1      33.217  34.533  28.466  1.00  0.00     0.251 C 
ATOM      6  H   UNL A   1      31.838  34.499  27.011  1.00  0.00     0.163 HD
BRANCH   5   7
ATOM      7  C   UNL A   1      34.372  33.838  29.071  1.00  0.00     0.039 A 
ATOM      8  C   UNL A   1      35.677  34.241  28.777  1.00  0.00     0.014 A 
ATOM      9  C   UNL A   1      34.142  32.778  29.952  1.00  0.00     0.014 A 
ATOM     10  C   UNL A   1      36.753  33.510  29.269  1.00  0.00     0.010 A 
ATOM     11  C   UNL A   1      35.225  32.092  30.507  1.00  0.00     0.010 A 
ATOM     12  C   UNL A   1      36.538  32.444  30.156  1.00  0.00    -0.014 A 
BRANCH  12  13
ATOM     13  C   UNL A   1      37.699  31.777  30.792  1.00  0.00     0.031 A 
ATOM     14  C   UNL A   1      38.492  30.728  30.068  1.00  0.00     0.074 A 
ATOM     15  C   UNL A   1      38.020  32.125  32.053  1.00  0.00     0.049 A 
ATOM     16  N   UNL A   1      39.509  30.026  30.498  1.00  0.00    -0.248 NA
ATOM     17  C   UNL A   1      38.092  30.421  28.686  1.00  0.00     0.031 C 
ATOM     18  C   UNL A   1      37.304  33.117  32.860  1.00  0.00     0.029 A 
ATOM     19  N   UNL A   1      39.021  31.686  32.879  1.00  0.00    -0.354 N 
ATOM     20  C   UNL A   1      39.857  29.179  29.454  1.00  0.00     0.074 A 
ATOM     21  C   UNL A   1      38.935  29.445  28.370  1.00  0.00     0.031 C 
ATOM     22  C   UNL A   1      37.898  33.222  34.057  1.00  0.00     0.029 A 
ATOM     23  C   UNL A   1      38.997  32.267  34.123  1.00  0.00     0.049 A 
ATOM     24  H   UNL A   1      39.692  31.018  32.608  1.00  0.00     0.167 HD
ATOM     25  C   UNL A   1      40.855  28.266  29.413  1.00  0.00     0.037 A 
ATOM     26  C   UNL A   1      39.751  32.033  35.212  1.00  0.00     0.037 A 
ATOM     27  C   UNL A   1      41.785  28.029  30.488  1.00  0.00     0.049 A 
ATOM     28  C   UNL A   1      40.830  30.996  35.140  1.00  0.00     0.074 A 
ATOM     29  C   UNL A   1      42.890  27.194  30.503  1.00  0.00     0.029 A 
ATOM     30  N   UNL A   1      41.712  28.618  31.740  1.00  0.00    -0.354 N 
ATOM     31  N   UNL A   1      41.191  30.253  34.124  1.00  0.00    -0.248 NA
ATOM     32  C   UNL A   1      41.599  30.754  36.369  1.00  0.00     0.031 C 
ATOM     33  C   UNL A   1      43.454  27.241  31.781  1.00  0.00     0.029 A 
ATOM     34  C   UNL A   1      42.725  28.132  32.550  1.00  0.00     0.049 A 
ATOM     35  H   UNL A   1      41.039  29.282  32.014  1.00  0.00     0.167 HD
ATOM     36  C   UNL A   1      42.229  29.457  34.586  1.00  0.00     0.074 A 
ATOM     37  C   UNL A   1      42.457  29.827  35.968  1.00  0.00     0.031 C 
ATOM     38  C   UNL A   1      42.927  28.502  33.927  1.00  0.00     0.037 A 
BRANCH  25  39
ATOM     39  C   UNL A   1      41.001  27.434  28.173  1.00  0.00     0.057 A 
ATOM     40  C   UNL A   1      40.318  26.224  28.008  1.00  0.00     0.134 A 
ATOM     41  C   UNL A   1      41.768  27.897  27.096  1.00  0.00     0.134 A 
ATOM     42  F   UNL A   1      39.572  25.722  29.005  1.00  0.00    -0.206 F 
ATOM     43  C   UNL A   1      40.395  25.500  26.815  1.00  0.00     0.040 A 
ATOM     44  C   UNL A   1      41.839  27.192  25.893  1.00  0.00     0.040 A 
ATOM     45  F   UNL A   1      42.441  29.054  27.187  1.00  0.00    -0.206 F 
ATOM     46  C   UNL A   1      41.151  25.989  25.751  1.00  0.00     0.006 A 
ENDBRANCH  25  39
BRANCH  26  47
ATOM     47  C   UNL A   1      39.477  32.771  36.468  1.00  0.00     0.057 A 
ATOM     48  C   UNL A   1      40.178  33.937  36.793  1.00  0.00     0.134 A 
ATOM     49  C   UNL A   1      38.499  32.330  37.369  1.00  0.00     0.134 A 
ATOM     50  F   UNL A   1      41.137  34.398  35.978  1.00  0.00    -0.206 F 
ATOM     51  C   UNL A   1      39.923  34.633  37.976  1.00  0.00     0.040 A 
ATOM     52  C   UNL A   1      38.217  33.029  38.541  1.00  0.00     0.040 A 
ATOM     53  F   UNL A   1      37.788  31.222  37.108  1.00  0.00    -0.206 F 
ATOM     54  C   UNL A   1      38.935  34.182  38.851  1.00  0.00     0.006 A 
ENDBRANCH  26  47
BRANCH  38  55
ATOM     55  C   UNL A   1      43.996  27.790  34.696  1.00  0.00     0.057 A 
ATOM     56  C   UNL A   1      43.742  26.573  35.339  1.00  0.00     0.134 A 
ATOM     57  C   UNL A   1      45.294  28.308  34.770  1.00  0.00     0.134 A 
ATOM     58  F   UNL A   1      42.513  26.035  35.319  1.00  0.00    -0.206 F 
ATOM     59  C   UNL A   1      44.744  25.900  36.042  1.00  0.00     0.040 A 
ATOM     60  C   UNL A   1      46.308  27.635  35.452  1.00  0.00     0.040 A 
ATOM     61  F   UNL A   1      45.599  29.469  34.171  1.00  0.00    -0.206 F 
ATOM     62  C   UNL A   1      46.031  26.429  36.094  1.00  0.00     0.006 A 
ENDBRANCH  38  55
ENDBRANCH  12  13
ENDBRANCH   5   7
ENDBRANCH   2   3
ENDBRANCH   1   2
BRANCH   1  63
ATOM     63  C   UNL A   1      31.350  30.763  25.666  1.00  0.00     0.023 C 
BRANCH  63  64
ATOM     64  C   UNL A   1      32.547  29.824  25.744  1.00  0.00     0.116 C 
BRANCH  64  65
ATOM     65  N   UNL A   1      33.262  29.695  24.483  1.00  0.00    -0.352 N 
ATOM     66  C   UNL A   1      32.911  28.953  23.382  1.00  0.00     0.252 C 
ATOM     67  H   UNL A   1      34.102  30.203  24.410  1.00  0.00     0.163 HD
ATOM     68  O   UNL A   1      33.613  28.931  22.379  1.00  0.00    -0.269 OA
BRANCH  66  69
ATOM     69  C   UNL A   1      31.698  28.121  23.453  1.00  0.00     0.051 A 
ATOM     70  C   UNL A   1      31.859  26.871  24.042  1.00  0.00     0.043 A 
ATOM     71  C   UNL A   1      30.434  28.600  23.057  1.00  0.00     0.016 A 
ATOM     72  C   UNL A   1      30.726  26.121  24.276  1.00  0.00     0.072 A 
ATOM     73  C   UNL A   1      29.334  27.793  23.393  1.00  0.00     0.107 A 
ATOM     74  C   UNL A   1      30.226  29.836  22.387  1.00  0.00     0.011 A 
ATOM     75  N   UNL A   1      29.488  26.580  23.976  1.00  0.00    -0.245 NA
ATOM     76  C   UNL A   1      28.062  28.306  23.127  1.00  0.00     0.149 A 
ATOM     77  C   UNL A   1      28.944  30.307  22.125  1.00  0.00     0.004 A 
ATOM     78  F   UNL A   1      26.973  27.604  23.485  1.00  0.00    -0.205 F 
ATOM     79  C   UNL A   1      27.855  29.545  22.516  1.00  0.00     0.041 A 
BRANCH  72  80
ATOM     80  C   UNL A   1      30.799  24.771  24.851  1.00  0.00     0.001 A 
ATOM     81  C   UNL A   1      30.297  24.486  26.132  1.00  0.00     0.010 A 
ATOM     82  C   UNL A   1      31.420  23.732  24.137  1.00  0.00     0.023 A 
ATOM     83  C   UNL A   1      30.428  23.212  26.689  1.00  0.00     0.001 A 
ATOM     84  C   UNL A   1      31.572  22.451  24.690  1.00  0.00     0.056 A 
ATOM     85  C   UNL A   1      31.069  22.203  25.975  1.00  0.00     0.013 A 
BRANCH  84  86
ATOM     86  C   UNL A   1      32.294  21.361  23.937  1.00  0.00     0.416 C 
ATOM     87  F   UNL A   1      33.635  21.589  23.864  1.00  0.00    -0.166 F 
ATOM     88  F   UNL A   1      32.156  20.139  24.523  1.00  0.00    -0.166 F 
ATOM     89  F   UNL A   1      31.874  21.208  22.651  1.00  0.00    -0.166 F 
ENDBRANCH  84  86
ENDBRANCH  72  80
ENDBRANCH  66  69
ENDBRANCH  64  65
ENDBRANCH  63  64
ENDBRANCH   1  63
TORSDOF 13
ENDMDL
MODEL 3
REMARK VINA RESULT:     -13.1      0.726      1.356
REMARK SMILES O=C(NCCCCNC(=O)c1cc(-c2cccc(C(F)(F)F)c2)nc2c(F)cccc12)c1ccc(-c2c3nc(c(-c4c(F)cccc4F)c4ccc([nH]4)c(-c4c(F)cccc4F)c4nc(c(-c5c(F)cccc5F)c5ccc2[nH]5)C=C4)C=C3)cc1
REMARK SMILES IDX 5 1 4 2 3 3 1 4 2 5 32 7 33 8 85 9 34 10 84 11 35 12 36 13
REMARK SMILES IDX 37 14 78 15 38 16 83 17 77 18 79 19 39 20 82 21 76 22 75 23
REMARK SMILES IDX 40 25 66 26 49 27 65 28 50 29 53 30 64 31 80 32 51 33 52 34
REMARK SMILES IDX 63 36 81 37 54 38 41 39 42 40 47 41 43 42 44 43 46 44 48 45
REMARK SMILES IDX 45 46 67 47 68 48 73 49 69 50 70 51 72 52 74 53 71 54 55 55
REMARK SMILES IDX 56 56 61 57 57 58 58 59 60 60 62 61 59 62 6 63 7 64 8 65
REMARK SMILES IDX 9 66 10 68 11 69 12 70 31 71 13 72 25 73 30 74 24 75 26 76
REMARK SMILES IDX 29 77 27 78 28 79 14 80 15 81 23 82 16 83 18 84 17 85 19 86
REMARK SMILES IDX 20 87 21 88 22 89
REMARK H PARENT 3 6 79 24 53 35 8 67
REMARK Flexibility Score: inf
ROOT
ATOM      1  C   UNL A   1      38.028  19.674  24.721  1.00  0.00     0.023 C 
ENDROOT
BRANCH   1   2
ATOM      2  C   UNL A   1      38.973  19.881  25.898  1.00  0.00     0.116 C 
BRANCH   2   3
ATOM      3  N   UNL A   1      40.118  18.986  25.866  1.00  0.00    -0.352 N 
ATOM      4  O   UNL A   1      42.301  18.417  25.851  1.00  0.00    -0.269 OA
ATOM      5  C   UNL A   1      41.446  19.275  26.054  1.00  0.00     0.251 C 
ATOM      6  H   UNL A   1      39.911  18.040  25.686  1.00  0.00     0.163 HD
BRANCH   5   7
ATOM      7  C   UNL A   1      41.849  20.631  26.480  1.00  0.00     0.039 A 
ATOM      8  C   UNL A   1      41.899  20.965  27.836  1.00  0.00     0.014 A 
ATOM      9  C   UNL A   1      42.189  21.575  25.508  1.00  0.00     0.014 A 
ATOM     10  C   UNL A   1      42.175  22.274  28.216  1.00  0.00     0.010 A 
ATOM     11  C   UNL A   1      42.541  22.871  25.894  1.00  0.00     0.010 A 
ATOM     12  C   UNL A   1      42.520  23.233  27.250  1.00  0.00    -0.014 A 
BRANCH  12  13
ATOM     13  C   UNL A   1      42.962  24.579  27.685  1.00  0.00     0.031 A 
ATOM     14  C   UNL A   1      41.974  25.635  28.088  1.00  0.00     0.074 A 
ATOM     15  C   UNL A   1      44.283  24.843  27.694  1.00  0.00     0.049 A 
ATOM     16  N   UNL A   1      42.198  26.871  28.455  1.00  0.00    -0.248 NA
ATOM     17  C   UNL A   1      40.551  25.261  28.073  1.00  0.00     0.031 C 
ATOM     18  C   UNL A   1      45.332  23.898  27.300  1.00  0.00     0.029 A 
ATOM     19  N   UNL A   1      44.972  25.976  28.039  1.00  0.00    -0.354 N 
ATOM     20  C   UNL A   1      40.950  27.431  28.692  1.00  0.00     0.074 A 
ATOM     21  C   UNL A   1      39.968  26.403  28.417  1.00  0.00     0.031 C 
ATOM     22  C   UNL A   1      46.529  24.484  27.442  1.00  0.00     0.029 A 
ATOM     23  C   UNL A   1      46.331  25.860  27.878  1.00  0.00     0.049 A 
ATOM     24  H   UNL A   1      44.534  26.794  28.370  1.00  0.00     0.167 HD
ATOM     25  C   UNL A   1      40.659  28.688  29.102  1.00  0.00     0.037 A 
ATOM     26  C   UNL A   1      47.309  26.770  28.030  1.00  0.00     0.037 A 
ATOM     27  C   UNL A   1      41.646  29.693  29.400  1.00  0.00     0.049 A 
ATOM     28  C   UNL A   1      46.950  28.161  28.459  1.00  0.00     0.074 A 
ATOM     29  C   UNL A   1      41.453  30.965  29.915  1.00  0.00     0.029 A 
ATOM     30  N   UNL A   1      43.010  29.547  29.200  1.00  0.00    -0.354 N 
ATOM     31  N   UNL A   1      45.771  28.655  28.745  1.00  0.00    -0.248 NA
ATOM     32  C   UNL A   1      48.053  29.125  28.571  1.00  0.00     0.031 C 
ATOM     33  C   UNL A   1      42.694  31.604  29.978  1.00  0.00     0.029 A 
ATOM     34  C   UNL A   1      43.665  30.719  29.540  1.00  0.00     0.049 A 
ATOM     35  H   UNL A   1      43.448  28.731  28.866  1.00  0.00     0.167 HD
ATOM     36  C   UNL A   1      45.987  29.984  29.075  1.00  0.00     0.074 A 
ATOM     37  C   UNL A   1      47.414  30.213  28.978  1.00  0.00     0.031 C 
ATOM     38  C   UNL A   1      45.084  30.932  29.423  1.00  0.00     0.037 A 
BRANCH  25  39
ATOM     39  C   UNL A   1      39.216  29.068  29.244  1.00  0.00     0.057 A 
ATOM     40  C   UNL A   1      38.456  29.516  28.158  1.00  0.00     0.134 A 
ATOM     41  C   UNL A   1      38.556  28.899  30.469  1.00  0.00     0.134 A 
ATOM     42  F   UNL A   1      39.030  29.705  26.959  1.00  0.00    -0.206 F 
ATOM     43  C   UNL A   1      37.091  29.786  28.284  1.00  0.00     0.040 A 
ATOM     44  C   UNL A   1      37.189  29.149  30.604  1.00  0.00     0.040 A 
ATOM     45  F   UNL A   1      39.226  28.465  31.548  1.00  0.00    -0.206 F 
ATOM     46  C   UNL A   1      36.453  29.595  29.508  1.00  0.00     0.006 A 
ENDBRANCH  25  39
BRANCH  26  47
ATOM     47  C   UNL A   1      48.713  26.397  27.733  1.00  0.00     0.057 A 
ATOM     48  C   UNL A   1      49.258  26.581  26.458  1.00  0.00     0.134 A 
ATOM     49  C   UNL A   1      49.544  25.857  28.722  1.00  0.00     0.134 A 
ATOM     50  F   UNL A   1      48.505  27.079  25.466  1.00  0.00    -0.206 F 
ATOM     51  C   UNL A   1      50.579  26.231  26.174  1.00  0.00     0.040 A 
ATOM     52  C   UNL A   1      50.872  25.526  28.459  1.00  0.00     0.040 A 
ATOM     53  F   UNL A   1      49.080  25.665  29.966  1.00  0.00    -0.206 F 
ATOM     54  C   UNL A   1      51.392  25.707  27.179  1.00  0.00     0.006 A 
ENDBRANCH  26  47
BRANCH  38  55
ATOM     55  C   UNL A   1      45.617  32.301  29.716  1.00  0.00     0.057 A 
ATOM     56  C   UNL A   1      45.691  33.282  28.720  1.00  0.00     0.134 A 
ATOM     57  C   UNL A   1      46.029  32.649  31.007  1.00  0.00     0.134 A 
ATOM     58  F   UNL A   1      45.327  33.002  27.460  1.00  0.00    -0.206 F 
ATOM     59  C   UNL A   1      46.171  34.563  28.998  1.00  0.00     0.040 A 
ATOM     60  C   UNL A   1      46.490  33.933  31.301  1.00  0.00     0.040 A 
ATOM     61  F   UNL A   1      45.977  31.754  32.004  1.00  0.00    -0.206 F 
ATOM     62  C   UNL A   1      46.566  34.892  30.292  1.00  0.00     0.006 A 
ENDBRANCH  38  55
ENDBRANCH  12  13
ENDBRANCH   5   7
ENDBRANCH   2   3
ENDBRANCH   1   2
BRANCH   1  63
ATOM     63  C   UNL A   1      36.570  20.037  24.985  1.00  0.00     0.023 C 
BRANCH  63  64
ATOM     64  C   UNL A   1      36.335  21.452  25.496  1.00  0.00     0.116 C 
BRANCH  64  65
ATOM     65  N   UNL A   1      35.467  21.508  26.664  1.00  0.00    -0.352 N 
ATOM     66  C   UNL A   1      34.110  21.718  26.701  1.00  0.00     0.252 C 
ATOM     67  H   UNL A   1      35.908  21.379  27.534  1.00  0.00     0.163 HD
ATOM     68  O   UNL A   1      33.500  21.745  27.762  1.00  0.00    -0.269 OA
BRANCH  66  69
ATOM     69  C   UNL A   1      33.404  21.982  25.437  1.00  0.00     0.051 A 
ATOM     70  C   UNL A   1      33.325  23.318  25.059  1.00  0.00     0.043 A 
ATOM     71  C   UNL A   1      32.939  20.944  24.605  1.00  0.00     0.016 A 
ATOM     72  C   UNL A   1      32.817  23.603  23.809  1.00  0.00     0.072 A 
ATOM     73  C   UNL A   1      32.496  21.327  23.327  1.00  0.00     0.107 A 
ATOM     74  C   UNL A   1      32.930  19.572  24.975  1.00  0.00     0.011 A 
ATOM     75  N   UNL A   1      32.428  22.627  22.954  1.00  0.00    -0.245 NA
ATOM     76  C   UNL A   1      32.152  20.305  22.439  1.00  0.00     0.149 A 
ATOM     77  C   UNL A   1      32.566  18.584  24.068  1.00  0.00     0.004 A 
ATOM     78  F   UNL A   1      31.781  20.611  21.184  1.00  0.00    -0.205 F 
ATOM     79  C   UNL A   1      32.194  18.952  22.785  1.00  0.00     0.041 A 
BRANCH  72  80
ATOM     80  C   UNL A   1      32.652  24.985  23.339  1.00  0.00     0.001 A 
ATOM     81  C   UNL A   1      33.697  25.680  22.708  1.00  0.00     0.010 A 
ATOM     82  C   UNL A   1      31.440  25.663  23.552  1.00  0.00     0.023 A 
ATOM     83  C   UNL A   1      33.544  27.013  22.321  1.00  0.00     0.001 A 
ATOM     84  C   UNL A   1      31.277  27.008  23.184  1.00  0.00     0.056 A 
ATOM     85  C   UNL A   1      32.344  27.676  22.565  1.00  0.00     0.013 A 
BRANCH  84  86
ATOM     86  C   UNL A   1      29.992  27.743  23.473  1.00  0.00     0.416 C 
ATOM     87  F   UNL A   1      29.363  28.146  22.334  1.00  0.00    -0.166 F 
ATOM     88  F   UNL A   1      29.090  26.976  24.145  1.00  0.00    -0.166 F 
ATOM     89  F   UNL A   1      30.158  28.868  24.222  1.00  0.00    -0.166 F 
ENDBRANCH  84  86
ENDBRANCH  72  80
ENDBRANCH  66  69
ENDBRANCH  64  65
ENDBRANCH  63  64
ENDBRANCH   1  63
TORSDOF 13
ENDMDL
