MODEL 1
REMARK VINA RESULT:     -11.5      0.000      0.000
REMARK SMILES O=C(NCCCCNC(=O)[C@@H]1CCc2[nH]ncc2C1)c1ccc(-c2c3nc(c(-c4c(F)cccc4F)c4ccc([nH]4)c(-c4c(F)cccc4F)c4nc(c(-c5c(F)cccc5F)c5ccc2[nH]5)C=C4)C=C3)cc1
REMARK SMILES IDX 4 1 3 2 1 3 2 4 20 6 21 7 73 8 22 9 72 10 23 11 24 12 25 13
REMARK SMILES IDX 66 14 26 15 71 16 65 17 67 18 27 19 70 20 64 21 63 22 28 24
REMARK SMILES IDX 54 25 37 26 53 27 38 28 41 29 52 30 68 31 39 32 40 33 51 35
REMARK SMILES IDX 69 36 42 37 29 38 30 39 35 40 31 41 32 42 34 43 36 44 33 45
REMARK SMILES IDX 55 46 56 47 61 48 57 49 58 50 60 51 62 52 59 53 43 54 44 55
REMARK SMILES IDX 49 56 45 57 46 58 48 59 50 60 47 61 5 62 6 63 7 64 8 65 9 66
REMARK SMILES IDX 10 68 11 69 12 70 19 71 13 72 18 73 14 74 17 75 15 76 16 77
REMARK H PARENT 3 5 67 23 41 34 8 67 15 78
REMARK Flexibility Score: inf
ROOT
ATOM      1  C   UNL A   1      32.603  32.806  27.215  1.00  0.00     0.116 C 
ENDROOT
BRANCH   1   2
ATOM      2  N   UNL A   1      32.316  34.172  27.626  1.00  0.00    -0.352 N 
ATOM      3  O   UNL A   1      32.526  36.046  28.874  1.00  0.00    -0.269 OA
ATOM      4  C   UNL A   1      32.962  34.940  28.566  1.00  0.00     0.251 C 
ATOM      5  H   UNL A   1      31.558  34.604  27.170  1.00  0.00     0.163 HD
BRANCH   4   6
ATOM      6  C   UNL A   1      34.169  34.406  29.230  1.00  0.00     0.039 A 
ATOM      7  C   UNL A   1      35.429  34.591  28.659  1.00  0.00     0.014 A 
ATOM      8  C   UNL A   1      34.029  33.683  30.418  1.00  0.00     0.014 A 
ATOM      9  C   UNL A   1      36.528  33.930  29.194  1.00  0.00     0.010 A 
ATOM     10  C   UNL A   1      35.151  33.087  31.001  1.00  0.00     0.010 A 
ATOM     11  C   UNL A   1      36.403  33.176  30.373  1.00  0.00    -0.014 A 
BRANCH  11  12
ATOM     12  C   UNL A   1      37.610  32.537  30.951  1.00  0.00     0.031 A 
ATOM     13  C   UNL A   1      38.205  33.018  32.245  1.00  0.00     0.074 A 
ATOM     14  C   UNL A   1      38.141  31.476  30.314  1.00  0.00     0.049 A 
ATOM     15  N   UNL A   1      39.236  32.548  32.901  1.00  0.00    -0.248 NA
ATOM     16  C   UNL A   1      37.566  34.178  32.885  1.00  0.00     0.031 C 
ATOM     17  C   UNL A   1      37.654  30.926  29.046  1.00  0.00     0.029 A 
ATOM     18  N   UNL A   1      39.187  30.657  30.652  1.00  0.00    -0.354 N 
ATOM     19  C   UNL A   1      39.377  33.356  34.021  1.00  0.00     0.074 A 
ATOM     20  C   UNL A   1      38.343  34.365  33.944  1.00  0.00     0.031 C 
ATOM     21  C   UNL A   1      38.368  29.834  28.738  1.00  0.00     0.029 A 
ATOM     22  C   UNL A   1      39.396  29.640  29.754  1.00  0.00     0.049 A 
ATOM     23  H   UNL A   1      39.735  30.786  31.459  1.00  0.00     0.167 HD
ATOM     24  C   UNL A   1      40.282  33.257  35.026  1.00  0.00     0.037 A 
ATOM     25  C   UNL A   1      40.320  28.664  29.741  1.00  0.00     0.037 A 
ATOM     26  C   UNL A   1      41.304  32.245  35.103  1.00  0.00     0.049 A 
ATOM     27  C   UNL A   1      41.318  28.590  30.858  1.00  0.00     0.074 A 
ATOM     28  C   UNL A   1      42.263  32.059  36.085  1.00  0.00     0.029 A 
ATOM     29  N   UNL A   1      41.500  31.246  34.161  1.00  0.00    -0.354 N 
ATOM     30  N   UNL A   1      41.429  29.354  31.917  1.00  0.00    -0.248 NA
ATOM     31  C   UNL A   1      42.321  27.519  30.777  1.00  0.00     0.031 C 
ATOM     32  C   UNL A   1      43.057  30.965  35.721  1.00  0.00     0.029 A 
ATOM     33  C   UNL A   1      42.570  30.448  34.532  1.00  0.00     0.049 A 
ATOM     34  H   UNL A   1      40.958  31.123  33.347  1.00  0.00     0.167 HD
ATOM     35  C   UNL A   1      42.507  28.854  32.633  1.00  0.00     0.074 A 
ATOM     36  C   UNL A   1      42.999  27.704  31.901  1.00  0.00     0.031 C 
ATOM     37  C   UNL A   1      43.046  29.310  33.790  1.00  0.00     0.037 A 
BRANCH  24  38
ATOM     38  C   UNL A   1      40.213  34.276  36.125  1.00  0.00     0.057 A 
ATOM     39  C   UNL A   1      40.911  35.489  36.048  1.00  0.00     0.134 A 
ATOM     40  C   UNL A   1      39.400  34.068  37.246  1.00  0.00     0.134 A 
ATOM     41  F   UNL A   1      41.715  35.746  35.007  1.00  0.00    -0.206 F 
ATOM     42  C   UNL A   1      40.811  36.452  37.055  1.00  0.00     0.040 A 
ATOM     43  C   UNL A   1      39.278  35.033  38.249  1.00  0.00     0.040 A 
ATOM     44  F   UNL A   1      38.701  32.932  37.379  1.00  0.00    -0.206 F 
ATOM     45  C   UNL A   1      39.987  36.228  38.155  1.00  0.00     0.006 A 
ENDBRANCH  24  38
BRANCH  25  46
ATOM     46  C   UNL A   1      40.343  27.685  28.627  1.00  0.00     0.057 A 
ATOM     47  C   UNL A   1      41.088  27.923  27.468  1.00  0.00     0.134 A 
ATOM     48  C   UNL A   1      39.629  26.484  28.703  1.00  0.00     0.134 A 
ATOM     49  F   UNL A   1      41.780  29.064  27.333  1.00  0.00    -0.206 F 
ATOM     50  C   UNL A   1      41.113  27.007  26.416  1.00  0.00     0.040 A 
ATOM     51  C   UNL A   1      39.664  25.547  27.669  1.00  0.00     0.040 A 
ATOM     52  F   UNL A   1      38.903  26.195  29.793  1.00  0.00    -0.206 F 
ATOM     53  C   UNL A   1      40.403  25.812  26.518  1.00  0.00     0.006 A 
ENDBRANCH  25  46
BRANCH  37  54
ATOM     54  C   UNL A   1      44.214  28.548  34.335  1.00  0.00     0.057 A 
ATOM     55  C   UNL A   1      44.042  27.454  35.193  1.00  0.00     0.134 A 
ATOM     56  C   UNL A   1      45.523  28.903  33.990  1.00  0.00     0.134 A 
ATOM     57  F   UNL A   1      42.813  27.075  35.573  1.00  0.00    -0.206 F 
ATOM     58  C   UNL A   1      45.134  26.757  35.711  1.00  0.00     0.040 A 
ATOM     59  C   UNL A   1      46.622  28.200  34.483  1.00  0.00     0.040 A 
ATOM     60  F   UNL A   1      45.754  29.938  33.169  1.00  0.00    -0.206 F 
ATOM     61  C   UNL A   1      46.429  27.127  35.351  1.00  0.00     0.006 A 
ENDBRANCH  37  54
ENDBRANCH  11  12
ENDBRANCH   4   6
ENDBRANCH   1   2
BRANCH   1  62
ATOM     62  C   UNL A   1      31.405  32.093  26.601  1.00  0.00     0.023 C 
BRANCH  62  63
ATOM     63  C   UNL A   1      31.591  30.596  26.363  1.00  0.00     0.023 C 
BRANCH  63  64
ATOM     64  C   UNL A   1      33.015  30.089  26.561  1.00  0.00     0.116 C 
BRANCH  64  65
ATOM     65  N   UNL A   1      33.650  29.703  25.311  1.00  0.00    -0.356 N 
ATOM     66  C   UNL A   1      33.646  28.495  24.670  1.00  0.00     0.223 C 
ATOM     67  H   UNL A   1      34.156  30.416  24.859  1.00  0.00     0.163 HD
ATOM     68  O   UNL A   1      34.172  28.409  23.562  1.00  0.00    -0.275 OA
BRANCH  66  69
ATOM     69  C   UNL A   1      33.040  27.303  25.374  1.00  0.00     0.083 C 
ATOM     70  C   UNL A   1      33.937  26.053  25.196  1.00  0.00     0.020 C 
ATOM     71  C   UNL A   1      31.602  27.009  24.896  1.00  0.00     0.052 C 
ATOM     72  C   UNL A   1      33.463  24.875  26.077  1.00  0.00     0.057 C 
ATOM     73  C   UNL A   1      31.119  25.829  25.663  1.00  0.00    -0.006 A 
ATOM     74  C   UNL A   1      31.980  24.879  26.172  1.00  0.00     0.038 A 
ATOM     75  C   UNL A   1      29.851  25.443  26.126  1.00  0.00     0.138 A 
ATOM     76  N   UNL A   1      31.212  24.005  26.879  1.00  0.00    -0.282 N 
ATOM     77  N   UNL A   1      29.905  24.331  26.868  1.00  0.00    -0.184 NA
ATOM     78  H   UNL A   1      31.574  23.218  27.348  1.00  0.00     0.190 HD
ENDBRANCH  66  69
ENDBRANCH  64  65
ENDBRANCH  63  64
ENDBRANCH  62  63
ENDBRANCH   1  62
TORSDOF 11
ENDMDL
MODEL 2
REMARK VINA RESULT:     -11.4      5.375     10.268
REMARK SMILES O=C(NCCCCNC(=O)[C@@H]1CCc2[nH]ncc2C1)c1ccc(-c2c3nc(c(-c4c(F)cccc4F)c4ccc([nH]4)c(-c4c(F)cccc4F)c4nc(c(-c5c(F)cccc5F)c5ccc2[nH]5)C=C4)C=C3)cc1
REMARK SMILES IDX 4 1 3 2 1 3 2 4 20 6 21 7 73 8 22 9 72 10 23 11 24 12 25 13
REMARK SMILES IDX 66 14 26 15 71 16 65 17 67 18 27 19 70 20 64 21 63 22 28 24
REMARK SMILES IDX 54 25 37 26 53 27 38 28 41 29 52 30 68 31 39 32 40 33 51 35
REMARK SMILES IDX 69 36 42 37 29 38 30 39 35 40 31 41 32 42 34 43 36 44 33 45
REMARK SMILES IDX 55 46 56 47 61 48 57 49 58 50 60 51 62 52 59 53 43 54 44 55
REMARK SMILES IDX 49 56 45 57 46 58 48 59 50 60 47 61 5 62 6 63 7 64 8 65 9 66
REMARK SMILES IDX 10 68 11 69 12 70 19 71 13 72 18 73 14 74 17 75 15 76 16 77
REMARK H PARENT 3 5 67 23 41 34 8 67 15 78
REMARK Flexibility Score: inf
ROOT
ATOM      1  C   UNL A   1      39.027  20.116  25.748  1.00  0.00     0.116 C 
ENDROOT
BRANCH   1   2
ATOM      2  N   UNL A   1      40.052  19.084  25.760  1.00  0.00    -0.352 N 
ATOM      3  O   UNL A   1      42.152  18.254  25.865  1.00  0.00    -0.269 OA
ATOM      4  C   UNL A   1      41.400  19.215  25.997  1.00  0.00     0.251 C 
ATOM      5  H   UNL A   1      39.739  18.169  25.574  1.00  0.00     0.163 HD
BRANCH   4   6
ATOM      6  C   UNL A   1      41.941  20.536  26.379  1.00  0.00     0.039 A 
ATOM      7  C   UNL A   1      42.075  20.882  27.725  1.00  0.00     0.014 A 
ATOM      8  C   UNL A   1      42.286  21.446  25.376  1.00  0.00     0.014 A 
ATOM      9  C   UNL A   1      42.410  22.186  28.067  1.00  0.00     0.010 A 
ATOM     10  C   UNL A   1      42.702  22.735  25.725  1.00  0.00     0.010 A 
ATOM     11  C   UNL A   1      42.733  23.124  27.073  1.00  0.00    -0.014 A 
BRANCH  11  12
ATOM     12  C   UNL A   1      43.149  24.490  27.478  1.00  0.00     0.031 A 
ATOM     13  C   UNL A   1      44.585  24.924  27.401  1.00  0.00     0.074 A 
ATOM     14  C   UNL A   1      42.198  25.358  27.875  1.00  0.00     0.049 A 
ATOM     15  N   UNL A   1      45.108  26.090  27.686  1.00  0.00    -0.248 NA
ATOM     16  C   UNL A   1      45.564  23.922  26.953  1.00  0.00     0.031 C 
ATOM     17  C   UNL A   1      40.772  25.045  27.998  1.00  0.00     0.029 A 
ATOM     18  N   UNL A   1      42.280  26.680  28.225  1.00  0.00    -0.354 N 
ATOM     19  C   UNL A   1      46.472  25.962  27.462  1.00  0.00     0.074 A 
ATOM     20  C   UNL A   1      46.704  24.596  27.045  1.00  0.00     0.031 C 
ATOM     21  C   UNL A   1      40.107  26.155  28.348  1.00  0.00     0.029 A 
ATOM     22  C   UNL A   1      41.064  27.241  28.528  1.00  0.00     0.049 A 
ATOM     23  H   UNL A   1      43.128  27.179  28.256  1.00  0.00     0.167 HD
ATOM     24  C   UNL A   1      47.441  26.903  27.586  1.00  0.00     0.037 A 
ATOM     25  C   UNL A   1      40.753  28.489  28.921  1.00  0.00     0.037 A 
ATOM     26  C   UNL A   1      47.205  28.264  27.993  1.00  0.00     0.049 A 
ATOM     27  C   UNL A   1      41.848  29.503  29.063  1.00  0.00     0.074 A 
ATOM     28  C   UNL A   1      48.121  29.292  28.141  1.00  0.00     0.029 A 
ATOM     29  N   UNL A   1      45.962  28.788  28.316  1.00  0.00    -0.354 N 
ATOM     30  N   UNL A   1      43.131  29.369  28.836  1.00  0.00    -0.248 NA
ATOM     31  C   UNL A   1      41.451  30.842  29.521  1.00  0.00     0.031 C 
ATOM     32  C   UNL A   1      47.435  30.430  28.583  1.00  0.00     0.029 A 
ATOM     33  C   UNL A   1      46.088  30.121  28.674  1.00  0.00     0.049 A 
ATOM     34  H   UNL A   1      45.115  28.287  28.296  1.00  0.00     0.167 HD
ATOM     35  C   UNL A   1      43.696  30.605  29.113  1.00  0.00     0.074 A 
ATOM     36  C   UNL A   1      42.611  31.484  29.501  1.00  0.00     0.031 C 
ATOM     37  C   UNL A   1      44.997  30.978  29.059  1.00  0.00     0.037 A 
BRANCH  24  38
ATOM     38  C   UNL A   1      48.852  26.491  27.283  1.00  0.00     0.057 A 
ATOM     39  C   UNL A   1      49.704  25.999  28.279  1.00  0.00     0.134 A 
ATOM     40  C   UNL A   1      49.346  26.535  25.973  1.00  0.00     0.134 A 
ATOM     41  F   UNL A   1      49.297  25.941  29.555  1.00  0.00    -0.206 F 
ATOM     42  C   UNL A   1      51.004  25.578  27.985  1.00  0.00     0.040 A 
ATOM     43  C   UNL A   1      50.636  26.098  25.664  1.00  0.00     0.040 A 
ATOM     44  F   UNL A   1      48.580  26.990  24.971  1.00  0.00    -0.206 F 
ATOM     45  C   UNL A   1      51.469  25.621  26.673  1.00  0.00     0.006 A 
ENDBRANCH  24  38
BRANCH  25  46
ATOM     46  C   UNL A   1      39.341  28.839  29.210  1.00  0.00     0.057 A 
ATOM     47  C   UNL A   1      38.786  28.627  30.476  1.00  0.00     0.134 A 
ATOM     48  C   UNL A   1      38.518  29.405  28.229  1.00  0.00     0.134 A 
ATOM     49  F   UNL A   1      39.522  28.073  31.451  1.00  0.00    -0.206 F 
ATOM     50  C   UNL A   1      37.458  28.953  30.754  1.00  0.00     0.040 A 
ATOM     51  C   UNL A   1      37.197  29.759  28.499  1.00  0.00     0.040 A 
ATOM     52  F   UNL A   1      38.997  29.641  26.998  1.00  0.00    -0.206 F 
ATOM     53  C   UNL A   1      36.662  29.527  29.765  1.00  0.00     0.006 A 
ENDBRANCH  25  46
BRANCH  37  54
ATOM     54  C   UNL A   1      45.306  32.401  29.411  1.00  0.00     0.057 A 
ATOM     55  C   UNL A   1      45.626  32.781  30.721  1.00  0.00     0.134 A 
ATOM     56  C   UNL A   1      45.293  33.399  28.430  1.00  0.00     0.134 A 
ATOM     57  F   UNL A   1      45.638  31.872  31.708  1.00  0.00    -0.206 F 
ATOM     58  C   UNL A   1      45.897  34.109  31.047  1.00  0.00     0.040 A 
ATOM     59  C   UNL A   1      45.584  34.727  28.739  1.00  0.00     0.040 A 
ATOM     60  F   UNL A   1      44.998  33.099  27.156  1.00  0.00    -0.206 F 
ATOM     61  C   UNL A   1      45.882  35.086  30.053  1.00  0.00     0.006 A 
ENDBRANCH  37  54
ENDBRANCH  11  12
ENDBRANCH   4   6
ENDBRANCH   1   2
BRANCH   1  62
ATOM     62  C   UNL A   1      37.813  19.756  24.900  1.00  0.00     0.023 C 
BRANCH  62  63
ATOM     63  C   UNL A   1      36.563  20.593  25.165  1.00  0.00     0.023 C 
BRANCH  63  64
ATOM     64  C   UNL A   1      36.769  22.100  25.060  1.00  0.00     0.116 C 
BRANCH  64  65
ATOM     65  N   UNL A   1      36.270  22.646  23.807  1.00  0.00    -0.356 N 
ATOM     66  C   UNL A   1      35.002  23.031  23.469  1.00  0.00     0.223 C 
ATOM     67  H   UNL A   1      36.945  22.754  23.098  1.00  0.00     0.163 HD
ATOM     68  O   UNL A   1      34.815  23.561  22.376  1.00  0.00    -0.275 OA
BRANCH  66  69
ATOM     69  C   UNL A   1      33.875  22.740  24.433  1.00  0.00     0.083 C 
ATOM     70  C   UNL A   1      33.104  21.470  23.999  1.00  0.00     0.020 C 
ATOM     71  C   UNL A   1      32.909  23.936  24.582  1.00  0.00     0.052 C 
ATOM     72  C   UNL A   1      32.086  21.021  25.073  1.00  0.00     0.057 C 
ATOM     73  C   UNL A   1      31.858  23.529  25.555  1.00  0.00    -0.006 A 
ATOM     74  C   UNL A   1      31.501  22.211  25.745  1.00  0.00     0.038 A 
ATOM     75  C   UNL A   1      31.109  24.240  26.505  1.00  0.00     0.138 A 
ATOM     76  N   UNL A   1      30.587  22.203  26.754  1.00  0.00    -0.282 N 
ATOM     77  N   UNL A   1      30.334  23.434  27.238  1.00  0.00    -0.184 NA
ATOM     78  H   UNL A   1      30.159  21.384  27.093  1.00  0.00     0.190 HD
ENDBRANCH  66  69
ENDBRANCH  64  65
ENDBRANCH  63  64
ENDBRANCH  62  63
ENDBRANCH   1  62
TORSDOF 11
ENDMDL
MODEL 3
REMARK VINA RESULT:     -11.4      0.353      1.412
REMARK SMILES O=C(NCCCCNC(=O)[C@@H]1CCc2[nH]ncc2C1)c1ccc(-c2c3nc(c(-c4c(F)cccc4F)c4ccc([nH]4)c(-c4c(F)cccc4F)c4nc(c(-c5c(F)cccc5F)c5ccc2[nH]5)C=C4)C=C3)cc1
REMARK SMILES IDX 4 1 3 2 1 3 2 4 20 6 21 7 73 8 22 9 72 10 23 11 24 12 25 13
REMARK SMILES IDX 66 14 26 15 71 16 65 17 67 18 27 19 70 20 64 21 63 22 28 24
REMARK SMILES IDX 54 25 37 26 53 27 38 28 41 29 52 30 68 31 39 32 40 33 51 35
REMARK SMILES IDX 69 36 42 37 29 38 30 39 35 40 31 41 32 42 34 43 36 44 33 45
REMARK SMILES IDX 55 46 56 47 61 48 57 49 58 50 60 51 62 52 59 53 43 54 44 55
REMARK SMILES IDX 49 56 45 57 46 58 48 59 50 60 47 61 5 62 6 63 7 64 8 65 9 66
REMARK SMILES IDX 10 68 11 69 12 70 19 71 13 72 18 73 14 74 17 75 15 76 16 77
REMARK H PARENT 3 5 67 23 41 34 8 67 15 78
REMARK Flexibility Score: inf
ROOT
ATOM      1  C   UNL A   1      32.585  32.660  27.241  1.00  0.00     0.116 C 
ENDROOT
BRANCH   1   2
ATOM      2  N   UNL A   1      32.315  34.036  27.628  1.00  0.00    -0.352 N 
ATOM      3  O   UNL A   1      32.573  35.940  28.820  1.00  0.00    -0.269 OA
ATOM      4  C   UNL A   1      32.997  34.826  28.523  1.00  0.00     0.251 C 
ATOM      5  H   UNL A   1      31.540  34.458  27.190  1.00  0.00     0.163 HD
BRANCH   4   6
ATOM      6  C   UNL A   1      34.228  34.308  29.154  1.00  0.00     0.039 A 
ATOM      7  C   UNL A   1      35.477  34.579  28.593  1.00  0.00     0.014 A 
ATOM      8  C   UNL A   1      34.123  33.513  30.299  1.00  0.00     0.014 A 
ATOM      9  C   UNL A   1      36.605  33.936  29.087  1.00  0.00     0.010 A 
ATOM     10  C   UNL A   1      35.272  32.933  30.845  1.00  0.00     0.010 A 
ATOM     11  C   UNL A   1      36.516  33.112  30.221  1.00  0.00    -0.014 A 
BRANCH  11  12
ATOM     12  C   UNL A   1      37.753  32.493  30.760  1.00  0.00     0.031 A 
ATOM     13  C   UNL A   1      38.399  33.005  32.016  1.00  0.00     0.074 A 
ATOM     14  C   UNL A   1      38.263  31.422  30.123  1.00  0.00     0.049 A 
ATOM     15  N   UNL A   1      39.461  32.557  32.637  1.00  0.00    -0.248 NA
ATOM     16  C   UNL A   1      37.779  34.175  32.659  1.00  0.00     0.031 C 
ATOM     17  C   UNL A   1      37.726  30.842  28.890  1.00  0.00     0.029 A 
ATOM     18  N   UNL A   1      39.329  30.618  30.433  1.00  0.00    -0.354 N 
ATOM     19  C   UNL A   1      39.644  33.390  33.732  1.00  0.00     0.074 A 
ATOM     20  C   UNL A   1      38.600  34.390  33.679  1.00  0.00     0.031 C 
ATOM     21  C   UNL A   1      38.434  29.748  28.574  1.00  0.00     0.029 A 
ATOM     22  C   UNL A   1      39.506  29.582  29.549  1.00  0.00     0.049 A 
ATOM     23  H   UNL A   1      39.910  30.768  31.212  1.00  0.00     0.167 HD
ATOM     24  C   UNL A   1      40.592  33.318  34.699  1.00  0.00     0.037 A 
ATOM     25  C   UNL A   1      40.437  28.612  29.516  1.00  0.00     0.037 A 
ATOM     26  C   UNL A   1      41.624  32.315  34.753  1.00  0.00     0.049 A 
ATOM     27  C   UNL A   1      41.482  28.569  30.591  1.00  0.00     0.074 A 
ATOM     28  C   UNL A   1      42.626  32.156  35.697  1.00  0.00     0.029 A 
ATOM     29  N   UNL A   1      41.787  31.297  33.825  1.00  0.00    -0.354 N 
ATOM     30  N   UNL A   1      41.633  29.357  31.627  1.00  0.00    -0.248 NA
ATOM     31  C   UNL A   1      42.488  27.503  30.489  1.00  0.00     0.031 C 
ATOM     32  C   UNL A   1      43.412  31.060  35.322  1.00  0.00     0.029 A 
ATOM     33  C   UNL A   1      42.877  30.514  34.166  1.00  0.00     0.049 A 
ATOM     34  H   UNL A   1      41.211  31.153  33.038  1.00  0.00     0.167 HD
ATOM     35  C   UNL A   1      42.744  28.879  32.307  1.00  0.00     0.074 A 
ATOM     36  C   UNL A   1      43.213  27.717  31.578  1.00  0.00     0.031 C 
ATOM     37  C   UNL A   1      43.329  29.363  33.428  1.00  0.00     0.037 A 
BRANCH  24  38
ATOM     38  C   UNL A   1      40.563  34.361  35.778  1.00  0.00     0.057 A 
ATOM     39  C   UNL A   1      41.279  35.559  35.662  1.00  0.00     0.134 A 
ATOM     40  C   UNL A   1      39.771  34.189  36.920  1.00  0.00     0.134 A 
ATOM     41  F   UNL A   1      42.065  35.782  34.599  1.00  0.00    -0.206 F 
ATOM     42  C   UNL A   1      41.216  36.545  36.650  1.00  0.00     0.040 A 
ATOM     43  C   UNL A   1      39.685  35.175  37.905  1.00  0.00     0.040 A 
ATOM     44  F   UNL A   1      39.057  33.067  37.091  1.00  0.00    -0.206 F 
ATOM     45  C   UNL A   1      40.412  36.356  37.772  1.00  0.00     0.006 A 
ENDBRANCH  24  38
BRANCH  25  46
ATOM     46  C   UNL A   1      40.419  27.610  28.423  1.00  0.00     0.057 A 
ATOM     47  C   UNL A   1      39.693  26.421  28.543  1.00  0.00     0.134 A 
ATOM     48  C   UNL A   1      41.117  27.826  27.230  1.00  0.00     0.134 A 
ATOM     49  F   UNL A   1      39.017  26.153  29.669  1.00  0.00    -0.206 F 
ATOM     50  C   UNL A   1      39.673  25.473  27.518  1.00  0.00     0.040 A 
ATOM     51  C   UNL A   1      41.086  26.899  26.187  1.00  0.00     0.040 A 
ATOM     52  F   UNL A   1      41.824  28.952  27.053  1.00  0.00    -0.206 F 
ATOM     53  C   UNL A   1      40.366  25.715  26.334  1.00  0.00     0.006 A 
ENDBRANCH  25  46
BRANCH  37  54
ATOM     54  C   UNL A   1      44.526  28.621  33.938  1.00  0.00     0.057 A 
ATOM     55  C   UNL A   1      45.827  28.970  33.553  1.00  0.00     0.134 A 
ATOM     56  C   UNL A   1      44.378  27.554  34.832  1.00  0.00     0.134 A 
ATOM     57  F   UNL A   1      46.032  29.974  32.686  1.00  0.00    -0.206 F 
ATOM     58  C   UNL A   1      46.937  28.267  34.018  1.00  0.00     0.040 A 
ATOM     59  C   UNL A   1      45.482  26.856  35.322  1.00  0.00     0.040 A 
ATOM     60  F   UNL A   1      43.160  27.174  35.243  1.00  0.00    -0.206 F 
ATOM     61  C   UNL A   1      46.766  27.209  34.910  1.00  0.00     0.006 A 
ENDBRANCH  37  54
ENDBRANCH  11  12
ENDBRANCH   4   6
ENDBRANCH   1   2
BRANCH   1  62
ATOM     62  C   UNL A   1      31.387  31.959  26.612  1.00  0.00     0.023 C 
BRANCH  62  63
ATOM     63  C   UNL A   1      31.659  30.550  26.089  1.00  0.00     0.023 C 
BRANCH  63  64
ATOM     64  C   UNL A   1      33.088  30.059  26.288  1.00  0.00     0.116 C 
BRANCH  64  65
ATOM     65  N   UNL A   1      33.702  29.609  25.048  1.00  0.00    -0.356 N 
ATOM     66  C   UNL A   1      33.691  28.368  24.473  1.00  0.00     0.223 C 
ATOM     67  H   UNL A   1      34.197  30.298  24.550  1.00  0.00     0.163 HD
ATOM     68  O   UNL A   1      34.197  28.224  23.362  1.00  0.00    -0.275 OA
BRANCH  66  69
ATOM     69  C   UNL A   1      33.103  27.213  25.251  1.00  0.00     0.083 C 
ATOM     70  C   UNL A   1      34.012  25.965  25.140  1.00  0.00     0.020 C 
ATOM     71  C   UNL A   1      31.665  26.877  24.803  1.00  0.00     0.052 C 
ATOM     72  C   UNL A   1      33.557  24.836  26.093  1.00  0.00     0.057 C 
ATOM     73  C   UNL A   1      31.200  25.739  25.642  1.00  0.00    -0.006 A 
ATOM     74  C   UNL A   1      32.075  24.830  26.200  1.00  0.00     0.038 A 
ATOM     75  C   UNL A   1      29.940  25.368  26.137  1.00  0.00     0.138 A 
ATOM     76  N   UNL A   1      31.321  23.991  26.963  1.00  0.00    -0.282 N 
ATOM     77  N   UNL A   1      30.011  24.303  26.943  1.00  0.00    -0.184 NA
ATOM     78  H   UNL A   1      31.695  23.238  27.474  1.00  0.00     0.190 HD
ENDBRANCH  66  69
ENDBRANCH  64  65
ENDBRANCH  63  64
ENDBRANCH  62  63
ENDBRANCH   1  62
TORSDOF 11
ENDMDL
