MODEL 1
REMARK VINA RESULT:     -12.6      0.000      0.000
REMARK SMILES C[C@H]1[C@@H](C(=O)NCCCCNC(=O)c2ccc(-c3c4nc(c(-c5c(F)cccc5F)c5ccc([nH]5)c(-c5c(F)cccc5F)c5nc(c(-c6c(F)cccc6F)c6ccc3[nH]6)C=C5)C=C4)cc2)CCN1C(=O)c1cc2cc(F)ccc2s1
REMARK SMILES IDX 8 1 7 2 6 3 4 4 5 5 3 7 1 8 2 9 70 10 68 11 69 12 71 13
REMARK SMILES IDX 72 14 73 15 74 16 82 17 75 18 81 19 76 20 80 21 77 22 79 23
REMARK SMILES IDX 78 24 9 25 10 26 11 27 12 28 13 30 14 31 15 32 67 33 16 34
REMARK SMILES IDX 66 35 17 36 18 37 19 38 60 39 20 40 65 41 59 42 61 43 21 44
REMARK SMILES IDX 64 45 58 46 57 47 22 49 48 50 31 51 47 52 32 53 35 54 46 55
REMARK SMILES IDX 62 56 33 57 34 58 45 60 63 61 36 62 23 63 24 64 29 65 25 66
REMARK SMILES IDX 26 67 28 68 30 69 27 70 49 71 50 72 55 73 51 74 52 75 54 76
REMARK SMILES IDX 56 77 53 78 37 79 38 80 43 81 39 82 40 83 42 84 44 85 41 86
REMARK H PARENT 6 6 11 29 61 48 35 59
REMARK Flexibility Score: inf
ROOT
ATOM      1  C   UNL A   1      37.118  21.250  24.575  1.00  0.00     0.023 C 
ENDROOT
BRANCH   1   2
ATOM      2  C   UNL A   1      36.715  22.179  25.723  1.00  0.00     0.116 C 
BRANCH   2   3
ATOM      3  N   UNL A   1      35.685  21.533  26.500  1.00  0.00    -0.356 N 
ATOM      4  C   UNL A   1      34.343  21.473  26.285  1.00  0.00     0.225 C 
ATOM      5  O   UNL A   1      33.660  21.119  27.250  1.00  0.00    -0.275 OA
ATOM      6  H   UNL A   1      36.001  21.064  27.306  1.00  0.00     0.163 HD
BRANCH   4   7
ATOM      7  C   UNL A   1      33.749  21.693  24.887  1.00  0.00     0.102 C 
ATOM      8  C   UNL A   1      34.204  24.286  24.623  1.00  0.00     0.032 C 
ATOM      9  C   UNL A   1      33.294  23.095  24.428  1.00  0.00     0.094 C 
ATOM     10  N   UNL A   1      31.950  23.285  24.978  1.00  0.00    -0.334 N 
ATOM     11  C   UNL A   1      32.389  20.966  24.830  1.00  0.00     0.037 C 
ATOM     12  C   UNL A   1      31.438  21.999  25.430  1.00  0.00     0.121 C 
BRANCH  10  13
ATOM     13  C   UNL A   1      31.075  24.108  24.269  1.00  0.00     0.264 C 
ATOM     14  O   UNL A   1      30.477  23.677  23.283  1.00  0.00    -0.268 OA
BRANCH  13  15
ATOM     15  C   UNL A   1      30.921  25.480  24.717  1.00  0.00     0.093 A 
ATOM     16  C   UNL A   1      31.275  25.968  25.957  1.00  0.00     0.034 A 
ATOM     17  S   UNL A   1      30.433  26.739  23.674  1.00  0.00    -0.130 S 
ATOM     18  C   UNL A   1      31.407  27.394  25.976  1.00  0.00    -0.004 A 
ATOM     19  C   UNL A   1      31.019  27.954  24.755  1.00  0.00     0.035 A 
ATOM     20  C   UNL A   1      31.928  28.244  26.978  1.00  0.00     0.048 A 
ATOM     21  C   UNL A   1      31.151  29.336  24.506  1.00  0.00     0.022 A 
ATOM     22  C   UNL A   1      32.108  29.597  26.705  1.00  0.00     0.123 A 
ATOM     23  C   UNL A   1      31.733  30.143  25.489  1.00  0.00     0.041 A 
ATOM     24  F   UNL A   1      32.686  30.378  27.628  1.00  0.00    -0.207 F 
ENDBRANCH  13  15
ENDBRANCH  10  13
ENDBRANCH   4   7
ENDBRANCH   2   3
ENDBRANCH   1   2
BRANCH   1  25
ATOM     25  C   UNL A   1      37.899  20.015  25.001  1.00  0.00     0.023 C 
BRANCH  25  26
ATOM     26  C   UNL A   1      39.183  20.333  25.746  1.00  0.00     0.116 C 
BRANCH  26  27
ATOM     27  N   UNL A   1      40.099  19.201  25.831  1.00  0.00    -0.352 N 
ATOM     28  C   UNL A   1      41.441  19.212  26.124  1.00  0.00     0.251 C 
ATOM     29  H   UNL A   1      39.706  18.315  25.656  1.00  0.00     0.163 HD
ATOM     30  O   UNL A   1      42.105  18.182  26.086  1.00  0.00    -0.269 OA
BRANCH  28  31
ATOM     31  C   UNL A   1      42.080  20.504  26.432  1.00  0.00     0.039 A 
ATOM     32  C   UNL A   1      42.452  21.340  25.377  1.00  0.00     0.014 A 
ATOM     33  C   UNL A   1      42.202  20.926  27.758  1.00  0.00     0.014 A 
ATOM     34  C   UNL A   1      42.865  22.642  25.653  1.00  0.00     0.010 A 
ATOM     35  C   UNL A   1      42.528  22.247  28.024  1.00  0.00     0.010 A 
ATOM     36  C   UNL A   1      42.857  23.118  26.974  1.00  0.00    -0.014 A 
BRANCH  36  37
ATOM     37  C   UNL A   1      43.192  24.525  27.293  1.00  0.00     0.031 A 
ATOM     38  C   UNL A   1      44.620  24.982  27.218  1.00  0.00     0.074 A 
ATOM     39  C   UNL A   1      42.233  25.356  27.743  1.00  0.00     0.049 A 
ATOM     40  N   UNL A   1      45.143  26.121  27.587  1.00  0.00    -0.248 NA
ATOM     41  C   UNL A   1      45.597  24.009  26.701  1.00  0.00     0.031 C 
ATOM     42  C   UNL A   1      40.821  25.009  27.927  1.00  0.00     0.029 A 
ATOM     43  N   UNL A   1      42.307  26.665  28.143  1.00  0.00    -0.354 N 
ATOM     44  C   UNL A   1      46.511  25.984  27.393  1.00  0.00     0.074 A 
ATOM     45  C   UNL A   1      46.741  24.642  26.906  1.00  0.00     0.031 C 
ATOM     46  C   UNL A   1      40.159  26.088  28.375  1.00  0.00     0.029 A 
ATOM     47  C   UNL A   1      41.100  27.190  28.538  1.00  0.00     0.049 A 
ATOM     48  H   UNL A   1      43.146  27.182  28.146  1.00  0.00     0.167 HD
ATOM     49  C   UNL A   1      47.486  26.902  27.587  1.00  0.00     0.037 A 
ATOM     50  C   UNL A   1      40.793  28.424  28.978  1.00  0.00     0.037 A 
ATOM     51  C   UNL A   1      47.248  28.257  27.999  1.00  0.00     0.049 A 
ATOM     52  C   UNL A   1      41.880  29.454  29.091  1.00  0.00     0.074 A 
ATOM     53  C   UNL A   1      48.158  29.289  28.145  1.00  0.00     0.029 A 
ATOM     54  N   UNL A   1      46.000  28.773  28.313  1.00  0.00    -0.354 N 
ATOM     55  N   UNL A   1      43.164  29.326  28.860  1.00  0.00    -0.248 NA
ATOM     56  C   UNL A   1      41.475  30.800  29.519  1.00  0.00     0.031 C 
ATOM     57  C   UNL A   1      47.459  30.431  28.555  1.00  0.00     0.029 A 
ATOM     58  C   UNL A   1      46.114  30.111  28.646  1.00  0.00     0.049 A 
ATOM     59  H   UNL A   1      45.158  28.263  28.300  1.00  0.00     0.167 HD
ATOM     60  C   UNL A   1      43.718  30.575  29.096  1.00  0.00     0.074 A 
ATOM     61  C   UNL A   1      42.629  31.452  29.477  1.00  0.00     0.031 C 
ATOM     62  C   UNL A   1      45.012  30.964  29.008  1.00  0.00     0.037 A 
BRANCH  49  63
ATOM     63  C   UNL A   1      48.895  26.462  27.335  1.00  0.00     0.057 A 
ATOM     64  C   UNL A   1      49.703  25.957  28.361  1.00  0.00     0.134 A 
ATOM     65  C   UNL A   1      49.452  26.549  26.053  1.00  0.00     0.134 A 
ATOM     66  F   UNL A   1      49.233  25.870  29.615  1.00  0.00    -0.206 F 
ATOM     67  C   UNL A   1      51.026  25.577  28.127  1.00  0.00     0.040 A 
ATOM     68  C   UNL A   1      50.767  26.152  25.802  1.00  0.00     0.040 A 
ATOM     69  F   UNL A   1      48.731  27.026  25.027  1.00  0.00    -0.206 F 
ATOM     70  C   UNL A   1      51.559  25.670  26.843  1.00  0.00     0.006 A 
ENDBRANCH  49  63
BRANCH  50  71
ATOM     71  C   UNL A   1      39.388  28.767  29.300  1.00  0.00     0.057 A 
ATOM     72  C   UNL A   1      38.895  28.603  30.599  1.00  0.00     0.134 A 
ATOM     73  C   UNL A   1      38.512  29.264  28.330  1.00  0.00     0.134 A 
ATOM     74  F   UNL A   1      39.687  28.116  31.565  1.00  0.00    -0.206 F 
ATOM     75  C   UNL A   1      37.572  28.908  30.920  1.00  0.00     0.040 A 
ATOM     76  C   UNL A   1      37.190  29.587  28.641  1.00  0.00     0.040 A 
ATOM     77  F   UNL A   1      38.932  29.449  27.070  1.00  0.00    -0.206 F 
ATOM     78  C   UNL A   1      36.716  29.405  29.939  1.00  0.00     0.006 A 
ENDBRANCH  50  71
BRANCH  62  79
ATOM     79  C   UNL A   1      45.313  32.400  29.300  1.00  0.00     0.057 A 
ATOM     80  C   UNL A   1      45.690  32.822  30.580  1.00  0.00     0.134 A 
ATOM     81  C   UNL A   1      45.266  33.359  28.282  1.00  0.00     0.134 A 
ATOM     82  F   UNL A   1      45.740  31.948  31.597  1.00  0.00    -0.206 F 
ATOM     83  C   UNL A   1      46.000  34.157  30.841  1.00  0.00     0.040 A 
ATOM     84  C   UNL A   1      45.588  34.694  28.528  1.00  0.00     0.040 A 
ATOM     85  F   UNL A   1      44.914  33.012  27.036  1.00  0.00    -0.206 F 
ATOM     86  C   UNL A   1      45.954  35.096  29.811  1.00  0.00     0.006 A 
ENDBRANCH  62  79
ENDBRANCH  36  37
ENDBRANCH  28  31
ENDBRANCH  26  27
ENDBRANCH  25  26
ENDBRANCH   1  25
TORSDOF 13
ENDMDL
MODEL 2
REMARK VINA RESULT:     -12.6      2.080      2.826
REMARK SMILES C[C@H]1[C@@H](C(=O)NCCCCNC(=O)c2ccc(-c3c4nc(c(-c5c(F)cccc5F)c5ccc([nH]5)c(-c5c(F)cccc5F)c5nc(c(-c6c(F)cccc6F)c6ccc3[nH]6)C=C5)C=C4)cc2)CCN1C(=O)c1cc2cc(F)ccc2s1
REMARK SMILES IDX 8 1 7 2 6 3 4 4 5 5 3 7 1 8 2 9 70 10 68 11 69 12 71 13
REMARK SMILES IDX 72 14 73 15 74 16 82 17 75 18 81 19 76 20 80 21 77 22 79 23
REMARK SMILES IDX 78 24 9 25 10 26 11 27 12 28 13 30 14 31 15 32 67 33 16 34
REMARK SMILES IDX 66 35 17 36 18 37 19 38 60 39 20 40 65 41 59 42 61 43 21 44
REMARK SMILES IDX 64 45 58 46 57 47 22 49 48 50 31 51 47 52 32 53 35 54 46 55
REMARK SMILES IDX 62 56 33 57 34 58 45 60 63 61 36 62 23 63 24 64 29 65 25 66
REMARK SMILES IDX 26 67 28 68 30 69 27 70 49 71 50 72 55 73 51 74 52 75 54 76
REMARK SMILES IDX 56 77 53 78 37 79 38 80 43 81 39 82 40 83 42 84 44 85 41 86
REMARK H PARENT 6 6 11 29 61 48 35 59
REMARK Flexibility Score: inf
ROOT
ATOM      1  C   UNL A   1      36.424  21.110  25.496  1.00  0.00     0.023 C 
ENDROOT
BRANCH   1   2
ATOM      2  C   UNL A   1      35.171  20.447  24.918  1.00  0.00     0.116 C 
BRANCH   2   3
ATOM      3  N   UNL A   1      34.015  21.205  25.331  1.00  0.00    -0.356 N 
ATOM      4  C   UNL A   1      33.765  22.538  25.223  1.00  0.00     0.225 C 
ATOM      5  O   UNL A   1      32.843  22.970  25.920  1.00  0.00    -0.275 OA
ATOM      6  H   UNL A   1      33.299  20.678  25.755  1.00  0.00     0.163 HD
BRANCH   4   7
ATOM      7  C   UNL A   1      34.496  23.404  24.188  1.00  0.00     0.102 C 
ATOM      8  C   UNL A   1      34.198  25.779  25.318  1.00  0.00     0.032 C 
ATOM      9  C   UNL A   1      34.211  24.918  24.075  1.00  0.00     0.094 C 
ATOM     10  N   UNL A   1      33.003  25.044  23.259  1.00  0.00    -0.334 N 
ATOM     11  C   UNL A   1      34.025  22.965  22.786  1.00  0.00     0.037 C 
ATOM     12  C   UNL A   1      32.742  23.771  22.600  1.00  0.00     0.121 C 
BRANCH  10  13
ATOM     13  C   UNL A   1      32.862  26.201  22.492  1.00  0.00     0.264 C 
ATOM     14  O   UNL A   1      33.666  26.456  21.597  1.00  0.00    -0.268 OA
BRANCH  13  15
ATOM     15  C   UNL A   1      31.760  27.092  22.806  1.00  0.00     0.093 A 
ATOM     16  C   UNL A   1      31.623  28.392  22.366  1.00  0.00     0.034 A 
ATOM     17  S   UNL A   1      30.363  26.572  23.637  1.00  0.00    -0.130 S 
ATOM     18  C   UNL A   1      30.280  28.876  22.469  1.00  0.00    -0.004 A 
ATOM     19  C   UNL A   1      29.456  27.947  23.113  1.00  0.00     0.035 A 
ATOM     20  C   UNL A   1      29.699  30.059  21.959  1.00  0.00     0.048 A 
ATOM     21  C   UNL A   1      28.069  28.164  23.246  1.00  0.00     0.022 A 
ATOM     22  C   UNL A   1      28.322  30.241  22.045  1.00  0.00     0.123 A 
ATOM     23  C   UNL A   1      27.510  29.311  22.672  1.00  0.00     0.041 A 
ATOM     24  F   UNL A   1      27.770  31.323  21.479  1.00  0.00    -0.207 F 
ENDBRANCH  13  15
ENDBRANCH  10  13
ENDBRANCH   4   7
ENDBRANCH   2   3
ENDBRANCH   1   2
BRANCH   1  25
ATOM     25  C   UNL A   1      37.738  20.569  24.950  1.00  0.00     0.023 C 
BRANCH  25  26
ATOM     26  C   UNL A   1      38.898  20.692  25.922  1.00  0.00     0.116 C 
BRANCH  26  27
ATOM     27  N   UNL A   1      39.877  19.618  25.794  1.00  0.00    -0.352 N 
ATOM     28  C   UNL A   1      41.223  19.656  26.072  1.00  0.00     0.251 C 
ATOM     29  H   UNL A   1      39.531  18.757  25.466  1.00  0.00     0.163 HD
ATOM     30  O   UNL A   1      41.941  18.690  25.843  1.00  0.00    -0.269 OA
BRANCH  28  31
ATOM     31  C   UNL A   1      41.794  20.907  26.601  1.00  0.00     0.039 A 
ATOM     32  C   UNL A   1      42.257  21.869  25.700  1.00  0.00     0.014 A 
ATOM     33  C   UNL A   1      41.763  21.165  27.973  1.00  0.00     0.014 A 
ATOM     34  C   UNL A   1      42.607  23.132  26.174  1.00  0.00     0.010 A 
ATOM     35  C   UNL A   1      42.028  22.447  28.429  1.00  0.00     0.010 A 
ATOM     36  C   UNL A   1      42.447  23.443  27.534  1.00  0.00    -0.014 A 
BRANCH  36  37
ATOM     37  C   UNL A   1      42.713  24.804  28.054  1.00  0.00     0.031 A 
ATOM     38  C   UNL A   1      44.103  25.176  28.482  1.00  0.00     0.074 A 
ATOM     39  C   UNL A   1      41.691  25.663  28.233  1.00  0.00     0.049 A 
ATOM     40  N   UNL A   1      44.519  26.255  29.089  1.00  0.00    -0.248 NA
ATOM     41  C   UNL A   1      45.157  24.178  28.234  1.00  0.00     0.031 C 
ATOM     42  C   UNL A   1      40.285  25.394  27.922  1.00  0.00     0.029 A 
ATOM     43  N   UNL A   1      41.680  26.939  28.737  1.00  0.00    -0.354 N 
ATOM     44  C   UNL A   1      45.869  26.046  29.339  1.00  0.00     0.074 A 
ATOM     45  C   UNL A   1      46.193  24.725  28.849  1.00  0.00     0.031 C 
ATOM     46  C   UNL A   1      39.554  26.482  28.215  1.00  0.00     0.029 A 
ATOM     47  C   UNL A   1      40.432  27.512  28.760  1.00  0.00     0.049 A 
ATOM     48  H   UNL A   1      42.491  27.401  29.053  1.00  0.00     0.167 HD
ATOM     49  C   UNL A   1      46.761  26.888  29.910  1.00  0.00     0.037 A 
ATOM     50  C   UNL A   1      40.045  28.733  29.172  1.00  0.00     0.037 A 
ATOM     51  C   UNL A   1      46.452  28.227  30.328  1.00  0.00     0.049 A 
ATOM     52  C   UNL A   1      41.073  29.684  29.712  1.00  0.00     0.074 A 
ATOM     53  C   UNL A   1      47.304  29.190  30.842  1.00  0.00     0.029 A 
ATOM     54  N   UNL A   1      45.192  28.799  30.260  1.00  0.00    -0.354 N 
ATOM     55  N   UNL A   1      42.356  29.491  29.901  1.00  0.00    -0.248 NA
ATOM     56  C   UNL A   1      40.602  31.024  30.091  1.00  0.00     0.031 C 
ATOM     57  C   UNL A   1      46.554  30.345  31.092  1.00  0.00     0.029 A 
ATOM     58  C   UNL A   1      45.241  30.104  30.717  1.00  0.00     0.049 A 
ATOM     59  H   UNL A   1      44.381  28.343  29.935  1.00  0.00     0.167 HD
ATOM     60  C   UNL A   1      42.850  30.687  30.402  1.00  0.00     0.074 A 
ATOM     61  C   UNL A   1      41.730  31.604  30.477  1.00  0.00     0.031 C 
ATOM     62  C   UNL A   1      44.115  30.999  30.768  1.00  0.00     0.037 A 
BRANCH  49  63
ATOM     63  C   UNL A   1      48.157  26.378  30.094  1.00  0.00     0.057 A 
ATOM     64  C   UNL A   1      49.129  26.517  29.096  1.00  0.00     0.134 A 
ATOM     65  C   UNL A   1      48.532  25.738  31.281  1.00  0.00     0.134 A 
ATOM     66  F   UNL A   1      48.824  27.102  27.927  1.00  0.00    -0.206 F 
ATOM     67  C   UNL A   1      50.420  26.012  29.261  1.00  0.00     0.040 A 
ATOM     68  C   UNL A   1      49.826  25.248  31.467  1.00  0.00     0.040 A 
ATOM     69  F   UNL A   1      47.647  25.572  32.276  1.00  0.00    -0.206 F 
ATOM     70  C   UNL A   1      50.772  25.380  30.452  1.00  0.00     0.006 A 
ENDBRANCH  49  63
BRANCH  50  71
ATOM     71  C   UNL A   1      38.626  29.141  29.048  1.00  0.00     0.057 A 
ATOM     72  C   UNL A   1      38.122  29.600  27.825  1.00  0.00     0.134 A 
ATOM     73  C   UNL A   1      37.746  29.081  30.132  1.00  0.00     0.134 A 
ATOM     74  F   UNL A   1      38.926  29.693  26.756  1.00  0.00    -0.206 F 
ATOM     75  C   UNL A   1      36.793  30.001  27.690  1.00  0.00     0.040 A 
ATOM     76  C   UNL A   1      36.409  29.464  30.006  1.00  0.00     0.040 A 
ATOM     77  F   UNL A   1      38.171  28.641  31.325  1.00  0.00    -0.206 F 
ATOM     78  C   UNL A   1      35.932  29.930  28.782  1.00  0.00     0.006 A 
ENDBRANCH  50  71
BRANCH  62  79
ATOM     79  C   UNL A   1      44.359  32.393  31.255  1.00  0.00     0.057 A 
ATOM     80  C   UNL A   1      44.273  32.719  32.612  1.00  0.00     0.134 A 
ATOM     81  C   UNL A   1      44.723  33.406  30.360  1.00  0.00     0.134 A 
ATOM     82  F   UNL A   1      43.915  31.791  33.513  1.00  0.00    -0.206 F 
ATOM     83  C   UNL A   1      44.531  34.013  33.065  1.00  0.00     0.040 A 
ATOM     84  C   UNL A   1      44.998  34.700  30.803  1.00  0.00     0.040 A 
ATOM     85  F   UNL A   1      44.825  33.151  29.048  1.00  0.00    -0.206 F 
ATOM     86  C   UNL A   1      44.900  35.006  32.159  1.00  0.00     0.006 A 
ENDBRANCH  62  79
ENDBRANCH  36  37
ENDBRANCH  28  31
ENDBRANCH  26  27
ENDBRANCH  25  26
ENDBRANCH   1  25
TORSDOF 13
ENDMDL
MODEL 3
REMARK VINA RESULT:     -12.5      4.817      9.933
REMARK SMILES C[C@H]1[C@@H](C(=O)NCCCCNC(=O)c2ccc(-c3c4nc(c(-c5c(F)cccc5F)c5ccc([nH]5)c(-c5c(F)cccc5F)c5nc(c(-c6c(F)cccc6F)c6ccc3[nH]6)C=C5)C=C4)cc2)CCN1C(=O)c1cc2cc(F)ccc2s1
REMARK SMILES IDX 8 1 7 2 6 3 4 4 5 5 3 7 1 8 2 9 70 10 68 11 69 12 71 13
REMARK SMILES IDX 72 14 73 15 74 16 82 17 75 18 81 19 76 20 80 21 77 22 79 23
REMARK SMILES IDX 78 24 9 25 10 26 11 27 12 28 13 30 14 31 15 32 67 33 16 34
REMARK SMILES IDX 66 35 17 36 18 37 19 38 60 39 20 40 65 41 59 42 61 43 21 44
REMARK SMILES IDX 64 45 58 46 57 47 22 49 48 50 31 51 47 52 32 53 35 54 46 55
REMARK SMILES IDX 62 56 33 57 34 58 45 60 63 61 36 62 23 63 24 64 29 65 25 66
REMARK SMILES IDX 26 67 28 68 30 69 27 70 49 71 50 72 55 73 51 74 52 75 54 76
REMARK SMILES IDX 56 77 53 78 37 79 38 80 43 81 39 82 40 83 42 84 44 85 41 86
REMARK H PARENT 6 6 11 29 61 48 35 59
REMARK Flexibility Score: inf
ROOT
ATOM      1  C   UNL A   1      31.884  30.183  26.670  1.00  0.00     0.023 C 
ENDROOT
BRANCH   1   2
ATOM      2  C   UNL A   1      33.184  29.592  26.120  1.00  0.00     0.116 C 
BRANCH   2   3
ATOM      3  N   UNL A   1      33.172  29.706  24.681  1.00  0.00    -0.356 N 
ATOM      4  C   UNL A   1      32.618  28.885  23.749  1.00  0.00     0.225 C 
ATOM      5  O   UNL A   1      33.007  29.050  22.590  1.00  0.00    -0.275 OA
ATOM      6  H   UNL A   1      33.632  30.498  24.321  1.00  0.00     0.163 HD
BRANCH   4   7
ATOM      7  C   UNL A   1      31.479  27.922  24.111  1.00  0.00     0.102 C 
ATOM      8  C   UNL A   1      32.845  26.136  25.507  1.00  0.00     0.032 C 
ATOM      9  C   UNL A   1      31.771  26.454  24.492  1.00  0.00     0.094 C 
ATOM     10  N   UNL A   1      31.920  25.729  23.229  1.00  0.00    -0.334 N 
ATOM     11  C   UNL A   1      30.641  27.680  22.838  1.00  0.00     0.037 C 
ATOM     12  C   UNL A   1      31.411  26.558  22.145  1.00  0.00     0.121 C 
BRANCH  10  13
ATOM     13  C   UNL A   1      31.573  24.378  23.218  1.00  0.00     0.264 C 
ATOM     14  O   UNL A   1      30.393  24.039  23.127  1.00  0.00    -0.268 OA
BRANCH  13  15
ATOM     15  C   UNL A   1      32.640  23.402  23.343  1.00  0.00     0.093 A 
ATOM     16  C   UNL A   1      33.979  23.637  23.109  1.00  0.00     0.034 A 
ATOM     17  S   UNL A   1      32.390  21.842  23.987  1.00  0.00    -0.130 S 
ATOM     18  C   UNL A   1      34.828  22.650  23.705  1.00  0.00    -0.004 A 
ATOM     19  C   UNL A   1      34.080  21.615  24.274  1.00  0.00     0.035 A 
ATOM     20  C   UNL A   1      36.234  22.634  23.856  1.00  0.00     0.048 A 
ATOM     21  C   UNL A   1      34.697  20.575  25.000  1.00  0.00     0.022 A 
ATOM     22  C   UNL A   1      36.830  21.636  24.622  1.00  0.00     0.123 A 
ATOM     23  C   UNL A   1      36.081  20.621  25.193  1.00  0.00     0.041 A 
ATOM     24  F   UNL A   1      38.152  21.680  24.835  1.00  0.00    -0.207 F 
ENDBRANCH  13  15
ENDBRANCH  10  13
ENDBRANCH   4   7
ENDBRANCH   2   3
ENDBRANCH   1   2
BRANCH   1  25
ATOM     25  C   UNL A   1      31.759  31.692  26.521  1.00  0.00     0.023 C 
BRANCH  25  26
ATOM     26  C   UNL A   1      32.840  32.468  27.252  1.00  0.00     0.116 C 
BRANCH  26  27
ATOM     27  N   UNL A   1      32.445  33.829  27.595  1.00  0.00    -0.352 N 
ATOM     28  C   UNL A   1      33.018  34.676  28.514  1.00  0.00     0.251 C 
ATOM     29  H   UNL A   1      31.668  34.188  27.108  1.00  0.00     0.163 HD
ATOM     30  O   UNL A   1      32.528  35.774  28.752  1.00  0.00    -0.269 OA
BRANCH  28  31
ATOM     31  C   UNL A   1      34.207  34.210  29.249  1.00  0.00     0.039 A 
ATOM     32  C   UNL A   1      34.028  33.413  30.382  1.00  0.00     0.014 A 
ATOM     33  C   UNL A   1      35.485  34.471  28.750  1.00  0.00     0.014 A 
ATOM     34  C   UNL A   1      35.136  32.799  30.964  1.00  0.00     0.010 A 
ATOM     35  C   UNL A   1      36.572  33.790  29.277  1.00  0.00     0.010 A 
ATOM     36  C   UNL A   1      36.407  32.944  30.384  1.00  0.00    -0.014 A 
BRANCH  36  37
ATOM     37  C   UNL A   1      37.588  32.226  30.916  1.00  0.00     0.031 A 
ATOM     38  C   UNL A   1      38.255  32.719  32.167  1.00  0.00     0.074 A 
ATOM     39  C   UNL A   1      38.115  31.199  30.222  1.00  0.00     0.049 A 
ATOM     40  N   UNL A   1      39.372  32.325  32.717  1.00  0.00    -0.248 NA
ATOM     41  C   UNL A   1      37.599  33.838  32.865  1.00  0.00     0.031 C 
ATOM     42  C   UNL A   1      37.600  30.671  28.955  1.00  0.00     0.029 A 
ATOM     43  N   UNL A   1      39.215  30.423  30.481  1.00  0.00    -0.354 N 
ATOM     44  C   UNL A   1      39.577  33.177  33.795  1.00  0.00     0.074 A 
ATOM     45  C   UNL A   1      38.488  34.129  33.801  1.00  0.00     0.031 C 
ATOM     46  C   UNL A   1      38.366  29.640  28.565  1.00  0.00     0.029 A 
ATOM     47  C   UNL A   1      39.441  29.453  29.534  1.00  0.00     0.049 A 
ATOM     48  H   UNL A   1      39.790  30.549  31.271  1.00  0.00     0.167 HD
ATOM     49  C   UNL A   1      40.575  33.154  34.709  1.00  0.00     0.037 A 
ATOM     50  C   UNL A   1      40.406  28.518  29.463  1.00  0.00     0.037 A 
ATOM     51  C   UNL A   1      41.614  32.163  34.745  1.00  0.00     0.049 A 
ATOM     52  C   UNL A   1      41.446  28.454  30.543  1.00  0.00     0.074 A 
ATOM     53  C   UNL A   1      42.624  32.003  35.678  1.00  0.00     0.029 A 
ATOM     54  N   UNL A   1      41.761  31.148  33.813  1.00  0.00    -0.354 N 
ATOM     55  N   UNL A   1      41.603  29.237  31.584  1.00  0.00    -0.248 NA
ATOM     56  C   UNL A   1      42.439  27.375  30.444  1.00  0.00     0.031 C 
ATOM     57  C   UNL A   1      43.389  30.892  35.303  1.00  0.00     0.029 A 
ATOM     58  C   UNL A   1      42.842  30.352  34.150  1.00  0.00     0.049 A 
ATOM     59  H   UNL A   1      41.181  31.013  33.028  1.00  0.00     0.167 HD
ATOM     60  C   UNL A   1      42.698  28.736  32.273  1.00  0.00     0.074 A 
ATOM     61  C   UNL A   1      43.160  27.575  31.539  1.00  0.00     0.031 C 
ATOM     62  C   UNL A   1      43.272  29.195  33.410  1.00  0.00     0.037 A 
BRANCH  49  63
ATOM     63  C   UNL A   1      40.569  34.231  35.750  1.00  0.00     0.057 A 
ATOM     64  C   UNL A   1      39.886  34.080  36.963  1.00  0.00     0.134 A 
ATOM     65  C   UNL A   1      41.252  35.435  35.536  1.00  0.00     0.134 A 
ATOM     66  F   UNL A   1      39.195  32.957  37.217  1.00  0.00    -0.206 F 
ATOM     67  C   UNL A   1      39.858  35.099  37.916  1.00  0.00     0.040 A 
ATOM     68  C   UNL A   1      41.250  36.453  36.491  1.00  0.00     0.040 A 
ATOM     69  F   UNL A   1      41.925  35.643  34.394  1.00  0.00    -0.206 F 
ATOM     70  C   UNL A   1      40.546  36.288  37.682  1.00  0.00     0.006 A 
ENDBRANCH  49  63
BRANCH  50  71
ATOM     71  C   UNL A   1      40.406  27.538  28.352  1.00  0.00     0.057 A 
ATOM     72  C   UNL A   1      41.150  27.778  27.190  1.00  0.00     0.134 A 
ATOM     73  C   UNL A   1      39.675  26.348  28.421  1.00  0.00     0.134 A 
ATOM     74  F   UNL A   1      41.857  28.910  27.064  1.00  0.00    -0.206 F 
ATOM     75  C   UNL A   1      41.154  26.875  26.128  1.00  0.00     0.040 A 
ATOM     76  C   UNL A   1      39.682  25.428  27.371  1.00  0.00     0.040 A 
ATOM     77  F   UNL A   1      38.951  26.061  29.512  1.00  0.00    -0.206 F 
ATOM     78  C   UNL A   1      40.421  25.693  26.218  1.00  0.00     0.006 A 
ENDBRANCH  50  71
BRANCH  62  79
ATOM     79  C   UNL A   1      44.440  28.426  33.942  1.00  0.00     0.057 A 
ATOM     80  C   UNL A   1      44.267  27.343  34.809  1.00  0.00     0.134 A 
ATOM     81  C   UNL A   1      45.744  28.749  33.547  1.00  0.00     0.134 A 
ATOM     82  F   UNL A   1      43.041  26.998  35.231  1.00  0.00    -0.206 F 
ATOM     83  C   UNL A   1      45.357  26.609  35.279  1.00  0.00     0.040 A 
ATOM     84  C   UNL A   1      46.840  28.013  33.999  1.00  0.00     0.040 A 
ATOM     85  F   UNL A   1      45.970  29.775  32.715  1.00  0.00    -0.206 F 
ATOM     86  C   UNL A   1      46.647  26.941  34.869  1.00  0.00     0.006 A 
ENDBRANCH  62  79
ENDBRANCH  36  37
ENDBRANCH  28  31
ENDBRANCH  26  27
ENDBRANCH  25  26
ENDBRANCH   1  25
TORSDOF 13
ENDMDL
