MODEL 1
REMARK VINA RESULT:     -12.2      0.000      0.000
REMARK SMILES Cc1cc(C)cc(-c2ccc([C@@H](C)C(=O)NCCCCNC(=O)c3ccc(-c4c5nc(c(-c6c(F)cccc6F)c6ccc([nH]6)c(-c6c(F)cccc6F)c6nc(c(-c7c(F)cccc7F)c7ccc4[nH]7)C=C6)C=C5)cc3)cc2F)c1
REMARK SMILES IDX 18 1 17 2 16 3 14 4 15 5 12 7 13 8 11 9 8 10 9 11 79 12
REMARK SMILES IDX 10 13 78 14 80 15 7 16 1 17 2 18 3 19 81 20 4 21 5 22 6 23
REMARK SMILES IDX 19 24 20 25 21 26 22 27 23 29 24 30 25 31 77 32 26 33 76 34
REMARK SMILES IDX 27 35 28 36 29 37 70 38 30 39 75 40 69 41 71 42 31 43 74 44
REMARK SMILES IDX 68 45 67 46 32 48 58 49 41 50 57 51 42 52 45 53 56 54 72 55
REMARK SMILES IDX 43 56 44 57 55 59 73 60 46 61 33 62 34 63 39 64 35 65 36 66
REMARK SMILES IDX 38 67 40 68 37 69 59 70 60 71 65 72 61 73 62 74 64 75 66 76
REMARK SMILES IDX 63 77 47 78 48 79 53 80 49 81 50 82 52 83 54 84 51 85
REMARK H PARENT 16 6 21 28 71 47 45 58
REMARK Flexibility Score: inf
ROOT
ATOM      1  C   UNL A   1      32.897  29.655  25.104  1.00  0.00     0.023 C 
ENDROOT
BRANCH   1   2
ATOM      2  C   UNL A   1      31.379  29.524  24.972  1.00  0.00     0.116 C 
BRANCH   2   3
ATOM      3  N   UNL A   1      30.916  29.845  23.638  1.00  0.00    -0.356 N 
ATOM      4  C   UNL A   1      30.325  29.079  22.679  1.00  0.00     0.227 C 
ATOM      5  O   UNL A   1      30.108  29.631  21.594  1.00  0.00    -0.274 OA
ATOM      6  H   UNL A   1      31.053  30.784  23.378  1.00  0.00     0.163 HD
BRANCH   4   7
ATOM      7  C   UNL A   1      29.924  27.609  22.886  1.00  0.00     0.105 C 
ATOM      8  C   UNL A   1      28.577  27.429  23.587  1.00  0.00     0.023 C 
BRANCH   7   9
ATOM      9  C   UNL A   1      31.064  26.737  23.386  1.00  0.00    -0.033 A 
ATOM     10  C   UNL A   1      33.078  24.916  24.309  1.00  0.00     0.017 A 
ATOM     11  C   UNL A   1      33.227  25.652  23.121  1.00  0.00     0.012 A 
ATOM     12  C   UNL A   1      31.906  25.156  25.043  1.00  0.00     0.131 A 
ATOM     13  C   UNL A   1      32.259  26.568  22.686  1.00  0.00     0.005 A 
ATOM     14  C   UNL A   1      30.911  26.028  24.587  1.00  0.00     0.044 A 
ATOM     15  F   UNL A   1      31.697  24.544  26.219  1.00  0.00    -0.206 F 
BRANCH  10  16
ATOM     16  C   UNL A   1      34.105  23.926  24.720  1.00  0.00    -0.015 A 
ATOM     17  C   UNL A   1      34.620  20.131  24.822  1.00  0.00     0.044 C 
ATOM     18  C   UNL A   1      34.880  21.605  24.937  1.00  0.00    -0.050 A 
ATOM     19  C   UNL A   1      36.121  22.058  25.393  1.00  0.00     0.006 A 
ATOM     20  C   UNL A   1      33.889  22.541  24.599  1.00  0.00     0.012 A 
ATOM     21  C   UNL A   1      36.374  23.425  25.522  1.00  0.00    -0.050 A 
ATOM     22  C   UNL A   1      37.717  23.899  25.994  1.00  0.00     0.044 C 
ATOM     23  C   UNL A   1      35.361  24.340  25.205  1.00  0.00     0.012 A 
ENDBRANCH  10  16
ENDBRANCH   7   9
ENDBRANCH   4   7
ENDBRANCH   2   3
ENDBRANCH   1   2
BRANCH   1  24
ATOM     24  C   UNL A   1      33.574  28.540  25.900  1.00  0.00     0.023 C 
BRANCH  24  25
ATOM     25  C   UNL A   1      33.587  28.731  27.413  1.00  0.00     0.116 C 
BRANCH  25  26
ATOM     26  N   UNL A   1      33.645  30.123  27.838  1.00  0.00    -0.352 N 
ATOM     27  C   UNL A   1      34.722  30.814  28.346  1.00  0.00     0.251 C 
ATOM     28  H   UNL A   1      32.808  30.634  27.751  1.00  0.00     0.163 HD
ATOM     29  O   UNL A   1      34.605  31.970  28.724  1.00  0.00    -0.269 OA
BRANCH  27  30
ATOM     30  C   UNL A   1      36.017  30.114  28.478  1.00  0.00     0.039 A 
ATOM     31  C   UNL A   1      36.910  30.141  27.404  1.00  0.00     0.014 A 
ATOM     32  C   UNL A   1      36.376  29.511  29.686  1.00  0.00     0.014 A 
ATOM     33  C   UNL A   1      38.204  29.647  27.574  1.00  0.00     0.010 A 
ATOM     34  C   UNL A   1      37.685  29.080  29.874  1.00  0.00     0.010 A 
ATOM     35  C   UNL A   1      38.616  29.162  28.826  1.00  0.00    -0.014 A 
BRANCH  35  36
ATOM     36  C   UNL A   1      40.025  28.774  29.080  1.00  0.00     0.031 A 
ATOM     37  C   UNL A   1      40.979  29.757  29.694  1.00  0.00     0.074 A 
ATOM     38  C   UNL A   1      40.466  27.568  28.670  1.00  0.00     0.049 A 
ATOM     39  N   UNL A   1      42.267  29.646  29.884  1.00  0.00    -0.248 NA
ATOM     40  C   UNL A   1      40.414  31.046  30.125  1.00  0.00     0.031 C 
ATOM     41  C   UNL A   1      39.648  26.546  28.013  1.00  0.00     0.029 A 
ATOM     42  N   UNL A   1      41.716  27.005  28.729  1.00  0.00    -0.354 N 
ATOM     43  C   UNL A   1      42.672  30.854  30.434  1.00  0.00     0.074 A 
ATOM     44  C   UNL A   1      41.501  31.698  30.513  1.00  0.00     0.031 C 
ATOM     45  C   UNL A   1      40.413  25.473  27.751  1.00  0.00     0.029 A 
ATOM     46  C   UNL A   1      41.781  25.746  28.182  1.00  0.00     0.049 A 
ATOM     47  H   UNL A   1      42.494  27.460  29.125  1.00  0.00     0.167 HD
ATOM     48  C   UNL A   1      43.906  31.216  30.856  1.00  0.00     0.037 A 
ATOM     49  C   UNL A   1      42.824  24.909  28.037  1.00  0.00     0.037 A 
ATOM     50  C   UNL A   1      45.060  30.359  30.817  1.00  0.00     0.049 A 
ATOM     51  C   UNL A   1      44.182  25.331  28.521  1.00  0.00     0.074 A 
ATOM     52  C   UNL A   1      46.334  30.612  31.295  1.00  0.00     0.029 A 
ATOM     53  N   UNL A   1      45.079  29.085  30.274  1.00  0.00    -0.354 N 
ATOM     54  N   UNL A   1      44.538  26.456  29.091  1.00  0.00    -0.248 NA
ATOM     55  C   UNL A   1      45.283  24.373  28.341  1.00  0.00     0.031 C 
ATOM     56  C   UNL A   1      47.134  29.501  31.010  1.00  0.00     0.029 A 
ATOM     57  C   UNL A   1      46.348  28.544  30.387  1.00  0.00     0.049 A 
ATOM     58  H   UNL A   1      44.305  28.631  29.868  1.00  0.00     0.167 HD
ATOM     59  C   UNL A   1      45.897  26.337  29.352  1.00  0.00     0.074 A 
ATOM     60  C   UNL A   1      46.301  25.026  28.888  1.00  0.00     0.031 C 
ATOM     61  C   UNL A   1      46.733  27.236  29.924  1.00  0.00     0.037 A 
BRANCH  48  62
ATOM     62  C   UNL A   1      44.072  32.597  31.415  1.00  0.00     0.057 A 
ATOM     63  C   UNL A   1      44.431  33.666  30.586  1.00  0.00     0.134 A 
ATOM     64  C   UNL A   1      43.935  32.855  32.784  1.00  0.00     0.134 A 
ATOM     65  F   UNL A   1      44.583  33.483  29.265  1.00  0.00    -0.206 F 
ATOM     66  C   UNL A   1      44.658  34.942  31.100  1.00  0.00     0.040 A 
ATOM     67  C   UNL A   1      44.137  34.133  33.308  1.00  0.00     0.040 A 
ATOM     68  F   UNL A   1      43.581  31.874  33.629  1.00  0.00    -0.206 F 
ATOM     69  C   UNL A   1      44.508  35.179  32.465  1.00  0.00     0.006 A 
ENDBRANCH  48  62
BRANCH  49  70
ATOM     70  C   UNL A   1      42.617  23.574  27.423  1.00  0.00     0.057 A 
ATOM     71  C   UNL A   1      42.336  22.445  28.201  1.00  0.00     0.134 A 
ATOM     72  C   UNL A   1      42.720  23.398  26.039  1.00  0.00     0.134 A 
ATOM     73  F   UNL A   1      42.233  22.550  29.534  1.00  0.00    -0.206 F 
ATOM     74  C   UNL A   1      42.179  21.183  27.625  1.00  0.00     0.040 A 
ATOM     75  C   UNL A   1      42.546  22.146  25.447  1.00  0.00     0.040 A 
ATOM     76  F   UNL A   1      42.970  24.447  25.242  1.00  0.00    -0.206 F 
ATOM     77  C   UNL A   1      42.281  21.032  26.243  1.00  0.00     0.006 A 
ENDBRANCH  49  70
BRANCH  61  78
ATOM     78  C   UNL A   1      48.167  26.839  30.096  1.00  0.00     0.057 A 
ATOM     79  C   UNL A   1      49.119  27.160  29.121  1.00  0.00     0.134 A 
ATOM     80  C   UNL A   1      48.584  26.063  31.183  1.00  0.00     0.134 A 
ATOM     81  F   UNL A   1      48.778  27.894  28.051  1.00  0.00    -0.206 F 
ATOM     82  C   UNL A   1      50.435  26.707  29.212  1.00  0.00     0.040 A 
ATOM     83  C   UNL A   1      49.903  25.619  31.295  1.00  0.00     0.040 A 
ATOM     84  F   UNL A   1      47.719  25.732  32.154  1.00  0.00    -0.206 F 
ATOM     85  C   UNL A   1      50.829  25.932  30.302  1.00  0.00     0.006 A 
ENDBRANCH  61  78
ENDBRANCH  35  36
ENDBRANCH  27  30
ENDBRANCH  25  26
ENDBRANCH  24  25
ENDBRANCH   1  24
TORSDOF 13
ENDMDL
MODEL 2
REMARK VINA RESULT:     -11.9      3.854      7.188
REMARK SMILES Cc1cc(C)cc(-c2ccc([C@@H](C)C(=O)NCCCCNC(=O)c3ccc(-c4c5nc(c(-c6c(F)cccc6F)c6ccc([nH]6)c(-c6c(F)cccc6F)c6nc(c(-c7c(F)cccc7F)c7ccc4[nH]7)C=C6)C=C5)cc3)cc2F)c1
REMARK SMILES IDX 18 1 17 2 16 3 14 4 15 5 12 7 13 8 11 9 8 10 9 11 79 12
REMARK SMILES IDX 10 13 78 14 80 15 7 16 1 17 2 18 3 19 81 20 4 21 5 22 6 23
REMARK SMILES IDX 19 24 20 25 21 26 22 27 23 29 24 30 25 31 77 32 26 33 76 34
REMARK SMILES IDX 27 35 28 36 29 37 70 38 30 39 75 40 69 41 71 42 31 43 74 44
REMARK SMILES IDX 68 45 67 46 32 48 58 49 41 50 57 51 42 52 45 53 56 54 72 55
REMARK SMILES IDX 43 56 44 57 55 59 73 60 46 61 33 62 34 63 39 64 35 65 36 66
REMARK SMILES IDX 38 67 40 68 37 69 59 70 60 71 65 72 61 73 62 74 64 75 66 76
REMARK SMILES IDX 63 77 47 78 48 79 53 80 49 81 50 82 52 83 54 84 51 85
REMARK H PARENT 16 6 21 28 71 47 45 58
REMARK Flexibility Score: inf
ROOT
ATOM      1  C   UNL A   1      34.028  35.507  28.950  1.00  0.00     0.023 C 
ENDROOT
BRANCH   1   2
ATOM      2  C   UNL A   1      33.182  35.286  30.204  1.00  0.00     0.116 C 
BRANCH   2   3
ATOM      3  N   UNL A   1      33.800  35.847  31.387  1.00  0.00    -0.356 N 
ATOM      4  C   UNL A   1      34.722  35.339  32.250  1.00  0.00     0.227 C 
ATOM      5  O   UNL A   1      35.006  36.043  33.226  1.00  0.00    -0.274 OA
ATOM      6  H   UNL A   1      33.500  36.758  31.606  1.00  0.00     0.163 HD
BRANCH   4   7
ATOM      7  C   UNL A   1      35.408  33.976  32.063  1.00  0.00     0.105 C 
ATOM      8  C   UNL A   1      35.253  33.036  33.260  1.00  0.00     0.023 C 
BRANCH   7   9
ATOM      9  C   UNL A   1      36.802  34.078  31.465  1.00  0.00    -0.033 A 
ATOM     10  C   UNL A   1      39.492  34.106  30.473  1.00  0.00     0.017 A 
ATOM     11  C   UNL A   1      38.398  33.785  29.650  1.00  0.00     0.012 A 
ATOM     12  C   UNL A   1      39.189  34.456  31.798  1.00  0.00     0.131 A 
ATOM     13  C   UNL A   1      37.080  33.804  30.125  1.00  0.00     0.005 A 
ATOM     14  C   UNL A   1      37.881  34.425  32.292  1.00  0.00     0.044 A 
ATOM     15  F   UNL A   1      40.159  34.833  32.645  1.00  0.00    -0.206 F 
BRANCH  10  16
ATOM     16  C   UNL A   1      40.879  34.037  29.948  1.00  0.00    -0.015 A 
ATOM     17  C   UNL A   1      43.309  36.129  27.852  1.00  0.00     0.044 C 
ATOM     18  C   UNL A   1      42.755  35.029  28.709  1.00  0.00    -0.050 A 
ATOM     19  C   UNL A   1      43.564  33.945  29.060  1.00  0.00     0.006 A 
ATOM     20  C   UNL A   1      41.426  35.068  29.161  1.00  0.00     0.012 A 
ATOM     21  C   UNL A   1      43.059  32.905  29.842  1.00  0.00    -0.050 A 
ATOM     22  C   UNL A   1      43.944  31.757  30.228  1.00  0.00     0.044 C 
ATOM     23  C   UNL A   1      41.722  32.952  30.259  1.00  0.00     0.012 A 
ENDBRANCH  10  16
ENDBRANCH   7   9
ENDBRANCH   4   7
ENDBRANCH   2   3
ENDBRANCH   1   2
BRANCH   1  24
ATOM     24  C   UNL A   1      34.063  34.327  27.979  1.00  0.00     0.023 C 
BRANCH  24  25
ATOM     25  C   UNL A   1      34.045  32.947  28.626  1.00  0.00     0.116 C 
BRANCH  25  26
ATOM     26  N   UNL A   1      33.683  31.867  27.718  1.00  0.00    -0.352 N 
ATOM     27  C   UNL A   1      34.370  30.700  27.465  1.00  0.00     0.251 C 
ATOM     28  H   UNL A   1      32.841  31.987  27.222  1.00  0.00     0.163 HD
ATOM     29  O   UNL A   1      33.975  29.909  26.621  1.00  0.00    -0.269 OA
BRANCH  27  30
ATOM     30  C   UNL A   1      35.629  30.444  28.195  1.00  0.00     0.039 A 
ATOM     31  C   UNL A   1      35.579  29.731  29.396  1.00  0.00     0.014 A 
ATOM     32  C   UNL A   1      36.856  30.833  27.650  1.00  0.00     0.014 A 
ATOM     33  C   UNL A   1      36.767  29.323  30.002  1.00  0.00     0.010 A 
ATOM     34  C   UNL A   1      38.036  30.368  28.219  1.00  0.00     0.010 A 
ATOM     35  C   UNL A   1      38.002  29.593  29.389  1.00  0.00    -0.014 A 
BRANCH  35  36
ATOM     36  C   UNL A   1      39.269  29.041  29.927  1.00  0.00     0.031 A 
ATOM     37  C   UNL A   1      39.912  29.662  31.133  1.00  0.00     0.074 A 
ATOM     38  C   UNL A   1      39.889  28.040  29.270  1.00  0.00     0.049 A 
ATOM     39  N   UNL A   1      41.071  29.398  31.677  1.00  0.00    -0.248 NA
ATOM     40  C   UNL A   1      39.164  30.741  31.798  1.00  0.00     0.031 C 
ATOM     41  C   UNL A   1      39.392  27.388  28.056  1.00  0.00     0.029 A 
ATOM     42  N   UNL A   1      41.080  27.407  29.521  1.00  0.00    -0.354 N 
ATOM     43  C   UNL A   1      41.203  30.290  32.732  1.00  0.00     0.074 A 
ATOM     44  C   UNL A   1      40.024  31.128  32.729  1.00  0.00     0.031 C 
ATOM     45  C   UNL A   1      40.260  26.434  27.682  1.00  0.00     0.029 A 
ATOM     46  C   UNL A   1      41.392  26.433  28.604  1.00  0.00     0.049 A 
ATOM     47  H   UNL A   1      41.658  27.630  30.287  1.00  0.00     0.167 HD
ATOM     48  C   UNL A   1      42.207  30.385  33.633  1.00  0.00     0.037 A 
ATOM     49  C   UNL A   1      42.472  25.635  28.509  1.00  0.00     0.037 A 
ATOM     50  C   UNL A   1      43.357  29.522  33.660  1.00  0.00     0.049 A 
ATOM     51  C   UNL A   1      43.569  25.754  29.528  1.00  0.00     0.074 A 
ATOM     52  C   UNL A   1      44.387  29.492  34.584  1.00  0.00     0.029 A 
ATOM     53  N   UNL A   1      43.626  28.536  32.725  1.00  0.00    -0.354 N 
ATOM     54  N   UNL A   1      43.654  26.565  30.554  1.00  0.00    -0.248 NA
ATOM     55  C   UNL A   1      44.721  24.853  29.378  1.00  0.00     0.031 C 
ATOM     56  C   UNL A   1      45.298  28.508  34.188  1.00  0.00     0.029 A 
ATOM     57  C   UNL A   1      44.816  27.902  33.039  1.00  0.00     0.049 A 
ATOM     58  H   UNL A   1      43.056  28.317  31.953  1.00  0.00     0.167 HD
ATOM     59  C   UNL A   1      44.856  26.263  31.180  1.00  0.00     0.074 A 
ATOM     60  C   UNL A   1      45.464  25.186  30.425  1.00  0.00     0.031 C 
ATOM     61  C   UNL A   1      45.405  26.830  32.280  1.00  0.00     0.037 A 
BRANCH  48  62
ATOM     62  C   UNL A   1      42.102  31.452  34.682  1.00  0.00     0.057 A 
ATOM     63  C   UNL A   1      42.621  32.731  34.455  1.00  0.00     0.134 A 
ATOM     64  C   UNL A   1      41.540  31.192  35.937  1.00  0.00     0.134 A 
ATOM     65  F   UNL A   1      43.177  33.042  33.274  1.00  0.00    -0.206 F 
ATOM     66  C   UNL A   1      42.594  33.714  35.445  1.00  0.00     0.040 A 
ATOM     67  C   UNL A   1      41.486  32.173  36.928  1.00  0.00     0.040 A 
ATOM     68  F   UNL A   1      41.015  29.988  36.212  1.00  0.00    -0.206 F 
ATOM     69  C   UNL A   1      42.022  33.436  36.685  1.00  0.00     0.006 A 
ENDBRANCH  48  62
BRANCH  49  70
ATOM     70  C   UNL A   1      42.554  24.634  27.417  1.00  0.00     0.057 A 
ATOM     71  C   UNL A   1      42.113  23.318  27.593  1.00  0.00     0.134 A 
ATOM     72  C   UNL A   1      43.100  24.973  26.173  1.00  0.00     0.134 A 
ATOM     73  F   UNL A   1      41.588  22.931  28.765  1.00  0.00    -0.206 F 
ATOM     74  C   UNL A   1      42.226  22.368  26.577  1.00  0.00     0.040 A 
ATOM     75  C   UNL A   1      43.201  24.040  25.142  1.00  0.00     0.040 A 
ATOM     76  F   UNL A   1      43.522  26.224  25.941  1.00  0.00    -0.206 F 
ATOM     77  C   UNL A   1      42.769  22.730  25.345  1.00  0.00     0.006 A 
ENDBRANCH  49  70
BRANCH  61  78
ATOM     78  C   UNL A   1      46.724  26.297  32.751  1.00  0.00     0.057 A 
ATOM     79  C   UNL A   1      47.924  26.813  32.247  1.00  0.00     0.134 A 
ATOM     80  C   UNL A   1      46.800  25.214  33.634  1.00  0.00     0.134 A 
ATOM     81  F   UNL A   1      47.915  27.845  31.389  1.00  0.00    -0.206 F 
ATOM     82  C   UNL A   1      49.156  26.258  32.592  1.00  0.00     0.040 A 
ATOM     83  C   UNL A   1      48.028  24.662  34.002  1.00  0.00     0.040 A 
ATOM     84  F   UNL A   1      45.685  24.684  34.158  1.00  0.00    -0.206 F 
ATOM     85  C   UNL A   1      49.210  25.178  33.472  1.00  0.00     0.006 A 
ENDBRANCH  61  78
ENDBRANCH  35  36
ENDBRANCH  27  30
ENDBRANCH  25  26
ENDBRANCH  24  25
ENDBRANCH   1  24
TORSDOF 13
ENDMDL
MODEL 3
REMARK VINA RESULT:     -11.8      3.392      8.223
REMARK SMILES Cc1cc(C)cc(-c2ccc([C@@H](C)C(=O)NCCCCNC(=O)c3ccc(-c4c5nc(c(-c6c(F)cccc6F)c6ccc([nH]6)c(-c6c(F)cccc6F)c6nc(c(-c7c(F)cccc7F)c7ccc4[nH]7)C=C6)C=C5)cc3)cc2F)c1
REMARK SMILES IDX 18 1 17 2 16 3 14 4 15 5 12 7 13 8 11 9 8 10 9 11 79 12
REMARK SMILES IDX 10 13 78 14 80 15 7 16 1 17 2 18 3 19 81 20 4 21 5 22 6 23
REMARK SMILES IDX 19 24 20 25 21 26 22 27 23 29 24 30 25 31 77 32 26 33 76 34
REMARK SMILES IDX 27 35 28 36 29 37 70 38 30 39 75 40 69 41 71 42 31 43 74 44
REMARK SMILES IDX 68 45 67 46 32 48 58 49 41 50 57 51 42 52 45 53 56 54 72 55
REMARK SMILES IDX 43 56 44 57 55 59 73 60 46 61 33 62 34 63 39 64 35 65 36 66
REMARK SMILES IDX 38 67 40 68 37 69 59 70 60 71 65 72 61 73 62 74 64 75 66 76
REMARK SMILES IDX 63 77 47 78 48 79 53 80 49 81 50 82 52 83 54 84 51 85
REMARK H PARENT 16 6 21 28 71 47 45 58
REMARK Flexibility Score: inf
ROOT
ATOM      1  C   UNL A   1      35.696  21.770  26.122  1.00  0.00     0.023 C 
ENDROOT
BRANCH   1   2
ATOM      2  C   UNL A   1      35.246  20.883  24.961  1.00  0.00     0.116 C 
BRANCH   2   3
ATOM      3  N   UNL A   1      34.342  19.837  25.390  1.00  0.00    -0.356 N 
ATOM      4  C   UNL A   1      33.009  19.653  25.177  1.00  0.00     0.227 C 
ATOM      5  O   UNL A   1      32.492  18.683  25.744  1.00  0.00    -0.274 OA
ATOM      6  H   UNL A   1      34.766  19.134  25.932  1.00  0.00     0.163 HD
BRANCH   4   7
ATOM      7  C   UNL A   1      32.152  20.565  24.284  1.00  0.00     0.105 C 
ATOM      8  C   UNL A   1      32.186  20.189  22.803  1.00  0.00     0.023 C 
BRANCH   7   9
ATOM      9  C   UNL A   1      32.306  22.043  24.607  1.00  0.00    -0.033 A 
ATOM     10  C   UNL A   1      32.444  24.871  25.058  1.00  0.00     0.017 A 
ATOM     11  C   UNL A   1      31.999  23.979  26.049  1.00  0.00     0.012 A 
ATOM     12  C   UNL A   1      32.861  24.294  23.848  1.00  0.00     0.131 A 
ATOM     13  C   UNL A   1      31.963  22.594  25.842  1.00  0.00     0.005 A 
ATOM     14  C   UNL A   1      32.776  22.917  23.616  1.00  0.00     0.044 A 
ATOM     15  F   UNL A   1      33.355  25.056  22.860  1.00  0.00    -0.206 F 
BRANCH  10  16
ATOM     16  C   UNL A   1      32.433  26.336  25.297  1.00  0.00    -0.015 A 
ATOM     17  C   UNL A   1      34.410  28.991  27.224  1.00  0.00     0.044 C 
ATOM     18  C   UNL A   1      33.403  28.351  26.313  1.00  0.00    -0.050 A 
ATOM     19  C   UNL A   1      32.469  29.144  25.642  1.00  0.00     0.006 A 
ATOM     20  C   UNL A   1      33.381  26.959  26.129  1.00  0.00     0.012 A 
ATOM     21  C   UNL A   1      31.515  28.563  24.805  1.00  0.00    -0.050 A 
ATOM     22  C   UNL A   1      30.529  29.427  24.076  1.00  0.00     0.044 C 
ATOM     23  C   UNL A   1      31.494  27.169  24.658  1.00  0.00     0.012 A 
ENDBRANCH  10  16
ENDBRANCH   7   9
ENDBRANCH   4   7
ENDBRANCH   2   3
ENDBRANCH   1   2
BRANCH   1  24
ATOM     24  C   UNL A   1      35.937  23.234  25.760  1.00  0.00     0.023 C 
BRANCH  24  25
ATOM     25  C   UNL A   1      37.231  23.517  25.003  1.00  0.00     0.116 C 
BRANCH  25  26
ATOM     26  N   UNL A   1      38.340  22.649  25.375  1.00  0.00    -0.352 N 
ATOM     27  C   UNL A   1      39.409  22.936  26.195  1.00  0.00     0.251 C 
ATOM     28  H   UNL A   1      38.324  21.742  24.991  1.00  0.00     0.163 HD
ATOM     29  O   UNL A   1      40.306  22.124  26.365  1.00  0.00    -0.269 OA
BRANCH  27  30
ATOM     30  C   UNL A   1      39.482  24.270  26.826  1.00  0.00     0.039 A 
ATOM     31  C   UNL A   1      38.903  24.453  28.084  1.00  0.00     0.014 A 
ATOM     32  C   UNL A   1      40.193  25.306  26.213  1.00  0.00     0.014 A 
ATOM     33  C   UNL A   1      39.120  25.647  28.772  1.00  0.00     0.010 A 
ATOM     34  C   UNL A   1      40.463  26.468  26.927  1.00  0.00     0.010 A 
ATOM     35  C   UNL A   1      39.945  26.641  28.221  1.00  0.00    -0.014 A 
BRANCH  35  36
ATOM     36  C   UNL A   1      40.319  27.852  28.992  1.00  0.00     0.031 A 
ATOM     37  C   UNL A   1      41.634  27.911  29.713  1.00  0.00     0.074 A 
ATOM     38  C   UNL A   1      39.431  28.858  29.119  1.00  0.00     0.049 A 
ATOM     39  N   UNL A   1      42.086  28.826  30.529  1.00  0.00    -0.248 NA
ATOM     40  C   UNL A   1      42.550  26.776  29.512  1.00  0.00     0.031 C 
ATOM     41  C   UNL A   1      38.101  28.895  28.509  1.00  0.00     0.029 A 
ATOM     42  N   UNL A   1      39.510  30.037  29.817  1.00  0.00    -0.354 N 
ATOM     43  C   UNL A   1      43.326  28.371  30.957  1.00  0.00     0.074 A 
ATOM     44  C   UNL A   1      43.539  27.080  30.341  1.00  0.00     0.031 C 
ATOM     45  C   UNL A   1      37.497  30.048  28.843  1.00  0.00     0.029 A 
ATOM     46  C   UNL A   1      38.379  30.811  29.721  1.00  0.00     0.049 A 
ATOM     47  H   UNL A   1      40.301  30.303  30.340  1.00  0.00     0.167 HD
ATOM     48  C   UNL A   1      44.213  28.986  31.772  1.00  0.00     0.037 A 
ATOM     49  C   UNL A   1      38.081  31.998  30.281  1.00  0.00     0.037 A 
ATOM     50  C   UNL A   1      44.017  30.289  32.348  1.00  0.00     0.049 A 
ATOM     51  C   UNL A   1      39.088  32.664  31.175  1.00  0.00     0.074 A 
ATOM     52  C   UNL A   1      44.896  31.026  33.123  1.00  0.00     0.029 A 
ATOM     53  N   UNL A   1      42.867  31.048  32.209  1.00  0.00    -0.354 N 
ATOM     54  N   UNL A   1      40.280  32.247  31.526  1.00  0.00    -0.248 NA
ATOM     55  C   UNL A   1      38.711  33.962  31.755  1.00  0.00     0.031 C 
ATOM     56  C   UNL A   1      44.263  32.220  33.481  1.00  0.00     0.029 A 
ATOM     57  C   UNL A   1      43.005  32.241  32.900  1.00  0.00     0.049 A 
ATOM     58  H   UNL A   1      42.071  30.781  31.696  1.00  0.00     0.167 HD
ATOM     59  C   UNL A   1      40.801  33.235  32.351  1.00  0.00     0.074 A 
ATOM     60  C   UNL A   1      39.801  34.278  32.442  1.00  0.00     0.031 C 
ATOM     61  C   UNL A   1      42.001  33.269  32.978  1.00  0.00     0.037 A 
BRANCH  48  62
ATOM     62  C   UNL A   1      45.492  28.264  32.078  1.00  0.00     0.057 A 
ATOM     63  C   UNL A   1      46.605  28.396  31.241  1.00  0.00     0.134 A 
ATOM     64  C   UNL A   1      45.598  27.393  33.168  1.00  0.00     0.134 A 
ATOM     65  F   UNL A   1      46.566  29.212  30.177  1.00  0.00    -0.206 F 
ATOM     66  C   UNL A   1      47.779  27.678  31.473  1.00  0.00     0.040 A 
ATOM     67  C   UNL A   1      46.774  26.686  33.424  1.00  0.00     0.040 A 
ATOM     68  F   UNL A   1      44.568  27.233  34.014  1.00  0.00    -0.206 F 
ATOM     69  C   UNL A   1      47.866  26.822  32.569  1.00  0.00     0.006 A 
ENDBRANCH  48  62
BRANCH  49  70
ATOM     70  C   UNL A   1      36.777  32.643  29.991  1.00  0.00     0.057 A 
ATOM     71  C   UNL A   1      35.638  32.372  30.757  1.00  0.00     0.134 A 
ATOM     72  C   UNL A   1      36.640  33.531  28.918  1.00  0.00     0.134 A 
ATOM     73  F   UNL A   1      35.705  31.523  31.793  1.00  0.00    -0.206 F 
ATOM     74  C   UNL A   1      34.403  32.950  30.459  1.00  0.00     0.040 A 
ATOM     75  C   UNL A   1      35.417  34.132  28.620  1.00  0.00     0.040 A 
ATOM     76  F   UNL A   1      37.701  33.842  28.160  1.00  0.00    -0.206 F 
ATOM     77  C   UNL A   1      34.291  33.836  29.388  1.00  0.00     0.006 A 
ENDBRANCH  49  70
BRANCH  61  78
ATOM     78  C   UNL A   1      42.315  34.475  33.810  1.00  0.00     0.057 A 
ATOM     79  C   UNL A   1      41.990  34.508  35.172  1.00  0.00     0.134 A 
ATOM     80  C   UNL A   1      42.856  35.634  33.242  1.00  0.00     0.134 A 
ATOM     81  F   UNL A   1      41.460  33.431  35.771  1.00  0.00    -0.206 F 
ATOM     82  C   UNL A   1      42.176  35.659  35.937  1.00  0.00     0.040 A 
ATOM     83  C   UNL A   1      43.065  36.786  34.001  1.00  0.00     0.040 A 
ATOM     84  F   UNL A   1      43.197  35.660  31.944  1.00  0.00    -0.206 F 
ATOM     85  C   UNL A   1      42.714  36.804  35.350  1.00  0.00     0.006 A 
ENDBRANCH  61  78
ENDBRANCH  35  36
ENDBRANCH  27  30
ENDBRANCH  25  26
ENDBRANCH  24  25
ENDBRANCH   1  24
TORSDOF 13
ENDMDL
