MODEL 1
REMARK VINA RESULT:     -12.8      0.000      0.000
REMARK SMILES C[C@@H](C(=O)NCCCCNC(=O)c1ccc(-c2c3nc(c(-c4c(F)cccc4F)c4ccc([nH]4)c(-c4c(F)cccc4F)c4nc(c(-c5c(F)cccc5F)c5ccc2[nH]5)C=C4)C=C3)cc1)c1ccc2c3cc(Cl)ccc3n(C(=O)c3cocn3)c2c1
REMARK SMILES IDX 7 1 6 2 5 3 3 4 4 5 2 7 1 8 67 9 68 10 87 11 69 12 86 13
REMARK SMILES IDX 70 14 78 15 71 16 77 17 72 18 76 19 73 20 75 21 74 22 79 23
REMARK SMILES IDX 80 24 81 25 82 26 85 27 83 28 84 29 8 30 9 31 10 32 11 33
REMARK SMILES IDX 12 35 13 36 14 37 66 38 15 39 65 40 16 41 17 42 18 43 59 44
REMARK SMILES IDX 19 45 64 46 58 47 60 48 20 49 63 50 57 51 56 52 21 54 47 55
REMARK SMILES IDX 30 56 46 57 31 58 34 59 45 60 61 61 32 62 33 63 44 65 62 66
REMARK SMILES IDX 35 67 22 68 23 69 28 70 24 71 25 72 27 73 29 74 26 75 48 76
REMARK SMILES IDX 49 77 54 78 50 79 51 80 53 81 55 82 52 83 36 84 37 85 42 86
REMARK SMILES IDX 38 87 39 88 41 89 43 90 40 91
REMARK H PARENT 5 6 10 34 60 53 34 64
REMARK Flexibility Score: inf
ROOT
ATOM      1  C   UNL A   1      31.916  29.412  27.245  1.00  0.00     0.023 C 
ENDROOT
BRANCH   1   2
ATOM      2  C   UNL A   1      31.796  28.328  26.168  1.00  0.00     0.116 C 
BRANCH   2   3
ATOM      3  N   UNL A   1      31.049  27.188  26.662  1.00  0.00    -0.356 N 
ATOM      4  C   UNL A   1      30.626  26.069  25.999  1.00  0.00     0.227 C 
ATOM      5  O   UNL A   1      29.771  25.389  26.568  1.00  0.00    -0.274 OA
ATOM      6  H   UNL A   1      30.812  27.225  27.617  1.00  0.00     0.163 HD
BRANCH   4   7
ATOM      7  C   UNL A   1      31.232  25.722  24.624  1.00  0.00     0.105 C 
ATOM      8  C   UNL A   1      30.176  24.954  23.811  1.00  0.00     0.023 C 
BRANCH   7   9
ATOM      9  C   UNL A   1      32.567  24.961  24.685  1.00  0.00    -0.034 A 
ATOM     10  C   UNL A   1      33.778  25.602  24.964  1.00  0.00     0.005 A 
ATOM     11  C   UNL A   1      32.604  23.584  24.407  1.00  0.00     0.032 A 
ATOM     12  C   UNL A   1      34.969  24.881  25.126  1.00  0.00     0.011 A 
ATOM     13  C   UNL A   1      33.804  22.861  24.537  1.00  0.00     0.058 A 
ATOM     14  C   UNL A   1      34.972  23.482  24.954  1.00  0.00     0.008 A 
ATOM     15  N   UNL A   1      34.060  21.498  24.354  1.00  0.00    -0.274 N 
ATOM     16  C   UNL A   1      35.952  22.465  25.122  1.00  0.00     0.009 A 
ATOM     17  C   UNL A   1      35.386  21.245  24.725  1.00  0.00     0.057 A 
ATOM     18  C   UNL A   1      37.290  22.498  25.572  1.00  0.00     0.031 A 
ATOM     19  C   UNL A   1      36.167  20.074  24.682  1.00  0.00     0.029 A 
ATOM     20  C   UNL A   1      38.038  21.324  25.586  1.00  0.00     0.041 A 
ATOM     21  C   UNL A   1      37.491  20.130  25.135  1.00  0.00     0.023 A 
ATOM     22  Cl  UNL A   1      39.665  21.363  26.147  1.00  0.00    -0.084 Cl
BRANCH  15  23
ATOM     23  C   UNL A   1      33.096  20.586  23.847  1.00  0.00     0.284 C 
ATOM     24  O   UNL A   1      32.364  21.022  22.959  1.00  0.00    -0.266 OA
BRANCH  23  25
ATOM     25  C   UNL A   1      32.893  19.228  24.341  1.00  0.00     0.167 A 
ATOM     26  C   UNL A   1      33.055  18.029  23.681  1.00  0.00     0.231 A 
ATOM     27  N   UNL A   1      32.622  18.957  25.677  1.00  0.00    -0.211 NA
ATOM     28  O   UNL A   1      32.869  17.014  24.573  1.00  0.00    -0.451 OA
ATOM     29  C   UNL A   1      32.627  17.649  25.750  1.00  0.00     0.308 A 
ENDBRANCH  23  25
ENDBRANCH  15  23
ENDBRANCH   7   9
ENDBRANCH   4   7
ENDBRANCH   2   3
ENDBRANCH   1   2
BRANCH   1  30
ATOM     30  C   UNL A   1      31.967  30.843  26.713  1.00  0.00     0.023 C 
BRANCH  30  31
ATOM     31  C   UNL A   1      33.014  31.723  27.371  1.00  0.00     0.116 C 
BRANCH  31  32
ATOM     32  N   UNL A   1      32.546  33.083  27.597  1.00  0.00    -0.352 N 
ATOM     33  C   UNL A   1      33.136  34.060  28.365  1.00  0.00     0.251 C 
ATOM     34  H   UNL A   1      31.707  33.334  27.147  1.00  0.00     0.163 HD
ATOM     35  O   UNL A   1      32.583  35.130  28.567  1.00  0.00    -0.269 OA
BRANCH  33  36
ATOM     36  C   UNL A   1      34.446  33.764  28.972  1.00  0.00     0.039 A 
ATOM     37  C   UNL A   1      34.499  32.971  30.120  1.00  0.00     0.014 A 
ATOM     38  C   UNL A   1      35.616  34.189  28.336  1.00  0.00     0.014 A 
ATOM     39  C   UNL A   1      35.737  32.537  30.595  1.00  0.00     0.010 A 
ATOM     40  C   UNL A   1      36.839  33.698  28.767  1.00  0.00     0.010 A 
ATOM     41  C   UNL A   1      36.910  32.865  29.897  1.00  0.00    -0.014 A 
BRANCH  41  42
ATOM     42  C   UNL A   1      38.239  32.361  30.315  1.00  0.00     0.031 A 
ATOM     43  C   UNL A   1      38.754  31.079  29.729  1.00  0.00     0.074 A 
ATOM     44  C   UNL A   1      38.912  32.976  31.305  1.00  0.00     0.049 A 
ATOM     45  N   UNL A   1      39.784  30.359  30.089  1.00  0.00    -0.248 NA
ATOM     46  C   UNL A   1      37.977  30.510  28.618  1.00  0.00     0.031 C 
ATOM     47  C   UNL A   1      38.486  34.199  31.986  1.00  0.00     0.029 A 
ATOM     48  N   UNL A   1      40.082  32.633  31.933  1.00  0.00    -0.354 N 
ATOM     49  C   UNL A   1      39.754  29.233  29.278  1.00  0.00     0.074 A 
ATOM     50  C   UNL A   1      38.584  29.349  28.434  1.00  0.00     0.031 C 
ATOM     51  C   UNL A   1      39.382  34.501  32.942  1.00  0.00     0.029 A 
ATOM     52  C   UNL A   1      40.418  33.475  32.964  1.00  0.00     0.049 A 
ATOM     53  H   UNL A   1      40.628  31.858  31.669  1.00  0.00     0.167 HD
ATOM     54  C   UNL A   1      40.631  28.203  29.232  1.00  0.00     0.037 A 
ATOM     55  C   UNL A   1      41.435  33.412  33.844  1.00  0.00     0.037 A 
ATOM     56  C   UNL A   1      41.814  28.117  30.044  1.00  0.00     0.049 A 
ATOM     57  C   UNL A   1      42.419  32.280  33.753  1.00  0.00     0.074 A 
ATOM     58  C   UNL A   1      42.813  27.160  30.015  1.00  0.00     0.029 A 
ATOM     59  N   UNL A   1      42.158  29.027  31.033  1.00  0.00    -0.354 N 
ATOM     60  N   UNL A   1      42.418  31.252  32.939  1.00  0.00    -0.248 NA
ATOM     61  C   UNL A   1      43.545  32.300  34.695  1.00  0.00     0.031 C 
ATOM     62  C   UNL A   1      43.744  27.474  31.011  1.00  0.00     0.029 A 
ATOM     63  C   UNL A   1      43.346  28.646  31.634  1.00  0.00     0.049 A 
ATOM     64  H   UNL A   1      41.634  29.825  31.273  1.00  0.00     0.167 HD
ATOM     65  C   UNL A   1      43.552  30.515  33.253  1.00  0.00     0.074 A 
ATOM     66  C   UNL A   1      44.220  31.217  34.331  1.00  0.00     0.031 C 
ATOM     67  C   UNL A   1      44.000  29.363  32.698  1.00  0.00     0.037 A 
BRANCH  54  68
ATOM     68  C   UNL A   1      40.326  27.089  28.276  1.00  0.00     0.057 A 
ATOM     69  C   UNL A   1      39.482  26.024  28.620  1.00  0.00     0.134 A 
ATOM     70  C   UNL A   1      40.893  27.076  26.995  1.00  0.00     0.134 A 
ATOM     71  F   UNL A   1      38.922  25.969  29.838  1.00  0.00    -0.206 F 
ATOM     72  C   UNL A   1      39.243  24.969  27.741  1.00  0.00     0.040 A 
ATOM     73  C   UNL A   1      40.638  26.039  26.096  1.00  0.00     0.040 A 
ATOM     74  F   UNL A   1      41.706  28.065  26.599  1.00  0.00    -0.206 F 
ATOM     75  C   UNL A   1      39.819  24.976  26.471  1.00  0.00     0.006 A 
ENDBRANCH  54  68
BRANCH  55  76
ATOM     76  C   UNL A   1      41.574  34.467  34.876  1.00  0.00     0.057 A 
ATOM     77  C   UNL A   1      41.050  34.289  36.161  1.00  0.00     0.134 A 
ATOM     78  C   UNL A   1      42.263  35.657  34.616  1.00  0.00     0.134 A 
ATOM     79  F   UNL A   1      40.366  33.176  36.462  1.00  0.00    -0.206 F 
ATOM     80  C   UNL A   1      41.201  35.261  37.152  1.00  0.00     0.040 A 
ATOM     81  C   UNL A   1      42.439  36.629  35.602  1.00  0.00     0.040 A 
ATOM     82  F   UNL A   1      42.796  35.880  33.406  1.00  0.00    -0.206 F 
ATOM     83  C   UNL A   1      41.904  36.432  36.875  1.00  0.00     0.006 A 
ENDBRANCH  55  76
BRANCH  67  84
ATOM     84  C   UNL A   1      45.291  28.805  33.217  1.00  0.00     0.057 A 
ATOM     85  C   UNL A   1      45.322  27.859  34.248  1.00  0.00     0.134 A 
ATOM     86  C   UNL A   1      46.508  29.171  32.632  1.00  0.00     0.134 A 
ATOM     87  F   UNL A   1      44.189  27.476  34.856  1.00  0.00    -0.206 F 
ATOM     88  C   UNL A   1      46.525  27.302  34.685  1.00  0.00     0.040 A 
ATOM     89  C   UNL A   1      47.715  28.606  33.046  1.00  0.00     0.040 A 
ATOM     90  F   UNL A   1      46.542  30.069  31.635  1.00  0.00    -0.206 F 
ATOM     91  C   UNL A   1      47.725  27.669  34.078  1.00  0.00     0.006 A 
ENDBRANCH  67  84
ENDBRANCH  41  42
ENDBRANCH  33  36
ENDBRANCH  31  32
ENDBRANCH  30  31
ENDBRANCH   1  30
TORSDOF 14
ENDMDL
MODEL 2
REMARK VINA RESULT:     -12.8      4.054      9.466
REMARK SMILES C[C@@H](C(=O)NCCCCNC(=O)c1ccc(-c2c3nc(c(-c4c(F)cccc4F)c4ccc([nH]4)c(-c4c(F)cccc4F)c4nc(c(-c5c(F)cccc5F)c5ccc2[nH]5)C=C4)C=C3)cc1)c1ccc2c3cc(Cl)ccc3n(C(=O)c3cocn3)c2c1
REMARK SMILES IDX 7 1 6 2 5 3 3 4 4 5 2 7 1 8 67 9 68 10 87 11 69 12 86 13
REMARK SMILES IDX 70 14 78 15 71 16 77 17 72 18 76 19 73 20 75 21 74 22 79 23
REMARK SMILES IDX 80 24 81 25 82 26 85 27 83 28 84 29 8 30 9 31 10 32 11 33
REMARK SMILES IDX 12 35 13 36 14 37 66 38 15 39 65 40 16 41 17 42 18 43 59 44
REMARK SMILES IDX 19 45 64 46 58 47 60 48 20 49 63 50 57 51 56 52 21 54 47 55
REMARK SMILES IDX 30 56 46 57 31 58 34 59 45 60 61 61 32 62 33 63 44 65 62 66
REMARK SMILES IDX 35 67 22 68 23 69 28 70 24 71 25 72 27 73 29 74 26 75 48 76
REMARK SMILES IDX 49 77 54 78 50 79 51 80 53 81 55 82 52 83 36 84 37 85 42 86
REMARK SMILES IDX 38 87 39 88 41 89 43 90 40 91
REMARK H PARENT 5 6 10 34 60 53 34 64
REMARK Flexibility Score: inf
ROOT
ATOM      1  C   UNL A   1      37.257  22.014  24.431  1.00  0.00     0.023 C 
ENDROOT
BRANCH   1   2
ATOM      2  C   UNL A   1      35.727  22.097  24.392  1.00  0.00     0.116 C 
BRANCH   2   3
ATOM      3  N   UNL A   1      35.274  22.724  23.167  1.00  0.00    -0.356 N 
ATOM      4  C   UNL A   1      34.019  23.138  22.811  1.00  0.00     0.227 C 
ATOM      5  O   UNL A   1      33.842  23.376  21.616  1.00  0.00    -0.274 OA
ATOM      6  H   UNL A   1      35.972  22.875  22.490  1.00  0.00     0.163 HD
BRANCH   4   7
ATOM      7  C   UNL A   1      32.931  23.292  23.892  1.00  0.00     0.105 C 
ATOM      8  C   UNL A   1      31.566  22.989  23.252  1.00  0.00     0.023 C 
BRANCH   7   9
ATOM      9  C   UNL A   1      32.932  24.651  24.613  1.00  0.00    -0.034 A 
ATOM     10  C   UNL A   1      33.876  24.975  25.592  1.00  0.00     0.005 A 
ATOM     11  C   UNL A   1      31.931  25.596  24.331  1.00  0.00     0.032 A 
ATOM     12  C   UNL A   1      33.933  26.255  26.161  1.00  0.00     0.011 A 
ATOM     13  C   UNL A   1      31.965  26.872  24.924  1.00  0.00     0.058 A 
ATOM     14  C   UNL A   1      32.990  27.233  25.787  1.00  0.00     0.008 A 
ATOM     15  N   UNL A   1      31.109  27.966  24.759  1.00  0.00    -0.274 N 
ATOM     16  C   UNL A   1      32.817  28.611  26.092  1.00  0.00     0.009 A 
ATOM     17  C   UNL A   1      31.637  29.049  25.472  1.00  0.00     0.057 A 
ATOM     18  C   UNL A   1      33.575  29.516  26.866  1.00  0.00     0.031 A 
ATOM     19  C   UNL A   1      31.155  30.354  25.693  1.00  0.00     0.029 A 
ATOM     20  C   UNL A   1      33.124  30.823  27.029  1.00  0.00     0.041 A 
ATOM     21  C   UNL A   1      31.926  31.235  26.462  1.00  0.00     0.023 A 
ATOM     22  Cl  UNL A   1      34.055  31.930  27.962  1.00  0.00    -0.084 Cl
BRANCH  15  23
ATOM     23  C   UNL A   1      29.908  27.908  24.004  1.00  0.00     0.284 C 
ATOM     24  O   UNL A   1      29.188  26.933  24.219  1.00  0.00    -0.266 OA
BRANCH  23  25
ATOM     25  C   UNL A   1      29.520  28.874  22.982  1.00  0.00     0.167 A 
ATOM     26  C   UNL A   1      30.297  29.481  22.018  1.00  0.00     0.231 A 
ATOM     27  N   UNL A   1      28.194  29.223  22.755  1.00  0.00    -0.211 NA
ATOM     28  O   UNL A   1      29.486  30.218  21.207  1.00  0.00    -0.451 OA
ATOM     29  C   UNL A   1      28.239  30.002  21.704  1.00  0.00     0.308 A 
ENDBRANCH  23  25
ENDBRANCH  15  23
ENDBRANCH   7   9
ENDBRANCH   4   7
ENDBRANCH   2   3
ENDBRANCH   1   2
BRANCH   1  30
ATOM     30  C   UNL A   1      37.814  20.709  24.997  1.00  0.00     0.023 C 
BRANCH  30  31
ATOM     31  C   UNL A   1      39.093  20.866  25.801  1.00  0.00     0.116 C 
BRANCH  31  32
ATOM     32  N   UNL A   1      39.927  19.674  25.772  1.00  0.00    -0.352 N 
ATOM     33  C   UNL A   1      41.272  19.579  26.046  1.00  0.00     0.251 C 
ATOM     34  H   UNL A   1      39.475  18.834  25.528  1.00  0.00     0.163 HD
ATOM     35  O   UNL A   1      41.883  18.536  25.875  1.00  0.00    -0.269 OA
BRANCH  33  36
ATOM     36  C   UNL A   1      41.967  20.791  26.518  1.00  0.00     0.039 A 
ATOM     37  C   UNL A   1      42.396  21.735  25.583  1.00  0.00     0.014 A 
ATOM     38  C   UNL A   1      42.092  21.027  27.889  1.00  0.00     0.014 A 
ATOM     39  C   UNL A   1      42.889  22.962  26.027  1.00  0.00     0.010 A 
ATOM     40  C   UNL A   1      42.515  22.273  28.327  1.00  0.00     0.010 A 
ATOM     41  C   UNL A   1      42.913  23.252  27.401  1.00  0.00    -0.014 A 
BRANCH  41  42
ATOM     42  C   UNL A   1      43.350  24.570  27.917  1.00  0.00     0.031 A 
ATOM     43  C   UNL A   1      42.317  25.604  28.259  1.00  0.00     0.074 A 
ATOM     44  C   UNL A   1      44.660  24.879  27.951  1.00  0.00     0.049 A 
ATOM     45  N   UNL A   1      42.475  26.872  28.534  1.00  0.00    -0.248 NA
ATOM     46  C   UNL A   1      40.916  25.157  28.243  1.00  0.00     0.031 C 
ATOM     47  C   UNL A   1      45.753  23.975  27.593  1.00  0.00     0.029 A 
ATOM     48  N   UNL A   1      45.289  26.055  28.270  1.00  0.00    -0.354 N 
ATOM     49  C   UNL A   1      41.192  27.383  28.683  1.00  0.00     0.074 A 
ATOM     50  C   UNL A   1      40.270  26.296  28.430  1.00  0.00     0.031 C 
ATOM     51  C   UNL A   1      46.920  24.632  27.709  1.00  0.00     0.029 A 
ATOM     52  C   UNL A   1      46.652  26.009  28.110  1.00  0.00     0.049 A 
ATOM     53  H   UNL A   1      44.809  26.855  28.585  1.00  0.00     0.167 HD
ATOM     54  C   UNL A   1      40.819  28.641  29.013  1.00  0.00     0.037 A 
ATOM     55  C   UNL A   1      47.578  26.975  28.248  1.00  0.00     0.037 A 
ATOM     56  C   UNL A   1      41.743  29.704  29.304  1.00  0.00     0.049 A 
ATOM     57  C   UNL A   1      47.147  28.357  28.651  1.00  0.00     0.074 A 
ATOM     58  C   UNL A   1      41.470  30.991  29.733  1.00  0.00     0.029 A 
ATOM     59  N   UNL A   1      43.121  29.600  29.197  1.00  0.00    -0.354 N 
ATOM     60  N   UNL A   1      45.935  28.815  28.853  1.00  0.00    -0.248 NA
ATOM     61  C   UNL A   1      48.208  29.353  28.851  1.00  0.00     0.031 C 
ATOM     62  C   UNL A   1      42.684  31.676  29.852  1.00  0.00     0.029 A 
ATOM     63  C   UNL A   1      43.714  30.805  29.535  1.00  0.00     0.049 A 
ATOM     64  H   UNL A   1      43.608  28.789  28.920  1.00  0.00     0.167 HD
ATOM     65  C   UNL A   1      46.087  30.144  29.225  1.00  0.00     0.074 A 
ATOM     66  C   UNL A   1      47.510  30.417  29.226  1.00  0.00     0.031 C 
ATOM     67  C   UNL A   1      45.133  31.054  29.540  1.00  0.00     0.037 A 
BRANCH  54  68
ATOM     68  C   UNL A   1      39.348  28.926  29.063  1.00  0.00     0.057 A 
ATOM     69  C   UNL A   1      38.600  28.762  30.236  1.00  0.00     0.134 A 
ATOM     70  C   UNL A   1      38.668  29.362  27.919  1.00  0.00     0.134 A 
ATOM     71  F   UNL A   1      39.188  28.331  31.362  1.00  0.00    -0.206 F 
ATOM     72  C   UNL A   1      37.223  28.985  30.261  1.00  0.00     0.040 A 
ATOM     73  C   UNL A   1      37.296  29.615  27.939  1.00  0.00     0.040 A 
ATOM     74  F   UNL A   1      39.324  29.543  26.764  1.00  0.00    -0.206 F 
ATOM     75  C   UNL A   1      36.566  29.416  29.110  1.00  0.00     0.006 A 
ENDBRANCH  54  68
BRANCH  55  76
ATOM     76  C   UNL A   1      49.007  26.656  28.014  1.00  0.00     0.057 A 
ATOM     77  C   UNL A   1      49.805  26.137  29.039  1.00  0.00     0.134 A 
ATOM     78  C   UNL A   1      49.597  26.826  26.756  1.00  0.00     0.134 A 
ATOM     79  F   UNL A   1      49.298  25.968  30.268  1.00  0.00    -0.206 F 
ATOM     80  C   UNL A   1      51.143  25.802  28.824  1.00  0.00     0.040 A 
ATOM     81  C   UNL A   1      50.928  26.477  26.521  1.00  0.00     0.040 A 
ATOM     82  F   UNL A   1      48.880  27.309  25.732  1.00  0.00    -0.206 F 
ATOM     83  C   UNL A   1      51.706  25.965  27.559  1.00  0.00     0.006 A 
ENDBRANCH  55  76
BRANCH  67  84
ATOM     84  C   UNL A   1      45.593  32.421  29.948  1.00  0.00     0.057 A 
ATOM     85  C   UNL A   1      45.701  33.467  29.025  1.00  0.00     0.134 A 
ATOM     86  C   UNL A   1      45.868  32.706  31.291  1.00  0.00     0.134 A 
ATOM     87  F   UNL A   1      45.463  33.254  27.722  1.00  0.00    -0.206 F 
ATOM     88  C   UNL A   1      46.075  34.752  29.425  1.00  0.00     0.040 A 
ATOM     89  C   UNL A   1      46.222  33.990  31.705  1.00  0.00     0.040 A 
ATOM     90  F   UNL A   1      45.775  31.746  32.223  1.00  0.00    -0.206 F 
ATOM     91  C   UNL A   1      46.329  35.017  30.770  1.00  0.00     0.006 A 
ENDBRANCH  67  84
ENDBRANCH  41  42
ENDBRANCH  33  36
ENDBRANCH  31  32
ENDBRANCH  30  31
ENDBRANCH   1  30
TORSDOF 14
ENDMDL
MODEL 3
REMARK VINA RESULT:     -12.7      3.191      7.356
REMARK SMILES C[C@@H](C(=O)NCCCCNC(=O)c1ccc(-c2c3nc(c(-c4c(F)cccc4F)c4ccc([nH]4)c(-c4c(F)cccc4F)c4nc(c(-c5c(F)cccc5F)c5ccc2[nH]5)C=C4)C=C3)cc1)c1ccc2c3cc(Cl)ccc3n(C(=O)c3cocn3)c2c1
REMARK SMILES IDX 7 1 6 2 5 3 3 4 4 5 2 7 1 8 67 9 68 10 87 11 69 12 86 13
REMARK SMILES IDX 70 14 78 15 71 16 77 17 72 18 76 19 73 20 75 21 74 22 79 23
REMARK SMILES IDX 80 24 81 25 82 26 85 27 83 28 84 29 8 30 9 31 10 32 11 33
REMARK SMILES IDX 12 35 13 36 14 37 66 38 15 39 65 40 16 41 17 42 18 43 59 44
REMARK SMILES IDX 19 45 64 46 58 47 60 48 20 49 63 50 57 51 56 52 21 54 47 55
REMARK SMILES IDX 30 56 46 57 31 58 34 59 45 60 61 61 32 62 33 63 44 65 62 66
REMARK SMILES IDX 35 67 22 68 23 69 28 70 24 71 25 72 27 73 29 74 26 75 48 76
REMARK SMILES IDX 49 77 54 78 50 79 51 80 53 81 55 82 52 83 36 84 37 85 42 86
REMARK SMILES IDX 38 87 39 88 41 89 43 90 40 91
REMARK H PARENT 5 6 10 34 60 53 34 64
REMARK Flexibility Score: inf
ROOT
ATOM      1  C   UNL A   1      31.574  28.361  26.522  1.00  0.00     0.023 C 
ENDROOT
BRANCH   1   2
ATOM      2  C   UNL A   1      31.756  29.051  25.165  1.00  0.00     0.116 C 
BRANCH   2   3
ATOM      3  N   UNL A   1      30.958  28.402  24.144  1.00  0.00    -0.356 N 
ATOM      4  C   UNL A   1      31.348  27.568  23.132  1.00  0.00     0.227 C 
ATOM      5  O   UNL A   1      30.527  27.381  22.233  1.00  0.00    -0.274 OA
ATOM      6  H   UNL A   1      29.993  28.588  24.185  1.00  0.00     0.163 HD
BRANCH   4   7
ATOM      7  C   UNL A   1      32.745  26.917  23.174  1.00  0.00     0.105 C 
ATOM      8  C   UNL A   1      33.393  27.072  21.788  1.00  0.00     0.023 C 
BRANCH   7   9
ATOM      9  C   UNL A   1      32.756  25.454  23.646  1.00  0.00    -0.034 A 
ATOM     10  C   UNL A   1      31.606  24.813  24.117  1.00  0.00     0.005 A 
ATOM     11  C   UNL A   1      33.961  24.729  23.661  1.00  0.00     0.032 A 
ATOM     12  C   UNL A   1      31.605  23.449  24.440  1.00  0.00     0.011 A 
ATOM     13  C   UNL A   1      33.971  23.367  24.014  1.00  0.00     0.058 A 
ATOM     14  C   UNL A   1      32.798  22.704  24.343  1.00  0.00     0.008 A 
ATOM     15  N   UNL A   1      35.031  22.455  24.058  1.00  0.00    -0.274 N 
ATOM     16  C   UNL A   1      33.123  21.329  24.503  1.00  0.00     0.009 A 
ATOM     17  C   UNL A   1      34.511  21.189  24.350  1.00  0.00     0.057 A 
ATOM     18  C   UNL A   1      32.335  20.192  24.784  1.00  0.00     0.031 A 
ATOM     19  C   UNL A   1      35.132  19.944  24.567  1.00  0.00     0.029 A 
ATOM     20  C   UNL A   1      32.950  18.952  24.936  1.00  0.00     0.041 A 
ATOM     21  C   UNL A   1      34.330  18.829  24.841  1.00  0.00     0.023 A 
ATOM     22  Cl  UNL A   1      31.988  17.563  25.265  1.00  0.00    -0.084 Cl
BRANCH  15  23
ATOM     23  C   UNL A   1      36.387  22.827  23.856  1.00  0.00     0.284 C 
ATOM     24  O   UNL A   1      36.692  23.128  22.702  1.00  0.00    -0.266 OA
BRANCH  23  25
ATOM     25  C   UNL A   1      37.416  22.816  24.890  1.00  0.00     0.167 A 
ATOM     26  C   UNL A   1      37.736  23.793  25.810  1.00  0.00     0.231 A 
ATOM     27  N   UNL A   1      38.165  21.682  25.180  1.00  0.00    -0.211 NA
ATOM     28  O   UNL A   1      38.684  23.298  26.656  1.00  0.00    -0.451 OA
ATOM     29  C   UNL A   1      38.880  22.024  26.224  1.00  0.00     0.308 A 
ENDBRANCH  23  25
ENDBRANCH  15  23
ENDBRANCH   7   9
ENDBRANCH   4   7
ENDBRANCH   2   3
ENDBRANCH   1   2
BRANCH   1  30
ATOM     30  C   UNL A   1      32.874  28.017  27.247  1.00  0.00     0.023 C 
BRANCH  30  31
ATOM     31  C   UNL A   1      34.037  28.937  26.924  1.00  0.00     0.116 C 
BRANCH  31  32
ATOM     32  N   UNL A   1      33.952  30.216  27.613  1.00  0.00    -0.352 N 
ATOM     33  C   UNL A   1      34.899  30.803  28.421  1.00  0.00     0.251 C 
ATOM     34  H   UNL A   1      33.117  30.723  27.488  1.00  0.00     0.163 HD
ATOM     35  O   UNL A   1      34.662  31.832  29.035  1.00  0.00    -0.269 OA
BRANCH  33  36
ATOM     36  C   UNL A   1      36.205  30.131  28.553  1.00  0.00     0.039 A 
ATOM     37  C   UNL A   1      37.118  30.208  27.501  1.00  0.00     0.014 A 
ATOM     38  C   UNL A   1      36.549  29.521  29.763  1.00  0.00     0.014 A 
ATOM     39  C   UNL A   1      38.416  29.733  27.686  1.00  0.00     0.010 A 
ATOM     40  C   UNL A   1      37.859  29.116  29.969  1.00  0.00     0.010 A 
ATOM     41  C   UNL A   1      38.805  29.222  28.935  1.00  0.00    -0.014 A 
BRANCH  41  42
ATOM     42  C   UNL A   1      40.193  28.781  29.205  1.00  0.00     0.031 A 
ATOM     43  C   UNL A   1      41.174  29.760  29.781  1.00  0.00     0.074 A 
ATOM     44  C   UNL A   1      40.600  27.560  28.814  1.00  0.00     0.049 A 
ATOM     45  N   UNL A   1      42.470  29.654  29.912  1.00  0.00    -0.248 NA
ATOM     46  C   UNL A   1      40.625  31.050  30.226  1.00  0.00     0.031 C 
ATOM     47  C   UNL A   1      39.751  26.541  28.197  1.00  0.00     0.029 A 
ATOM     48  N   UNL A   1      41.844  26.983  28.849  1.00  0.00    -0.354 N 
ATOM     49  C   UNL A   1      42.896  30.876  30.416  1.00  0.00     0.074 A 
ATOM     50  C   UNL A   1      41.725  31.719  30.529  1.00  0.00     0.031 C 
ATOM     51  C   UNL A   1      40.501  25.464  27.906  1.00  0.00     0.029 A 
ATOM     52  C   UNL A   1      41.885  25.734  28.280  1.00  0.00     0.049 A 
ATOM     53  H   UNL A   1      42.632  27.422  29.243  1.00  0.00     0.167 HD
ATOM     54  C   UNL A   1      44.148  31.255  30.763  1.00  0.00     0.037 A 
ATOM     55  C   UNL A   1      42.926  24.909  28.064  1.00  0.00     0.037 A 
ATOM     56  C   UNL A   1      45.299  30.396  30.686  1.00  0.00     0.049 A 
ATOM     57  C   UNL A   1      44.303  25.333  28.490  1.00  0.00     0.074 A 
ATOM     58  C   UNL A   1      46.596  30.653  31.095  1.00  0.00     0.029 A 
ATOM     59  N   UNL A   1      45.288  29.110  30.167  1.00  0.00    -0.354 N 
ATOM     60  N   UNL A   1      44.687  26.467  29.025  1.00  0.00    -0.248 NA
ATOM     61  C   UNL A   1      45.390  24.365  28.290  1.00  0.00     0.031 C 
ATOM     62  C   UNL A   1      47.377  29.533  30.791  1.00  0.00     0.029 A 
ATOM     63  C   UNL A   1      46.560  28.565  30.229  1.00  0.00     0.049 A 
ATOM     64  H   UNL A   1      44.494  28.652  29.807  1.00  0.00     0.167 HD
ATOM     65  C   UNL A   1      46.052  26.342  29.246  1.00  0.00     0.074 A 
ATOM     66  C   UNL A   1      46.429  25.019  28.792  1.00  0.00     0.031 C 
ATOM     67  C   UNL A   1      46.913  27.242  29.780  1.00  0.00     0.037 A 
BRANCH  54  68
ATOM     68  C   UNL A   1      44.326  32.663  31.245  1.00  0.00     0.057 A 
ATOM     69  C   UNL A   1      44.198  33.007  32.597  1.00  0.00     0.134 A 
ATOM     70  C   UNL A   1      44.621  33.693  30.342  1.00  0.00     0.134 A 
ATOM     71  F   UNL A   1      43.900  32.070  33.511  1.00  0.00    -0.206 F 
ATOM     72  C   UNL A   1      44.319  34.327  33.030  1.00  0.00     0.040 A 
ATOM     73  C   UNL A   1      44.773  35.013  30.767  1.00  0.00     0.040 A 
ATOM     74  F   UNL A   1      44.761  33.433  29.034  1.00  0.00    -0.206 F 
ATOM     75  C   UNL A   1      44.611  35.336  32.113  1.00  0.00     0.006 A 
ENDBRANCH  54  68
BRANCH  55  76
ATOM     76  C   UNL A   1      42.694  23.593  27.422  1.00  0.00     0.057 A 
ATOM     77  C   UNL A   1      42.821  23.435  26.038  1.00  0.00     0.134 A 
ATOM     78  C   UNL A   1      42.379  22.457  28.178  1.00  0.00     0.134 A 
ATOM     79  F   UNL A   1      43.106  24.491  25.262  1.00  0.00    -0.206 F 
ATOM     80  C   UNL A   1      42.636  22.195  25.424  1.00  0.00     0.040 A 
ATOM     81  C   UNL A   1      42.211  21.207  27.580  1.00  0.00     0.040 A 
ATOM     82  F   UNL A   1      42.254  22.544  29.509  1.00  0.00    -0.206 F 
ATOM     83  C   UNL A   1      42.338  21.074  26.197  1.00  0.00     0.006 A 
ENDBRANCH  55  76
BRANCH  67  84
ATOM     84  C   UNL A   1      48.342  26.818  29.938  1.00  0.00     0.057 A 
ATOM     85  C   UNL A   1      48.771  26.074  31.043  1.00  0.00     0.134 A 
ATOM     86  C   UNL A   1      49.281  27.102  28.940  1.00  0.00     0.134 A 
ATOM     87  F   UNL A   1      47.921  25.780  32.038  1.00  0.00    -0.206 F 
ATOM     88  C   UNL A   1      50.091  25.634  31.153  1.00  0.00     0.040 A 
ATOM     89  C   UNL A   1      50.598  26.650  29.028  1.00  0.00     0.040 A 
ATOM     90  F   UNL A   1      48.928  27.805  27.853  1.00  0.00    -0.206 F 
ATOM     91  C   UNL A   1      51.007  25.915  30.139  1.00  0.00     0.006 A 
ENDBRANCH  67  84
ENDBRANCH  41  42
ENDBRANCH  33  36
ENDBRANCH  31  32
ENDBRANCH  30  31
ENDBRANCH   1  30
TORSDOF 14
ENDMDL
