MODEL 1
REMARK VINA RESULT:     -10.8      0.000      0.000
REMARK SMILES C=CC[C@@H](NC(=O)OCc1ccccc1)C(=O)NCCCCNC(=O)c1ccc(-c2c3nc(c(-c4c(F)cccc4F)c4ccc([nH]4)c(-c4c(F)cccc4F)c4nc(c(-c5c(F)cccc5F)c5ccc2[nH]5)C=C4)C=C3)cc1
REMARK SMILES IDX 19 1 18 2 16 3 17 4 4 6 3 7 2 8 1 9 5 10 6 11 7 13 8 14 9 15
REMARK SMILES IDX 10 16 11 17 15 18 12 19 14 20 13 21 20 22 21 23 22 24 23 25
REMARK SMILES IDX 24 26 25 28 26 29 27 30 79 31 28 32 78 33 29 34 30 35 31 36
REMARK SMILES IDX 72 37 32 38 77 39 71 40 73 41 33 42 76 43 70 44 69 45 34 47
REMARK SMILES IDX 60 48 43 49 59 50 44 51 47 52 58 53 74 54 45 55 46 56 57 58
REMARK SMILES IDX 75 59 48 60 35 61 36 62 41 63 37 64 38 65 40 66 42 67 39 68
REMARK SMILES IDX 61 69 62 70 67 71 63 72 64 73 66 74 68 75 65 76 49 77 50 78
REMARK SMILES IDX 55 79 51 80 52 81 54 82 56 83 53 84
REMARK H PARENT 18 5 5 12 23 27 73 46 47 57
REMARK Flexibility Score: inf
ROOT
ATOM      1  C   UNL A   1      36.031  22.685  25.573  1.00  0.00     0.116 C 
ENDROOT
BRANCH   1   2
ATOM      2  N   UNL A   1      35.415  21.950  26.662  1.00  0.00    -0.354 N 
ATOM      3  C   UNL A   1      34.095  21.648  26.862  1.00  0.00     0.243 C 
ATOM      4  O   UNL A   1      33.789  21.091  27.920  1.00  0.00    -0.273 OA
ATOM      5  H   UNL A   1      36.033  21.622  27.354  1.00  0.00     0.163 HD
BRANCH   3   6
ATOM      6  C   UNL A   1      33.010  22.157  25.883  1.00  0.00     0.178 C 
BRANCH   6   7
ATOM      7  C   UNL A   1      33.048  21.151  24.700  1.00  0.00     0.062 C 
BRANCH   7   8
ATOM      8  C   UNL A   1      33.016  19.686  25.041  1.00  0.00    -0.032 C 
ATOM      9  C   UNL A   1      33.766  18.777  24.406  1.00  0.00     0.004 C 
ENDBRANCH   7   8
ENDBRANCH   6   7
BRANCH   6  10
ATOM     10  N   UNL A   1      31.666  22.263  26.468  1.00  0.00    -0.309 N 
ATOM     11  C   UNL A   1      31.029  23.387  26.900  1.00  0.00     0.408 C 
ATOM     12  H   UNL A   1      31.165  21.418  26.559  1.00  0.00     0.167 HD
ATOM     13  O   UNL A   1      29.894  23.322  27.358  1.00  0.00    -0.225 OA
BRANCH  11  14
ATOM     14  O   UNL A   1      31.800  24.494  26.871  1.00  0.00    -0.445 OA
BRANCH  14  15
ATOM     15  C   UNL A   1      31.211  25.652  26.260  1.00  0.00     0.270 C 
BRANCH  15  16
ATOM     16  C   UNL A   1      31.996  26.923  26.454  1.00  0.00    -0.011 A 
ATOM     17  C   UNL A   1      31.376  28.020  27.075  1.00  0.00     0.007 A 
ATOM     18  C   UNL A   1      33.304  27.071  25.978  1.00  0.00     0.007 A 
ATOM     19  C   UNL A   1      32.051  29.235  27.206  1.00  0.00     0.000 A 
ATOM     20  C   UNL A   1      33.975  28.286  26.105  1.00  0.00     0.000 A 
ATOM     21  C   UNL A   1      33.348  29.369  26.716  1.00  0.00     0.000 A 
ENDBRANCH  15  16
ENDBRANCH  14  15
ENDBRANCH  11  14
ENDBRANCH   6  10
ENDBRANCH   3   6
ENDBRANCH   1   2
BRANCH   1  22
ATOM     22  C   UNL A   1      36.481  21.754  24.458  1.00  0.00     0.023 C 
BRANCH  22  23
ATOM     23  C   UNL A   1      37.294  20.561  24.950  1.00  0.00     0.023 C 
BRANCH  23  24
ATOM     24  C   UNL A   1      38.650  20.925  25.541  1.00  0.00     0.116 C 
BRANCH  24  25
ATOM     25  N   UNL A   1      39.553  19.785  25.615  1.00  0.00    -0.352 N 
ATOM     26  C   UNL A   1      40.877  19.763  25.976  1.00  0.00     0.251 C 
ATOM     27  H   UNL A   1      39.161  18.914  25.375  1.00  0.00     0.163 HD
ATOM     28  O   UNL A   1      41.557  18.758  25.810  1.00  0.00    -0.269 OA
BRANCH  26  29
ATOM     29  C   UNL A   1      41.479  20.985  26.545  1.00  0.00     0.039 A 
ATOM     30  C   UNL A   1      42.035  21.932  25.683  1.00  0.00     0.014 A 
ATOM     31  C   UNL A   1      41.438  21.212  27.923  1.00  0.00     0.014 A 
ATOM     32  C   UNL A   1      42.490  23.144  26.202  1.00  0.00     0.010 A 
ATOM     33  C   UNL A   1      41.808  22.454  28.424  1.00  0.00     0.010 A 
ATOM     34  C   UNL A   1      42.342  23.431  27.570  1.00  0.00    -0.014 A 
BRANCH  34  35
ATOM     35  C   UNL A   1      42.741  24.748  28.126  1.00  0.00     0.031 A 
ATOM     36  C   UNL A   1      41.707  25.812  28.358  1.00  0.00     0.074 A 
ATOM     37  C   UNL A   1      44.042  25.003  28.365  1.00  0.00     0.049 A 
ATOM     38  N   UNL A   1      41.866  27.041  28.781  1.00  0.00    -0.248 NA
ATOM     39  C   UNL A   1      40.312  25.461  28.047  1.00  0.00     0.031 C 
ATOM     40  C   UNL A   1      45.147  24.070  28.133  1.00  0.00     0.029 A 
ATOM     41  N   UNL A   1      44.658  26.129  28.849  1.00  0.00    -0.354 N 
ATOM     42  C   UNL A   1      40.598  27.607  28.779  1.00  0.00     0.074 A 
ATOM     43  C   UNL A   1      39.691  26.612  28.251  1.00  0.00     0.031 C 
ATOM     44  C   UNL A   1      46.299  24.652  28.499  1.00  0.00     0.029 A 
ATOM     45  C   UNL A   1      46.023  26.013  28.949  1.00  0.00     0.049 A 
ATOM     46  H   UNL A   1      44.167  26.946  29.100  1.00  0.00     0.167 HD
ATOM     47  C   UNL A   1      40.218  28.834  29.207  1.00  0.00     0.037 A 
ATOM     48  C   UNL A   1      46.949  26.905  29.349  1.00  0.00     0.037 A 
ATOM     49  C   UNL A   1      41.123  29.817  29.743  1.00  0.00     0.049 A 
ATOM     50  C   UNL A   1      46.505  28.270  29.796  1.00  0.00     0.074 A 
ATOM     51  C   UNL A   1      40.831  31.072  30.247  1.00  0.00     0.029 A 
ATOM     52  N   UNL A   1      42.497  29.657  29.836  1.00  0.00    -0.354 N 
ATOM     53  N   UNL A   1      45.293  28.768  29.856  1.00  0.00    -0.248 NA
ATOM     54  C   UNL A   1      47.557  29.197  30.236  1.00  0.00     0.031 C 
ATOM     55  C   UNL A   1      42.034  31.694  30.594  1.00  0.00     0.029 A 
ATOM     56  C   UNL A   1      43.070  30.802  30.365  1.00  0.00     0.049 A 
ATOM     57  H   UNL A   1      42.992  28.851  29.566  1.00  0.00     0.167 HD
ATOM     58  C   UNL A   1      45.434  30.052  30.369  1.00  0.00     0.074 A 
ATOM     59  C   UNL A   1      46.846  30.249  30.617  1.00  0.00     0.031 C 
ATOM     60  C   UNL A   1      44.478  30.983  30.613  1.00  0.00     0.037 A 
BRANCH  47  61
ATOM     61  C   UNL A   1      38.758  29.179  29.112  1.00  0.00     0.057 A 
ATOM     62  C   UNL A   1      37.907  29.108  30.223  1.00  0.00     0.134 A 
ATOM     63  C   UNL A   1      38.203  29.614  27.901  1.00  0.00     0.134 A 
ATOM     64  F   UNL A   1      38.370  28.687  31.409  1.00  0.00    -0.206 F 
ATOM     65  C   UNL A   1      36.551  29.427  30.127  1.00  0.00     0.040 A 
ATOM     66  C   UNL A   1      36.856  29.967  27.801  1.00  0.00     0.040 A 
ATOM     67  F   UNL A   1      38.961  29.711  26.799  1.00  0.00    -0.206 F 
ATOM     68  C   UNL A   1      36.024  29.866  28.914  1.00  0.00     0.006 A 
ENDBRANCH  47  61
BRANCH  48  69
ATOM     69  C   UNL A   1      48.387  26.532  29.359  1.00  0.00     0.057 A 
ATOM     70  C   UNL A   1      48.958  25.874  30.455  1.00  0.00     0.134 A 
ATOM     71  C   UNL A   1      49.228  26.832  28.280  1.00  0.00     0.134 A 
ATOM     72  F   UNL A   1      48.210  25.574  31.527  1.00  0.00    -0.206 F 
ATOM     73  C   UNL A   1      50.316  25.552  30.489  1.00  0.00     0.040 A 
ATOM     74  C   UNL A   1      50.580  26.490  28.288  1.00  0.00     0.040 A 
ATOM     75  F   UNL A   1      48.741  27.453  27.195  1.00  0.00    -0.206 F 
ATOM     76  C   UNL A   1      51.130  25.855  29.400  1.00  0.00     0.006 A 
ENDBRANCH  48  69
BRANCH  60  77
ATOM     77  C   UNL A   1      44.923  32.285  31.214  1.00  0.00     0.057 A 
ATOM     78  C   UNL A   1      45.026  32.471  32.598  1.00  0.00     0.134 A 
ATOM     79  C   UNL A   1      45.292  33.358  30.390  1.00  0.00     0.134 A 
ATOM     80  F   UNL A   1      44.677  31.489  33.444  1.00  0.00    -0.206 F 
ATOM     81  C   UNL A   1      45.454  33.683  33.142  1.00  0.00     0.040 A 
ATOM     82  C   UNL A   1      45.751  34.563  30.922  1.00  0.00     0.040 A 
ATOM     83  F   UNL A   1      45.228  33.245  29.055  1.00  0.00    -0.206 F 
ATOM     84  C   UNL A   1      45.826  34.731  32.302  1.00  0.00     0.006 A 
ENDBRANCH  60  77
ENDBRANCH  34  35
ENDBRANCH  26  29
ENDBRANCH  24  25
ENDBRANCH  23  24
ENDBRANCH  22  23
ENDBRANCH   1  22
TORSDOF 17
ENDMDL
MODEL 2
REMARK VINA RESULT:     -10.5      1.468      6.775
REMARK SMILES C=CC[C@@H](NC(=O)OCc1ccccc1)C(=O)NCCCCNC(=O)c1ccc(-c2c3nc(c(-c4c(F)cccc4F)c4ccc([nH]4)c(-c4c(F)cccc4F)c4nc(c(-c5c(F)cccc5F)c5ccc2[nH]5)C=C4)C=C3)cc1
REMARK SMILES IDX 19 1 18 2 16 3 17 4 4 6 3 7 2 8 1 9 5 10 6 11 7 13 8 14 9 15
REMARK SMILES IDX 10 16 11 17 15 18 12 19 14 20 13 21 20 22 21 23 22 24 23 25
REMARK SMILES IDX 24 26 25 28 26 29 27 30 79 31 28 32 78 33 29 34 30 35 31 36
REMARK SMILES IDX 72 37 32 38 77 39 71 40 73 41 33 42 76 43 70 44 69 45 34 47
REMARK SMILES IDX 60 48 43 49 59 50 44 51 47 52 58 53 74 54 45 55 46 56 57 58
REMARK SMILES IDX 75 59 48 60 35 61 36 62 41 63 37 64 38 65 40 66 42 67 39 68
REMARK SMILES IDX 61 69 62 70 67 71 63 72 64 73 66 74 68 75 65 76 49 77 50 78
REMARK SMILES IDX 55 79 51 80 52 81 54 82 56 83 53 84
REMARK H PARENT 18 5 5 12 23 27 73 46 47 57
REMARK Flexibility Score: inf
ROOT
ATOM      1  C   UNL A   1      37.612  23.308  25.880  1.00  0.00     0.116 C 
ENDROOT
BRANCH   1   2
ATOM      2  N   UNL A   1      37.541  23.242  24.432  1.00  0.00    -0.354 N 
ATOM      3  C   UNL A   1      36.438  23.157  23.625  1.00  0.00     0.243 C 
ATOM      4  O   UNL A   1      36.626  23.014  22.413  1.00  0.00    -0.273 OA
ATOM      5  H   UNL A   1      38.407  23.260  23.964  1.00  0.00     0.163 HD
BRANCH   3   6
ATOM      6  C   UNL A   1      35.019  23.056  24.232  1.00  0.00     0.178 C 
BRANCH   6   7
ATOM      7  C   UNL A   1      34.206  24.168  23.512  1.00  0.00     0.062 C 
BRANCH   7   8
ATOM      8  C   UNL A   1      33.973  25.447  24.267  1.00  0.00    -0.032 C 
ATOM      9  C   UNL A   1      34.203  25.567  25.581  1.00  0.00     0.004 C 
ENDBRANCH   7   8
ENDBRANCH   6   7
BRANCH   6  10
ATOM     10  N   UNL A   1      34.389  21.737  24.086  1.00  0.00    -0.309 N 
ATOM     11  C   UNL A   1      33.288  21.261  24.733  1.00  0.00     0.408 C 
ATOM     12  H   UNL A   1      34.813  21.122  23.442  1.00  0.00     0.167 HD
ATOM     13  O   UNL A   1      32.867  20.134  24.498  1.00  0.00    -0.225 OA
BRANCH  11  14
ATOM     14  O   UNL A   1      32.820  22.089  25.691  1.00  0.00    -0.445 OA
BRANCH  14  15
ATOM     15  C   UNL A   1      31.397  22.275  25.717  1.00  0.00     0.270 C 
BRANCH  15  16
ATOM     16  C   UNL A   1      30.939  23.622  25.222  1.00  0.00    -0.011 A 
ATOM     17  C   UNL A   1      30.692  24.643  26.154  1.00  0.00     0.007 A 
ATOM     18  C   UNL A   1      30.689  23.873  23.868  1.00  0.00     0.007 A 
ATOM     19  C   UNL A   1      30.198  25.880  25.737  1.00  0.00     0.000 A 
ATOM     20  C   UNL A   1      30.191  25.107  23.453  1.00  0.00     0.000 A 
ATOM     21  C   UNL A   1      29.943  26.109  24.387  1.00  0.00     0.000 A 
ENDBRANCH  15  16
ENDBRANCH  14  15
ENDBRANCH  11  14
ENDBRANCH   6  10
ENDBRANCH   3   6
ENDBRANCH   1   2
BRANCH   1  22
ATOM     22  C   UNL A   1      38.845  22.593  26.409  1.00  0.00     0.023 C 
BRANCH  22  23
ATOM     23  C   UNL A   1      39.190  21.320  25.641  1.00  0.00     0.023 C 
BRANCH  23  24
ATOM     24  C   UNL A   1      39.568  20.138  26.523  1.00  0.00     0.116 C 
BRANCH  24  25
ATOM     25  N   UNL A   1      40.689  19.378  25.990  1.00  0.00    -0.352 N 
ATOM     26  C   UNL A   1      41.991  19.778  25.813  1.00  0.00     0.251 C 
ATOM     27  H   UNL A   1      40.487  18.453  25.719  1.00  0.00     0.163 HD
ATOM     28  O   UNL A   1      42.780  19.089  25.178  1.00  0.00    -0.269 OA
BRANCH  26  29
ATOM     29  C   UNL A   1      42.419  21.071  26.381  1.00  0.00     0.039 A 
ATOM     30  C   UNL A   1      42.785  22.103  25.516  1.00  0.00     0.014 A 
ATOM     31  C   UNL A   1      42.401  21.271  27.764  1.00  0.00     0.014 A 
ATOM     32  C   UNL A   1      43.069  23.365  26.040  1.00  0.00     0.010 A 
ATOM     33  C   UNL A   1      42.595  22.549  28.273  1.00  0.00     0.010 A 
ATOM     34  C   UNL A   1      42.935  23.608  27.418  1.00  0.00    -0.014 A 
BRANCH  34  35
ATOM     35  C   UNL A   1      43.148  24.964  27.983  1.00  0.00     0.031 A 
ATOM     36  C   UNL A   1      44.520  25.388  28.425  1.00  0.00     0.074 A 
ATOM     37  C   UNL A   1      42.096  25.789  28.151  1.00  0.00     0.049 A 
ATOM     38  N   UNL A   1      44.896  26.506  28.993  1.00  0.00    -0.248 NA
ATOM     39  C   UNL A   1      45.610  24.419  28.230  1.00  0.00     0.031 C 
ATOM     40  C   UNL A   1      40.708  25.473  27.808  1.00  0.00     0.029 A 
ATOM     41  N   UNL A   1      42.030  27.060  28.662  1.00  0.00    -0.354 N 
ATOM     42  C   UNL A   1      46.257  26.370  29.228  1.00  0.00     0.074 A 
ATOM     43  C   UNL A   1      46.630  25.038  28.804  1.00  0.00     0.031 C 
ATOM     44  C   UNL A   1      39.933  26.531  28.094  1.00  0.00     0.029 A 
ATOM     45  C   UNL A   1      40.759  27.582  28.680  1.00  0.00     0.049 A 
ATOM     46  H   UNL A   1      42.819  27.552  28.987  1.00  0.00     0.167 HD
ATOM     47  C   UNL A   1      47.127  27.282  29.725  1.00  0.00     0.037 A 
ATOM     48  C   UNL A   1      40.309  28.769  29.128  1.00  0.00     0.037 A 
ATOM     49  C   UNL A   1      46.754  28.610  30.136  1.00  0.00     0.049 A 
ATOM     50  C   UNL A   1      41.290  29.756  29.699  1.00  0.00     0.074 A 
ATOM     51  C   UNL A   1      47.567  29.625  30.608  1.00  0.00     0.029 A 
ATOM     52  N   UNL A   1      45.458  29.104  30.130  1.00  0.00    -0.354 N 
ATOM     53  N   UNL A   1      42.587  29.641  29.849  1.00  0.00    -0.248 NA
ATOM     54  C   UNL A   1      40.745  31.041  30.157  1.00  0.00     0.031 C 
ATOM     55  C   UNL A   1      46.757  30.714  30.941  1.00  0.00     0.029 A 
ATOM     56  C   UNL A   1      45.446  30.402  30.617  1.00  0.00     0.049 A 
ATOM     57  H   UNL A   1      44.665  28.608  29.827  1.00  0.00     0.167 HD
ATOM     58  C   UNL A   1      43.017  30.847  30.389  1.00  0.00     0.074 A 
ATOM     59  C   UNL A   1      41.844  31.684  30.525  1.00  0.00     0.031 C 
ATOM     60  C   UNL A   1      44.271  31.226  30.740  1.00  0.00     0.037 A 
BRANCH  47  61
ATOM     61  C   UNL A   1      48.566  26.869  29.849  1.00  0.00     0.057 A 
ATOM     62  C   UNL A   1      49.490  27.086  28.818  1.00  0.00     0.134 A 
ATOM     63  C   UNL A   1      49.041  26.275  31.025  1.00  0.00     0.134 A 
ATOM     64  F   UNL A   1      49.100  27.640  27.661  1.00  0.00    -0.206 F 
ATOM     65  C   UNL A   1      50.826  26.698  28.939  1.00  0.00     0.040 A 
ATOM     66  C   UNL A   1      50.382  25.912  31.170  1.00  0.00     0.040 A 
ATOM     67  F   UNL A   1      48.214  26.043  32.055  1.00  0.00    -0.206 F 
ATOM     68  C   UNL A   1      51.277  26.116  30.122  1.00  0.00     0.006 A 
ENDBRANCH  47  61
BRANCH  48  69
ATOM     69  C   UNL A   1      38.863  29.097  29.041  1.00  0.00     0.057 A 
ATOM     70  C   UNL A   1      38.287  29.527  27.840  1.00  0.00     0.134 A 
ATOM     71  C   UNL A   1      38.023  29.001  30.158  1.00  0.00     0.134 A 
ATOM     72  F   UNL A   1      39.041  29.657  26.738  1.00  0.00    -0.206 F 
ATOM     73  C   UNL A   1      36.937  29.873  27.757  1.00  0.00     0.040 A 
ATOM     74  C   UNL A   1      36.666  29.315  30.084  1.00  0.00     0.040 A 
ATOM     75  F   UNL A   1      38.510  28.586  31.337  1.00  0.00    -0.206 F 
ATOM     76  C   UNL A   1      36.121  29.761  28.881  1.00  0.00     0.006 A 
ENDBRANCH  48  69
BRANCH  60  77
ATOM     77  C   UNL A   1      44.446  32.621  31.269  1.00  0.00     0.057 A 
ATOM     78  C   UNL A   1      44.636  33.720  30.422  1.00  0.00     0.134 A 
ATOM     79  C   UNL A   1      44.383  32.872  32.646  1.00  0.00     0.134 A 
ATOM     80  F   UNL A   1      44.717  33.549  29.093  1.00  0.00    -0.206 F 
ATOM     81  C   UNL A   1      44.783  35.013  30.926  1.00  0.00     0.040 A 
ATOM     82  C   UNL A   1      44.497  34.164  33.160  1.00  0.00     0.040 A 
ATOM     83  F   UNL A   1      44.192  31.866  33.514  1.00  0.00    -0.206 F 
ATOM     84  C   UNL A   1      44.706  35.238  32.300  1.00  0.00     0.006 A 
ENDBRANCH  60  77
ENDBRANCH  34  35
ENDBRANCH  26  29
ENDBRANCH  24  25
ENDBRANCH  23  24
ENDBRANCH  22  23
ENDBRANCH   1  22
TORSDOF 17
ENDMDL
MODEL 3
REMARK VINA RESULT:     -10.5      1.630      7.241
REMARK SMILES C=CC[C@@H](NC(=O)OCc1ccccc1)C(=O)NCCCCNC(=O)c1ccc(-c2c3nc(c(-c4c(F)cccc4F)c4ccc([nH]4)c(-c4c(F)cccc4F)c4nc(c(-c5c(F)cccc5F)c5ccc2[nH]5)C=C4)C=C3)cc1
REMARK SMILES IDX 19 1 18 2 16 3 17 4 4 6 3 7 2 8 1 9 5 10 6 11 7 13 8 14 9 15
REMARK SMILES IDX 10 16 11 17 15 18 12 19 14 20 13 21 20 22 21 23 22 24 23 25
REMARK SMILES IDX 24 26 25 28 26 29 27 30 79 31 28 32 78 33 29 34 30 35 31 36
REMARK SMILES IDX 72 37 32 38 77 39 71 40 73 41 33 42 76 43 70 44 69 45 34 47
REMARK SMILES IDX 60 48 43 49 59 50 44 51 47 52 58 53 74 54 45 55 46 56 57 58
REMARK SMILES IDX 75 59 48 60 35 61 36 62 41 63 37 64 38 65 40 66 42 67 39 68
REMARK SMILES IDX 61 69 62 70 67 71 63 72 64 73 66 74 68 75 65 76 49 77 50 78
REMARK SMILES IDX 55 79 51 80 52 81 54 82 56 83 53 84
REMARK H PARENT 18 5 5 12 23 27 73 46 47 57
REMARK Flexibility Score: inf
ROOT
ATOM      1  C   UNL A   1      37.114  22.159  24.696  1.00  0.00     0.116 C 
ENDROOT
BRANCH   1   2
ATOM      2  N   UNL A   1      36.401  22.700  23.554  1.00  0.00    -0.354 N 
ATOM      3  C   UNL A   1      35.202  23.359  23.518  1.00  0.00     0.243 C 
ATOM      4  O   UNL A   1      34.739  23.645  22.410  1.00  0.00    -0.273 OA
ATOM      5  H   UNL A   1      36.842  22.576  22.682  1.00  0.00     0.163 HD
BRANCH   3   6
ATOM      6  C   UNL A   1      34.373  23.565  24.808  1.00  0.00     0.178 C 
BRANCH   6   7
ATOM      7  C   UNL A   1      34.873  24.920  25.381  1.00  0.00     0.062 C 
BRANCH   7   8
ATOM      8  C   UNL A   1      33.847  26.002  25.581  1.00  0.00    -0.032 C 
ATOM      9  C   UNL A   1      33.862  27.152  24.895  1.00  0.00     0.004 C 
ENDBRANCH   7   8
ENDBRANCH   6   7
BRANCH   6  10
ATOM     10  N   UNL A   1      32.919  23.561  24.603  1.00  0.00    -0.309 N 
ATOM     11  C   UNL A   1      32.094  22.482  24.488  1.00  0.00     0.408 C 
ATOM     12  H   UNL A   1      32.487  24.445  24.540  1.00  0.00     0.167 HD
ATOM     13  O   UNL A   1      30.889  22.634  24.330  1.00  0.00    -0.225 OA
BRANCH  11  14
ATOM     14  O   UNL A   1      32.746  21.300  24.455  1.00  0.00    -0.445 OA
BRANCH  14  15
ATOM     15  C   UNL A   1      32.106  20.213  25.139  1.00  0.00     0.270 C 
BRANCH  15  16
ATOM     16  C   UNL A   1      32.671  18.855  24.809  1.00  0.00    -0.011 A 
ATOM     17  C   UNL A   1      33.055  18.579  23.487  1.00  0.00     0.007 A 
ATOM     18  C   UNL A   1      32.766  17.836  25.764  1.00  0.00     0.007 A 
ATOM     19  C   UNL A   1      33.515  17.310  23.132  1.00  0.00     0.000 A 
ATOM     20  C   UNL A   1      33.219  16.567  25.407  1.00  0.00     0.000 A 
ATOM     21  C   UNL A   1      33.591  16.303  24.092  1.00  0.00     0.000 A 
ENDBRANCH  15  16
ENDBRANCH  14  15
ENDBRANCH  11  14
ENDBRANCH   6  10
ENDBRANCH   3   6
ENDBRANCH   1   2
BRANCH   1  22
ATOM     22  C   UNL A   1      36.694  20.726  24.985  1.00  0.00     0.023 C 
BRANCH  22  23
ATOM     23  C   UNL A   1      37.847  19.729  24.936  1.00  0.00     0.023 C 
BRANCH  23  24
ATOM     24  C   UNL A   1      39.070  20.143  25.743  1.00  0.00     0.116 C 
BRANCH  24  25
ATOM     25  N   UNL A   1      40.056  19.077  25.853  1.00  0.00    -0.352 N 
ATOM     26  C   UNL A   1      41.406  19.179  26.082  1.00  0.00     0.251 C 
ATOM     27  H   UNL A   1      39.708  18.162  25.749  1.00  0.00     0.163 HD
ATOM     28  O   UNL A   1      42.139  18.204  25.960  1.00  0.00    -0.269 OA
BRANCH  26  29
ATOM     29  C   UNL A   1      41.967  20.493  26.451  1.00  0.00     0.039 A 
ATOM     30  C   UNL A   1      42.383  21.361  25.441  1.00  0.00     0.014 A 
ATOM     31  C   UNL A   1      42.025  20.879  27.793  1.00  0.00     0.014 A 
ATOM     32  C   UNL A   1      42.795  22.651  25.776  1.00  0.00     0.010 A 
ATOM     33  C   UNL A   1      42.349  22.191  28.115  1.00  0.00     0.010 A 
ATOM     34  C   UNL A   1      42.741  23.089  27.111  1.00  0.00    -0.014 A 
BRANCH  34  35
ATOM     35  C   UNL A   1      43.093  24.484  27.476  1.00  0.00     0.031 A 
ATOM     36  C   UNL A   1      44.532  24.918  27.492  1.00  0.00     0.074 A 
ATOM     37  C   UNL A   1      42.123  25.340  27.849  1.00  0.00     0.049 A 
ATOM     38  N   UNL A   1      45.043  26.073  27.837  1.00  0.00    -0.248 NA
ATOM     39  C   UNL A   1      45.532  23.915  27.096  1.00  0.00     0.031 C 
ATOM     40  C   UNL A   1      40.695  25.024  27.924  1.00  0.00     0.029 A 
ATOM     41  N   UNL A   1      42.191  26.652  28.246  1.00  0.00    -0.354 N 
ATOM     42  C   UNL A   1      46.417  25.931  27.706  1.00  0.00     0.074 A 
ATOM     43  C   UNL A   1      46.667  24.561  27.316  1.00  0.00     0.031 C 
ATOM     44  C   UNL A   1      40.022  26.117  28.314  1.00  0.00     0.029 A 
ATOM     45  C   UNL A   1      40.970  27.198  28.561  1.00  0.00     0.049 A 
ATOM     46  H   UNL A   1      43.037  27.154  28.301  1.00  0.00     0.167 HD
ATOM     47  C   UNL A   1      47.385  26.865  27.868  1.00  0.00     0.037 A 
ATOM     48  C   UNL A   1      40.653  28.428  29.007  1.00  0.00     0.037 A 
ATOM     49  C   UNL A   1      47.131  28.231  28.246  1.00  0.00     0.049 A 
ATOM     50  C   UNL A   1      41.747  29.441  29.203  1.00  0.00     0.074 A 
ATOM     51  C   UNL A   1      48.037  29.267  28.390  1.00  0.00     0.029 A 
ATOM     52  N   UNL A   1      45.880  28.748  28.548  1.00  0.00    -0.354 N 
ATOM     53  N   UNL A   1      43.038  29.314  29.007  1.00  0.00    -0.248 NA
ATOM     54  C   UNL A   1      41.341  30.771  29.678  1.00  0.00     0.031 C 
ATOM     55  C   UNL A   1      47.342  30.396  28.833  1.00  0.00     0.029 A 
ATOM     56  C   UNL A   1      45.994  30.082  28.903  1.00  0.00     0.049 A 
ATOM     57  H   UNL A   1      45.036  28.242  28.514  1.00  0.00     0.167 HD
ATOM     58  C   UNL A   1      43.592  30.553  29.303  1.00  0.00     0.074 A 
ATOM     59  C   UNL A   1      42.496  31.422  29.677  1.00  0.00     0.031 C 
ATOM     60  C   UNL A   1      44.892  30.937  29.267  1.00  0.00     0.037 A 
BRANCH  47  61
ATOM     61  C   UNL A   1      48.806  26.437  27.635  1.00  0.00     0.057 A 
ATOM     62  C   UNL A   1      49.621  25.976  28.678  1.00  0.00     0.134 A 
ATOM     63  C   UNL A   1      49.358  26.459  26.347  1.00  0.00     0.134 A 
ATOM     64  F   UNL A   1      49.159  25.941  29.936  1.00  0.00    -0.206 F 
ATOM     65  C   UNL A   1      50.941  25.583  28.455  1.00  0.00     0.040 A 
ATOM     66  C   UNL A   1      50.667  26.037  26.107  1.00  0.00     0.040 A 
ATOM     67  F   UNL A   1      48.633  26.883  25.301  1.00  0.00    -0.206 F 
ATOM     68  C   UNL A   1      51.465  25.605  27.164  1.00  0.00     0.006 A 
ENDBRANCH  47  61
BRANCH  48  69
ATOM     69  C   UNL A   1      39.236  28.776  29.287  1.00  0.00     0.057 A 
ATOM     70  C   UNL A   1      38.420  29.343  28.300  1.00  0.00     0.134 A 
ATOM     71  C   UNL A   1      38.666  28.561  30.548  1.00  0.00     0.134 A 
ATOM     72  F   UNL A   1      38.912  29.590  27.077  1.00  0.00    -0.206 F 
ATOM     73  C   UNL A   1      37.098  29.707  28.564  1.00  0.00     0.040 A 
ATOM     74  C   UNL A   1      37.337  28.892  30.817  1.00  0.00     0.040 A 
ATOM     75  F   UNL A   1      39.390  28.012  31.534  1.00  0.00    -0.206 F 
ATOM     76  C   UNL A   1      36.552  29.476  29.824  1.00  0.00     0.006 A 
ENDBRANCH  48  69
BRANCH  60  77
ATOM     77  C   UNL A   1      45.197  32.368  29.604  1.00  0.00     0.057 A 
ATOM     78  C   UNL A   1      45.550  32.771  30.898  1.00  0.00     0.134 A 
ATOM     79  C   UNL A   1      45.176  33.352  28.607  1.00  0.00     0.134 A 
ATOM     80  F   UNL A   1      45.579  31.881  31.903  1.00  0.00    -0.206 F 
ATOM     81  C   UNL A   1      45.845  34.103  31.194  1.00  0.00     0.040 A 
ATOM     82  C   UNL A   1      45.498  34.681  28.883  1.00  0.00     0.040 A 
ATOM     83  F   UNL A   1      44.856  33.035  27.343  1.00  0.00    -0.206 F 
ATOM     84  C   UNL A   1      45.826  35.061  30.182  1.00  0.00     0.006 A 
ENDBRANCH  60  77
ENDBRANCH  34  35
ENDBRANCH  26  29
ENDBRANCH  24  25
ENDBRANCH  23  24
ENDBRANCH  22  23
ENDBRANCH   1  22
TORSDOF 17
ENDMDL
