MODEL 1
REMARK VINA RESULT:     -11.3      0.000      0.000
REMARK SMILES COc1cc2nc(SCC(=O)NCCCCNC(=O)c3ccc(-c4c5nc(c(-c6c(F)cccc6F)c6ccc([nH]6)c(-c6c(F)cccc6F)c6nc(c(-c7c(F)cccc7F)c7ccc4[nH]7)C=C6)C=C5)cc3)nc(O)c2cc1OC
REMARK SMILES IDX 14 1 13 2 12 3 10 4 11 5 9 7 8 8 7 9 3 10 4 11 79 12 5 13
REMARK SMILES IDX 78 14 6 15 77 16 75 17 74 18 2 19 1 20 80 21 81 22 76 23
REMARK SMILES IDX 15 25 16 26 17 27 18 28 19 30 20 31 21 32 73 33 22 34 72 35
REMARK SMILES IDX 23 36 24 37 25 38 66 39 26 40 71 41 65 42 67 43 27 44 70 45
REMARK SMILES IDX 64 46 63 47 28 49 54 50 37 51 53 52 38 53 41 54 52 55 68 56
REMARK SMILES IDX 39 57 40 58 51 60 69 61 42 62 29 63 30 64 35 65 31 66 32 67
REMARK SMILES IDX 34 68 36 69 33 70 55 71 56 72 61 73 57 74 58 75 60 76 62 77
REMARK SMILES IDX 59 78 43 79 44 80 49 81 45 82 46 83 48 84 50 85 47 86
REMARK H PARENT 12 6 76 24 17 29 67 48 41 59
REMARK Flexibility Score: inf
ROOT
ATOM      1  C   UNL A   1      31.810  30.107  26.935  1.00  0.00     0.023 C 
ENDROOT
BRANCH   1   2
ATOM      2  C   UNL A   1      32.394  29.366  25.731  1.00  0.00     0.116 C 
BRANCH   2   3
ATOM      3  N   UNL A   1      31.450  28.415  25.173  1.00  0.00    -0.355 N 
ATOM      4  C   UNL A   1      31.123  28.171  23.871  1.00  0.00     0.230 C 
ATOM      5  O   UNL A   1      30.283  27.294  23.648  1.00  0.00    -0.274 OA
ATOM      6  H   UNL A   1      30.976  27.860  25.834  1.00  0.00     0.163 HD
BRANCH   4   7
ATOM      7  C   UNL A   1      31.845  28.881  22.738  1.00  0.00     0.178 C 
BRANCH   7   8
ATOM      8  S   UNL A   1      33.609  28.468  22.596  1.00  0.00    -0.076 SA
BRANCH   8   9
ATOM      9  C   UNL A   1      33.571  26.700  22.707  1.00  0.00     0.192 A 
ATOM     10  C   UNL A   1      34.135  22.874  25.430  1.00  0.00     0.162 A 
ATOM     11  C   UNL A   1      34.120  24.264  25.261  1.00  0.00     0.079 A 
ATOM     12  C   UNL A   1      33.823  22.019  24.365  1.00  0.00     0.161 A 
ATOM     13  C   UNL A   1      33.839  24.844  24.035  1.00  0.00     0.083 A 
ATOM     14  C   UNL A   1      33.537  22.591  23.126  1.00  0.00     0.066 A 
ATOM     15  N   UNL A   1      33.860  26.178  23.909  1.00  0.00    -0.222 NA
ATOM     16  C   UNL A   1      33.549  23.998  22.966  1.00  0.00     0.066 A 
ATOM     17  C   UNL A   1      33.280  24.667  21.781  1.00  0.00     0.223 A 
ATOM     18  N   UNL A   1      33.265  25.990  21.620  1.00  0.00    -0.187 NA
BRANCH  10  19
ATOM     19  O   UNL A   1      34.397  22.437  26.706  1.00  0.00    -0.493 OA
ATOM     20  C   UNL A   1      33.269  22.577  27.568  1.00  0.00     0.278 C 
ENDBRANCH  10  19
BRANCH  12  21
ATOM     21  O   UNL A   1      33.796  20.678  24.628  1.00  0.00    -0.493 OA
ATOM     22  C   UNL A   1      32.528  20.071  24.840  1.00  0.00     0.278 C 
ENDBRANCH  12  21
BRANCH  17  23
ATOM     23  O   UNL A   1      33.028  23.991  20.628  1.00  0.00    -0.493 OA
ATOM     24  H   UNL A   1      32.383  23.311  20.613  1.00  0.00     0.295 HD
ENDBRANCH  17  23
ENDBRANCH   8   9
ENDBRANCH   7   8
ENDBRANCH   4   7
ENDBRANCH   2   3
ENDBRANCH   1   2
BRANCH   1  25
ATOM     25  C   UNL A   1      31.650  31.618  26.746  1.00  0.00     0.023 C 
BRANCH  25  26
ATOM     26  C   UNL A   1      32.834  32.467  27.199  1.00  0.00     0.116 C 
BRANCH  26  27
ATOM     27  N   UNL A   1      32.467  33.828  27.558  1.00  0.00    -0.352 N 
ATOM     28  C   UNL A   1      33.032  34.655  28.503  1.00  0.00     0.251 C 
ATOM     29  H   UNL A   1      31.711  34.211  27.057  1.00  0.00     0.163 HD
ATOM     30  O   UNL A   1      32.528  35.747  28.751  1.00  0.00    -0.269 OA
BRANCH  28  31
ATOM     31  C   UNL A   1      34.221  34.202  29.256  1.00  0.00     0.039 A 
ATOM     32  C   UNL A   1      35.508  34.496  28.805  1.00  0.00     0.014 A 
ATOM     33  C   UNL A   1      34.040  33.428  30.408  1.00  0.00     0.014 A 
ATOM     34  C   UNL A   1      36.604  33.874  29.395  1.00  0.00     0.010 A 
ATOM     35  C   UNL A   1      35.149  32.866  31.047  1.00  0.00     0.010 A 
ATOM     36  C   UNL A   1      36.435  33.036  30.511  1.00  0.00    -0.014 A 
BRANCH  36  37
ATOM     37  C   UNL A   1      37.610  32.317  31.069  1.00  0.00     0.031 A 
ATOM     38  C   UNL A   1      38.107  32.622  32.459  1.00  0.00     0.074 A 
ATOM     39  C   UNL A   1      38.196  31.341  30.348  1.00  0.00     0.049 A 
ATOM     40  N   UNL A   1      39.100  32.079  33.121  1.00  0.00    -0.248 NA
ATOM     41  C   UNL A   1      37.398  33.674  33.205  1.00  0.00     0.031 C 
ATOM     42  C   UNL A   1      37.805  30.940  28.995  1.00  0.00     0.029 A 
ATOM     43  N   UNL A   1      39.228  30.494  30.661  1.00  0.00    -0.354 N 
ATOM     44  C   UNL A   1      39.146  32.733  34.346  1.00  0.00     0.074 A 
ATOM     45  C   UNL A   1      38.100  33.733  34.328  1.00  0.00     0.031 C 
ATOM     46  C   UNL A   1      38.557  29.896  28.613  1.00  0.00     0.029 A 
ATOM     47  C   UNL A   1      39.516  29.589  29.669  1.00  0.00     0.049 A 
ATOM     48  H   UNL A   1      39.716  30.530  31.516  1.00  0.00     0.167 HD
ATOM     49  C   UNL A   1      39.974  32.514  35.395  1.00  0.00     0.037 A 
ATOM     50  C   UNL A   1      40.454  28.626  29.611  1.00  0.00     0.037 A 
ATOM     51  C   UNL A   1      41.000  31.504  35.427  1.00  0.00     0.049 A 
ATOM     52  C   UNL A   1      41.383  28.432  30.775  1.00  0.00     0.074 A 
ATOM     53  C   UNL A   1      41.873  31.191  36.456  1.00  0.00     0.029 A 
ATOM     54  N   UNL A   1      41.289  30.640  34.382  1.00  0.00    -0.354 N 
ATOM     55  N   UNL A   1      41.404  29.050  31.929  1.00  0.00    -0.248 NA
ATOM     56  C   UNL A   1      42.425  27.407  30.621  1.00  0.00     0.031 C 
ATOM     57  C   UNL A   1      42.712  30.160  36.021  1.00  0.00     0.029 A 
ATOM     58  C   UNL A   1      42.338  29.806  34.736  1.00  0.00     0.049 A 
ATOM     59  H   UNL A   1      40.820  30.621  33.518  1.00  0.00     0.167 HD
ATOM     60  C   UNL A   1      42.450  28.482  32.645  1.00  0.00     0.074 A 
ATOM     61  C   UNL A   1      43.024  27.453  31.803  1.00  0.00     0.031 C 
ATOM     62  C   UNL A   1      42.897  28.786  33.886  1.00  0.00     0.037 A 
BRANCH  49  63
ATOM     63  C   UNL A   1      39.813  33.393  36.601  1.00  0.00     0.057 A 
ATOM     64  C   UNL A   1      38.892  33.065  37.604  1.00  0.00     0.134 A 
ATOM     65  C   UNL A   1      40.536  34.583  36.749  1.00  0.00     0.134 A 
ATOM     66  F   UNL A   1      38.164  31.943  37.521  1.00  0.00    -0.206 F 
ATOM     67  C   UNL A   1      38.694  33.893  38.711  1.00  0.00     0.040 A 
ATOM     68  C   UNL A   1      40.362  35.408  37.862  1.00  0.00     0.040 A 
ATOM     69  F   UNL A   1      41.443  34.947  35.829  1.00  0.00    -0.206 F 
ATOM     70  C   UNL A   1      39.434  35.067  38.844  1.00  0.00     0.006 A 
ENDBRANCH  49  63
BRANCH  50  71
ATOM     71  C   UNL A   1      40.572  27.775  28.402  1.00  0.00     0.057 A 
ATOM     72  C   UNL A   1      41.338  28.177  27.302  1.00  0.00     0.134 A 
ATOM     73  C   UNL A   1      39.938  26.529  28.329  1.00  0.00     0.134 A 
ATOM     74  F   UNL A   1      41.968  29.361  27.311  1.00  0.00    -0.206 F 
ATOM     75  C   UNL A   1      41.466  27.373  26.169  1.00  0.00     0.040 A 
ATOM     76  C   UNL A   1      40.077  25.704  27.213  1.00  0.00     0.040 A 
ATOM     77  F   UNL A   1      39.209  26.082  29.362  1.00  0.00    -0.206 F 
ATOM     78  C   UNL A   1      40.841  26.129  26.127  1.00  0.00     0.006 A 
ENDBRANCH  50  71
BRANCH  62  79
ATOM     79  C   UNL A   1      44.047  27.979  34.410  1.00  0.00     0.057 A 
ATOM     80  C   UNL A   1      43.824  26.771  35.081  1.00  0.00     0.134 A 
ATOM     81  C   UNL A   1      45.373  28.404  34.259  1.00  0.00     0.134 A 
ATOM     82  F   UNL A   1      42.577  26.312  35.262  1.00  0.00    -0.206 F 
ATOM     83  C   UNL A   1      44.882  26.010  35.579  1.00  0.00     0.040 A 
ATOM     84  C   UNL A   1      46.440  27.642  34.734  1.00  0.00     0.040 A 
ATOM     85  F   UNL A   1      45.651  29.547  33.612  1.00  0.00    -0.206 F 
ATOM     86  C   UNL A   1      46.195  26.442  35.400  1.00  0.00     0.006 A 
ENDBRANCH  62  79
ENDBRANCH  36  37
ENDBRANCH  28  31
ENDBRANCH  26  27
ENDBRANCH  25  26
ENDBRANCH   1  25
TORSDOF 16
ENDMDL
MODEL 2
REMARK VINA RESULT:     -11.3      5.094     10.244
REMARK SMILES COc1cc2nc(SCC(=O)NCCCCNC(=O)c3ccc(-c4c5nc(c(-c6c(F)cccc6F)c6ccc([nH]6)c(-c6c(F)cccc6F)c6nc(c(-c7c(F)cccc7F)c7ccc4[nH]7)C=C6)C=C5)cc3)nc(O)c2cc1OC
REMARK SMILES IDX 14 1 13 2 12 3 10 4 11 5 9 7 8 8 7 9 3 10 4 11 79 12 5 13
REMARK SMILES IDX 78 14 6 15 77 16 75 17 74 18 2 19 1 20 80 21 81 22 76 23
REMARK SMILES IDX 15 25 16 26 17 27 18 28 19 30 20 31 21 32 73 33 22 34 72 35
REMARK SMILES IDX 23 36 24 37 25 38 66 39 26 40 71 41 65 42 67 43 27 44 70 45
REMARK SMILES IDX 64 46 63 47 28 49 54 50 37 51 53 52 38 53 41 54 52 55 68 56
REMARK SMILES IDX 39 57 40 58 51 60 69 61 42 62 29 63 30 64 35 65 31 66 32 67
REMARK SMILES IDX 34 68 36 69 33 70 55 71 56 72 61 73 57 74 58 75 60 76 62 77
REMARK SMILES IDX 59 78 43 79 44 80 49 81 45 82 46 83 48 84 50 85 47 86
REMARK H PARENT 12 6 76 24 17 29 67 48 41 59
REMARK Flexibility Score: inf
ROOT
ATOM      1  C   UNL A   1      37.094  21.358  24.434  1.00  0.00     0.023 C 
ENDROOT
BRANCH   1   2
ATOM      2  C   UNL A   1      35.922  21.839  25.292  1.00  0.00     0.116 C 
BRANCH   2   3
ATOM      3  N   UNL A   1      34.646  21.616  24.635  1.00  0.00    -0.355 N 
ATOM      4  C   UNL A   1      33.450  21.223  25.163  1.00  0.00     0.230 C 
ATOM      5  O   UNL A   1      32.496  21.109  24.389  1.00  0.00    -0.274 OA
ATOM      6  H   UNL A   1      34.643  21.774  23.664  1.00  0.00     0.163 HD
BRANCH   4   7
ATOM      7  C   UNL A   1      33.280  21.039  26.662  1.00  0.00     0.178 C 
BRANCH   7   8
ATOM      8  S   UNL A   1      33.375  22.578  27.623  1.00  0.00    -0.076 SA
BRANCH   8   9
ATOM      9  C   UNL A   1      32.401  23.679  26.633  1.00  0.00     0.192 A 
ATOM     10  C   UNL A   1      32.283  26.714  23.007  1.00  0.00     0.162 A 
ATOM     11  C   UNL A   1      32.973  25.809  23.823  1.00  0.00     0.079 A 
ATOM     12  C   UNL A   1      30.915  26.948  23.194  1.00  0.00     0.161 A 
ATOM     13  C   UNL A   1      32.346  25.147  24.866  1.00  0.00     0.083 A 
ATOM     14  C   UNL A   1      30.272  26.286  24.240  1.00  0.00     0.066 A 
ATOM     15  N   UNL A   1      33.049  24.309  25.640  1.00  0.00    -0.222 NA
ATOM     16  C   UNL A   1      30.989  25.392  25.071  1.00  0.00     0.066 A 
ATOM     17  C   UNL A   1      30.448  24.685  26.134  1.00  0.00     0.223 A 
ATOM     18  N   UNL A   1      31.105  23.824  26.912  1.00  0.00    -0.187 NA
BRANCH  10  19
ATOM     19  O   UNL A   1      33.020  27.273  21.992  1.00  0.00    -0.493 OA
ATOM     20  C   UNL A   1      33.851  28.337  22.451  1.00  0.00     0.278 C 
ENDBRANCH  10  19
BRANCH  12  21
ATOM     21  O   UNL A   1      30.300  27.796  22.315  1.00  0.00    -0.493 OA
ATOM     22  C   UNL A   1      29.854  29.052  22.811  1.00  0.00     0.278 C 
ENDBRANCH  12  21
BRANCH  17  23
ATOM     23  O   UNL A   1      29.149  24.847  26.505  1.00  0.00    -0.493 OA
ATOM     24  H   UNL A   1      28.942  25.228  27.335  1.00  0.00     0.295 HD
ENDBRANCH  17  23
ENDBRANCH   8   9
ENDBRANCH   7   8
ENDBRANCH   4   7
ENDBRANCH   2   3
ENDBRANCH   1   2
BRANCH   1  25
ATOM     25  C   UNL A   1      37.790  20.093  24.945  1.00  0.00     0.023 C 
BRANCH  25  26
ATOM     26  C   UNL A   1      39.049  20.325  25.773  1.00  0.00     0.116 C 
BRANCH  26  27
ATOM     27  N   UNL A   1      39.973  19.201  25.750  1.00  0.00    -0.352 N 
ATOM     28  C   UNL A   1      41.330  19.192  25.979  1.00  0.00     0.251 C 
ATOM     29  H   UNL A   1      39.572  18.326  25.543  1.00  0.00     0.163 HD
ATOM     30  O   UNL A   1      41.979  18.163  25.817  1.00  0.00    -0.269 OA
BRANCH  28  31
ATOM     31  C   UNL A   1      42.015  20.442  26.373  1.00  0.00     0.039 A 
ATOM     32  C   UNL A   1      42.119  20.809  27.715  1.00  0.00     0.014 A 
ATOM     33  C   UNL A   1      42.519  21.283  25.375  1.00  0.00     0.014 A 
ATOM     34  C   UNL A   1      42.559  22.086  28.049  1.00  0.00     0.010 A 
ATOM     35  C   UNL A   1      43.034  22.536  25.718  1.00  0.00     0.010 A 
ATOM     36  C   UNL A   1      43.004  22.972  27.052  1.00  0.00    -0.014 A 
BRANCH  36  37
ATOM     37  C   UNL A   1      43.388  24.358  27.426  1.00  0.00     0.031 A 
ATOM     38  C   UNL A   1      44.818  24.818  27.297  1.00  0.00     0.074 A 
ATOM     39  C   UNL A   1      42.439  25.227  27.822  1.00  0.00     0.049 A 
ATOM     40  N   UNL A   1      45.334  25.996  27.551  1.00  0.00    -0.248 NA
ATOM     41  C   UNL A   1      45.797  23.828  26.822  1.00  0.00     0.031 C 
ATOM     42  C   UNL A   1      41.017  24.911  27.978  1.00  0.00     0.029 A 
ATOM     43  N   UNL A   1      42.522  26.557  28.145  1.00  0.00    -0.354 N 
ATOM     44  C   UNL A   1      46.694  25.883  27.287  1.00  0.00     0.074 A 
ATOM     45  C   UNL A   1      46.930  24.515  26.879  1.00  0.00     0.031 C 
ATOM     46  C   UNL A   1      40.356  26.028  28.322  1.00  0.00     0.029 A 
ATOM     47  C   UNL A   1      41.310  27.122  28.462  1.00  0.00     0.049 A 
ATOM     48  H   UNL A   1      43.369  27.061  28.148  1.00  0.00     0.167 HD
ATOM     49  C   UNL A   1      47.656  26.834  27.364  1.00  0.00     0.037 A 
ATOM     50  C   UNL A   1      41.004  28.378  28.835  1.00  0.00     0.037 A 
ATOM     51  C   UNL A   1      47.421  28.202  27.745  1.00  0.00     0.049 A 
ATOM     52  C   UNL A   1      42.098  29.401  28.948  1.00  0.00     0.074 A 
ATOM     53  C   UNL A   1      48.331  29.243  27.828  1.00  0.00     0.029 A 
ATOM     54  N   UNL A   1      46.187  28.720  28.104  1.00  0.00    -0.354 N 
ATOM     55  N   UNL A   1      43.375  29.280  28.682  1.00  0.00    -0.248 NA
ATOM     56  C   UNL A   1      41.704  30.735  29.422  1.00  0.00     0.031 C 
ATOM     57  C   UNL A   1      47.652  30.384  28.270  1.00  0.00     0.029 A 
ATOM     58  C   UNL A   1      46.314  30.063  28.426  1.00  0.00     0.049 A 
ATOM     59  H   UNL A   1      45.345  28.212  28.127  1.00  0.00     0.167 HD
ATOM     60  C   UNL A   1      43.935  30.523  28.943  1.00  0.00     0.074 A 
ATOM     61  C   UNL A   1      42.855  31.391  29.365  1.00  0.00     0.031 C 
ATOM     62  C   UNL A   1      45.229  30.912  28.844  1.00  0.00     0.037 A 
BRANCH  49  63
ATOM     63  C   UNL A   1      49.062  26.424  27.037  1.00  0.00     0.057 A 
ATOM     64  C   UNL A   1      49.517  26.429  25.712  1.00  0.00     0.134 A 
ATOM     65  C   UNL A   1      49.952  25.985  28.025  1.00  0.00     0.134 A 
ATOM     66  F   UNL A   1      48.713  26.832  24.717  1.00  0.00    -0.206 F 
ATOM     67  C   UNL A   1      50.806  26.008  25.382  1.00  0.00     0.040 A 
ATOM     68  C   UNL A   1      51.251  25.582  27.709  1.00  0.00     0.040 A 
ATOM     69  F   UNL A   1      49.582  25.968  29.315  1.00  0.00    -0.206 F 
ATOM     70  C   UNL A   1      51.679  25.587  26.384  1.00  0.00     0.006 A 
ENDBRANCH  49  63
BRANCH  50  71
ATOM     71  C   UNL A   1      39.599  28.741  29.141  1.00  0.00     0.057 A 
ATOM     72  C   UNL A   1      38.738  29.222  28.148  1.00  0.00     0.134 A 
ATOM     73  C   UNL A   1      39.079  28.594  30.432  1.00  0.00     0.134 A 
ATOM     74  F   UNL A   1      39.179  29.388  26.892  1.00  0.00    -0.206 F 
ATOM     75  C   UNL A   1      37.411  29.550  28.428  1.00  0.00     0.040 A 
ATOM     76  C   UNL A   1      37.747  28.894  30.721  1.00  0.00     0.040 A 
ATOM     77  F   UNL A   1      39.850  28.117  31.420  1.00  0.00    -0.206 F 
ATOM     78  C   UNL A   1      36.911  29.378  29.716  1.00  0.00     0.006 A 
ENDBRANCH  50  71
BRANCH  62  79
ATOM     79  C   UNL A   1      45.535  32.341  29.178  1.00  0.00     0.057 A 
ATOM     80  C   UNL A   1      45.459  33.336  28.196  1.00  0.00     0.134 A 
ATOM     81  C   UNL A   1      45.915  32.729  30.469  1.00  0.00     0.134 A 
ATOM     82  F   UNL A   1      45.106  33.027  26.939  1.00  0.00    -0.206 F 
ATOM     83  C   UNL A   1      45.746  34.670  28.488  1.00  0.00     0.040 A 
ATOM     84  C   UNL A   1      46.184  34.063  30.777  1.00  0.00     0.040 A 
ATOM     85  F   UNL A   1      45.991  31.824  31.456  1.00  0.00    -0.206 F 
ATOM     86  C   UNL A   1      46.103  35.037  29.784  1.00  0.00     0.006 A 
ENDBRANCH  62  79
ENDBRANCH  36  37
ENDBRANCH  28  31
ENDBRANCH  26  27
ENDBRANCH  25  26
ENDBRANCH   1  25
TORSDOF 16
ENDMDL
MODEL 3
REMARK VINA RESULT:     -11.2      4.155      9.020
REMARK SMILES COc1cc2nc(SCC(=O)NCCCCNC(=O)c3ccc(-c4c5nc(c(-c6c(F)cccc6F)c6ccc([nH]6)c(-c6c(F)cccc6F)c6nc(c(-c7c(F)cccc7F)c7ccc4[nH]7)C=C6)C=C5)cc3)nc(O)c2cc1OC
REMARK SMILES IDX 14 1 13 2 12 3 10 4 11 5 9 7 8 8 7 9 3 10 4 11 79 12 5 13
REMARK SMILES IDX 78 14 6 15 77 16 75 17 74 18 2 19 1 20 80 21 81 22 76 23
REMARK SMILES IDX 15 25 16 26 17 27 18 28 19 30 20 31 21 32 73 33 22 34 72 35
REMARK SMILES IDX 23 36 24 37 25 38 66 39 26 40 71 41 65 42 67 43 27 44 70 45
REMARK SMILES IDX 64 46 63 47 28 49 54 50 37 51 53 52 38 53 41 54 52 55 68 56
REMARK SMILES IDX 39 57 40 58 51 60 69 61 42 62 29 63 30 64 35 65 31 66 32 67
REMARK SMILES IDX 34 68 36 69 33 70 55 71 56 72 61 73 57 74 58 75 60 76 62 77
REMARK SMILES IDX 59 78 43 79 44 80 49 81 45 82 46 83 48 84 50 85 47 86
REMARK H PARENT 12 6 76 24 17 29 67 48 41 59
REMARK Flexibility Score: inf
ROOT
ATOM      1  C   UNL A   1      37.331  20.619  24.780  1.00  0.00     0.023 C 
ENDROOT
BRANCH   1   2
ATOM      2  C   UNL A   1      37.528  21.840  25.682  1.00  0.00     0.116 C 
BRANCH   2   3
ATOM      3  N   UNL A   1      36.293  22.227  26.341  1.00  0.00    -0.355 N 
ATOM      4  C   UNL A   1      35.422  23.234  26.040  1.00  0.00     0.230 C 
ATOM      5  O   UNL A   1      34.426  23.360  26.758  1.00  0.00    -0.274 OA
ATOM      6  H   UNL A   1      36.047  21.681  27.122  1.00  0.00     0.163 HD
BRANCH   4   7
ATOM      7  C   UNL A   1      35.621  24.096  24.804  1.00  0.00     0.178 C 
BRANCH   7   8
ATOM      8  S   UNL A   1      34.784  23.478  23.315  1.00  0.00    -0.076 SA
BRANCH   8   9
ATOM      9  C   UNL A   1      33.665  24.805  22.957  1.00  0.00     0.192 A 
ATOM     10  C   UNL A   1      31.491  28.703  24.521  1.00  0.00     0.162 A 
ATOM     11  C   UNL A   1      32.378  27.637  24.713  1.00  0.00     0.079 A 
ATOM     12  C   UNL A   1      30.842  28.883  23.293  1.00  0.00     0.161 A 
ATOM     13  C   UNL A   1      32.616  26.702  23.718  1.00  0.00     0.083 A 
ATOM     14  C   UNL A   1      31.075  27.950  22.284  1.00  0.00     0.066 A 
ATOM     15  N   UNL A   1      33.453  25.682  23.951  1.00  0.00    -0.222 NA
ATOM     16  C   UNL A   1      31.958  26.864  22.501  1.00  0.00     0.066 A 
ATOM     17  C   UNL A   1      32.258  25.883  21.568  1.00  0.00     0.223 A 
ATOM     18  N   UNL A   1      33.103  24.868  21.750  1.00  0.00    -0.187 NA
BRANCH  10  19
ATOM     19  O   UNL A   1      31.375  29.571  25.579  1.00  0.00    -0.493 OA
ATOM     20  C   UNL A   1      32.618  29.779  26.248  1.00  0.00     0.278 C 
ENDBRANCH  10  19
BRANCH  12  21
ATOM     21  O   UNL A   1      30.042  29.985  23.165  1.00  0.00    -0.493 OA
ATOM     22  C   UNL A   1      29.388  30.185  21.919  1.00  0.00     0.278 C 
ENDBRANCH  12  21
BRANCH  17  23
ATOM     23  O   UNL A   1      31.662  25.862  20.345  1.00  0.00    -0.493 OA
ATOM     24  H   UNL A   1      30.762  25.615  20.266  1.00  0.00     0.295 HD
ENDBRANCH  17  23
ENDBRANCH   8   9
ENDBRANCH   7   8
ENDBRANCH   4   7
ENDBRANCH   2   3
ENDBRANCH   1   2
BRANCH   1  25
ATOM     25  C   UNL A   1      38.522  19.658  24.728  1.00  0.00     0.023 C 
BRANCH  25  26
ATOM     26  C   UNL A   1      39.286  19.486  26.037  1.00  0.00     0.116 C 
BRANCH  26  27
ATOM     27  N   UNL A   1      40.619  18.932  25.861  1.00  0.00    -0.352 N 
ATOM     28  C   UNL A   1      41.840  19.544  26.036  1.00  0.00     0.251 C 
ATOM     29  H   UNL A   1      40.654  17.989  25.579  1.00  0.00     0.163 HD
ATOM     30  O   UNL A   1      42.876  18.955  25.742  1.00  0.00    -0.269 OA
BRANCH  28  31
ATOM     31  C   UNL A   1      41.897  20.936  26.533  1.00  0.00     0.039 A 
ATOM     32  C   UNL A   1      42.058  22.005  25.650  1.00  0.00     0.014 A 
ATOM     33  C   UNL A   1      41.837  21.167  27.911  1.00  0.00     0.014 A 
ATOM     34  C   UNL A   1      42.336  23.274  26.147  1.00  0.00     0.010 A 
ATOM     35  C   UNL A   1      42.040  22.458  28.407  1.00  0.00     0.010 A 
ATOM     36  C   UNL A   1      42.350  23.511  27.532  1.00  0.00    -0.014 A 
BRANCH  36  37
ATOM     37  C   UNL A   1      42.734  24.855  28.040  1.00  0.00     0.031 A 
ATOM     38  C   UNL A   1      41.685  25.909  28.288  1.00  0.00     0.074 A 
ATOM     39  C   UNL A   1      44.022  25.109  28.339  1.00  0.00     0.049 A 
ATOM     40  N   UNL A   1      41.830  27.126  28.751  1.00  0.00    -0.248 NA
ATOM     41  C   UNL A   1      40.292  25.552  27.974  1.00  0.00     0.031 C 
ATOM     42  C   UNL A   1      45.132  24.171  28.156  1.00  0.00     0.029 A 
ATOM     43  N   UNL A   1      44.612  26.222  28.881  1.00  0.00    -0.354 N 
ATOM     44  C   UNL A   1      40.557  27.683  28.766  1.00  0.00     0.074 A 
ATOM     45  C   UNL A   1      39.653  26.683  28.240  1.00  0.00     0.031 C 
ATOM     46  C   UNL A   1      46.260  24.732  28.620  1.00  0.00     0.029 A 
ATOM     47  C   UNL A   1      45.964  26.084  29.083  1.00  0.00     0.049 A 
ATOM     48  H   UNL A   1      44.115  27.042  29.104  1.00  0.00     0.167 HD
ATOM     49  C   UNL A   1      40.172  28.911  29.192  1.00  0.00     0.037 A 
ATOM     50  C   UNL A   1      46.865  26.951  29.576  1.00  0.00     0.037 A 
ATOM     51  C   UNL A   1      41.062  29.900  29.740  1.00  0.00     0.049 A 
ATOM     52  C   UNL A   1      46.415  28.319  30.003  1.00  0.00     0.074 A 
ATOM     53  C   UNL A   1      40.759  31.164  30.219  1.00  0.00     0.029 A 
ATOM     54  N   UNL A   1      42.431  29.737  29.883  1.00  0.00    -0.354 N 
ATOM     55  N   UNL A   1      45.207  28.824  30.023  1.00  0.00    -0.248 NA
ATOM     56  C   UNL A   1      47.461  29.239  30.471  1.00  0.00     0.031 C 
ATOM     57  C   UNL A   1      41.950  31.777  30.622  1.00  0.00     0.029 A 
ATOM     58  C   UNL A   1      42.989  30.883  30.427  1.00  0.00     0.049 A 
ATOM     59  H   UNL A   1      42.933  28.927  29.634  1.00  0.00     0.167 HD
ATOM     60  C   UNL A   1      45.343  30.114  30.517  1.00  0.00     0.074 A 
ATOM     61  C   UNL A   1      46.749  30.306  30.807  1.00  0.00     0.031 C 
ATOM     62  C   UNL A   1      44.390  31.057  30.711  1.00  0.00     0.037 A 
BRANCH  49  63
ATOM     63  C   UNL A   1      38.717  29.260  29.072  1.00  0.00     0.057 A 
ATOM     64  C   UNL A   1      37.865  29.155  30.180  1.00  0.00     0.134 A 
ATOM     65  C   UNL A   1      38.150  29.660  27.856  1.00  0.00     0.134 A 
ATOM     66  F   UNL A   1      38.343  28.773  31.373  1.00  0.00    -0.206 F 
ATOM     67  C   UNL A   1      36.501  29.432  30.079  1.00  0.00     0.040 A 
ATOM     68  C   UNL A   1      36.791  29.959  27.748  1.00  0.00     0.040 A 
ATOM     69  F   UNL A   1      38.914  29.792  26.760  1.00  0.00    -0.206 F 
ATOM     70  C   UNL A   1      35.961  29.840  28.861  1.00  0.00     0.006 A 
ENDBRANCH  49  63
BRANCH  50  71
ATOM     71  C   UNL A   1      48.293  26.561  29.682  1.00  0.00     0.057 A 
ATOM     72  C   UNL A   1      49.207  26.861  28.666  1.00  0.00     0.134 A 
ATOM     73  C   UNL A   1      48.778  25.896  30.814  1.00  0.00     0.134 A 
ATOM     74  F   UNL A   1      48.802  27.494  27.555  1.00  0.00    -0.206 F 
ATOM     75  C   UNL A   1      50.553  26.509  28.769  1.00  0.00     0.040 A 
ATOM     76  C   UNL A   1      50.126  25.561  30.942  1.00  0.00     0.040 A 
ATOM     77  F   UNL A   1      47.953  25.601  31.829  1.00  0.00    -0.206 F 
ATOM     78  C   UNL A   1      51.017  25.865  29.914  1.00  0.00     0.006 A 
ENDBRANCH  50  71
BRANCH  62  79
ATOM     79  C   UNL A   1      44.840  32.368  31.282  1.00  0.00     0.057 A 
ATOM     80  C   UNL A   1      45.234  33.416  30.442  1.00  0.00     0.134 A 
ATOM     81  C   UNL A   1      44.892  32.588  32.665  1.00  0.00     0.134 A 
ATOM     82  F   UNL A   1      45.210  33.267  29.110  1.00  0.00    -0.206 F 
ATOM     83  C   UNL A   1      45.660  34.641  30.958  1.00  0.00     0.040 A 
ATOM     84  C   UNL A   1      45.297  33.815  33.191  1.00  0.00     0.040 A 
ATOM     85  F   UNL A   1      44.513  31.627  33.521  1.00  0.00    -0.206 F 
ATOM     86  C   UNL A   1      45.686  34.845  32.337  1.00  0.00     0.006 A 
ENDBRANCH  62  79
ENDBRANCH  36  37
ENDBRANCH  28  31
ENDBRANCH  26  27
ENDBRANCH  25  26
ENDBRANCH   1  25
TORSDOF 16
ENDMDL
