MODEL 1
REMARK VINA RESULT:     -11.4      0.000      0.000
REMARK SMILES C[C@@H](C(=O)NCCCCNC(=O)c1ccc(-c2c3nc(c(-c4c(F)cccc4F)c4ccc([nH]4)c(-c4c(F)cccc4F)c4nc(c(-c5c(F)cccc5F)c5ccc2[nH]5)C=C4)C=C3)cc1)c1ccc(-c2ccccc2)cc1
REMARK SMILES IDX 7 1 6 2 5 3 3 4 4 5 2 7 1 8 67 9 68 10 78 11 69 12 77 13
REMARK SMILES IDX 70 14 71 15 72 16 76 17 73 18 75 19 74 20 8 21 9 22 10 23
REMARK SMILES IDX 11 24 12 26 13 27 14 28 66 29 15 30 65 31 16 32 17 33 18 34
REMARK SMILES IDX 59 35 19 36 64 37 58 38 60 39 20 40 63 41 57 42 56 43 21 45
REMARK SMILES IDX 47 46 30 47 46 48 31 49 34 50 45 51 61 52 32 53 33 54 44 56
REMARK SMILES IDX 62 57 35 58 22 59 23 60 28 61 24 62 25 63 27 64 29 65 26 66
REMARK SMILES IDX 48 67 49 68 54 69 50 70 51 71 53 72 55 73 52 74 36 75 37 76
REMARK SMILES IDX 42 77 38 78 39 79 41 80 43 81 40 82
REMARK H PARENT 5 6 10 25 60 44 34 55
REMARK Flexibility Score: inf
ROOT
ATOM      1  C   UNL A   1      32.848  29.520  25.060  1.00  0.00     0.023 C 
ENDROOT
BRANCH   1   2
ATOM      2  C   UNL A   1      31.342  29.278  24.953  1.00  0.00     0.116 C 
BRANCH   2   3
ATOM      3  N   UNL A   1      30.831  29.693  23.665  1.00  0.00    -0.356 N 
ATOM      4  C   UNL A   1      30.305  28.961  22.640  1.00  0.00     0.227 C 
ATOM      5  O   UNL A   1      30.019  29.595  21.622  1.00  0.00    -0.274 OA
ATOM      6  H   UNL A   1      30.869  30.663  23.500  1.00  0.00     0.163 HD
BRANCH   4   7
ATOM      7  C   UNL A   1      30.068  27.446  22.805  1.00  0.00     0.105 C 
ATOM      8  C   UNL A   1      28.984  27.127  23.839  1.00  0.00     0.023 C 
BRANCH   7   9
ATOM      9  C   UNL A   1      31.327  26.672  23.188  1.00  0.00    -0.036 A 
ATOM     10  C   UNL A   1      31.314  25.748  24.243  1.00  0.00     0.005 A 
ATOM     11  C   UNL A   1      32.504  26.815  22.442  1.00  0.00     0.005 A 
ATOM     12  C   UNL A   1      32.451  24.999  24.553  1.00  0.00     0.009 A 
ATOM     13  C   UNL A   1      33.640  26.056  22.750  1.00  0.00     0.009 A 
ATOM     14  C   UNL A   1      33.632  25.135  23.809  1.00  0.00    -0.018 A 
BRANCH  14  15
ATOM     15  C   UNL A   1      34.816  24.329  24.142  1.00  0.00    -0.018 A 
ATOM     16  C   UNL A   1      35.313  23.375  23.237  1.00  0.00     0.009 A 
ATOM     17  C   UNL A   1      35.464  24.463  25.379  1.00  0.00     0.009 A 
ATOM     18  C   UNL A   1      36.412  22.577  23.561  1.00  0.00     0.001 A 
ATOM     19  C   UNL A   1      36.564  23.665  25.706  1.00  0.00     0.001 A 
ATOM     20  C   UNL A   1      37.034  22.719  24.798  1.00  0.00     0.000 A 
ENDBRANCH  14  15
ENDBRANCH   7   9
ENDBRANCH   4   7
ENDBRANCH   2   3
ENDBRANCH   1   2
BRANCH   1  21
ATOM     21  C   UNL A   1      33.646  28.383  25.707  1.00  0.00     0.023 C 
BRANCH  21  22
ATOM     22  C   UNL A   1      33.834  28.491  27.215  1.00  0.00     0.116 C 
BRANCH  22  23
ATOM     23  N   UNL A   1      33.738  29.857  27.699  1.00  0.00    -0.352 N 
ATOM     24  C   UNL A   1      34.696  30.639  28.290  1.00  0.00     0.251 C 
ATOM     25  H   UNL A   1      32.859  30.284  27.585  1.00  0.00     0.163 HD
ATOM     26  O   UNL A   1      34.384  31.740  28.744  1.00  0.00    -0.269 OA
BRANCH  24  27
ATOM     27  C   UNL A   1      36.091  30.164  28.413  1.00  0.00     0.039 A 
ATOM     28  C   UNL A   1      36.521  29.671  29.648  1.00  0.00     0.014 A 
ATOM     29  C   UNL A   1      36.987  30.238  27.342  1.00  0.00     0.014 A 
ATOM     30  C   UNL A   1      37.835  29.227  29.803  1.00  0.00     0.010 A 
ATOM     31  C   UNL A   1      38.277  29.729  27.476  1.00  0.00     0.010 A 
ATOM     32  C   UNL A   1      38.721  29.241  28.714  1.00  0.00    -0.014 A 
BRANCH  32  33
ATOM     33  C   UNL A   1      40.128  28.799  28.874  1.00  0.00     0.031 A 
ATOM     34  C   UNL A   1      41.143  29.725  29.486  1.00  0.00     0.074 A 
ATOM     35  C   UNL A   1      40.501  27.579  28.442  1.00  0.00     0.049 A 
ATOM     36  N   UNL A   1      42.420  29.528  29.705  1.00  0.00    -0.248 NA
ATOM     37  C   UNL A   1      40.668  31.061  29.881  1.00  0.00     0.031 C 
ATOM     38  C   UNL A   1      39.626  26.607  27.786  1.00  0.00     0.029 A 
ATOM     39  N   UNL A   1      41.720  26.949  28.492  1.00  0.00    -0.354 N 
ATOM     40  C   UNL A   1      42.899  30.717  30.240  1.00  0.00     0.074 A 
ATOM     41  C   UNL A   1      41.791  31.646  30.268  1.00  0.00     0.031 C 
ATOM     42  C   UNL A   1      40.327  25.493  27.523  1.00  0.00     0.029 A 
ATOM     43  C   UNL A   1      41.704  25.679  27.970  1.00  0.00     0.049 A 
ATOM     44  H   UNL A   1      42.528  27.368  28.867  1.00  0.00     0.167 HD
ATOM     45  C   UNL A   1      44.142  31.002  30.693  1.00  0.00     0.037 A 
ATOM     46  C   UNL A   1      42.688  24.767  27.873  1.00  0.00     0.037 A 
ATOM     47  C   UNL A   1      45.233  30.065  30.703  1.00  0.00     0.049 A 
ATOM     48  C   UNL A   1      44.052  25.094  28.417  1.00  0.00     0.074 A 
ATOM     49  C   UNL A   1      46.515  30.236  31.198  1.00  0.00     0.029 A 
ATOM     50  N   UNL A   1      45.168  28.776  30.198  1.00  0.00    -0.354 N 
ATOM     51  N   UNL A   1      44.472  26.197  28.987  1.00  0.00    -0.248 NA
ATOM     52  C   UNL A   1      45.072  24.041  28.318  1.00  0.00     0.031 C 
ATOM     53  C   UNL A   1      47.234  29.058  30.965  1.00  0.00     0.029 A 
ATOM     54  C   UNL A   1      46.388  28.142  30.361  1.00  0.00     0.049 A 
ATOM     55  H   UNL A   1      44.372  28.370  29.785  1.00  0.00     0.167 HD
ATOM     56  C   UNL A   1      45.792  25.957  29.349  1.00  0.00     0.074 A 
ATOM     57  C   UNL A   1      46.099  24.603  28.939  1.00  0.00     0.031 C 
ATOM     58  C   UNL A   1      46.670  26.786  29.967  1.00  0.00     0.037 A 
BRANCH  45  59
ATOM     59  C   UNL A   1      44.383  32.386  31.222  1.00  0.00     0.057 A 
ATOM     60  C   UNL A   1      44.181  32.708  32.571  1.00  0.00     0.134 A 
ATOM     61  C   UNL A   1      44.839  33.406  30.378  1.00  0.00     0.134 A 
ATOM     62  F   UNL A   1      43.731  31.780  33.430  1.00  0.00    -0.206 F 
ATOM     63  C   UNL A   1      44.396  33.999  33.055  1.00  0.00     0.040 A 
ATOM     64  C   UNL A   1      45.084  34.694  30.855  1.00  0.00     0.040 A 
ATOM     65  F   UNL A   1      45.059  33.166  29.076  1.00  0.00    -0.206 F 
ATOM     66  C   UNL A   1      44.854  34.996  32.196  1.00  0.00     0.006 A 
ENDBRANCH  45  59
BRANCH  46  67
ATOM     67  C   UNL A   1      42.410  23.431  27.288  1.00  0.00     0.057 A 
ATOM     68  C   UNL A   1      41.985  22.368  28.093  1.00  0.00     0.134 A 
ATOM     69  C   UNL A   1      42.571  23.184  25.920  1.00  0.00     0.134 A 
ATOM     70  F   UNL A   1      41.829  22.543  29.414  1.00  0.00    -0.206 F 
ATOM     71  C   UNL A   1      41.750  21.099  27.564  1.00  0.00     0.040 A 
ATOM     72  C   UNL A   1      42.318  21.924  25.374  1.00  0.00     0.040 A 
ATOM     73  F   UNL A   1      42.969  24.163  25.096  1.00  0.00    -0.206 F 
ATOM     74  C   UNL A   1      41.914  20.875  26.198  1.00  0.00     0.006 A 
ENDBRANCH  46  67
BRANCH  58  75
ATOM     75  C   UNL A   1      48.026  26.229  30.285  1.00  0.00     0.057 A 
ATOM     76  C   UNL A   1      49.064  26.220  29.345  1.00  0.00     0.134 A 
ATOM     77  C   UNL A   1      48.302  25.721  31.560  1.00  0.00     0.134 A 
ATOM     78  F   UNL A   1      48.860  26.682  28.102  1.00  0.00    -0.206 F 
ATOM     79  C   UNL A   1      50.321  25.700  29.654  1.00  0.00     0.040 A 
ATOM     80  C   UNL A   1      49.562  25.220  31.889  1.00  0.00     0.040 A 
ATOM     81  F   UNL A   1      47.353  25.708  32.509  1.00  0.00    -0.206 F 
ATOM     82  C   UNL A   1      50.574  25.203  30.932  1.00  0.00     0.006 A 
ENDBRANCH  58  75
ENDBRANCH  32  33
ENDBRANCH  24  27
ENDBRANCH  22  23
ENDBRANCH  21  22
ENDBRANCH   1  21
TORSDOF 13
ENDMDL
MODEL 2
REMARK VINA RESULT:     -11.3      2.799      7.893
REMARK SMILES C[C@@H](C(=O)NCCCCNC(=O)c1ccc(-c2c3nc(c(-c4c(F)cccc4F)c4ccc([nH]4)c(-c4c(F)cccc4F)c4nc(c(-c5c(F)cccc5F)c5ccc2[nH]5)C=C4)C=C3)cc1)c1ccc(-c2ccccc2)cc1
REMARK SMILES IDX 7 1 6 2 5 3 3 4 4 5 2 7 1 8 67 9 68 10 78 11 69 12 77 13
REMARK SMILES IDX 70 14 71 15 72 16 76 17 73 18 75 19 74 20 8 21 9 22 10 23
REMARK SMILES IDX 11 24 12 26 13 27 14 28 66 29 15 30 65 31 16 32 17 33 18 34
REMARK SMILES IDX 59 35 19 36 64 37 58 38 60 39 20 40 63 41 57 42 56 43 21 45
REMARK SMILES IDX 47 46 30 47 46 48 31 49 34 50 45 51 61 52 32 53 33 54 44 56
REMARK SMILES IDX 62 57 35 58 22 59 23 60 28 61 24 62 25 63 27 64 29 65 26 66
REMARK SMILES IDX 48 67 49 68 54 69 50 70 51 71 53 72 55 73 52 74 36 75 37 76
REMARK SMILES IDX 42 77 38 78 39 79 41 80 43 81 40 82
REMARK H PARENT 5 6 10 25 60 44 34 55
REMARK Flexibility Score: inf
ROOT
ATOM      1  C   UNL A   1      38.772  22.108  26.148  1.00  0.00     0.023 C 
ENDROOT
BRANCH   1   2
ATOM      2  C   UNL A   1      37.516  22.891  25.763  1.00  0.00     0.116 C 
BRANCH   2   3
ATOM      3  N   UNL A   1      37.359  22.963  24.327  1.00  0.00    -0.356 N 
ATOM      4  C   UNL A   1      36.234  22.946  23.555  1.00  0.00     0.227 C 
ATOM      5  O   UNL A   1      36.422  22.948  22.336  1.00  0.00    -0.274 OA
ATOM      6  H   UNL A   1      38.202  23.036  23.824  1.00  0.00     0.163 HD
BRANCH   4   7
ATOM      7  C   UNL A   1      34.838  22.961  24.210  1.00  0.00     0.105 C 
ATOM      8  C   UNL A   1      33.769  22.301  23.335  1.00  0.00     0.023 C 
BRANCH   7   9
ATOM      9  C   UNL A   1      34.351  24.363  24.571  1.00  0.00    -0.036 A 
ATOM     10  C   UNL A   1      34.102  25.320  23.577  1.00  0.00     0.005 A 
ATOM     11  C   UNL A   1      34.070  24.696  25.902  1.00  0.00     0.005 A 
ATOM     12  C   UNL A   1      33.602  26.580  23.907  1.00  0.00     0.009 A 
ATOM     13  C   UNL A   1      33.559  25.958  26.229  1.00  0.00     0.009 A 
ATOM     14  C   UNL A   1      33.316  26.921  25.236  1.00  0.00    -0.018 A 
BRANCH  14  15
ATOM     15  C   UNL A   1      32.776  28.249  25.563  1.00  0.00    -0.018 A 
ATOM     16  C   UNL A   1      33.204  28.935  26.714  1.00  0.00     0.009 A 
ATOM     17  C   UNL A   1      31.800  28.857  24.760  1.00  0.00     0.009 A 
ATOM     18  C   UNL A   1      32.667  30.178  27.054  1.00  0.00     0.001 A 
ATOM     19  C   UNL A   1      31.261  30.101  25.099  1.00  0.00     0.001 A 
ATOM     20  C   UNL A   1      31.693  30.759  26.248  1.00  0.00     0.000 A 
ENDBRANCH  14  15
ENDBRANCH   7   9
ENDBRANCH   4   7
ENDBRANCH   2   3
ENDBRANCH   1   2
BRANCH   1  21
ATOM     21  C   UNL A   1      39.007  20.821  25.349  1.00  0.00     0.023 C 
BRANCH  21  22
ATOM     22  C   UNL A   1      39.363  19.593  26.176  1.00  0.00     0.116 C 
BRANCH  22  23
ATOM     23  N   UNL A   1      40.643  19.015  25.807  1.00  0.00    -0.352 N 
ATOM     24  C   UNL A   1      41.896  19.569  25.864  1.00  0.00     0.251 C 
ATOM     25  H   UNL A   1      40.607  18.092  25.468  1.00  0.00     0.163 HD
ATOM     26  O   UNL A   1      42.852  18.955  25.389  1.00  0.00    -0.269 OA
BRANCH  24  27
ATOM     27  C   UNL A   1      42.106  20.903  26.465  1.00  0.00     0.039 A 
ATOM     28  C   UNL A   1      42.465  21.962  25.625  1.00  0.00     0.014 A 
ATOM     29  C   UNL A   1      41.998  21.112  27.843  1.00  0.00     0.014 A 
ATOM     30  C   UNL A   1      42.684  23.233  26.161  1.00  0.00     0.010 A 
ATOM     31  C   UNL A   1      42.147  22.394  28.368  1.00  0.00     0.010 A 
ATOM     32  C   UNL A   1      42.515  23.462  27.536  1.00  0.00    -0.014 A 
BRANCH  32  33
ATOM     33  C   UNL A   1      42.775  24.800  28.121  1.00  0.00     0.031 A 
ATOM     34  C   UNL A   1      44.170  25.183  28.533  1.00  0.00     0.074 A 
ATOM     35  C   UNL A   1      41.755  25.660  28.308  1.00  0.00     0.049 A 
ATOM     36  N   UNL A   1      44.598  26.300  29.069  1.00  0.00    -0.248 NA
ATOM     37  C   UNL A   1      45.218  24.168  28.347  1.00  0.00     0.031 C 
ATOM     38  C   UNL A   1      40.351  25.390  27.997  1.00  0.00     0.029 A 
ATOM     39  N   UNL A   1      41.746  26.938  28.808  1.00  0.00    -0.354 N 
ATOM     40  C   UNL A   1      45.955  26.111  29.300  1.00  0.00     0.074 A 
ATOM     41  C   UNL A   1      46.270  24.759  28.894  1.00  0.00     0.031 C 
ATOM     42  C   UNL A   1      39.621  26.479  28.284  1.00  0.00     0.029 A 
ATOM     43  C   UNL A   1      40.500  27.515  28.819  1.00  0.00     0.049 A 
ATOM     44  H   UNL A   1      42.555  27.396  29.129  1.00  0.00     0.167 HD
ATOM     45  C   UNL A   1      46.864  26.992  29.780  1.00  0.00     0.037 A 
ATOM     46  C   UNL A   1      40.115  28.744  29.208  1.00  0.00     0.037 A 
ATOM     47  C   UNL A   1      46.558  28.350  30.144  1.00  0.00     0.049 A 
ATOM     48  C   UNL A   1      41.149  29.717  29.704  1.00  0.00     0.074 A 
ATOM     49  C   UNL A   1      47.420  29.341  30.582  1.00  0.00     0.029 A 
ATOM     50  N   UNL A   1      45.291  28.908  30.107  1.00  0.00    -0.354 N 
ATOM     51  N   UNL A   1      42.440  29.550  29.848  1.00  0.00    -0.248 NA
ATOM     52  C   UNL A   1      40.670  31.057  30.075  1.00  0.00     0.031 C 
ATOM     53  C   UNL A   1      46.666  30.492  30.839  1.00  0.00     0.029 A 
ATOM     54  C   UNL A   1      45.343  30.228  30.522  1.00  0.00     0.049 A 
ATOM     55  H   UNL A   1      44.473  28.437  29.826  1.00  0.00     0.167 HD
ATOM     56  C   UNL A   1      42.935  30.771  30.289  1.00  0.00     0.074 A 
ATOM     57  C   UNL A   1      41.804  31.670  30.382  1.00  0.00     0.031 C 
ATOM     58  C   UNL A   1      44.212  31.116  30.588  1.00  0.00     0.037 A 
BRANCH  45  59
ATOM     59  C   UNL A   1      48.278  26.512  29.931  1.00  0.00     0.057 A 
ATOM     60  C   UNL A   1      49.230  26.686  28.918  1.00  0.00     0.134 A 
ATOM     61  C   UNL A   1      48.697  25.882  31.109  1.00  0.00     0.134 A 
ATOM     62  F   UNL A   1      48.889  27.269  27.759  1.00  0.00    -0.206 F 
ATOM     63  C   UNL A   1      50.541  26.228  29.060  1.00  0.00     0.040 A 
ATOM     64  C   UNL A   1      50.012  25.443  31.274  1.00  0.00     0.040 A 
ATOM     65  F   UNL A   1      47.839  25.687  32.121  1.00  0.00    -0.206 F 
ATOM     66  C   UNL A   1      50.936  25.608  30.243  1.00  0.00     0.006 A 
ENDBRANCH  45  59
BRANCH  46  67
ATOM     67  C   UNL A   1      38.692  29.149  29.091  1.00  0.00     0.057 A 
ATOM     68  C   UNL A   1      37.833  29.083  30.194  1.00  0.00     0.134 A 
ATOM     69  C   UNL A   1      38.156  29.601  27.880  1.00  0.00     0.134 A 
ATOM     70  F   UNL A   1      38.286  28.642  31.377  1.00  0.00    -0.206 F 
ATOM     71  C   UNL A   1      36.485  29.430  30.093  1.00  0.00     0.040 A 
ATOM     72  C   UNL A   1      36.814  29.973  27.770  1.00  0.00     0.040 A 
ATOM     73  F   UNL A   1      38.930  29.695  26.789  1.00  0.00    -0.206 F 
ATOM     74  C   UNL A   1      35.973  29.879  28.878  1.00  0.00     0.006 A 
ENDBRANCH  46  67
BRANCH  58  75
ATOM     75  C   UNL A   1      44.457  32.540  30.991  1.00  0.00     0.057 A 
ATOM     76  C   UNL A   1      44.434  32.948  32.330  1.00  0.00     0.134 A 
ATOM     77  C   UNL A   1      44.749  33.509  30.023  1.00  0.00     0.134 A 
ATOM     78  F   UNL A   1      44.149  32.069  33.304  1.00  0.00    -0.206 F 
ATOM     79  C   UNL A   1      44.666  34.275  32.690  1.00  0.00     0.040 A 
ATOM     80  C   UNL A   1      45.007  34.835  30.372  1.00  0.00     0.040 A 
ATOM     81  F   UNL A   1      44.795  33.181  28.722  1.00  0.00    -0.206 F 
ATOM     82  C   UNL A   1      44.959  35.223  31.710  1.00  0.00     0.006 A 
ENDBRANCH  58  75
ENDBRANCH  32  33
ENDBRANCH  24  27
ENDBRANCH  22  23
ENDBRANCH  21  22
ENDBRANCH   1  21
TORSDOF 13
ENDMDL
MODEL 3
REMARK VINA RESULT:     -11.3      3.728      5.123
REMARK SMILES C[C@@H](C(=O)NCCCCNC(=O)c1ccc(-c2c3nc(c(-c4c(F)cccc4F)c4ccc([nH]4)c(-c4c(F)cccc4F)c4nc(c(-c5c(F)cccc5F)c5ccc2[nH]5)C=C4)C=C3)cc1)c1ccc(-c2ccccc2)cc1
REMARK SMILES IDX 7 1 6 2 5 3 3 4 4 5 2 7 1 8 67 9 68 10 78 11 69 12 77 13
REMARK SMILES IDX 70 14 71 15 72 16 76 17 73 18 75 19 74 20 8 21 9 22 10 23
REMARK SMILES IDX 11 24 12 26 13 27 14 28 66 29 15 30 65 31 16 32 17 33 18 34
REMARK SMILES IDX 59 35 19 36 64 37 58 38 60 39 20 40 63 41 57 42 56 43 21 45
REMARK SMILES IDX 47 46 30 47 46 48 31 49 34 50 45 51 61 52 32 53 33 54 44 56
REMARK SMILES IDX 62 57 35 58 22 59 23 60 28 61 24 62 25 63 27 64 29 65 26 66
REMARK SMILES IDX 48 67 49 68 54 69 50 70 51 71 53 72 55 73 52 74 36 75 37 76
REMARK SMILES IDX 42 77 38 78 39 79 41 80 43 81 40 82
REMARK H PARENT 5 6 10 25 60 44 34 55
REMARK Flexibility Score: inf
ROOT
ATOM      1  C   UNL A   1      31.040  30.915  25.358  1.00  0.00     0.023 C 
ENDROOT
BRANCH   1   2
ATOM      2  C   UNL A   1      32.114  29.849  25.581  1.00  0.00     0.116 C 
BRANCH   2   3
ATOM      3  N   UNL A   1      31.913  29.151  26.831  1.00  0.00    -0.356 N 
ATOM      4  C   UNL A   1      31.574  27.853  27.078  1.00  0.00     0.227 C 
ATOM      5  O   UNL A   1      31.401  27.562  28.264  1.00  0.00    -0.274 OA
ATOM      6  H   UNL A   1      32.043  29.703  27.636  1.00  0.00     0.163 HD
BRANCH   4   7
ATOM      7  C   UNL A   1      31.461  26.841  25.920  1.00  0.00     0.105 C 
ATOM      8  C   UNL A   1      30.153  26.046  25.956  1.00  0.00     0.023 C 
BRANCH   7   9
ATOM      9  C   UNL A   1      32.617  25.845  25.869  1.00  0.00    -0.036 A 
ATOM     10  C   UNL A   1      32.523  24.596  26.499  1.00  0.00     0.005 A 
ATOM     11  C   UNL A   1      33.768  26.130  25.124  1.00  0.00     0.005 A 
ATOM     12  C   UNL A   1      33.558  23.665  26.401  1.00  0.00     0.009 A 
ATOM     13  C   UNL A   1      34.801  25.191  25.019  1.00  0.00     0.009 A 
ATOM     14  C   UNL A   1      34.712  23.942  25.655  1.00  0.00    -0.018 A 
BRANCH  14  15
ATOM     15  C   UNL A   1      35.788  22.944  25.552  1.00  0.00    -0.018 A 
ATOM     16  C   UNL A   1      37.120  23.290  25.840  1.00  0.00     0.009 A 
ATOM     17  C   UNL A   1      35.524  21.630  25.135  1.00  0.00     0.009 A 
ATOM     18  C   UNL A   1      38.152  22.360  25.704  1.00  0.00     0.001 A 
ATOM     19  C   UNL A   1      36.557  20.698  24.998  1.00  0.00     0.001 A 
ATOM     20  C   UNL A   1      37.870  21.065  25.280  1.00  0.00     0.000 A 
ENDBRANCH  14  15
ENDBRANCH   7   9
ENDBRANCH   4   7
ENDBRANCH   2   3
ENDBRANCH   1   2
BRANCH   1  21
ATOM     21  C   UNL A   1      30.994  32.024  26.415  1.00  0.00     0.023 C 
BRANCH  21  22
ATOM     22  C   UNL A   1      32.350  32.543  26.876  1.00  0.00     0.116 C 
BRANCH  22  23
ATOM     23  N   UNL A   1      32.285  33.890  27.418  1.00  0.00    -0.352 N 
ATOM     24  C   UNL A   1      33.077  34.485  28.364  1.00  0.00     0.251 C 
ATOM     25  H   UNL A   1      31.568  34.456  27.052  1.00  0.00     0.163 HD
ATOM     26  O   UNL A   1      32.785  35.607  28.781  1.00  0.00    -0.269 OA
BRANCH  24  27
ATOM     27  C   UNL A   1      34.263  33.787  28.907  1.00  0.00     0.039 A 
ATOM     28  C   UNL A   1      34.061  32.709  29.773  1.00  0.00     0.014 A 
ATOM     29  C   UNL A   1      35.562  34.208  28.608  1.00  0.00     0.014 A 
ATOM     30  C   UNL A   1      35.158  32.035  30.315  1.00  0.00     0.010 A 
ATOM     31  C   UNL A   1      36.655  33.492  29.092  1.00  0.00     0.010 A 
ATOM     32  C   UNL A   1      36.464  32.414  29.968  1.00  0.00    -0.014 A 
BRANCH  32  33
ATOM     33  C   UNL A   1      37.637  31.725  30.561  1.00  0.00     0.031 A 
ATOM     34  C   UNL A   1      38.083  32.064  31.957  1.00  0.00     0.074 A 
ATOM     35  C   UNL A   1      38.319  30.818  29.835  1.00  0.00     0.049 A 
ATOM     36  N   UNL A   1      39.086  31.580  32.647  1.00  0.00    -0.248 NA
ATOM     37  C   UNL A   1      37.319  33.105  32.662  1.00  0.00     0.031 C 
ATOM     38  C   UNL A   1      38.019  30.437  28.455  1.00  0.00     0.029 A 
ATOM     39  N   UNL A   1      39.408  30.050  30.163  1.00  0.00    -0.354 N 
ATOM     40  C   UNL A   1      39.083  32.271  33.852  1.00  0.00     0.074 A 
ATOM     41  C   UNL A   1      38.013  33.241  33.782  1.00  0.00     0.031 C 
ATOM     42  C   UNL A   1      38.883  29.487  28.064  1.00  0.00     0.029 A 
ATOM     43  C   UNL A   1      39.810  29.207  29.157  1.00  0.00     0.049 A 
ATOM     44  H   UNL A   1      39.859  30.100  31.037  1.00  0.00     0.167 HD
ATOM     45  C   UNL A   1      39.881  32.096  34.932  1.00  0.00     0.037 A 
ATOM     46  C   UNL A   1      40.807  28.305  29.125  1.00  0.00     0.037 A 
ATOM     47  C   UNL A   1      40.919  31.103  35.017  1.00  0.00     0.049 A 
ATOM     48  C   UNL A   1      41.657  28.103  30.349  1.00  0.00     0.074 A 
ATOM     49  C   UNL A   1      41.742  30.802  36.089  1.00  0.00     0.029 A 
ATOM     50  N   UNL A   1      41.271  30.243  33.988  1.00  0.00    -0.354 N 
ATOM     51  N   UNL A   1      41.597  28.712  31.508  1.00  0.00    -0.248 NA
ATOM     52  C   UNL A   1      42.704  27.074  30.264  1.00  0.00     0.031 C 
ATOM     53  C   UNL A   1      42.613  29.781  35.697  1.00  0.00     0.029 A 
ATOM     54  C   UNL A   1      42.306  29.417  34.396  1.00  0.00     0.049 A 
ATOM     55  H   UNL A   1      40.849  30.222  33.099  1.00  0.00     0.167 HD
ATOM     56  C   UNL A   1      42.569  28.116  32.301  1.00  0.00     0.074 A 
ATOM     57  C   UNL A   1      43.199  27.093  31.493  1.00  0.00     0.031 C 
ATOM     58  C   UNL A   1      42.907  28.390  33.586  1.00  0.00     0.037 A 
BRANCH  45  59
ATOM     59  C   UNL A   1      39.655  32.997  36.110  1.00  0.00     0.057 A 
ATOM     60  C   UNL A   1      40.356  34.200  36.267  1.00  0.00     0.134 A 
ATOM     61  C   UNL A   1      38.712  32.667  37.092  1.00  0.00     0.134 A 
ATOM     62  F   UNL A   1      41.283  34.567  35.370  1.00  0.00    -0.206 F 
ATOM     63  C   UNL A   1      40.149  35.028  37.371  1.00  0.00     0.040 A 
ATOM     64  C   UNL A   1      38.476  33.500  38.187  1.00  0.00     0.040 A 
ATOM     65  F   UNL A   1      38.002  31.533  37.002  1.00  0.00    -0.206 F 
ATOM     66  C   UNL A   1      39.202  34.681  38.333  1.00  0.00     0.006 A 
ENDBRANCH  45  59
BRANCH  46  67
ATOM     67  C   UNL A   1      41.025  27.479  27.911  1.00  0.00     0.057 A 
ATOM     68  C   UNL A   1      41.888  27.907  26.896  1.00  0.00     0.134 A 
ATOM     69  C   UNL A   1      40.372  26.254  27.732  1.00  0.00     0.134 A 
ATOM     70  F   UNL A   1      42.528  29.080  27.004  1.00  0.00    -0.206 F 
ATOM     71  C   UNL A   1      42.079  27.157  25.734  1.00  0.00     0.040 A 
ATOM     72  C   UNL A   1      40.570  25.484  26.584  1.00  0.00     0.040 A 
ATOM     73  F   UNL A   1      39.538  25.787  28.672  1.00  0.00    -0.206 F 
ATOM     74  C   UNL A   1      41.420  25.939  25.578  1.00  0.00     0.006 A 
ENDBRANCH  46  67
BRANCH  58  75
ATOM     75  C   UNL A   1      43.970  27.535  34.209  1.00  0.00     0.057 A 
ATOM     76  C   UNL A   1      45.321  27.901  34.193  1.00  0.00     0.134 A 
ATOM     77  C   UNL A   1      43.628  26.343  34.859  1.00  0.00     0.134 A 
ATOM     78  F   UNL A   1      45.714  29.025  33.576  1.00  0.00    -0.206 F 
ATOM     79  C   UNL A   1      46.299  27.096  34.778  1.00  0.00     0.040 A 
ATOM     80  C   UNL A   1      44.594  25.542  35.470  1.00  0.00     0.040 A 
ATOM     81  F   UNL A   1      42.349  25.940  34.918  1.00  0.00    -0.206 F 
ATOM     82  C   UNL A   1      45.936  25.915  35.424  1.00  0.00     0.006 A 
ENDBRANCH  58  75
ENDBRANCH  32  33
ENDBRANCH  24  27
ENDBRANCH  22  23
ENDBRANCH  21  22
ENDBRANCH   1  21
TORSDOF 13
ENDMDL
