MODEL 1
REMARK VINA RESULT:     -12.2      0.000      0.000
REMARK SMILES CC(C)CCc1cc2c(cc1Cl)C=C(C(=O)NCCCCNC(=O)c1ccc(-c3c4nc(c(-c5c(F)cccc5F)c5ccc([nH]5)c(-c5c(F)cccc5F)c5nc(c(-c6c(F)cccc6F)c6ccc3[nH]6)C=C5)C=C4)cc1)[C@@H](C(F)(F)F)O2
REMARK SMILES IDX 19 1 18 2 17 3 15 4 16 5 14 7 6 8 7 9 11 10 8 11 10 12 12 13
REMARK SMILES IDX 9 14 84 15 13 16 79 17 5 18 4 19 2 20 1 21 3 22 80 23 81 24
REMARK SMILES IDX 82 25 83 26 20 27 21 28 22 29 23 30 24 32 25 33 26 34 78 35
REMARK SMILES IDX 27 36 77 37 28 38 29 39 30 40 71 41 31 42 76 43 70 44 72 45
REMARK SMILES IDX 32 46 75 47 69 48 68 49 33 51 59 52 42 53 58 54 43 55 46 56
REMARK SMILES IDX 57 57 73 58 44 59 45 60 56 62 74 63 47 64 34 65 35 66 40 67
REMARK SMILES IDX 36 68 37 69 39 70 41 71 38 72 60 73 61 74 66 75 62 76 63 77
REMARK SMILES IDX 65 78 67 79 64 80 48 81 49 82 54 83 50 84 51 85 53 86 55 87
REMARK SMILES IDX 52 88
REMARK H PARENT 17 6 22 31 72 50 46 61
REMARK Flexibility Score: inf
ROOT
ATOM      1  C   UNL A   1      36.940  22.264  24.111  1.00  0.00     0.023 C 
ENDROOT
BRANCH   1   2
ATOM      2  C   UNL A   1      36.173  23.464  24.658  1.00  0.00     0.116 C 
BRANCH   2   3
ATOM      3  N   UNL A   1      35.295  23.109  25.762  1.00  0.00    -0.352 N 
ATOM      4  C   UNL A   1      34.071  23.480  26.212  1.00  0.00     0.251 C 
ATOM      5  O   UNL A   1      33.675  22.892  27.223  1.00  0.00    -0.270 OA
ATOM      6  H   UNL A   1      35.696  22.416  26.334  1.00  0.00     0.163 HD
BRANCH   4   7
ATOM      7  C   UNL A   1      33.211  24.528  25.585  1.00  0.00     0.067 C 
ATOM      8  C   UNL A   1      31.001  28.912  24.350  1.00  0.00    -0.026 A 
ATOM      9  C   UNL A   1      31.026  27.616  23.829  1.00  0.00     0.052 A 
ATOM     10  C   UNL A   1      31.625  29.115  25.592  1.00  0.00     0.045 A 
ATOM     11  C   UNL A   1      31.754  26.599  24.432  1.00  0.00     0.128 A 
ATOM     12  C   UNL A   1      32.304  28.065  26.239  1.00  0.00     0.032 A 
ATOM     13  Cl  UNL A   1      31.602  30.647  26.393  1.00  0.00    -0.084 Cl
ATOM     14  C   UNL A   1      32.397  26.805  25.641  1.00  0.00     0.019 A 
ATOM     15  O   UNL A   1      31.824  25.453  23.710  1.00  0.00    -0.475 OA
ATOM     16  C   UNL A   1      33.182  25.719  26.216  1.00  0.00     0.025 C 
ATOM     17  C   UNL A   1      32.407  24.291  24.338  1.00  0.00     0.314 C 
BRANCH   8  18
ATOM     18  C   UNL A   1      30.312  29.989  23.537  1.00  0.00     0.037 C 
BRANCH  18  19
ATOM     19  C   UNL A   1      29.332  29.467  22.459  1.00  0.00     0.008 C 
BRANCH  19  20
ATOM     20  C   UNL A   1      27.830  29.806  22.619  1.00  0.00    -0.017 C 
ATOM     21  C   UNL A   1      27.018  28.666  23.239  1.00  0.00     0.007 C 
ATOM     22  C   UNL A   1      27.651  31.071  23.465  1.00  0.00     0.007 C 
ENDBRANCH  19  20
ENDBRANCH  18  19
ENDBRANCH   8  18
BRANCH  17  23
ATOM     23  C   UNL A   1      31.273  23.267  24.517  1.00  0.00     0.429 C 
ATOM     24  F   UNL A   1      30.331  23.443  23.556  1.00  0.00    -0.167 F 
ATOM     25  F   UNL A   1      31.690  21.987  24.411  1.00  0.00    -0.167 F 
ATOM     26  F   UNL A   1      30.656  23.387  25.714  1.00  0.00    -0.167 F 
ENDBRANCH  17  23
ENDBRANCH   4   7
ENDBRANCH   2   3
ENDBRANCH   1   2
BRANCH   1  27
ATOM     27  C   UNL A   1      37.295  21.216  25.165  1.00  0.00     0.023 C 
BRANCH  27  28
ATOM     28  C   UNL A   1      38.717  21.298  25.715  1.00  0.00     0.116 C 
BRANCH  28  29
ATOM     29  N   UNL A   1      39.498  20.076  25.565  1.00  0.00    -0.352 N 
ATOM     30  C   UNL A   1      40.812  19.875  25.929  1.00  0.00     0.251 C 
ATOM     31  H   UNL A   1      39.035  19.309  25.157  1.00  0.00     0.163 HD
ATOM     32  O   UNL A   1      41.383  18.817  25.694  1.00  0.00    -0.269 OA
BRANCH  30  33
ATOM     33  C   UNL A   1      41.535  20.996  26.559  1.00  0.00     0.039 A 
ATOM     34  C   UNL A   1      41.478  21.162  27.944  1.00  0.00     0.014 A 
ATOM     35  C   UNL A   1      42.139  21.959  25.748  1.00  0.00     0.014 A 
ATOM     36  C   UNL A   1      41.851  22.381  28.495  1.00  0.00     0.010 A 
ATOM     37  C   UNL A   1      42.592  23.149  26.318  1.00  0.00     0.010 A 
ATOM     38  C   UNL A   1      42.389  23.397  27.685  1.00  0.00    -0.014 A 
BRANCH  38  39
ATOM     39  C   UNL A   1      42.687  24.717  28.294  1.00  0.00     0.031 A 
ATOM     40  C   UNL A   1      44.102  25.119  28.615  1.00  0.00     0.074 A 
ATOM     41  C   UNL A   1      41.681  25.594  28.475  1.00  0.00     0.049 A 
ATOM     42  N   UNL A   1      44.550  26.256  29.089  1.00  0.00    -0.248 NA
ATOM     43  C   UNL A   1      45.153  24.116  28.380  1.00  0.00     0.031 C 
ATOM     44  C   UNL A   1      40.270  25.325  28.190  1.00  0.00     0.029 A 
ATOM     45  N   UNL A   1      41.695  26.896  28.901  1.00  0.00    -0.354 N 
ATOM     46  C   UNL A   1      45.924  26.097  29.229  1.00  0.00     0.074 A 
ATOM     47  C   UNL A   1      46.236  24.748  28.812  1.00  0.00     0.031 C 
ATOM     48  C   UNL A   1      39.563  26.448  28.386  1.00  0.00     0.029 A 
ATOM     49  C   UNL A   1      40.459  27.495  28.863  1.00  0.00     0.049 A 
ATOM     50  H   UNL A   1      42.509  27.357  29.205  1.00  0.00     0.167 HD
ATOM     51  C   UNL A   1      46.843  26.998  29.655  1.00  0.00     0.037 A 
ATOM     52  C   UNL A   1      40.089  28.748  29.180  1.00  0.00     0.037 A 
ATOM     53  C   UNL A   1      46.537  28.351  30.042  1.00  0.00     0.049 A 
ATOM     54  C   UNL A   1      41.123  29.717  29.669  1.00  0.00     0.074 A 
ATOM     55  C   UNL A   1      47.403  29.347  30.463  1.00  0.00     0.029 A 
ATOM     56  N   UNL A   1      45.264  28.900  30.050  1.00  0.00    -0.354 N 
ATOM     57  N   UNL A   1      42.417  29.552  29.793  1.00  0.00    -0.248 NA
ATOM     58  C   UNL A   1      40.641  31.044  30.076  1.00  0.00     0.031 C 
ATOM     59  C   UNL A   1      46.649  30.489  30.756  1.00  0.00     0.029 A 
ATOM     60  C   UNL A   1      45.318  30.214  30.487  1.00  0.00     0.049 A 
ATOM     61  H   UNL A   1      44.443  28.426  29.786  1.00  0.00     0.167 HD
ATOM     62  C   UNL A   1      42.905  30.751  30.290  1.00  0.00     0.074 A 
ATOM     63  C   UNL A   1      41.772  31.644  30.418  1.00  0.00     0.031 C 
ATOM     64  C   UNL A   1      44.177  31.083  30.620  1.00  0.00     0.037 A 
BRANCH  51  65
ATOM     65  C   UNL A   1      48.270  26.542  29.741  1.00  0.00     0.057 A 
ATOM     66  C   UNL A   1      49.142  26.722  28.661  1.00  0.00     0.134 A 
ATOM     67  C   UNL A   1      48.773  25.895  30.878  1.00  0.00     0.134 A 
ATOM     68  F   UNL A   1      48.722  27.329  27.541  1.00  0.00    -0.206 F 
ATOM     69  C   UNL A   1      50.464  26.274  28.705  1.00  0.00     0.040 A 
ATOM     70  C   UNL A   1      50.098  25.461  30.942  1.00  0.00     0.040 A 
ATOM     71  F   UNL A   1      47.993  25.705  31.953  1.00  0.00    -0.206 F 
ATOM     72  C   UNL A   1      50.946  25.645  29.851  1.00  0.00     0.006 A 
ENDBRANCH  51  65
BRANCH  52  73
ATOM     73  C   UNL A   1      38.669  29.153  29.044  1.00  0.00     0.057 A 
ATOM     74  C   UNL A   1      37.789  29.095  30.132  1.00  0.00     0.134 A 
ATOM     75  C   UNL A   1      38.159  29.599  27.821  1.00  0.00     0.134 A 
ATOM     76  F   UNL A   1      38.219  28.671  31.329  1.00  0.00    -0.206 F 
ATOM     77  C   UNL A   1      36.447  29.454  30.003  1.00  0.00     0.040 A 
ATOM     78  C   UNL A   1      36.825  29.983  27.683  1.00  0.00     0.040 A 
ATOM     79  F   UNL A   1      38.962  29.691  26.750  1.00  0.00    -0.206 F 
ATOM     80  C   UNL A   1      35.963  29.904  28.777  1.00  0.00     0.006 A 
ENDBRANCH  52  73
BRANCH  64  81
ATOM     81  C   UNL A   1      44.396  32.468  31.146  1.00  0.00     0.057 A 
ATOM     82  C   UNL A   1      44.653  33.533  30.276  1.00  0.00     0.134 A 
ATOM     83  C   UNL A   1      44.354  32.744  32.518  1.00  0.00     0.134 A 
ATOM     84  F   UNL A   1      44.709  33.332  28.950  1.00  0.00    -0.206 F 
ATOM     85  C   UNL A   1      44.856  34.828  30.753  1.00  0.00     0.040 A 
ATOM     86  C   UNL A   1      44.536  34.038  33.006  1.00  0.00     0.040 A 
ATOM     87  F   UNL A   1      44.096  31.766  33.400  1.00  0.00    -0.206 F 
ATOM     88  C   UNL A   1      44.791  35.084  32.121  1.00  0.00     0.006 A 
ENDBRANCH  64  81
ENDBRANCH  38  39
ENDBRANCH  30  33
ENDBRANCH  28  29
ENDBRANCH  27  28
ENDBRANCH   1  27
TORSDOF 15
ENDMDL
MODEL 2
REMARK VINA RESULT:     -12.1      4.097      8.127
REMARK SMILES CC(C)CCc1cc2c(cc1Cl)C=C(C(=O)NCCCCNC(=O)c1ccc(-c3c4nc(c(-c5c(F)cccc5F)c5ccc([nH]5)c(-c5c(F)cccc5F)c5nc(c(-c6c(F)cccc6F)c6ccc3[nH]6)C=C5)C=C4)cc1)[C@@H](C(F)(F)F)O2
REMARK SMILES IDX 19 1 18 2 17 3 15 4 16 5 14 7 6 8 7 9 11 10 8 11 10 12 12 13
REMARK SMILES IDX 9 14 84 15 13 16 79 17 5 18 4 19 2 20 1 21 3 22 80 23 81 24
REMARK SMILES IDX 82 25 83 26 20 27 21 28 22 29 23 30 24 32 25 33 26 34 78 35
REMARK SMILES IDX 27 36 77 37 28 38 29 39 30 40 71 41 31 42 76 43 70 44 72 45
REMARK SMILES IDX 32 46 75 47 69 48 68 49 33 51 59 52 42 53 58 54 43 55 46 56
REMARK SMILES IDX 57 57 73 58 44 59 45 60 56 62 74 63 47 64 34 65 35 66 40 67
REMARK SMILES IDX 36 68 37 69 39 70 41 71 38 72 60 73 61 74 66 75 62 76 63 77
REMARK SMILES IDX 65 78 67 79 64 80 48 81 49 82 54 83 50 84 51 85 53 86 55 87
REMARK SMILES IDX 52 88
REMARK H PARENT 17 6 22 31 72 50 46 61
REMARK Flexibility Score: inf
ROOT
ATOM      1  C   UNL A   1      37.036  22.269  24.431  1.00  0.00     0.023 C 
ENDROOT
BRANCH   1   2
ATOM      2  C   UNL A   1      36.873  21.180  25.487  1.00  0.00     0.116 C 
BRANCH   2   3
ATOM      3  N   UNL A   1      35.857  20.203  25.128  1.00  0.00    -0.352 N 
ATOM      4  C   UNL A   1      34.526  20.211  24.869  1.00  0.00     0.251 C 
ATOM      5  O   UNL A   1      34.035  19.115  24.578  1.00  0.00    -0.270 OA
ATOM      6  H   UNL A   1      36.235  19.298  25.054  1.00  0.00     0.163 HD
BRANCH   4   7
ATOM      7  C   UNL A   1      33.650  21.419  24.923  1.00  0.00     0.067 C 
ATOM      8  C   UNL A   1      30.915  25.505  23.720  1.00  0.00    -0.026 A 
ATOM      9  C   UNL A   1      31.081  24.703  24.851  1.00  0.00     0.052 A 
ATOM     10  C   UNL A   1      31.767  25.260  22.631  1.00  0.00     0.045 A 
ATOM     11  C   UNL A   1      31.947  23.618  24.858  1.00  0.00     0.128 A 
ATOM     12  C   UNL A   1      32.696  24.202  22.664  1.00  0.00     0.032 A 
ATOM     13  Cl  UNL A   1      31.728  26.225  21.197  1.00  0.00    -0.084 Cl
ATOM     14  C   UNL A   1      32.765  23.354  23.773  1.00  0.00     0.019 A 
ATOM     15  O   UNL A   1      31.860  22.836  25.963  1.00  0.00    -0.475 OA
ATOM     16  C   UNL A   1      33.629  22.180  23.811  1.00  0.00     0.025 C 
ATOM     17  C   UNL A   1      32.843  21.793  26.135  1.00  0.00     0.314 C 
BRANCH   8  18
ATOM     18  C   UNL A   1      29.833  26.565  23.755  1.00  0.00     0.037 C 
BRANCH  18  19
ATOM     19  C   UNL A   1      30.343  28.013  23.953  1.00  0.00     0.008 C 
BRANCH  19  20
ATOM     20  C   UNL A   1      31.767  28.207  24.528  1.00  0.00    -0.017 C 
ATOM     21  C   UNL A   1      32.731  28.869  23.541  1.00  0.00     0.007 C 
ATOM     22  C   UNL A   1      31.719  29.032  25.817  1.00  0.00     0.007 C 
ENDBRANCH  19  20
ENDBRANCH  18  19
ENDBRANCH   8  18
BRANCH  17  23
ATOM     23  C   UNL A   1      33.699  22.185  27.352  1.00  0.00     0.429 C 
ATOM     24  F   UNL A   1      32.900  22.610  28.364  1.00  0.00    -0.167 F 
ATOM     25  F   UNL A   1      34.425  21.158  27.845  1.00  0.00    -0.167 F 
ATOM     26  F   UNL A   1      34.563  23.185  27.072  1.00  0.00    -0.167 F 
ENDBRANCH  17  23
ENDBRANCH   4   7
ENDBRANCH   2   3
ENDBRANCH   1   2
BRANCH   1  27
ATOM     27  C   UNL A   1      37.302  23.661  25.004  1.00  0.00     0.023 C 
BRANCH  27  28
ATOM     28  C   UNL A   1      38.130  23.693  26.286  1.00  0.00     0.116 C 
BRANCH  28  29
ATOM     29  N   UNL A   1      39.565  23.524  26.087  1.00  0.00    -0.352 N 
ATOM     30  C   UNL A   1      40.573  24.349  26.538  1.00  0.00     0.251 C 
ATOM     31  H   UNL A   1      39.845  22.732  25.574  1.00  0.00     0.163 HD
ATOM     32  O   UNL A   1      41.746  24.136  26.252  1.00  0.00    -0.269 OA
BRANCH  30  33
ATOM     33  C   UNL A   1      40.195  25.538  27.326  1.00  0.00     0.039 A 
ATOM     34  C   UNL A   1      40.780  26.772  27.036  1.00  0.00     0.014 A 
ATOM     35  C   UNL A   1      39.375  25.380  28.445  1.00  0.00     0.014 A 
ATOM     36  C   UNL A   1      40.700  27.794  27.971  1.00  0.00     0.010 A 
ATOM     37  C   UNL A   1      39.228  26.440  29.341  1.00  0.00     0.010 A 
ATOM     38  C   UNL A   1      39.944  27.631  29.146  1.00  0.00    -0.014 A 
BRANCH  38  39
ATOM     39  C   UNL A   1      39.961  28.711  30.165  1.00  0.00     0.031 A 
ATOM     40  C   UNL A   1      38.946  29.823  30.129  1.00  0.00     0.074 A 
ATOM     41  C   UNL A   1      40.842  28.636  31.180  1.00  0.00     0.049 A 
ATOM     42  N   UNL A   1      38.774  30.810  30.974  1.00  0.00    -0.248 NA
ATOM     43  C   UNL A   1      38.005  29.836  28.999  1.00  0.00     0.031 C 
ATOM     44  C   UNL A   1      41.866  27.599  31.330  1.00  0.00     0.029 A 
ATOM     45  N   UNL A   1      40.993  29.419  32.294  1.00  0.00    -0.354 N 
ATOM     46  C   UNL A   1      37.726  31.569  30.468  1.00  0.00     0.074 A 
ATOM     47  C   UNL A   1      37.314  30.944  29.230  1.00  0.00     0.031 C 
ATOM     48  C   UNL A   1      42.494  27.771  32.502  1.00  0.00     0.029 A 
ATOM     49  C   UNL A   1      41.958  28.959  33.157  1.00  0.00     0.049 A 
ATOM     50  H   UNL A   1      40.462  30.230  32.460  1.00  0.00     0.167 HD
ATOM     51  C   UNL A   1      37.152  32.679  30.991  1.00  0.00     0.037 A 
ATOM     52  C   UNL A   1      42.368  29.444  34.343  1.00  0.00     0.037 A 
ATOM     53  C   UNL A   1      37.542  33.285  32.238  1.00  0.00     0.049 A 
ATOM     54  C   UNL A   1      41.729  30.686  34.888  1.00  0.00     0.074 A 
ATOM     55  C   UNL A   1      37.002  34.396  32.866  1.00  0.00     0.029 A 
ATOM     56  N   UNL A   1      38.566  32.827  33.052  1.00  0.00    -0.354 N 
ATOM     57  N   UNL A   1      40.738  31.389  34.398  1.00  0.00    -0.248 NA
ATOM     58  C   UNL A   1      42.278  31.208  36.147  1.00  0.00     0.031 C 
ATOM     59  C   UNL A   1      37.723  34.629  34.043  1.00  0.00     0.029 A 
ATOM     60  C   UNL A   1      38.689  33.643  34.165  1.00  0.00     0.049 A 
ATOM     61  H   UNL A   1      39.125  32.039  32.865  1.00  0.00     0.167 HD
ATOM     62  C   UNL A   1      40.542  32.436  35.286  1.00  0.00     0.074 A 
ATOM     63  C   UNL A   1      41.498  32.259  36.360  1.00  0.00     0.031 C 
ATOM     64  C   UNL A   1      39.655  33.459  35.216  1.00  0.00     0.037 A 
BRANCH  51  65
ATOM     65  C   UNL A   1      36.046  33.323  30.206  1.00  0.00     0.057 A 
ATOM     66  C   UNL A   1      34.708  33.116  30.560  1.00  0.00     0.134 A 
ATOM     67  C   UNL A   1      36.304  34.117  29.081  1.00  0.00     0.134 A 
ATOM     68  F   UNL A   1      34.393  32.362  31.623  1.00  0.00    -0.206 F 
ATOM     69  C   UNL A   1      33.662  33.676  29.822  1.00  0.00     0.040 A 
ATOM     70  C   UNL A   1      35.268  34.698  28.348  1.00  0.00     0.040 A 
ATOM     71  F   UNL A   1      37.565  34.365  28.698  1.00  0.00    -0.206 F 
ATOM     72  C   UNL A   1      33.942  34.474  28.715  1.00  0.00     0.006 A 
ENDBRANCH  51  65
BRANCH  52  73
ATOM     73  C   UNL A   1      43.442  28.748  35.090  1.00  0.00     0.057 A 
ATOM     74  C   UNL A   1      44.794  28.993  34.819  1.00  0.00     0.134 A 
ATOM     75  C   UNL A   1      43.139  27.815  36.088  1.00  0.00     0.134 A 
ATOM     76  F   UNL A   1      45.145  29.872  33.870  1.00  0.00    -0.206 F 
ATOM     77  C   UNL A   1      45.807  28.324  35.505  1.00  0.00     0.040 A 
ATOM     78  C   UNL A   1      44.143  27.156  36.798  1.00  0.00     0.040 A 
ATOM     79  F   UNL A   1      41.862  27.554  36.402  1.00  0.00    -0.206 F 
ATOM     80  C   UNL A   1      45.483  27.406  36.501  1.00  0.00     0.006 A 
ENDBRANCH  52  73
BRANCH  64  81
ATOM     81  C   UNL A   1      39.687  34.453  36.335  1.00  0.00     0.057 A 
ATOM     82  C   UNL A   1      38.970  34.228  37.516  1.00  0.00     0.134 A 
ATOM     83  C   UNL A   1      40.429  35.637  36.239  1.00  0.00     0.134 A 
ATOM     84  F   UNL A   1      38.237  33.114  37.666  1.00  0.00    -0.206 F 
ATOM     85  C   UNL A   1      38.993  35.146  38.566  1.00  0.00     0.040 A 
ATOM     86  C   UNL A   1      40.476  36.553  37.291  1.00  0.00     0.040 A 
ATOM     87  F   UNL A   1      41.149  35.901  35.139  1.00  0.00    -0.206 F 
ATOM     88  C   UNL A   1      39.754  36.309  38.458  1.00  0.00     0.006 A 
ENDBRANCH  64  81
ENDBRANCH  38  39
ENDBRANCH  30  33
ENDBRANCH  28  29
ENDBRANCH  27  28
ENDBRANCH   1  27
TORSDOF 15
ENDMDL
MODEL 3
REMARK VINA RESULT:     -11.9      3.663      8.812
REMARK SMILES CC(C)CCc1cc2c(cc1Cl)C=C(C(=O)NCCCCNC(=O)c1ccc(-c3c4nc(c(-c5c(F)cccc5F)c5ccc([nH]5)c(-c5c(F)cccc5F)c5nc(c(-c6c(F)cccc6F)c6ccc3[nH]6)C=C5)C=C4)cc1)[C@@H](C(F)(F)F)O2
REMARK SMILES IDX 19 1 18 2 17 3 15 4 16 5 14 7 6 8 7 9 11 10 8 11 10 12 12 13
REMARK SMILES IDX 9 14 84 15 13 16 79 17 5 18 4 19 2 20 1 21 3 22 80 23 81 24
REMARK SMILES IDX 82 25 83 26 20 27 21 28 22 29 23 30 24 32 25 33 26 34 78 35
REMARK SMILES IDX 27 36 77 37 28 38 29 39 30 40 71 41 31 42 76 43 70 44 72 45
REMARK SMILES IDX 32 46 75 47 69 48 68 49 33 51 59 52 42 53 58 54 43 55 46 56
REMARK SMILES IDX 57 57 73 58 44 59 45 60 56 62 74 63 47 64 34 65 35 66 40 67
REMARK SMILES IDX 36 68 37 69 39 70 41 71 38 72 60 73 61 74 66 75 62 76 63 77
REMARK SMILES IDX 65 78 67 79 64 80 48 81 49 82 54 83 50 84 51 85 53 86 55 87
REMARK SMILES IDX 52 88
REMARK H PARENT 17 6 22 31 72 50 46 61
REMARK Flexibility Score: inf
ROOT
ATOM      1  C   UNL A   1      31.968  28.960  27.374  1.00  0.00     0.023 C 
ENDROOT
BRANCH   1   2
ATOM      2  C   UNL A   1      32.749  27.731  26.921  1.00  0.00     0.116 C 
BRANCH   2   3
ATOM      3  N   UNL A   1      33.147  27.808  25.523  1.00  0.00    -0.352 N 
ATOM      4  C   UNL A   1      33.252  26.953  24.476  1.00  0.00     0.251 C 
ATOM      5  O   UNL A   1      33.634  27.456  23.415  1.00  0.00    -0.270 OA
ATOM      6  H   UNL A   1      33.410  28.722  25.273  1.00  0.00     0.163 HD
BRANCH   4   7
ATOM      7  C   UNL A   1      32.955  25.490  24.533  1.00  0.00     0.067 C 
ATOM      8  C   UNL A   1      33.321  20.465  25.022  1.00  0.00    -0.026 A 
ATOM      9  C   UNL A   1      32.282  21.392  24.909  1.00  0.00     0.052 A 
ATOM     10  C   UNL A   1      34.629  20.946  24.853  1.00  0.00     0.045 A 
ATOM     11  C   UNL A   1      32.526  22.752  24.777  1.00  0.00     0.128 A 
ATOM     12  C   UNL A   1      34.874  22.318  24.648  1.00  0.00     0.032 A 
ATOM     13  Cl  UNL A   1      36.005  19.900  24.886  1.00  0.00    -0.084 Cl
ATOM     14  C   UNL A   1      33.818  23.233  24.641  1.00  0.00     0.019 A 
ATOM     15  O   UNL A   1      31.420  23.533  24.862  1.00  0.00    -0.475 OA
ATOM     16  C   UNL A   1      34.027  24.673  24.546  1.00  0.00     0.025 C 
ATOM     17  C   UNL A   1      31.558  24.938  24.559  1.00  0.00     0.314 C 
BRANCH   8  18
ATOM     18  C   UNL A   1      32.957  19.025  25.324  1.00  0.00     0.037 C 
BRANCH  18  19
ATOM     19  C   UNL A   1      32.398  18.228  24.120  1.00  0.00     0.008 C 
BRANCH  19  20
ATOM     20  C   UNL A   1      33.011  16.837  23.826  1.00  0.00    -0.017 C 
ATOM     21  C   UNL A   1      34.425  16.912  23.243  1.00  0.00     0.007 C 
ATOM     22  C   UNL A   1      33.032  15.979  25.094  1.00  0.00     0.007 C 
ENDBRANCH  19  20
ENDBRANCH  18  19
ENDBRANCH   8  18
BRANCH  17  23
ATOM     23  C   UNL A   1      30.766  25.193  23.265  1.00  0.00     0.429 C 
ATOM     24  F   UNL A   1      29.959  24.134  22.997  1.00  0.00    -0.167 F 
ATOM     25  F   UNL A   1      29.962  26.276  23.337  1.00  0.00    -0.167 F 
ATOM     26  F   UNL A   1      31.573  25.366  22.195  1.00  0.00    -0.167 F 
ENDBRANCH  17  23
ENDBRANCH   4   7
ENDBRANCH   2   3
ENDBRANCH   1   2
BRANCH   1  27
ATOM     27  C   UNL A   1      32.197  30.200  26.511  1.00  0.00     0.023 C 
BRANCH  27  28
ATOM     28  C   UNL A   1      33.123  31.254  27.114  1.00  0.00     0.116 C 
BRANCH  28  29
ATOM     29  N   UNL A   1      32.512  32.563  27.304  1.00  0.00    -0.352 N 
ATOM     30  C   UNL A   1      33.023  33.630  28.011  1.00  0.00     0.251 C 
ATOM     31  H   UNL A   1      31.634  32.702  26.879  1.00  0.00     0.163 HD
ATOM     32  O   UNL A   1      32.384  34.666  28.154  1.00  0.00    -0.269 OA
BRANCH  30  33
ATOM     33  C   UNL A   1      34.344  33.467  28.649  1.00  0.00     0.039 A 
ATOM     34  C   UNL A   1      35.496  33.844  27.956  1.00  0.00     0.014 A 
ATOM     35  C   UNL A   1      34.432  32.799  29.872  1.00  0.00     0.014 A 
ATOM     36  C   UNL A   1      36.729  33.382  28.392  1.00  0.00     0.010 A 
ATOM     37  C   UNL A   1      35.684  32.410  30.351  1.00  0.00     0.010 A 
ATOM     38  C   UNL A   1      36.835  32.638  29.581  1.00  0.00    -0.014 A 
BRANCH  38  39
ATOM     39  C   UNL A   1      38.157  32.081  29.963  1.00  0.00     0.031 A 
ATOM     40  C   UNL A   1      38.996  32.741  31.025  1.00  0.00     0.074 A 
ATOM     41  C   UNL A   1      38.560  30.920  29.411  1.00  0.00     0.049 A 
ATOM     42  N   UNL A   1      40.143  32.355  31.528  1.00  0.00    -0.248 NA
ATOM     43  C   UNL A   1      38.488  33.998  31.596  1.00  0.00     0.031 C 
ATOM     44  C   UNL A   1      37.827  30.181  28.381  1.00  0.00     0.029 A 
ATOM     45  N   UNL A   1      39.659  30.142  29.665  1.00  0.00    -0.354 N 
ATOM     46  C   UNL A   1      40.502  33.329  32.452  1.00  0.00     0.074 A 
ATOM     47  C   UNL A   1      39.465  34.336  32.426  1.00  0.00     0.031 C 
ATOM     48  C   UNL A   1      38.462  29.024  28.139  1.00  0.00     0.029 A 
ATOM     49  C   UNL A   1      39.671  28.969  28.952  1.00  0.00     0.049 A 
ATOM     50  H   UNL A   1      40.368  30.399  30.297  1.00  0.00     0.167 HD
ATOM     51  C   UNL A   1      41.592  33.374  33.257  1.00  0.00     0.037 A 
ATOM     52  C   UNL A   1      40.561  27.960  28.952  1.00  0.00     0.037 A 
ATOM     53  C   UNL A   1      42.610  32.357  33.305  1.00  0.00     0.049 A 
ATOM     54  C   UNL A   1      41.769  28.047  29.837  1.00  0.00     0.074 A 
ATOM     55  C   UNL A   1      43.739  32.300  34.107  1.00  0.00     0.029 A 
ATOM     56  N   UNL A   1      42.621  31.214  32.521  1.00  0.00    -0.354 N 
ATOM     57  N   UNL A   1      42.092  28.973  30.706  1.00  0.00    -0.248 NA
ATOM     58  C   UNL A   1      42.742  26.952  29.729  1.00  0.00     0.031 C 
ATOM     59  C   UNL A   1      44.448  31.137  33.784  1.00  0.00     0.029 A 
ATOM     60  C   UNL A   1      43.745  30.454  32.805  1.00  0.00     0.049 A 
ATOM     61  H   UNL A   1      41.931  30.977  31.860  1.00  0.00     0.167 HD
ATOM     62  C   UNL A   1      43.303  28.574  31.250  1.00  0.00     0.074 A 
ATOM     63  C   UNL A   1      43.643  27.308  30.634  1.00  0.00     0.031 C 
ATOM     64  C   UNL A   1      44.072  29.204  32.172  1.00  0.00     0.037 A 
BRANCH  51  65
ATOM     65  C   UNL A   1      41.748  34.575  34.144  1.00  0.00     0.057 A 
ATOM     66  C   UNL A   1      41.260  34.560  35.456  1.00  0.00     0.134 A 
ATOM     67  C   UNL A   1      42.348  35.757  33.690  1.00  0.00     0.134 A 
ATOM     68  F   UNL A   1      40.670  33.462  35.950  1.00  0.00    -0.206 F 
ATOM     69  C   UNL A   1      41.363  35.678  36.287  1.00  0.00     0.040 A 
ATOM     70  C   UNL A   1      42.475  36.874  34.517  1.00  0.00     0.040 A 
ATOM     71  F   UNL A   1      42.849  35.831  32.448  1.00  0.00    -0.206 F 
ATOM     72  C   UNL A   1      41.976  36.838  35.818  1.00  0.00     0.006 A 
ENDBRANCH  51  65
BRANCH  52  73
ATOM     73  C   UNL A   1      40.339  26.783  28.079  1.00  0.00     0.057 A 
ATOM     74  C   UNL A   1      39.538  25.712  28.493  1.00  0.00     0.134 A 
ATOM     75  C   UNL A   1      40.930  26.700  26.814  1.00  0.00     0.134 A 
ATOM     76  F   UNL A   1      38.949  25.733  29.697  1.00  0.00    -0.206 F 
ATOM     77  C   UNL A   1      39.344  24.592  27.684  1.00  0.00     0.040 A 
ATOM     78  C   UNL A   1      40.726  25.596  25.986  1.00  0.00     0.040 A 
ATOM     79  F   UNL A   1      41.694  27.705  26.360  1.00  0.00    -0.206 F 
ATOM     80  C   UNL A   1      39.935  24.535  26.424  1.00  0.00     0.006 A 
ENDBRANCH  52  73
BRANCH  64  81
ATOM     81  C   UNL A   1      45.348  28.523  32.561  1.00  0.00     0.057 A 
ATOM     82  C   UNL A   1      46.544  28.801  31.889  1.00  0.00     0.134 A 
ATOM     83  C   UNL A   1      45.389  27.587  33.602  1.00  0.00     0.134 A 
ATOM     84  F   UNL A   1      46.568  29.686  30.880  1.00  0.00    -0.206 F 
ATOM     85  C   UNL A   1      47.739  28.175  32.243  1.00  0.00     0.040 A 
ATOM     86  C   UNL A   1      46.582  26.970  33.978  1.00  0.00     0.040 A 
ATOM     87  F   UNL A   1      44.279  27.291  34.293  1.00  0.00    -0.206 F 
ATOM     88  C   UNL A   1      47.761  27.262  33.296  1.00  0.00     0.006 A 
ENDBRANCH  64  81
ENDBRANCH  38  39
ENDBRANCH  30  33
ENDBRANCH  28  29
ENDBRANCH  27  28
ENDBRANCH   1  27
TORSDOF 15
ENDMDL
