MODEL 1
REMARK VINA RESULT:     -13.6      0.000      0.000
REMARK SMILES O=C(NCCCCNC(=O)[C@H]1CC2(CCN(C(=O)c3cc4ccccc4[nH]3)CC2)CN1C(=O)C1CC1)c1ccc(-c2c3nc(c(-c4c(F)cccc4F)c4ccc([nH]4)c(-c4c(F)cccc4F)c4nc(c(-c5c(F)cccc5F)c5ccc2[nH]5)C=C4)C=C3)cc1
REMARK SMILES IDX 5 1 4 2 3 3 1 4 2 5 37 7 38 8 90 9 39 10 89 11 40 12 41 13
REMARK SMILES IDX 42 14 83 15 43 16 88 17 82 18 84 19 44 20 87 21 81 22 80 23
REMARK SMILES IDX 45 25 71 26 54 27 70 28 55 29 58 30 69 31 85 32 56 33 57 34
REMARK SMILES IDX 68 36 86 37 59 38 46 39 47 40 52 41 48 42 49 43 51 44 53 45
REMARK SMILES IDX 50 46 72 47 73 48 78 49 74 50 75 51 77 52 79 53 76 54 60 55
REMARK SMILES IDX 61 56 66 57 62 58 63 59 65 60 67 61 64 62 6 63 7 64 8 65
REMARK SMILES IDX 9 66 10 68 11 69 12 70 31 71 13 72 30 73 14 74 29 75 15 76
REMARK SMILES IDX 28 77 16 78 17 79 18 80 32 81 33 82 34 83 35 84 36 85 19 86
REMARK SMILES IDX 20 87 27 88 21 89 26 90 22 92 25 93 23 94 24 95
REMARK H PARENT 3 6 84 24 58 35 8 67 27 91
REMARK Flexibility Score: inf
ROOT
ATOM      1  C   UNL A   1      31.303  32.206  26.519  1.00  0.00     0.023 C 
ENDROOT
BRANCH   1   2
ATOM      2  C   UNL A   1      32.523  32.813  27.198  1.00  0.00     0.116 C 
BRANCH   2   3
ATOM      3  N   UNL A   1      32.305  34.192  27.597  1.00  0.00    -0.352 N 
ATOM      4  O   UNL A   1      32.599  36.028  28.876  1.00  0.00    -0.269 OA
ATOM      5  C   UNL A   1      32.985  34.913  28.546  1.00  0.00     0.251 C 
ATOM      6  H   UNL A   1      31.582  34.668  27.129  1.00  0.00     0.163 HD
BRANCH   5   7
ATOM      7  C   UNL A   1      34.174  34.318  29.187  1.00  0.00     0.039 A 
ATOM      8  C   UNL A   1      34.043  33.535  30.337  1.00  0.00     0.014 A 
ATOM      9  C   UNL A   1      35.429  34.537  28.614  1.00  0.00     0.014 A 
ATOM     10  C   UNL A   1      35.180  33.030  30.959  1.00  0.00     0.010 A 
ATOM     11  C   UNL A   1      36.565  33.989  29.211  1.00  0.00     0.010 A 
ATOM     12  C   UNL A   1      36.447  33.238  30.391  1.00  0.00    -0.014 A 
BRANCH  12  13
ATOM     13  C   UNL A   1      37.627  32.576  30.989  1.00  0.00     0.031 A 
ATOM     14  C   UNL A   1      38.209  33.046  32.289  1.00  0.00     0.074 A 
ATOM     15  C   UNL A   1      38.168  31.531  30.335  1.00  0.00     0.049 A 
ATOM     16  N   UNL A   1      39.235  32.570  32.947  1.00  0.00    -0.248 NA
ATOM     17  C   UNL A   1      37.562  34.198  32.933  1.00  0.00     0.031 C 
ATOM     18  C   UNL A   1      37.694  31.006  29.052  1.00  0.00     0.029 A 
ATOM     19  N   UNL A   1      39.222  30.718  30.659  1.00  0.00    -0.354 N 
ATOM     20  C   UNL A   1      39.371  33.373  34.071  1.00  0.00     0.074 A 
ATOM     21  C   UNL A   1      38.327  34.374  34.003  1.00  0.00     0.031 C 
ATOM     22  C   UNL A   1      38.436  29.941  28.714  1.00  0.00     0.029 A 
ATOM     23  C   UNL A   1      39.459  29.735  29.731  1.00  0.00     0.049 A 
ATOM     24  H   UNL A   1      39.757  30.830  31.478  1.00  0.00     0.167 HD
ATOM     25  C   UNL A   1      40.283  33.277  35.066  1.00  0.00     0.037 A 
ATOM     26  C   UNL A   1      40.405  28.780  29.698  1.00  0.00     0.037 A 
ATOM     27  C   UNL A   1      41.305  32.266  35.139  1.00  0.00     0.049 A 
ATOM     28  C   UNL A   1      41.398  28.698  30.818  1.00  0.00     0.074 A 
ATOM     29  C   UNL A   1      42.243  32.056  36.135  1.00  0.00     0.029 A 
ATOM     30  N   UNL A   1      41.526  31.297  34.171  1.00  0.00    -0.354 N 
ATOM     31  N   UNL A   1      41.490  29.441  31.893  1.00  0.00    -0.248 NA
ATOM     32  C   UNL A   1      42.421  27.649  30.716  1.00  0.00     0.031 C 
ATOM     33  C   UNL A   1      43.049  30.975  35.758  1.00  0.00     0.029 A 
ATOM     34  C   UNL A   1      42.597  30.498  34.538  1.00  0.00     0.049 A 
ATOM     35  H   UNL A   1      41.000  31.191  33.347  1.00  0.00     0.167 HD
ATOM     36  C   UNL A   1      42.580  28.954  32.597  1.00  0.00     0.074 A 
ATOM     37  C   UNL A   1      43.103  27.835  31.838  1.00  0.00     0.031 C 
ATOM     38  C   UNL A   1      43.107  29.399  33.762  1.00  0.00     0.037 A 
BRANCH  25  39
ATOM     39  C   UNL A   1      40.229  34.298  36.162  1.00  0.00     0.057 A 
ATOM     40  C   UNL A   1      40.902  35.521  36.060  1.00  0.00     0.134 A 
ATOM     41  C   UNL A   1      39.440  34.082  37.298  1.00  0.00     0.134 A 
ATOM     42  F   UNL A   1      41.682  35.782  35.000  1.00  0.00    -0.206 F 
ATOM     43  C   UNL A   1      40.797  36.494  37.056  1.00  0.00     0.040 A 
ATOM     44  C   UNL A   1      39.315  35.053  38.293  1.00  0.00     0.040 A 
ATOM     45  F   UNL A   1      38.769  32.931  37.452  1.00  0.00    -0.206 F 
ATOM     46  C   UNL A   1      39.995  36.264  38.172  1.00  0.00     0.006 A 
ENDBRANCH  25  39
BRANCH  26  47
ATOM     47  C   UNL A   1      40.451  27.834  28.560  1.00  0.00     0.057 A 
ATOM     48  C   UNL A   1      39.759  26.620  28.602  1.00  0.00     0.134 A 
ATOM     49  C   UNL A   1      41.168  28.134  27.396  1.00  0.00     0.134 A 
ATOM     50  F   UNL A   1      39.067  26.275  29.698  1.00  0.00    -0.206 F 
ATOM     51  C   UNL A   1      39.783  25.731  27.526  1.00  0.00     0.040 A 
ATOM     52  C   UNL A   1      41.184  27.264  26.306  1.00  0.00     0.040 A 
ATOM     53  F   UNL A   1      41.845  29.288  27.297  1.00  0.00    -0.206 F 
ATOM     54  C   UNL A   1      40.492  26.057  26.371  1.00  0.00     0.006 A 
ENDBRANCH  26  47
BRANCH  38  55
ATOM     55  C   UNL A   1      44.310  28.671  34.276  1.00  0.00     0.057 A 
ATOM     56  C   UNL A   1      45.606  29.099  33.964  1.00  0.00     0.134 A 
ATOM     57  C   UNL A   1      44.172  27.547  35.097  1.00  0.00     0.134 A 
ATOM     58  F   UNL A   1      45.798  30.161  33.168  1.00  0.00    -0.206 F 
ATOM     59  C   UNL A   1      46.728  28.420  34.438  1.00  0.00     0.040 A 
ATOM     60  C   UNL A   1      45.287  26.869  35.591  1.00  0.00     0.040 A 
ATOM     61  F   UNL A   1      42.955  27.093  35.431  1.00  0.00    -0.206 F 
ATOM     62  C   UNL A   1      46.569  27.304  35.258  1.00  0.00     0.006 A 
ENDBRANCH  38  55
ENDBRANCH  12  13
ENDBRANCH   5   7
ENDBRANCH   2   3
ENDBRANCH   1   2
BRANCH   1  63
ATOM     63  C   UNL A   1      31.492  30.762  26.038  1.00  0.00     0.023 C 
BRANCH  63  64
ATOM     64  C   UNL A   1      32.385  29.903  26.936  1.00  0.00     0.116 C 
BRANCH  64  65
ATOM     65  N   UNL A   1      31.732  28.655  27.262  1.00  0.00    -0.354 N 
ATOM     66  C   UNL A   1      31.735  27.466  26.604  1.00  0.00     0.242 C 
ATOM     67  H   UNL A   1      31.201  28.669  28.091  1.00  0.00     0.163 HD
ATOM     68  O   UNL A   1      30.842  26.665  26.901  1.00  0.00    -0.273 OA
BRANCH  66  69
ATOM     69  C   UNL A   1      32.699  27.151  25.445  1.00  0.00     0.175 C 
ATOM     70  C   UNL A   1      33.494  25.865  25.739  1.00  0.00     0.044 C 
ATOM     71  N   UNL A   1      32.178  26.962  24.099  1.00  0.00    -0.330 N 
ATOM     72  C   UNL A   1      33.643  25.092  24.401  1.00  0.00    -0.006 C 
ATOM     73  C   UNL A   1      32.980  26.008  23.362  1.00  0.00     0.127 C 
ATOM     74  C   UNL A   1      32.932  23.718  24.415  1.00  0.00     0.030 C 
ATOM     75  C   UNL A   1      35.127  24.854  24.049  1.00  0.00     0.030 C 
ATOM     76  C   UNL A   1      33.619  22.696  25.316  1.00  0.00     0.120 C 
ATOM     77  C   UNL A   1      35.790  23.816  24.956  1.00  0.00     0.120 C 
ATOM     78  N   UNL A   1      35.036  22.566  24.985  1.00  0.00    -0.337 N 
ATOM     79  C   UNL A   1      35.760  21.371  25.093  1.00  0.00     0.270 C 
ATOM     80  O   UNL A   1      36.978  21.377  25.256  1.00  0.00    -0.267 OA
BRANCH  71  81
ATOM     81  C   UNL A   1      31.418  27.866  23.371  1.00  0.00     0.226 C 
ATOM     82  O   UNL A   1      31.845  28.968  23.046  1.00  0.00    -0.275 OA
BRANCH  81  83
ATOM     83  C   UNL A   1      30.085  27.445  22.864  1.00  0.00     0.079 C 
ATOM     84  C   UNL A   1      28.988  26.854  23.713  1.00  0.00     0.014 C 
ATOM     85  C   UNL A   1      28.876  28.273  23.258  1.00  0.00     0.014 C 
ENDBRANCH  81  83
ENDBRANCH  71  81
BRANCH  79  86
ATOM     86  C   UNL A   1      35.028  20.126  24.997  1.00  0.00     0.105 A 
ATOM     87  C   UNL A   1      33.667  19.922  25.141  1.00  0.00     0.042 A 
ATOM     88  N   UNL A   1      35.598  18.880  24.859  1.00  0.00    -0.351 N 
ATOM     89  C   UNL A   1      33.404  18.533  25.006  1.00  0.00     0.000 A 
ATOM     90  C   UNL A   1      34.632  17.900  24.826  1.00  0.00     0.046 A 
ATOM     91  H   UNL A   1      36.565  18.712  24.793  1.00  0.00     0.167 HD
ATOM     92  C   UNL A   1      32.233  17.752  25.031  1.00  0.00     0.010 A 
ATOM     93  C   UNL A   1      34.751  16.514  24.670  1.00  0.00     0.026 A 
ATOM     94  C   UNL A   1      32.332  16.365  24.870  1.00  0.00     0.001 A 
ATOM     95  C   UNL A   1      33.574  15.758  24.692  1.00  0.00     0.002 A 
ENDBRANCH  79  86
ENDBRANCH  66  69
ENDBRANCH  64  65
ENDBRANCH  63  64
ENDBRANCH   1  63
TORSDOF 14
ENDMDL
MODEL 2
REMARK VINA RESULT:     -13.5      0.579      5.856
REMARK SMILES O=C(NCCCCNC(=O)[C@H]1CC2(CCN(C(=O)c3cc4ccccc4[nH]3)CC2)CN1C(=O)C1CC1)c1ccc(-c2c3nc(c(-c4c(F)cccc4F)c4ccc([nH]4)c(-c4c(F)cccc4F)c4nc(c(-c5c(F)cccc5F)c5ccc2[nH]5)C=C4)C=C3)cc1
REMARK SMILES IDX 5 1 4 2 3 3 1 4 2 5 37 7 38 8 90 9 39 10 89 11 40 12 41 13
REMARK SMILES IDX 42 14 83 15 43 16 88 17 82 18 84 19 44 20 87 21 81 22 80 23
REMARK SMILES IDX 45 25 71 26 54 27 70 28 55 29 58 30 69 31 85 32 56 33 57 34
REMARK SMILES IDX 68 36 86 37 59 38 46 39 47 40 52 41 48 42 49 43 51 44 53 45
REMARK SMILES IDX 50 46 72 47 73 48 78 49 74 50 75 51 77 52 79 53 76 54 60 55
REMARK SMILES IDX 61 56 66 57 62 58 63 59 65 60 67 61 64 62 6 63 7 64 8 65
REMARK SMILES IDX 9 66 10 68 11 69 12 70 31 71 13 72 30 73 14 74 29 75 15 76
REMARK SMILES IDX 28 77 16 78 17 79 18 80 32 81 33 82 34 83 35 84 36 85 19 86
REMARK SMILES IDX 20 87 27 88 21 89 26 90 22 92 25 93 23 94 24 95
REMARK H PARENT 3 6 84 24 58 35 8 67 27 91
REMARK Flexibility Score: inf
ROOT
ATOM      1  C   UNL A   1      31.404  32.158  26.613  1.00  0.00     0.023 C 
ENDROOT
BRANCH   1   2
ATOM      2  C   UNL A   1      32.684  32.801  27.129  1.00  0.00     0.116 C 
BRANCH   2   3
ATOM      3  N   UNL A   1      32.465  34.147  27.627  1.00  0.00    -0.352 N 
ATOM      4  O   UNL A   1      32.715  35.868  29.066  1.00  0.00    -0.269 OA
ATOM      5  C   UNL A   1      33.102  34.776  28.667  1.00  0.00     0.251 C 
ATOM      6  H   UNL A   1      31.776  34.673  27.162  1.00  0.00     0.163 HD
BRANCH   5   7
ATOM      7  C   UNL A   1      34.245  34.108  29.320  1.00  0.00     0.039 A 
ATOM      8  C   UNL A   1      34.034  33.159  30.324  1.00  0.00     0.014 A 
ATOM      9  C   UNL A   1      35.540  34.428  28.905  1.00  0.00     0.014 A 
ATOM     10  C   UNL A   1      35.124  32.583  30.967  1.00  0.00     0.010 A 
ATOM     11  C   UNL A   1      36.633  33.812  29.517  1.00  0.00     0.010 A 
ATOM     12  C   UNL A   1      36.431  32.892  30.556  1.00  0.00    -0.014 A 
BRANCH  12  13
ATOM     13  C   UNL A   1      37.571  32.163  31.157  1.00  0.00     0.031 A 
ATOM     14  C   UNL A   1      38.286  31.082  30.405  1.00  0.00     0.074 A 
ATOM     15  C   UNL A   1      37.954  32.500  32.401  1.00  0.00     0.049 A 
ATOM     16  N   UNL A   1      39.304  30.354  30.787  1.00  0.00    -0.248 NA
ATOM     17  C   UNL A   1      37.798  30.771  29.053  1.00  0.00     0.031 C 
ATOM     18  C   UNL A   1      37.311  33.523  33.231  1.00  0.00     0.029 A 
ATOM     19  N   UNL A   1      38.976  32.031  33.183  1.00  0.00    -0.354 N 
ATOM     20  C   UNL A   1      39.569  29.488  29.735  1.00  0.00     0.074 A 
ATOM     21  C   UNL A   1      38.597  29.773  28.700  1.00  0.00     0.031 C 
ATOM     22  C   UNL A   1      37.974  33.625  34.393  1.00  0.00     0.029 A 
ATOM     23  C   UNL A   1      39.057  32.649  34.406  1.00  0.00     0.049 A 
ATOM     24  H   UNL A   1      39.592  31.319  32.895  1.00  0.00     0.167 HD
ATOM     25  C   UNL A   1      40.536  28.545  29.647  1.00  0.00     0.037 A 
ATOM     26  C   UNL A   1      39.904  32.444  35.430  1.00  0.00     0.037 A 
ATOM     27  C   UNL A   1      41.512  28.281  30.672  1.00  0.00     0.049 A 
ATOM     28  C   UNL A   1      40.967  31.396  35.299  1.00  0.00     0.074 A 
ATOM     29  C   UNL A   1      42.563  27.380  30.652  1.00  0.00     0.029 A 
ATOM     30  N   UNL A   1      41.552  28.915  31.905  1.00  0.00    -0.354 N 
ATOM     31  N   UNL A   1      41.227  30.610  34.283  1.00  0.00    -0.248 NA
ATOM     32  C   UNL A   1      41.848  31.200  36.458  1.00  0.00     0.031 C 
ATOM     33  C   UNL A   1      43.224  27.451  31.884  1.00  0.00     0.029 A 
ATOM     34  C   UNL A   1      42.599  28.413  32.660  1.00  0.00     0.049 A 
ATOM     35  H   UNL A   1      40.930  29.618  32.198  1.00  0.00     0.167 HD
ATOM     36  C   UNL A   1      42.300  29.825  34.678  1.00  0.00     0.074 A 
ATOM     37  C   UNL A   1      42.657  30.247  36.018  1.00  0.00     0.031 C 
ATOM     38  C   UNL A   1      42.928  28.838  33.995  1.00  0.00     0.037 A 
BRANCH  25  39
ATOM     39  C   UNL A   1      40.587  27.715  28.400  1.00  0.00     0.057 A 
ATOM     40  C   UNL A   1      41.350  28.100  27.292  1.00  0.00     0.134 A 
ATOM     41  C   UNL A   1      39.921  26.485  28.336  1.00  0.00     0.134 A 
ATOM     42  F   UNL A   1      42.003  29.272  27.290  1.00  0.00    -0.206 F 
ATOM     43  C   UNL A   1      41.445  27.292  26.157  1.00  0.00     0.040 A 
ATOM     44  C   UNL A   1      40.020  25.661  27.213  1.00  0.00     0.040 A 
ATOM     45  F   UNL A   1      39.177  26.059  29.366  1.00  0.00    -0.206 F 
ATOM     46  C   UNL A   1      40.785  26.065  26.120  1.00  0.00     0.006 A 
ENDBRANCH  25  39
BRANCH  26  47
ATOM     47  C   UNL A   1      39.770  33.251  36.664  1.00  0.00     0.057 A 
ATOM     48  C   UNL A   1      38.896  32.868  37.685  1.00  0.00     0.134 A 
ATOM     49  C   UNL A   1      40.530  34.411  36.859  1.00  0.00     0.134 A 
ATOM     50  F   UNL A   1      38.132  31.774  37.545  1.00  0.00    -0.206 F 
ATOM     51  C   UNL A   1      38.776  33.614  38.859  1.00  0.00     0.040 A 
ATOM     52  C   UNL A   1      40.435  35.155  38.035  1.00  0.00     0.040 A 
ATOM     53  F   UNL A   1      41.390  34.822  35.916  1.00  0.00    -0.206 F 
ATOM     54  C   UNL A   1      39.553  34.758  39.038  1.00  0.00     0.006 A 
ENDBRANCH  26  47
BRANCH  38  55
ATOM     55  C   UNL A   1      44.057  28.152  34.696  1.00  0.00     0.057 A 
ATOM     56  C   UNL A   1      43.849  26.989  35.446  1.00  0.00     0.134 A 
ATOM     57  C   UNL A   1      45.363  28.648  34.608  1.00  0.00     0.134 A 
ATOM     58  F   UNL A   1      42.616  26.478  35.578  1.00  0.00    -0.206 F 
ATOM     59  C   UNL A   1      44.900  26.350  36.103  1.00  0.00     0.040 A 
ATOM     60  C   UNL A   1      46.426  28.008  35.247  1.00  0.00     0.040 A 
ATOM     61  F   UNL A   1      45.624  29.757  33.901  1.00  0.00    -0.206 F 
ATOM     62  C   UNL A   1      46.194  26.858  36.000  1.00  0.00     0.006 A 
ENDBRANCH  38  55
ENDBRANCH  12  13
ENDBRANCH   5   7
ENDBRANCH   2   3
ENDBRANCH   1   2
BRANCH   1  63
ATOM     63  C   UNL A   1      31.563  30.709  26.140  1.00  0.00     0.023 C 
BRANCH  63  64
ATOM     64  C   UNL A   1      32.361  29.812  27.089  1.00  0.00     0.116 C 
BRANCH  64  65
ATOM     65  N   UNL A   1      31.647  28.584  27.354  1.00  0.00    -0.354 N 
ATOM     66  C   UNL A   1      31.588  27.432  26.635  1.00  0.00     0.242 C 
ATOM     67  H   UNL A   1      31.119  28.581  28.185  1.00  0.00     0.163 HD
ATOM     68  O   UNL A   1      30.657  26.663  26.895  1.00  0.00    -0.273 OA
BRANCH  66  69
ATOM     69  C   UNL A   1      32.533  27.128  25.457  1.00  0.00     0.175 C 
ATOM     70  C   UNL A   1      33.360  25.861  25.741  1.00  0.00     0.044 C 
ATOM     71  N   UNL A   1      31.986  26.921  24.124  1.00  0.00    -0.330 N 
ATOM     72  C   UNL A   1      33.494  25.083  24.404  1.00  0.00    -0.006 C 
ATOM     73  C   UNL A   1      32.791  25.979  23.375  1.00  0.00     0.127 C 
ATOM     74  C   UNL A   1      32.811  23.695  24.441  1.00  0.00     0.030 C 
ATOM     75  C   UNL A   1      34.975  24.872  24.021  1.00  0.00     0.030 C 
ATOM     76  C   UNL A   1      33.538  22.692  25.332  1.00  0.00     0.120 C 
ATOM     77  C   UNL A   1      35.678  23.853  24.918  1.00  0.00     0.120 C 
ATOM     78  N   UNL A   1      34.950  22.588  24.972  1.00  0.00    -0.337 N 
ATOM     79  C   UNL A   1      35.700  21.409  25.070  1.00  0.00     0.270 C 
ATOM     80  O   UNL A   1      36.921  21.439  25.206  1.00  0.00    -0.267 OA
BRANCH  71  81
ATOM     81  C   UNL A   1      31.193  27.805  23.408  1.00  0.00     0.226 C 
ATOM     82  O   UNL A   1      31.603  28.899  23.035  1.00  0.00    -0.275 OA
BRANCH  81  83
ATOM     83  C   UNL A   1      29.838  27.371  22.974  1.00  0.00     0.079 C 
ATOM     84  C   UNL A   1      28.823  26.697  23.862  1.00  0.00     0.014 C 
ATOM     85  C   UNL A   1      28.638  28.135  23.502  1.00  0.00     0.014 C 
ENDBRANCH  81  83
ENDBRANCH  71  81
BRANCH  79  86
ATOM     86  C   UNL A   1      34.991  20.149  24.998  1.00  0.00     0.105 A 
ATOM     87  C   UNL A   1      33.646  19.911  25.220  1.00  0.00     0.042 A 
ATOM     88  N   UNL A   1      35.578  18.918  24.803  1.00  0.00    -0.351 N 
ATOM     89  C   UNL A   1      33.406  18.519  25.078  1.00  0.00     0.000 A 
ATOM     90  C   UNL A   1      34.634  17.917  24.812  1.00  0.00     0.046 A 
ATOM     91  H   UNL A   1      36.543  18.774  24.675  1.00  0.00     0.167 HD
ATOM     92  C   UNL A   1      32.256  17.710  25.160  1.00  0.00     0.010 A 
ATOM     93  C   UNL A   1      34.774  16.537  24.625  1.00  0.00     0.026 A 
ATOM     94  C   UNL A   1      32.376  16.329  24.969  1.00  0.00     0.001 A 
ATOM     95  C   UNL A   1      33.617  15.753  24.706  1.00  0.00     0.002 A 
ENDBRANCH  79  86
ENDBRANCH  66  69
ENDBRANCH  64  65
ENDBRANCH  63  64
ENDBRANCH   1  63
TORSDOF 14
ENDMDL
MODEL 3
REMARK VINA RESULT:     -13.2      3.806     10.099
REMARK SMILES O=C(NCCCCNC(=O)[C@H]1CC2(CCN(C(=O)c3cc4ccccc4[nH]3)CC2)CN1C(=O)C1CC1)c1ccc(-c2c3nc(c(-c4c(F)cccc4F)c4ccc([nH]4)c(-c4c(F)cccc4F)c4nc(c(-c5c(F)cccc5F)c5ccc2[nH]5)C=C4)C=C3)cc1
REMARK SMILES IDX 5 1 4 2 3 3 1 4 2 5 37 7 38 8 90 9 39 10 89 11 40 12 41 13
REMARK SMILES IDX 42 14 83 15 43 16 88 17 82 18 84 19 44 20 87 21 81 22 80 23
REMARK SMILES IDX 45 25 71 26 54 27 70 28 55 29 58 30 69 31 85 32 56 33 57 34
REMARK SMILES IDX 68 36 86 37 59 38 46 39 47 40 52 41 48 42 49 43 51 44 53 45
REMARK SMILES IDX 50 46 72 47 73 48 78 49 74 50 75 51 77 52 79 53 76 54 60 55
REMARK SMILES IDX 61 56 66 57 62 58 63 59 65 60 67 61 64 62 6 63 7 64 8 65
REMARK SMILES IDX 9 66 10 68 11 69 12 70 31 71 13 72 30 73 14 74 29 75 15 76
REMARK SMILES IDX 28 77 16 78 17 79 18 80 32 81 33 82 34 83 35 84 36 85 19 86
REMARK SMILES IDX 20 87 27 88 21 89 26 90 22 92 25 93 23 94 24 95
REMARK H PARENT 3 6 84 24 58 35 8 67 27 91
REMARK Flexibility Score: inf
ROOT
ATOM      1  C   UNL A   1      38.532  20.016  25.009  1.00  0.00     0.023 C 
ENDROOT
BRANCH   1   2
ATOM      2  C   UNL A   1      39.448  19.755  26.197  1.00  0.00     0.116 C 
BRANCH   2   3
ATOM      3  N   UNL A   1      40.680  19.090  25.810  1.00  0.00    -0.352 N 
ATOM      4  O   UNL A   1      42.881  18.971  25.325  1.00  0.00    -0.269 OA
ATOM      5  C   UNL A   1      41.952  19.604  25.812  1.00  0.00     0.251 C 
ATOM      6  H   UNL A   1      40.592  18.157  25.509  1.00  0.00     0.163 HD
BRANCH   5   7
ATOM      7  C   UNL A   1      42.186  20.945  26.385  1.00  0.00     0.039 A 
ATOM      8  C   UNL A   1      42.152  21.141  27.768  1.00  0.00     0.014 A 
ATOM      9  C   UNL A   1      42.458  22.009  25.521  1.00  0.00     0.014 A 
ATOM     10  C   UNL A   1      42.318  22.422  28.286  1.00  0.00     0.010 A 
ATOM     11  C   UNL A   1      42.674  23.285  26.045  1.00  0.00     0.010 A 
ATOM     12  C   UNL A   1      42.597  23.499  27.430  1.00  0.00    -0.014 A 
BRANCH  12  13
ATOM     13  C   UNL A   1      42.909  24.824  28.010  1.00  0.00     0.031 A 
ATOM     14  C   UNL A   1      44.318  25.217  28.340  1.00  0.00     0.074 A 
ATOM     15  C   UNL A   1      41.891  25.674  28.233  1.00  0.00     0.049 A 
ATOM     16  N   UNL A   1      44.757  26.340  28.847  1.00  0.00    -0.248 NA
ATOM     17  C   UNL A   1      45.369  24.225  28.072  1.00  0.00     0.031 C 
ATOM     18  C   UNL A   1      40.479  25.383  27.969  1.00  0.00     0.029 A 
ATOM     19  N   UNL A   1      41.882  26.955  28.721  1.00  0.00    -0.354 N 
ATOM     20  C   UNL A   1      46.130  26.187  28.978  1.00  0.00     0.074 A 
ATOM     21  C   UNL A   1      46.453  24.857  28.505  1.00  0.00     0.031 C 
ATOM     22  C   UNL A   1      39.745  26.465  28.269  1.00  0.00     0.029 A 
ATOM     23  C   UNL A   1      40.626  27.506  28.784  1.00  0.00     0.049 A 
ATOM     24  H   UNL A   1      42.697  27.432  28.999  1.00  0.00     0.167 HD
ATOM     25  C   UNL A   1      47.034  27.079  29.447  1.00  0.00     0.037 A 
ATOM     26  C   UNL A   1      40.228  28.715  29.219  1.00  0.00     0.037 A 
ATOM     27  C   UNL A   1      46.709  28.408  29.896  1.00  0.00     0.049 A 
ATOM     28  C   UNL A   1      41.254  29.681  29.729  1.00  0.00     0.074 A 
ATOM     29  C   UNL A   1      47.564  29.402  30.340  1.00  0.00     0.029 A 
ATOM     30  N   UNL A   1      45.424  28.926  29.962  1.00  0.00    -0.354 N 
ATOM     31  N   UNL A   1      42.554  29.535  29.810  1.00  0.00    -0.248 NA
ATOM     32  C   UNL A   1      40.758  30.976  30.212  1.00  0.00     0.031 C 
ATOM     33  C   UNL A   1      46.793  30.514  30.701  1.00  0.00     0.029 A 
ATOM     34  C   UNL A   1      45.461  30.219  30.457  1.00  0.00     0.049 A 
ATOM     35  H   UNL A   1      44.608  28.446  29.696  1.00  0.00     0.167 HD
ATOM     36  C   UNL A   1      43.033  30.716  30.356  1.00  0.00     0.074 A 
ATOM     37  C   UNL A   1      41.886  31.578  30.562  1.00  0.00     0.031 C 
ATOM     38  C   UNL A   1      44.307  31.053  30.666  1.00  0.00     0.037 A 
BRANCH  25  39
ATOM     39  C   UNL A   1      48.468  26.649  29.511  1.00  0.00     0.057 A 
ATOM     40  C   UNL A   1      48.972  25.929  30.601  1.00  0.00     0.134 A 
ATOM     41  C   UNL A   1      49.335  26.900  28.441  1.00  0.00     0.134 A 
ATOM     42  F   UNL A   1      48.193  25.667  31.661  1.00  0.00    -0.206 F 
ATOM     43  C   UNL A   1      50.292  25.476  30.626  1.00  0.00     0.040 A 
ATOM     44  C   UNL A   1      50.653  26.440  28.447  1.00  0.00     0.040 A 
ATOM     45  F   UNL A   1      48.911  27.582  27.367  1.00  0.00    -0.206 F 
ATOM     46  C   UNL A   1      51.134  25.725  29.543  1.00  0.00     0.006 A 
ENDBRANCH  25  39
BRANCH  26  47
ATOM     47  C   UNL A   1      38.789  29.065  29.191  1.00  0.00     0.057 A 
ATOM     48  C   UNL A   1      37.993  28.938  30.333  1.00  0.00     0.134 A 
ATOM     49  C   UNL A   1      38.185  29.558  28.028  1.00  0.00     0.134 A 
ATOM     50  F   UNL A   1      38.517  28.458  31.470  1.00  0.00    -0.206 F 
ATOM     51  C   UNL A   1      36.641  29.283  30.319  1.00  0.00     0.040 A 
ATOM     52  C   UNL A   1      36.840  29.925  28.005  1.00  0.00     0.040 A 
ATOM     53  F   UNL A   1      38.903  29.707  26.904  1.00  0.00    -0.206 F 
ATOM     54  C   UNL A   1      36.063  29.784  29.153  1.00  0.00     0.006 A 
ENDBRANCH  26  47
BRANCH  38  55
ATOM     55  C   UNL A   1      44.516  32.409  31.263  1.00  0.00     0.057 A 
ATOM     56  C   UNL A   1      44.711  33.536  30.457  1.00  0.00     0.134 A 
ATOM     57  C   UNL A   1      44.507  32.591  32.650  1.00  0.00     0.134 A 
ATOM     58  F   UNL A   1      44.745  33.419  29.121  1.00  0.00    -0.206 F 
ATOM     59  C   UNL A   1      44.909  34.801  31.011  1.00  0.00     0.040 A 
ATOM     60  C   UNL A   1      44.687  33.854  33.217  1.00  0.00     0.040 A 
ATOM     61  F   UNL A   1      44.322  31.548  33.473  1.00  0.00    -0.206 F 
ATOM     62  C   UNL A   1      44.893  34.961  32.396  1.00  0.00     0.006 A 
ENDBRANCH  38  55
ENDBRANCH  12  13
ENDBRANCH   5   7
ENDBRANCH   2   3
ENDBRANCH   1   2
BRANCH   1  63
ATOM     63  C   UNL A   1      37.857  21.392  25.013  1.00  0.00     0.023 C 
BRANCH  63  64
ATOM     64  C   UNL A   1      36.341  21.359  24.813  1.00  0.00     0.116 C 
BRANCH  64  65
ATOM     65  N   UNL A   1      35.950  22.223  23.722  1.00  0.00    -0.354 N 
ATOM     66  C   UNL A   1      34.864  23.029  23.588  1.00  0.00     0.242 C 
ATOM     67  H   UNL A   1      36.567  22.229  22.955  1.00  0.00     0.163 HD
ATOM     68  O   UNL A   1      34.586  23.401  22.443  1.00  0.00    -0.273 OA
BRANCH  66  69
ATOM     69  C   UNL A   1      33.921  23.369  24.758  1.00  0.00     0.175 C 
ATOM     70  C   UNL A   1      33.699  24.891  24.846  1.00  0.00     0.044 C 
ATOM     71  N   UNL A   1      32.583  22.798  24.802  1.00  0.00    -0.330 N 
ATOM     72  C   UNL A   1      32.215  25.122  25.241  1.00  0.00    -0.006 C 
ATOM     73  C   UNL A   1      31.652  23.707  25.435  1.00  0.00     0.127 C 
ATOM     74  C   UNL A   1      31.407  25.860  24.147  1.00  0.00     0.030 C 
ATOM     75  C   UNL A   1      32.100  25.939  26.546  1.00  0.00     0.030 C 
ATOM     76  C   UNL A   1      31.805  27.324  23.991  1.00  0.00     0.120 C 
ATOM     77  C   UNL A   1      32.490  27.406  26.361  1.00  0.00     0.120 C 
ATOM     78  N   UNL A   1      31.748  28.029  25.269  1.00  0.00    -0.337 N 
ATOM     79  C   UNL A   1      31.397  29.378  25.406  1.00  0.00     0.270 C 
ATOM     80  O   UNL A   1      31.784  30.043  26.365  1.00  0.00    -0.267 OA
BRANCH  71  81
ATOM     81  C   UNL A   1      32.259  21.449  24.784  1.00  0.00     0.226 C 
ATOM     82  O   UNL A   1      31.427  20.965  25.543  1.00  0.00    -0.275 OA
BRANCH  81  83
ATOM     83  C   UNL A   1      32.848  20.579  23.731  1.00  0.00     0.079 C 
ATOM     84  C   UNL A   1      32.250  19.281  23.251  1.00  0.00     0.014 C 
ATOM     85  C   UNL A   1      32.140  20.498  22.391  1.00  0.00     0.014 C 
ENDBRANCH  81  83
ENDBRANCH  71  81
BRANCH  79  86
ATOM     86  C   UNL A   1      30.556  29.965  24.385  1.00  0.00     0.105 A 
ATOM     87  C   UNL A   1      30.143  29.401  23.191  1.00  0.00     0.042 A 
ATOM     88  N   UNL A   1      30.108  31.267  24.379  1.00  0.00    -0.351 N 
ATOM     89  C   UNL A   1      29.363  30.358  22.488  1.00  0.00     0.000 A 
ATOM     90  C   UNL A   1      29.352  31.520  23.256  1.00  0.00     0.046 A 
ATOM     91  H   UNL A   1      30.302  31.929  25.081  1.00  0.00     0.167 HD
ATOM     92  C   UNL A   1      28.671  30.347  21.262  1.00  0.00     0.010 A 
ATOM     93  C   UNL A   1      28.683  32.683  22.858  1.00  0.00     0.026 A 
ATOM     94  C   UNL A   1      27.990  31.499  20.850  1.00  0.00     0.001 A 
ATOM     95  C   UNL A   1      27.997  32.648  21.638  1.00  0.00     0.002 A 
ENDBRANCH  79  86
ENDBRANCH  66  69
ENDBRANCH  64  65
ENDBRANCH  63  64
ENDBRANCH   1  63
TORSDOF 14
ENDMDL
