MODEL 1
REMARK VINA RESULT:     -11.4      0.000      0.000
REMARK SMILES C[NH2+][C@]1(C(=O)NCCCCNC(=O)c2ccc(-c3c4nc(c(-c5c(F)cccc5F)c5ccc([nH]5)c(-c5c(F)cccc5F)c5nc(c(-c6c(F)cccc6F)c6ccc3[nH]6)C=C5)C=C4)cc2)CCC[C@@H]1CCn1cc(C)cn1
REMARK SMILES IDX 8 1 7 2 6 3 4 4 5 5 3 7 68 8 71 9 69 10 70 11 2 12 1 13
REMARK SMILES IDX 72 16 73 17 74 18 75 19 79 20 76 21 78 22 77 23 9 24 10 25
REMARK SMILES IDX 11 26 12 27 13 29 14 30 15 31 67 32 16 33 66 34 17 35 18 36
REMARK SMILES IDX 19 37 60 38 20 39 65 40 59 41 61 42 21 43 64 44 58 45 57 46
REMARK SMILES IDX 22 48 48 49 31 50 47 51 32 52 35 53 46 54 62 55 33 56 34 57
REMARK SMILES IDX 45 59 63 60 36 61 23 62 24 63 29 64 25 65 26 66 28 67 30 68
REMARK SMILES IDX 27 69 49 70 50 71 55 72 51 73 52 74 54 75 56 76 53 77 37 78
REMARK SMILES IDX 38 79 43 80 39 81 40 82 42 83 44 84 41 85
REMARK H PARENT 6 6 2 14 2 15 11 28 61 47 35 58
REMARK Flexibility Score: inf
ROOT
ATOM      1  C   UNL A   1      31.634  30.602  26.111  1.00  0.00     0.023 C 
ENDROOT
BRANCH   1   2
ATOM      2  C   UNL A   1      33.042  30.049  26.323  1.00  0.00     0.116 C 
BRANCH   2   3
ATOM      3  N   UNL A   1      33.661  29.679  25.063  1.00  0.00    -0.351 N 
ATOM      4  C   UNL A   1      33.608  28.551  24.306  1.00  0.00     0.281 C 
ATOM      5  O   UNL A   1      34.225  28.604  23.232  1.00  0.00    -0.268 OA
ATOM      6  H   UNL A   1      34.234  30.384  24.682  1.00  0.00     0.163 HD
BRANCH   4   7
ATOM      7  C   UNL A   1      32.753  27.288  24.674  1.00  0.00     0.178 C 
ATOM      8  C   UNL A   1      32.830  26.801  26.131  1.00  0.00     0.079 C 
ATOM      9  C   UNL A   1      31.244  27.652  24.539  1.00  0.00     0.062 C 
ATOM     10  C   UNL A   1      31.528  26.045  26.374  1.00  0.00     0.008 C 
ATOM     11  C   UNL A   1      30.497  26.630  25.410  1.00  0.00     0.011 C 
BRANCH   7  12
ATOM     12  N   UNL A   1      33.063  26.172  23.719  1.00  0.00    -0.336 N 
ATOM     13  C   UNL A   1      34.141  25.285  24.155  1.00  0.00     0.331 C 
ATOM     14  H   UNL A   1      32.220  25.612  23.597  1.00  0.00     0.346 HD
ATOM     15  H   UNL A   1      33.380  26.610  22.855  1.00  0.00     0.346 HD
ENDBRANCH   7  12
BRANCH   9  16
ATOM     16  C   UNL A   1      30.700  27.747  23.101  1.00  0.00     0.034 C 
BRANCH  16  17
ATOM     17  C   UNL A   1      29.211  28.102  23.045  1.00  0.00     0.144 C 
BRANCH  17  18
ATOM     18  N   UNL A   1      28.985  29.481  22.640  1.00  0.00    -0.272 N 
ATOM     19  C   UNL A   1      29.203  30.596  23.399  1.00  0.00     0.112 A 
ATOM     20  N   UNL A   1      28.483  29.759  21.421  1.00  0.00    -0.181 NA
ATOM     21  C   UNL A   1      28.823  31.674  22.628  1.00  0.00    -0.013 A 
ATOM     22  C   UNL A   1      28.397  31.091  21.413  1.00  0.00     0.138 A 
ATOM     23  C   UNL A   1      28.850  33.110  22.983  1.00  0.00     0.048 C 
ENDBRANCH  17  18
ENDBRANCH  16  17
ENDBRANCH   9  16
ENDBRANCH   4   7
ENDBRANCH   2   3
ENDBRANCH   1   2
BRANCH   1  24
ATOM     24  C   UNL A   1      31.375  31.946  26.790  1.00  0.00     0.023 C 
BRANCH  24  25
ATOM     25  C   UNL A   1      32.625  32.701  27.225  1.00  0.00     0.116 C 
BRANCH  25  26
ATOM     26  N   UNL A   1      32.361  34.079  27.611  1.00  0.00    -0.352 N 
ATOM     27  C   UNL A   1      33.030  34.856  28.524  1.00  0.00     0.251 C 
ATOM     28  H   UNL A   1      31.602  34.512  27.156  1.00  0.00     0.163 HD
ATOM     29  O   UNL A   1      32.613  35.972  28.821  1.00  0.00    -0.269 OA
BRANCH  27  30
ATOM     30  C   UNL A   1      34.238  34.320  29.180  1.00  0.00     0.039 A 
ATOM     31  C   UNL A   1      34.095  33.578  30.354  1.00  0.00     0.014 A 
ATOM     32  C   UNL A   1      35.501  34.517  28.614  1.00  0.00     0.014 A 
ATOM     33  C   UNL A   1      35.215  32.972  30.925  1.00  0.00     0.010 A 
ATOM     34  C   UNL A   1      36.603  33.856  29.145  1.00  0.00     0.010 A 
ATOM     35  C   UNL A   1      36.469  33.076  30.303  1.00  0.00    -0.014 A 
BRANCH  35  36
ATOM     36  C   UNL A   1      37.656  32.369  30.844  1.00  0.00     0.031 A 
ATOM     37  C   UNL A   1      38.356  32.897  32.063  1.00  0.00     0.074 A 
ATOM     38  C   UNL A   1      38.147  31.299  30.190  1.00  0.00     0.049 A 
ATOM     39  N   UNL A   1      39.450  32.469  32.638  1.00  0.00    -0.248 NA
ATOM     40  C   UNL A   1      37.762  34.081  32.705  1.00  0.00     0.031 C 
ATOM     41  C   UNL A   1      37.590  30.725  28.963  1.00  0.00     0.029 A 
ATOM     42  N   UNL A   1      39.236  30.510  30.460  1.00  0.00    -0.354 N 
ATOM     43  C   UNL A   1      39.687  33.340  33.692  1.00  0.00     0.074 A 
ATOM     44  C   UNL A   1      38.650  34.348  33.651  1.00  0.00     0.031 C 
ATOM     45  C   UNL A   1      38.331  29.666  28.598  1.00  0.00     0.029 A 
ATOM     46  C   UNL A   1      39.430  29.505  29.543  1.00  0.00     0.049 A 
ATOM     47  H   UNL A   1      39.824  30.650  31.238  1.00  0.00     0.167 HD
ATOM     48  C   UNL A   1      40.669  33.292  34.624  1.00  0.00     0.037 A 
ATOM     49  C   UNL A   1      40.391  28.565  29.471  1.00  0.00     0.037 A 
ATOM     50  C   UNL A   1      41.678  32.268  34.684  1.00  0.00     0.049 A 
ATOM     51  C   UNL A   1      41.457  28.521  30.529  1.00  0.00     0.074 A 
ATOM     52  C   UNL A   1      42.670  32.090  35.631  1.00  0.00     0.029 A 
ATOM     53  N   UNL A   1      41.821  31.248  33.756  1.00  0.00    -0.354 N 
ATOM     54  N   UNL A   1      41.628  29.310  31.561  1.00  0.00    -0.248 NA
ATOM     55  C   UNL A   1      42.459  27.450  30.416  1.00  0.00     0.031 C 
ATOM     56  C   UNL A   1      43.438  30.981  35.257  1.00  0.00     0.029 A 
ATOM     57  C   UNL A   1      42.897  30.446  34.099  1.00  0.00     0.049 A 
ATOM     58  H   UNL A   1      41.243  31.112  32.970  1.00  0.00     0.167 HD
ATOM     59  C   UNL A   1      42.740  28.818  32.234  1.00  0.00     0.074 A 
ATOM     60  C   UNL A   1      43.194  27.656  31.500  1.00  0.00     0.031 C 
ATOM     61  C   UNL A   1      43.331  29.289  33.360  1.00  0.00     0.037 A 
BRANCH  48  62
ATOM     62  C   UNL A   1      40.691  34.377  35.659  1.00  0.00     0.057 A 
ATOM     63  C   UNL A   1      41.404  35.567  35.466  1.00  0.00     0.134 A 
ATOM     64  C   UNL A   1      39.968  34.244  36.851  1.00  0.00     0.134 A 
ATOM     65  F   UNL A   1      42.129  35.752  34.351  1.00  0.00    -0.206 F 
ATOM     66  C   UNL A   1      41.416  36.576  36.429  1.00  0.00     0.040 A 
ATOM     67  C   UNL A   1      39.952  35.257  37.812  1.00  0.00     0.040 A 
ATOM     68  F   UNL A   1      39.261  33.130  37.099  1.00  0.00    -0.206 F 
ATOM     69  C   UNL A   1      40.683  36.424  37.605  1.00  0.00     0.006 A 
ENDBRANCH  48  62
BRANCH  49  70
ATOM     70  C   UNL A   1      40.372  27.571  28.370  1.00  0.00     0.057 A 
ATOM     71  C   UNL A   1      39.691  26.356  28.509  1.00  0.00     0.134 A 
ATOM     72  C   UNL A   1      41.028  27.809  27.158  1.00  0.00     0.134 A 
ATOM     73  F   UNL A   1      39.059  26.064  29.655  1.00  0.00    -0.206 F 
ATOM     74  C   UNL A   1      39.678  25.404  27.488  1.00  0.00     0.040 A 
ATOM     75  C   UNL A   1      41.005  26.876  26.119  1.00  0.00     0.040 A 
ATOM     76  F   UNL A   1      41.691  28.958  26.960  1.00  0.00    -0.206 F 
ATOM     77  C   UNL A   1      40.334  25.667  26.286  1.00  0.00     0.006 A 
ENDBRANCH  49  70
BRANCH  61  78
ATOM     78  C   UNL A   1      44.514  28.529  33.881  1.00  0.00     0.057 A 
ATOM     79  C   UNL A   1      45.824  28.878  33.533  1.00  0.00     0.134 A 
ATOM     80  C   UNL A   1      44.340  27.464  34.772  1.00  0.00     0.134 A 
ATOM     81  F   UNL A   1      46.057  29.880  32.673  1.00  0.00    -0.206 F 
ATOM     82  C   UNL A   1      46.922  28.181  34.041  1.00  0.00     0.040 A 
ATOM     83  C   UNL A   1      45.430  26.775  35.306  1.00  0.00     0.040 A 
ATOM     84  F   UNL A   1      43.110  27.086  35.150  1.00  0.00    -0.206 F 
ATOM     85  C   UNL A   1      46.726  27.131  34.936  1.00  0.00     0.006 A 
ENDBRANCH  61  78
ENDBRANCH  35  36
ENDBRANCH  27  30
ENDBRANCH  25  26
ENDBRANCH  24  25
ENDBRANCH   1  24
TORSDOF 15
ENDMDL
MODEL 2
REMARK VINA RESULT:     -11.3      5.395     10.433
REMARK SMILES C[NH2+][C@]1(C(=O)NCCCCNC(=O)c2ccc(-c3c4nc(c(-c5c(F)cccc5F)c5ccc([nH]5)c(-c5c(F)cccc5F)c5nc(c(-c6c(F)cccc6F)c6ccc3[nH]6)C=C5)C=C4)cc2)CCC[C@@H]1CCn1cc(C)cn1
REMARK SMILES IDX 8 1 7 2 6 3 4 4 5 5 3 7 68 8 71 9 69 10 70 11 2 12 1 13
REMARK SMILES IDX 72 16 73 17 74 18 75 19 79 20 76 21 78 22 77 23 9 24 10 25
REMARK SMILES IDX 11 26 12 27 13 29 14 30 15 31 67 32 16 33 66 34 17 35 18 36
REMARK SMILES IDX 19 37 60 38 20 39 65 40 59 41 61 42 21 43 64 44 58 45 57 46
REMARK SMILES IDX 22 48 48 49 31 50 47 51 32 52 35 53 46 54 62 55 33 56 34 57
REMARK SMILES IDX 45 59 63 60 36 61 23 62 24 63 29 64 25 65 26 66 28 67 30 68
REMARK SMILES IDX 27 69 49 70 50 71 55 72 51 73 52 74 54 75 56 76 53 77 37 78
REMARK SMILES IDX 38 79 43 80 39 81 40 82 42 83 44 84 41 85
REMARK H PARENT 6 6 2 14 2 15 11 28 61 47 35 58
REMARK Flexibility Score: inf
ROOT
ATOM      1  C   UNL A   1      36.553  20.375  25.047  1.00  0.00     0.023 C 
ENDROOT
BRANCH   1   2
ATOM      2  C   UNL A   1      36.478  21.766  25.671  1.00  0.00     0.116 C 
BRANCH   2   3
ATOM      3  N   UNL A   1      35.436  21.840  26.680  1.00  0.00    -0.351 N 
ATOM      4  C   UNL A   1      34.183  22.366  26.673  1.00  0.00     0.281 C 
ATOM      5  O   UNL A   1      33.530  22.190  27.712  1.00  0.00    -0.268 OA
ATOM      6  H   UNL A   1      35.689  21.428  27.538  1.00  0.00     0.163 HD
BRANCH   4   7
ATOM      7  C   UNL A   1      33.529  23.059  25.427  1.00  0.00     0.178 C 
ATOM      8  C   UNL A   1      34.350  24.165  24.742  1.00  0.00     0.079 C 
ATOM      9  C   UNL A   1      33.398  22.007  24.285  1.00  0.00     0.062 C 
ATOM     10  C   UNL A   1      33.841  24.214  23.305  1.00  0.00     0.008 C 
ATOM     11  C   UNL A   1      33.296  22.823  22.987  1.00  0.00     0.011 C 
BRANCH   7  12
ATOM     12  N   UNL A   1      32.158  23.552  25.784  1.00  0.00    -0.336 N 
ATOM     13  C   UNL A   1      32.119  24.927  26.280  1.00  0.00     0.331 C 
ATOM     14  H   UNL A   1      31.572  23.497  24.952  1.00  0.00     0.346 HD
ATOM     15  H   UNL A   1      31.827  22.960  26.546  1.00  0.00     0.346 HD
ENDBRANCH   7  12
BRANCH   9  16
ATOM     16  C   UNL A   1      32.268  20.972  24.449  1.00  0.00     0.034 C 
BRANCH  16  17
ATOM     17  C   UNL A   1      32.443  19.745  23.549  1.00  0.00     0.144 C 
BRANCH  17  18
ATOM     18  N   UNL A   1      32.890  18.575  24.289  1.00  0.00    -0.272 N 
ATOM     19  C   UNL A   1      34.049  17.881  24.087  1.00  0.00     0.112 A 
ATOM     20  N   UNL A   1      32.120  18.050  25.262  1.00  0.00    -0.181 NA
ATOM     21  C   UNL A   1      34.041  16.836  24.987  1.00  0.00    -0.013 A 
ATOM     22  C   UNL A   1      32.828  17.003  25.692  1.00  0.00     0.138 A 
ATOM     23  C   UNL A   1      35.062  15.782  25.177  1.00  0.00     0.048 C 
ENDBRANCH  17  18
ENDBRANCH  16  17
ENDBRANCH   9  16
ENDBRANCH   4   7
ENDBRANCH   2   3
ENDBRANCH   1   2
BRANCH   1  24
ATOM     24  C   UNL A   1      37.965  19.924  24.678  1.00  0.00     0.023 C 
BRANCH  24  25
ATOM     25  C   UNL A   1      39.027  20.192  25.739  1.00  0.00     0.116 C 
BRANCH  25  26
ATOM     26  N   UNL A   1      40.034  19.145  25.825  1.00  0.00    -0.352 N 
ATOM     27  C   UNL A   1      41.368  19.262  26.126  1.00  0.00     0.251 C 
ATOM     28  H   UNL A   1      39.715  18.231  25.643  1.00  0.00     0.163 HD
ATOM     29  O   UNL A   1      42.114  18.291  26.049  1.00  0.00    -0.269 OA
BRANCH  27  30
ATOM     30  C   UNL A   1      41.908  20.582  26.506  1.00  0.00     0.039 A 
ATOM     31  C   UNL A   1      42.381  21.431  25.504  1.00  0.00     0.014 A 
ATOM     32  C   UNL A   1      41.909  20.991  27.844  1.00  0.00     0.014 A 
ATOM     33  C   UNL A   1      42.791  22.723  25.836  1.00  0.00     0.010 A 
ATOM     34  C   UNL A   1      42.253  22.300  28.161  1.00  0.00     0.010 A 
ATOM     35  C   UNL A   1      42.694  23.178  27.161  1.00  0.00    -0.014 A 
BRANCH  35  36
ATOM     36  C   UNL A   1      43.043  24.574  27.521  1.00  0.00     0.031 A 
ATOM     37  C   UNL A   1      44.482  25.005  27.558  1.00  0.00     0.074 A 
ATOM     38  C   UNL A   1      42.070  25.428  27.890  1.00  0.00     0.049 A 
ATOM     39  N   UNL A   1      44.991  26.152  27.925  1.00  0.00    -0.248 NA
ATOM     40  C   UNL A   1      45.482  24.003  27.157  1.00  0.00     0.031 C 
ATOM     41  C   UNL A   1      40.641  25.111  27.950  1.00  0.00     0.029 A 
ATOM     42  N   UNL A   1      42.137  26.736  28.298  1.00  0.00    -0.354 N 
ATOM     43  C   UNL A   1      46.367  26.005  27.820  1.00  0.00     0.074 A 
ATOM     44  C   UNL A   1      46.616  24.643  27.399  1.00  0.00     0.031 C 
ATOM     45  C   UNL A   1      39.967  26.200  28.353  1.00  0.00     0.029 A 
ATOM     46  C   UNL A   1      40.914  27.280  28.610  1.00  0.00     0.049 A 
ATOM     47  H   UNL A   1      42.982  27.238  28.363  1.00  0.00     0.167 HD
ATOM     48  C   UNL A   1      47.335  26.927  28.033  1.00  0.00     0.037 A 
ATOM     49  C   UNL A   1      40.595  28.508  29.058  1.00  0.00     0.037 A 
ATOM     50  C   UNL A   1      47.082  28.291  28.416  1.00  0.00     0.049 A 
ATOM     51  C   UNL A   1      41.686  29.520  29.267  1.00  0.00     0.074 A 
ATOM     52  C   UNL A   1      47.990  29.321  28.585  1.00  0.00     0.029 A 
ATOM     53  N   UNL A   1      45.827  28.813  28.690  1.00  0.00    -0.354 N 
ATOM     54  N   UNL A   1      42.979  29.388  29.096  1.00  0.00    -0.248 NA
ATOM     55  C   UNL A   1      41.273  30.855  29.725  1.00  0.00     0.031 C 
ATOM     56  C   UNL A   1      47.288  30.460  28.996  1.00  0.00     0.029 A 
ATOM     57  C   UNL A   1      45.939  30.148  29.044  1.00  0.00     0.049 A 
ATOM     58  H   UNL A   1      44.982  28.310  28.639  1.00  0.00     0.167 HD
ATOM     59  C   UNL A   1      43.531  30.626  29.400  1.00  0.00     0.074 A 
ATOM     60  C   UNL A   1      42.432  31.499  29.754  1.00  0.00     0.031 C 
ATOM     61  C   UNL A   1      44.832  31.004  29.387  1.00  0.00     0.037 A 
BRANCH  48  62
ATOM     62  C   UNL A   1      48.758  26.491  27.848  1.00  0.00     0.057 A 
ATOM     63  C   UNL A   1      49.399  26.567  26.605  1.00  0.00     0.134 A 
ATOM     64  C   UNL A   1      49.507  26.016  28.932  1.00  0.00     0.134 A 
ATOM     65  F   UNL A   1      48.733  27.001  25.523  1.00  0.00    -0.206 F 
ATOM     66  C   UNL A   1      50.724  26.166  26.440  1.00  0.00     0.040 A 
ATOM     67  C   UNL A   1      50.842  25.635  28.786  1.00  0.00     0.040 A 
ATOM     68  F   UNL A   1      48.955  25.920  30.152  1.00  0.00    -0.206 F 
ATOM     69  C   UNL A   1      51.452  25.703  27.535  1.00  0.00     0.006 A 
ENDBRANCH  48  62
BRANCH  49  70
ATOM     70  C   UNL A   1      39.176  28.857  29.313  1.00  0.00     0.057 A 
ATOM     71  C   UNL A   1      38.602  28.660  30.575  1.00  0.00     0.134 A 
ATOM     72  C   UNL A   1      38.363  29.394  28.309  1.00  0.00     0.134 A 
ATOM     73  F   UNL A   1      39.327  28.131  31.571  1.00  0.00    -0.206 F 
ATOM     74  C   UNL A   1      37.264  28.969  30.825  1.00  0.00     0.040 A 
ATOM     75  C   UNL A   1      37.030  29.729  28.551  1.00  0.00     0.040 A 
ATOM     76  F   UNL A   1      38.857  29.614  27.082  1.00  0.00    -0.206 F 
ATOM     77  C   UNL A   1      36.475  29.510  29.811  1.00  0.00     0.006 A 
ENDBRANCH  49  70
BRANCH  61  78
ATOM     78  C   UNL A   1      45.135  32.429  29.738  1.00  0.00     0.057 A 
ATOM     79  C   UNL A   1      45.124  33.444  28.773  1.00  0.00     0.134 A 
ATOM     80  C   UNL A   1      45.399  32.797  31.062  1.00  0.00     0.134 A 
ATOM     81  F   UNL A   1      44.890  33.155  27.484  1.00  0.00    -0.206 F 
ATOM     82  C   UNL A   1      45.383  34.773  29.111  1.00  0.00     0.040 A 
ATOM     83  C   UNL A   1      45.637  34.125  31.418  1.00  0.00     0.040 A 
ATOM     84  F   UNL A   1      45.417  31.872  32.035  1.00  0.00    -0.206 F 
ATOM     85  C   UNL A   1      45.633  35.117  30.438  1.00  0.00     0.006 A 
ENDBRANCH  61  78
ENDBRANCH  35  36
ENDBRANCH  27  30
ENDBRANCH  25  26
ENDBRANCH  24  25
ENDBRANCH   1  24
TORSDOF 15
ENDMDL
MODEL 3
REMARK VINA RESULT:     -11.3      0.922      6.321
REMARK SMILES C[NH2+][C@]1(C(=O)NCCCCNC(=O)c2ccc(-c3c4nc(c(-c5c(F)cccc5F)c5ccc([nH]5)c(-c5c(F)cccc5F)c5nc(c(-c6c(F)cccc6F)c6ccc3[nH]6)C=C5)C=C4)cc2)CCC[C@@H]1CCn1cc(C)cn1
REMARK SMILES IDX 8 1 7 2 6 3 4 4 5 5 3 7 68 8 71 9 69 10 70 11 2 12 1 13
REMARK SMILES IDX 72 16 73 17 74 18 75 19 79 20 76 21 78 22 77 23 9 24 10 25
REMARK SMILES IDX 11 26 12 27 13 29 14 30 15 31 67 32 16 33 66 34 17 35 18 36
REMARK SMILES IDX 19 37 60 38 20 39 65 40 59 41 61 42 21 43 64 44 58 45 57 46
REMARK SMILES IDX 22 48 48 49 31 50 47 51 32 52 35 53 46 54 62 55 33 56 34 57
REMARK SMILES IDX 45 59 63 60 36 61 23 62 24 63 29 64 25 65 26 66 28 67 30 68
REMARK SMILES IDX 27 69 49 70 50 71 55 72 51 73 52 74 54 75 56 76 53 77 37 78
REMARK SMILES IDX 38 79 43 80 39 81 40 82 42 83 44 84 41 85
REMARK H PARENT 6 6 2 14 2 15 11 28 61 47 35 58
REMARK Flexibility Score: inf
ROOT
ATOM      1  C   UNL A   1      31.363  30.528  26.038  1.00  0.00     0.023 C 
ENDROOT
BRANCH   1   2
ATOM      2  C   UNL A   1      32.785  29.973  25.985  1.00  0.00     0.116 C 
BRANCH   2   3
ATOM      3  N   UNL A   1      33.201  29.710  24.619  1.00  0.00    -0.351 N 
ATOM      4  C   UNL A   1      33.090  28.618  23.816  1.00  0.00     0.281 C 
ATOM      5  O   UNL A   1      33.508  28.767  22.659  1.00  0.00    -0.268 OA
ATOM      6  H   UNL A   1      33.653  30.472  24.190  1.00  0.00     0.163 HD
BRANCH   4   7
ATOM      7  C   UNL A   1      32.393  27.280  24.246  1.00  0.00     0.178 C 
ATOM      8  C   UNL A   1      32.703  26.764  25.662  1.00  0.00     0.079 C 
ATOM      9  C   UNL A   1      30.856  27.523  24.326  1.00  0.00     0.062 C 
ATOM     10  C   UNL A   1      31.509  25.897  26.047  1.00  0.00     0.008 C 
ATOM     11  C   UNL A   1      30.315  26.421  25.249  1.00  0.00     0.011 C 
BRANCH   7  12
ATOM     12  N   UNL A   1      32.658  26.219  23.219  1.00  0.00    -0.336 N 
ATOM     13  C   UNL A   1      33.864  25.428  23.463  1.00  0.00     0.331 C 
ATOM     14  H   UNL A   1      31.860  25.585  23.202  1.00  0.00     0.346 HD
ATOM     15  H   UNL A   1      32.803  26.703  22.334  1.00  0.00     0.346 HD
ENDBRANCH   7  12
BRANCH   9  16
ATOM     16  C   UNL A   1      30.117  27.610  22.977  1.00  0.00     0.034 C 
BRANCH  16  17
ATOM     17  C   UNL A   1      28.734  28.259  23.091  1.00  0.00     0.144 C 
BRANCH  17  18
ATOM     18  N   UNL A   1      28.733  29.643  22.645  1.00  0.00    -0.272 N 
ATOM     19  C   UNL A   1      28.833  30.752  23.437  1.00  0.00     0.112 A 
ATOM     20  N   UNL A   1      28.591  29.936  21.337  1.00  0.00    -0.181 NA
ATOM     21  C   UNL A   1      28.755  31.842  22.596  1.00  0.00    -0.013 A 
ATOM     22  C   UNL A   1      28.617  31.271  21.310  1.00  0.00     0.138 A 
ATOM     23  C   UNL A   1      28.803  33.278  22.949  1.00  0.00     0.048 C 
ENDBRANCH  17  18
ENDBRANCH  16  17
ENDBRANCH   9  16
ENDBRANCH   4   7
ENDBRANCH   2   3
ENDBRANCH   1   2
BRANCH   1  24
ATOM     24  C   UNL A   1      31.271  31.983  26.496  1.00  0.00     0.023 C 
BRANCH  24  25
ATOM     25  C   UNL A   1      32.600  32.626  26.876  1.00  0.00     0.116 C 
BRANCH  25  26
ATOM     26  N   UNL A   1      32.449  33.916  27.533  1.00  0.00    -0.352 N 
ATOM     27  C   UNL A   1      33.206  34.458  28.542  1.00  0.00     0.251 C 
ATOM     28  H   UNL A   1      31.705  34.475  27.210  1.00  0.00     0.163 HD
ATOM     29  O   UNL A   1      32.880  35.518  29.068  1.00  0.00    -0.269 OA
BRANCH  27  30
ATOM     30  C   UNL A   1      34.398  33.731  29.018  1.00  0.00     0.039 A 
ATOM     31  C   UNL A   1      35.660  34.283  28.790  1.00  0.00     0.014 A 
ATOM     32  C   UNL A   1      34.265  32.529  29.720  1.00  0.00     0.014 A 
ATOM     33  C   UNL A   1      36.789  33.664  29.330  1.00  0.00     0.010 A 
ATOM     34  C   UNL A   1      35.382  31.953  30.315  1.00  0.00     0.010 A 
ATOM     35  C   UNL A   1      36.653  32.516  30.127  1.00  0.00    -0.014 A 
BRANCH  35  36
ATOM     36  C   UNL A   1      37.828  31.892  30.781  1.00  0.00     0.031 A 
ATOM     37  C   UNL A   1      38.614  30.832  30.065  1.00  0.00     0.074 A 
ATOM     38  C   UNL A   1      38.138  32.226  32.049  1.00  0.00     0.049 A 
ATOM     39  N   UNL A   1      39.618  30.114  30.497  1.00  0.00    -0.248 NA
ATOM     40  C   UNL A   1      38.196  30.516  28.690  1.00  0.00     0.031 C 
ATOM     41  C   UNL A   1      37.416  33.200  32.871  1.00  0.00     0.029 A 
ATOM     42  N   UNL A   1      39.135  31.770  32.874  1.00  0.00    -0.354 N 
ATOM     43  C   UNL A   1      39.939  29.250  29.459  1.00  0.00     0.074 A 
ATOM     44  C   UNL A   1      38.993  29.500  28.393  1.00  0.00     0.031 C 
ATOM     45  C   UNL A   1      38.005  33.281  34.074  1.00  0.00     0.029 A 
ATOM     46  C   UNL A   1      39.123  32.345  34.122  1.00  0.00     0.049 A 
ATOM     47  H   UNL A   1      39.796  31.094  32.599  1.00  0.00     0.167 HD
ATOM     48  C   UNL A   1      40.944  28.345  29.392  1.00  0.00     0.037 A 
ATOM     49  C   UNL A   1      39.920  32.135  35.185  1.00  0.00     0.037 A 
ATOM     50  C   UNL A   1      41.904  28.123  30.440  1.00  0.00     0.049 A 
ATOM     51  C   UNL A   1      41.041  31.140  35.079  1.00  0.00     0.074 A 
ATOM     52  C   UNL A   1      43.002  27.282  30.440  1.00  0.00     0.029 A 
ATOM     53  N   UNL A   1      41.879  28.750  31.677  1.00  0.00    -0.354 N 
ATOM     54  N   UNL A   1      41.376  30.379  34.065  1.00  0.00    -0.248 NA
ATOM     55  C   UNL A   1      41.900  30.979  36.261  1.00  0.00     0.031 C 
ATOM     56  C   UNL A   1      43.623  27.372  31.691  1.00  0.00     0.029 A 
ATOM     57  C   UNL A   1      42.934  28.300  32.455  1.00  0.00     0.049 A 
ATOM     58  H   UNL A   1      41.212  29.416  31.961  1.00  0.00     0.167 HD
ATOM     59  C   UNL A   1      42.497  29.669  34.476  1.00  0.00     0.074 A 
ATOM     60  C   UNL A   1      42.792  30.099  35.828  1.00  0.00     0.031 C 
ATOM     61  C   UNL A   1      43.216  28.744  33.795  1.00  0.00     0.037 A 
BRANCH  48  62
ATOM     62  C   UNL A   1      41.057  27.531  28.137  1.00  0.00     0.057 A 
ATOM     63  C   UNL A   1      40.371  26.320  27.978  1.00  0.00     0.134 A 
ATOM     64  C   UNL A   1      41.837  27.978  27.063  1.00  0.00     0.134 A 
ATOM     65  F   UNL A   1      39.618  25.830  28.974  1.00  0.00    -0.206 F 
ATOM     66  C   UNL A   1      40.476  25.571  26.806  1.00  0.00     0.040 A 
ATOM     67  C   UNL A   1      41.930  27.250  25.876  1.00  0.00     0.040 A 
ATOM     68  F   UNL A   1      42.519  29.132  27.148  1.00  0.00    -0.206 F 
ATOM     69  C   UNL A   1      41.253  26.039  25.747  1.00  0.00     0.006 A 
ENDBRANCH  48  62
BRANCH  49  70
ATOM     70  C   UNL A   1      39.704  32.903  36.436  1.00  0.00     0.057 A 
ATOM     71  C   UNL A   1      40.464  34.044  36.720  1.00  0.00     0.134 A 
ATOM     72  C   UNL A   1      38.738  32.520  37.372  1.00  0.00     0.134 A 
ATOM     73  F   UNL A   1      41.416  34.449  35.869  1.00  0.00    -0.206 F 
ATOM     74  C   UNL A   1      40.283  34.768  37.900  1.00  0.00     0.040 A 
ATOM     75  C   UNL A   1      38.531  33.247  38.546  1.00  0.00     0.040 A 
ATOM     76  F   UNL A   1      37.973  31.440  37.154  1.00  0.00    -0.206 F 
ATOM     77  C   UNL A   1      39.309  34.370  38.815  1.00  0.00     0.006 A 
ENDBRANCH  49  70
BRANCH  61  78
ATOM     78  C   UNL A   1      44.408  28.156  34.490  1.00  0.00     0.057 A 
ATOM     79  C   UNL A   1      45.669  28.760  34.426  1.00  0.00     0.134 A 
ATOM     80  C   UNL A   1      44.281  26.996  35.263  1.00  0.00     0.134 A 
ATOM     81  F   UNL A   1      45.858  29.866  33.691  1.00  0.00    -0.206 F 
ATOM     82  C   UNL A   1      46.769  28.219  35.095  1.00  0.00     0.040 A 
ATOM     83  C   UNL A   1      45.367  26.459  35.956  1.00  0.00     0.040 A 
ATOM     84  F   UNL A   1      43.097  26.374  35.370  1.00  0.00    -0.206 F 
ATOM     85  C   UNL A   1      46.617  27.070  35.868  1.00  0.00     0.006 A 
ENDBRANCH  61  78
ENDBRANCH  35  36
ENDBRANCH  27  30
ENDBRANCH  25  26
ENDBRANCH  24  25
ENDBRANCH   1  24
TORSDOF 15
ENDMDL
