MODEL 1
REMARK VINA RESULT:     -11.1      0.000      0.000
REMARK SMILES CCOC(=O)c1sc(NC(=O)CCC(=O)NCCCCNC(=O)c2ccc(-c3c4nc(c(-c5c(F)cccc5F)c5ccc([nH]5)c(-c5c(F)cccc5F)c5nc(c(-c6c(F)cccc6F)c6ccc3[nH]6)C=C5)C=C4)cc2)c(C#N)c1C
REMARK SMILES IDX 14 1 15 2 16 3 13 5 12 6 10 7 9 8 11 10 8 11 6 12 7 13 81 14
REMARK SMILES IDX 78 15 82 16 4 17 5 18 3 19 2 20 1 21 79 22 80 23 17 24 18 25
REMARK SMILES IDX 19 26 20 27 21 28 22 29 23 31 24 32 25 33 77 34 26 35 76 36
REMARK SMILES IDX 27 37 28 38 29 39 70 40 30 41 75 42 69 43 71 44 31 45 74 46
REMARK SMILES IDX 68 47 67 48 32 50 58 51 41 52 57 53 42 54 45 55 56 56 72 57
REMARK SMILES IDX 43 58 44 59 55 61 73 62 46 63 33 64 34 65 39 66 35 67 36 68
REMARK SMILES IDX 38 69 40 70 37 71 59 72 60 73 65 74 61 75 62 76 64 77 66 78
REMARK SMILES IDX 63 79 47 80 48 81 53 82 49 83 50 84 52 85 54 86 51 87
REMARK H PARENT 16 4 9 9 21 30 71 49 45 60
REMARK Flexibility Score: inf
ROOT
ATOM      1  C   UNL A   1      39.311  20.035  25.740  1.00  0.00     0.220 C 
ATOM      2  O   UNL A   1      38.696  19.262  25.005  1.00  0.00    -0.275 OA
ATOM      3  N   UNL A   1      40.322  19.520  26.489  1.00  0.00    -0.356 N 
ATOM      4  H   UNL A   1      40.316  18.538  26.579  1.00  0.00     0.163 HD
ENDROOT
BRANCH   1   5
ATOM      5  C   UNL A   1      38.957  21.500  25.815  1.00  0.00     0.110 C 
BRANCH   5   6
ATOM      6  C   UNL A   1      37.745  21.984  25.020  1.00  0.00     0.110 C 
BRANCH   6   7
ATOM      7  C   UNL A   1      36.757  22.930  25.678  1.00  0.00     0.225 C 
ATOM      8  N   UNL A   1      35.395  22.873  25.559  1.00  0.00    -0.317 N 
ATOM      9  H   UNL A   1      34.911  23.520  26.121  1.00  0.00     0.170 HD
ATOM     10  O   UNL A   1      37.208  23.810  26.426  1.00  0.00    -0.275 OA
BRANCH   8  11
ATOM     11  C   UNL A   1      34.579  22.066  24.789  1.00  0.00     0.114 A 
ATOM     12  C   UNL A   1      33.141  20.216  24.077  1.00  0.00     0.118 A 
ATOM     13  S   UNL A   1      34.465  20.408  25.123  1.00  0.00    -0.109 S 
ATOM     14  C   UNL A   1      32.883  21.360  23.340  1.00  0.00    -0.006 A 
ATOM     15  C   UNL A   1      33.857  22.378  23.646  1.00  0.00     0.091 A 
ATOM     16  C   UNL A   1      31.737  21.545  22.391  1.00  0.00     0.048 C 
BRANCH  12  17
ATOM     17  C   UNL A   1      32.503  18.929  24.036  1.00  0.00     0.348 C 
ATOM     18  O   UNL A   1      32.117  18.332  23.040  1.00  0.00    -0.245 OA
BRANCH  17  19
ATOM     19  O   UNL A   1      32.322  18.517  25.321  1.00  0.00    -0.462 OA
BRANCH  19  20
ATOM     20  C   UNL A   1      32.388  17.107  25.538  1.00  0.00     0.230 C 
ATOM     21  C   UNL A   1      33.808  16.597  25.381  1.00  0.00     0.049 C 
ENDBRANCH  19  20
ENDBRANCH  17  19
ENDBRANCH  12  17
BRANCH  15  22
ATOM     22  C   UNL A   1      33.914  23.613  22.930  1.00  0.00     0.103 C 
ATOM     23  N   UNL A   1      34.016  24.631  22.367  1.00  0.00    -0.192 NA
ENDBRANCH  15  22
ENDBRANCH   8  11
ENDBRANCH   6   7
ENDBRANCH   5   6
ENDBRANCH   1   5
BRANCH   3  24
ATOM     24  C   UNL A   1      41.411  20.191  27.177  1.00  0.00     0.116 C 
BRANCH  24  25
ATOM     25  C   UNL A   1      42.565  19.286  27.625  1.00  0.00     0.023 C 
BRANCH  25  26
ATOM     26  C   UNL A   1      43.084  18.283  26.596  1.00  0.00     0.023 C 
BRANCH  26  27
ATOM     27  C   UNL A   1      43.236  18.851  25.208  1.00  0.00     0.116 C 
BRANCH  27  28
ATOM     28  N   UNL A   1      44.598  18.702  24.684  1.00  0.00    -0.352 N 
ATOM     29  C   UNL A   1      45.434  19.690  24.182  1.00  0.00     0.251 C 
ATOM     30  H   UNL A   1      44.966  17.790  24.690  1.00  0.00     0.163 HD
ATOM     31  O   UNL A   1      46.381  19.426  23.453  1.00  0.00    -0.269 OA
BRANCH  29  32
ATOM     32  C   UNL A   1      45.182  21.076  24.600  1.00  0.00     0.039 A 
ATOM     33  C   UNL A   1      44.255  21.941  24.011  1.00  0.00     0.014 A 
ATOM     34  C   UNL A   1      45.898  21.484  25.702  1.00  0.00     0.014 A 
ATOM     35  C   UNL A   1      44.081  23.205  24.586  1.00  0.00     0.010 A 
ATOM     36  C   UNL A   1      45.268  22.391  26.474  1.00  0.00     0.010 A 
ATOM     37  C   UNL A   1      44.660  23.434  25.833  1.00  0.00    -0.014 A 
BRANCH  37  38
ATOM     38  C   UNL A   1      44.521  24.615  26.661  1.00  0.00     0.031 A 
ATOM     39  C   UNL A   1      45.629  25.569  26.448  1.00  0.00     0.074 A 
ATOM     40  C   UNL A   1      43.350  24.896  27.287  1.00  0.00     0.049 A 
ATOM     41  N   UNL A   1      46.684  25.702  27.180  1.00  0.00    -0.248 NA
ATOM     42  C   UNL A   1      45.735  26.241  25.139  1.00  0.00     0.031 C 
ATOM     43  C   UNL A   1      42.076  24.158  27.253  1.00  0.00     0.029 A 
ATOM     44  N   UNL A   1      43.030  25.978  28.055  1.00  0.00    -0.354 N 
ATOM     45  C   UNL A   1      47.416  26.716  26.571  1.00  0.00     0.074 A 
ATOM     46  C   UNL A   1      46.968  26.745  25.210  1.00  0.00     0.031 C 
ATOM     47  C   UNL A   1      41.081  24.916  27.773  1.00  0.00     0.029 A 
ATOM     48  C   UNL A   1      41.660  26.123  28.325  1.00  0.00     0.049 A 
ATOM     49  H   UNL A   1      43.706  26.606  28.395  1.00  0.00     0.167 HD
ATOM     50  C   UNL A   1      48.011  27.676  27.335  1.00  0.00     0.037 A 
ATOM     51  C   UNL A   1      41.088  27.193  28.943  1.00  0.00     0.037 A 
ATOM     52  C   UNL A   1      48.023  27.257  28.723  1.00  0.00     0.049 A 
ATOM     53  C   UNL A   1      42.187  27.902  29.659  1.00  0.00     0.074 A 
ATOM     54  C   UNL A   1      48.536  26.179  29.415  1.00  0.00     0.029 A 
ATOM     55  N   UNL A   1      47.047  27.795  29.530  1.00  0.00    -0.354 N 
ATOM     56  N   UNL A   1      42.842  27.376  30.660  1.00  0.00    -0.248 NA
ATOM     57  C   UNL A   1      42.900  28.922  28.906  1.00  0.00     0.031 C 
ATOM     58  C   UNL A   1      47.534  25.845  30.376  1.00  0.00     0.029 A 
ATOM     59  C   UNL A   1      46.517  26.799  30.305  1.00  0.00     0.049 A 
ATOM     60  H   UNL A   1      46.775  28.741  29.548  1.00  0.00     0.167 HD
ATOM     61  C   UNL A   1      44.175  27.659  30.393  1.00  0.00     0.074 A 
ATOM     62  C   UNL A   1      44.144  28.651  29.315  1.00  0.00     0.031 C 
ATOM     63  C   UNL A   1      45.171  26.832  30.832  1.00  0.00     0.037 A 
BRANCH  50  64
ATOM     64  C   UNL A   1      48.115  29.146  26.960  1.00  0.00     0.057 A 
ATOM     65  C   UNL A   1      49.374  29.766  27.094  1.00  0.00     0.134 A 
ATOM     66  C   UNL A   1      47.039  30.040  26.782  1.00  0.00     0.134 A 
ATOM     67  F   UNL A   1      50.492  29.036  27.225  1.00  0.00    -0.206 F 
ATOM     68  C   UNL A   1      49.525  31.153  27.200  1.00  0.00     0.040 A 
ATOM     69  C   UNL A   1      47.186  31.429  26.846  1.00  0.00     0.040 A 
ATOM     70  F   UNL A   1      45.774  29.648  26.613  1.00  0.00    -0.206 F 
ATOM     71  C   UNL A   1      48.424  31.990  27.101  1.00  0.00     0.006 A 
ENDBRANCH  50  64
BRANCH  51  72
ATOM     72  C   UNL A   1      39.781  27.846  28.680  1.00  0.00     0.057 A 
ATOM     73  C   UNL A   1      38.795  27.951  29.677  1.00  0.00     0.134 A 
ATOM     74  C   UNL A   1      39.586  28.650  27.544  1.00  0.00     0.134 A 
ATOM     75  F   UNL A   1      38.910  27.263  30.821  1.00  0.00    -0.206 F 
ATOM     76  C   UNL A   1      37.697  28.819  29.559  1.00  0.00     0.040 A 
ATOM     77  C   UNL A   1      38.497  29.521  27.414  1.00  0.00     0.040 A 
ATOM     78  F   UNL A   1      40.499  28.687  26.563  1.00  0.00    -0.206 F 
ATOM     79  C   UNL A   1      37.553  29.618  28.430  1.00  0.00     0.006 A 
ENDBRANCH  51  72
BRANCH  63  80
ATOM     80  C   UNL A   1      44.813  25.744  31.810  1.00  0.00     0.057 A 
ATOM     81  C   UNL A   1      44.515  24.417  31.459  1.00  0.00     0.134 A 
ATOM     82  C   UNL A   1      44.956  26.015  33.174  1.00  0.00     0.134 A 
ATOM     83  F   UNL A   1      44.443  24.038  30.177  1.00  0.00    -0.206 F 
ATOM     84  C   UNL A   1      44.346  23.416  32.422  1.00  0.00     0.040 A 
ATOM     85  C   UNL A   1      44.820  25.021  34.143  1.00  0.00     0.040 A 
ATOM     86  F   UNL A   1      45.293  27.248  33.581  1.00  0.00    -0.206 F 
ATOM     87  C   UNL A   1      44.508  23.717  33.772  1.00  0.00     0.006 A 
ENDBRANCH  63  80
ENDBRANCH  37  38
ENDBRANCH  29  32
ENDBRANCH  27  28
ENDBRANCH  26  27
ENDBRANCH  25  26
ENDBRANCH  24  25
ENDBRANCH   3  24
TORSDOF 18
ENDMDL
MODEL 2
REMARK VINA RESULT:     -10.9      2.444      3.524
REMARK SMILES CCOC(=O)c1sc(NC(=O)CCC(=O)NCCCCNC(=O)c2ccc(-c3c4nc(c(-c5c(F)cccc5F)c5ccc([nH]5)c(-c5c(F)cccc5F)c5nc(c(-c6c(F)cccc6F)c6ccc3[nH]6)C=C5)C=C4)cc2)c(C#N)c1C
REMARK SMILES IDX 14 1 15 2 16 3 13 5 12 6 10 7 9 8 11 10 8 11 6 12 7 13 81 14
REMARK SMILES IDX 78 15 82 16 4 17 5 18 3 19 2 20 1 21 79 22 80 23 17 24 18 25
REMARK SMILES IDX 19 26 20 27 21 28 22 29 23 31 24 32 25 33 77 34 26 35 76 36
REMARK SMILES IDX 27 37 28 38 29 39 70 40 30 41 75 42 69 43 71 44 31 45 74 46
REMARK SMILES IDX 68 47 67 48 32 50 58 51 41 52 57 53 42 54 45 55 56 56 72 57
REMARK SMILES IDX 43 58 44 59 55 61 73 62 46 63 33 64 34 65 39 66 35 67 36 68
REMARK SMILES IDX 38 69 40 70 37 71 59 72 60 73 65 74 61 75 62 76 64 77 66 78
REMARK SMILES IDX 63 79 47 80 48 81 53 82 49 83 50 84 52 85 54 86 51 87
REMARK H PARENT 16 4 9 9 21 30 71 49 45 60
REMARK Flexibility Score: inf
ROOT
ATOM      1  C   UNL A   1      38.091  21.574  25.463  1.00  0.00     0.220 C 
ATOM      2  O   UNL A   1      37.320  20.693  25.081  1.00  0.00    -0.275 OA
ATOM      3  N   UNL A   1      39.246  21.182  26.063  1.00  0.00    -0.356 N 
ATOM      4  H   UNL A   1      39.258  20.246  26.374  1.00  0.00     0.163 HD
ENDROOT
BRANCH   1   5
ATOM      5  C   UNL A   1      37.769  23.037  25.279  1.00  0.00     0.110 C 
BRANCH   5   6
ATOM      6  C   UNL A   1      36.308  23.424  25.057  1.00  0.00     0.110 C 
BRANCH   6   7
ATOM      7  C   UNL A   1      35.760  23.472  23.642  1.00  0.00     0.225 C 
ATOM      8  N   UNL A   1      34.648  24.158  23.238  1.00  0.00    -0.317 N 
ATOM      9  H   UNL A   1      34.490  24.138  22.266  1.00  0.00     0.170 HD
ATOM     10  O   UNL A   1      36.392  22.875  22.757  1.00  0.00    -0.275 OA
BRANCH   8  11
ATOM     11  C   UNL A   1      33.709  24.875  23.953  1.00  0.00     0.114 A 
ATOM     12  C   UNL A   1      32.215  26.674  24.680  1.00  0.00     0.118 A 
ATOM     13  S   UNL A   1      33.735  26.569  23.931  1.00  0.00    -0.109 S 
ATOM     14  C   UNL A   1      31.753  25.440  25.108  1.00  0.00    -0.006 A 
ATOM     15  C   UNL A   1      32.733  24.420  24.828  1.00  0.00     0.091 A 
ATOM     16  C   UNL A   1      30.414  25.179  25.729  1.00  0.00     0.048 C 
BRANCH  12  17
ATOM     17  C   UNL A   1      31.632  27.979  24.831  1.00  0.00     0.348 C 
ATOM     18  O   UNL A   1      30.587  28.378  24.334  1.00  0.00    -0.245 OA
BRANCH  17  19
ATOM     19  O   UNL A   1      32.496  28.735  25.563  1.00  0.00    -0.462 OA
BRANCH  19  20
ATOM     20  C   UNL A   1      31.958  29.321  26.750  1.00  0.00     0.230 C 
ATOM     21  C   UNL A   1      31.538  28.253  27.743  1.00  0.00     0.049 C 
ENDBRANCH  19  20
ENDBRANCH  17  19
ENDBRANCH  12  17
BRANCH  15  22
ATOM     22  C   UNL A   1      32.579  23.075  25.286  1.00  0.00     0.103 C 
ATOM     23  N   UNL A   1      32.400  21.990  25.681  1.00  0.00    -0.192 NA
ENDBRANCH  15  22
ENDBRANCH   8  11
ENDBRANCH   6   7
ENDBRANCH   5   6
ENDBRANCH   1   5
BRANCH   3  24
ATOM     24  C   UNL A   1      40.467  21.926  26.317  1.00  0.00     0.116 C 
BRANCH  24  25
ATOM     25  C   UNL A   1      41.304  21.433  27.505  1.00  0.00     0.023 C 
BRANCH  25  26
ATOM     26  C   UNL A   1      42.180  20.207  27.259  1.00  0.00     0.023 C 
BRANCH  26  27
ATOM     27  C   UNL A   1      42.491  19.956  25.806  1.00  0.00     0.116 C 
BRANCH  27  28
ATOM     28  N   UNL A   1      43.926  19.776  25.559  1.00  0.00    -0.352 N 
ATOM     29  C   UNL A   1      44.855  20.734  25.178  1.00  0.00     0.251 C 
ATOM     30  H   UNL A   1      44.273  18.864  25.679  1.00  0.00     0.163 HD
ATOM     31  O   UNL A   1      45.919  20.431  24.656  1.00  0.00    -0.269 OA
BRANCH  29  32
ATOM     32  C   UNL A   1      44.546  22.140  25.473  1.00  0.00     0.039 A 
ATOM     33  C   UNL A   1      43.665  22.944  24.742  1.00  0.00     0.014 A 
ATOM     34  C   UNL A   1      45.152  22.638  26.603  1.00  0.00     0.014 A 
ATOM     35  C   UNL A   1      43.422  24.240  25.208  1.00  0.00     0.010 A 
ATOM     36  C   UNL A   1      44.442  23.583  27.249  1.00  0.00     0.010 A 
ATOM     37  C   UNL A   1      43.880  24.567  26.484  1.00  0.00    -0.014 A 
BRANCH  37  38
ATOM     38  C   UNL A   1      43.649  25.799  27.210  1.00  0.00     0.031 A 
ATOM     39  C   UNL A   1      44.613  26.852  26.827  1.00  0.00     0.074 A 
ATOM     40  C   UNL A   1      42.497  26.000  27.898  1.00  0.00     0.049 A 
ATOM     41  N   UNL A   1      45.689  27.181  27.459  1.00  0.00    -0.248 NA
ATOM     42  C   UNL A   1      44.546  27.399  25.458  1.00  0.00     0.031 C 
ATOM     43  C   UNL A   1      41.326  25.116  28.030  1.00  0.00     0.029 A 
ATOM     44  N   UNL A   1      42.095  27.107  28.588  1.00  0.00    -0.354 N 
ATOM     45  C   UNL A   1      46.245  28.209  26.707  1.00  0.00     0.074 A 
ATOM     46  C   UNL A   1      45.708  28.051  25.387  1.00  0.00     0.031 C 
ATOM     47  C   UNL A   1      40.281  25.799  28.555  1.00  0.00     0.029 A 
ATOM     48  C   UNL A   1      40.739  27.114  28.950  1.00  0.00     0.049 A 
ATOM     49  H   UNL A   1      42.708  27.841  28.816  1.00  0.00     0.167 HD
ATOM     50  C   UNL A   1      46.764  29.304  27.332  1.00  0.00     0.037 A 
ATOM     51  C   UNL A   1      40.079  28.164  29.512  1.00  0.00     0.037 A 
ATOM     52  C   UNL A   1      46.921  29.029  28.746  1.00  0.00     0.049 A 
ATOM     53  C   UNL A   1      41.125  29.066  30.074  1.00  0.00     0.074 A 
ATOM     54  C   UNL A   1      47.611  28.093  29.491  1.00  0.00     0.029 A 
ATOM     55  N   UNL A   1      45.941  29.524  29.576  1.00  0.00    -0.354 N 
ATOM     56  N   UNL A   1      41.906  28.723  31.063  1.00  0.00    -0.248 NA
ATOM     57  C   UNL A   1      41.654  30.084  29.178  1.00  0.00     0.031 C 
ATOM     58  C   UNL A   1      46.725  27.740  30.553  1.00  0.00     0.029 A 
ATOM     59  C   UNL A   1      45.593  28.554  30.476  1.00  0.00     0.049 A 
ATOM     60  H   UNL A   1      45.554  30.428  29.530  1.00  0.00     0.167 HD
ATOM     61  C   UNL A   1      43.173  29.134  30.669  1.00  0.00     0.074 A 
ATOM     62  C   UNL A   1      42.946  30.004  29.511  1.00  0.00     0.031 C 
ATOM     63  C   UNL A   1      44.292  28.479  31.102  1.00  0.00     0.037 A 
BRANCH  50  64
ATOM     64  C   UNL A   1      46.658  30.731  26.819  1.00  0.00     0.057 A 
ATOM     65  C   UNL A   1      47.828  31.517  26.829  1.00  0.00     0.134 A 
ATOM     66  C   UNL A   1      45.468  31.459  26.618  1.00  0.00     0.134 A 
ATOM     67  F   UNL A   1      49.038  30.953  26.967  1.00  0.00    -0.206 F 
ATOM     68  C   UNL A   1      47.800  32.916  26.799  1.00  0.00     0.040 A 
ATOM     69  C   UNL A   1      45.432  32.856  26.547  1.00  0.00     0.040 A 
ATOM     70  F   UNL A   1      44.259  30.894  26.552  1.00  0.00    -0.206 F 
ATOM     71  C   UNL A   1      46.594  33.591  26.683  1.00  0.00     0.006 A 
ENDBRANCH  50  64
BRANCH  51  72
ATOM     72  C   UNL A   1      38.685  28.629  29.294  1.00  0.00     0.057 A 
ATOM     73  C   UNL A   1      37.767  28.727  30.353  1.00  0.00     0.134 A 
ATOM     74  C   UNL A   1      38.313  29.276  28.103  1.00  0.00     0.134 A 
ATOM     75  F   UNL A   1      38.046  28.185  31.547  1.00  0.00    -0.206 F 
ATOM     76  C   UNL A   1      36.564  29.443  30.241  1.00  0.00     0.040 A 
ATOM     77  C   UNL A   1      37.118  29.995  27.978  1.00  0.00     0.040 A 
ATOM     78  F   UNL A   1      39.144  29.311  27.052  1.00  0.00    -0.206 F 
ATOM     79  C   UNL A   1      36.243  30.092  29.053  1.00  0.00     0.006 A 
ENDBRANCH  51  72
BRANCH  63  80
ATOM     80  C   UNL A   1      44.138  27.458  32.198  1.00  0.00     0.057 A 
ATOM     81  C   UNL A   1      44.063  26.070  31.996  1.00  0.00     0.134 A 
ATOM     82  C   UNL A   1      44.257  27.894  33.521  1.00  0.00     0.134 A 
ATOM     83  F   UNL A   1      44.035  25.549  30.764  1.00  0.00    -0.206 F 
ATOM     84  C   UNL A   1      44.082  25.165  33.063  1.00  0.00     0.040 A 
ATOM     85  C   UNL A   1      44.306  27.002  34.592  1.00  0.00     0.040 A 
ATOM     86  F   UNL A   1      44.387  29.203  33.787  1.00  0.00    -0.206 F 
ATOM     87  C   UNL A   1      44.213  25.631  34.368  1.00  0.00     0.006 A 
ENDBRANCH  63  80
ENDBRANCH  37  38
ENDBRANCH  29  32
ENDBRANCH  27  28
ENDBRANCH  26  27
ENDBRANCH  25  26
ENDBRANCH  24  25
ENDBRANCH   3  24
TORSDOF 18
ENDMDL
MODEL 3
REMARK VINA RESULT:     -10.7      5.031      9.780
REMARK SMILES CCOC(=O)c1sc(NC(=O)CCC(=O)NCCCCNC(=O)c2ccc(-c3c4nc(c(-c5c(F)cccc5F)c5ccc([nH]5)c(-c5c(F)cccc5F)c5nc(c(-c6c(F)cccc6F)c6ccc3[nH]6)C=C5)C=C4)cc2)c(C#N)c1C
REMARK SMILES IDX 14 1 15 2 16 3 13 5 12 6 10 7 9 8 11 10 8 11 6 12 7 13 81 14
REMARK SMILES IDX 78 15 82 16 4 17 5 18 3 19 2 20 1 21 79 22 80 23 17 24 18 25
REMARK SMILES IDX 19 26 20 27 21 28 22 29 23 31 24 32 25 33 77 34 26 35 76 36
REMARK SMILES IDX 27 37 28 38 29 39 70 40 30 41 75 42 69 43 71 44 31 45 74 46
REMARK SMILES IDX 68 47 67 48 32 50 58 51 41 52 57 53 42 54 45 55 56 56 72 57
REMARK SMILES IDX 43 58 44 59 55 61 73 62 46 63 33 64 34 65 39 66 35 67 36 68
REMARK SMILES IDX 38 69 40 70 37 71 59 72 60 73 65 74 61 75 62 76 64 77 66 78
REMARK SMILES IDX 63 79 47 80 48 81 53 82 49 83 50 84 52 85 54 86 51 87
REMARK H PARENT 16 4 9 9 21 30 71 49 45 60
REMARK Flexibility Score: inf
ROOT
ATOM      1  C   UNL A   1      33.566  28.464  23.478  1.00  0.00     0.220 C 
ATOM      2  O   UNL A   1      34.364  28.743  22.582  1.00  0.00    -0.275 OA
ATOM      3  N   UNL A   1      32.848  29.482  24.021  1.00  0.00    -0.356 N 
ATOM      4  H   UNL A   1      33.201  30.384  23.839  1.00  0.00     0.163 HD
ENDROOT
BRANCH   1   5
ATOM      5  C   UNL A   1      33.392  27.045  23.962  1.00  0.00     0.110 C 
BRANCH   5   6
ATOM      6  C   UNL A   1      33.462  25.923  22.927  1.00  0.00     0.110 C 
BRANCH   6   7
ATOM      7  C   UNL A   1      32.177  25.265  22.459  1.00  0.00     0.225 C 
ATOM      8  N   UNL A   1      31.671  24.080  22.921  1.00  0.00    -0.317 N 
ATOM      9  H   UNL A   1      30.786  23.849  22.558  1.00  0.00     0.170 HD
ATOM     10  O   UNL A   1      31.494  25.864  21.615  1.00  0.00    -0.275 OA
BRANCH   8  11
ATOM     11  C   UNL A   1      32.185  23.153  23.807  1.00  0.00     0.114 A 
ATOM     12  C   UNL A   1      33.536  21.347  24.760  1.00  0.00     0.118 A 
ATOM     13  S   UNL A   1      32.923  21.742  23.227  1.00  0.00    -0.109 S 
ATOM     14  C   UNL A   1      33.049  22.181  25.752  1.00  0.00    -0.006 A 
ATOM     15  C   UNL A   1      32.114  23.125  25.192  1.00  0.00     0.091 A 
ATOM     16  C   UNL A   1      33.458  22.152  27.194  1.00  0.00     0.048 C 
BRANCH  12  17
ATOM     17  C   UNL A   1      34.408  20.208  24.859  1.00  0.00     0.348 C 
ATOM     18  O   UNL A   1      35.613  20.222  25.070  1.00  0.00    -0.245 OA
BRANCH  17  19
ATOM     19  O   UNL A   1      33.668  19.098  24.590  1.00  0.00    -0.462 OA
BRANCH  19  20
ATOM     20  C   UNL A   1      34.407  17.898  24.357  1.00  0.00     0.230 C 
ATOM     21  C   UNL A   1      33.850  17.135  23.169  1.00  0.00     0.049 C 
ENDBRANCH  19  20
ENDBRANCH  17  19
ENDBRANCH  12  17
BRANCH  15  22
ATOM     22  C   UNL A   1      31.353  24.017  26.010  1.00  0.00     0.103 C 
ATOM     23  N   UNL A   1      30.726  24.701  26.718  1.00  0.00    -0.192 NA
ENDBRANCH  15  22
ENDBRANCH   8  11
ENDBRANCH   6   7
ENDBRANCH   5   6
ENDBRANCH   1   5
BRANCH   3  24
ATOM     24  C   UNL A   1      31.640  29.447  24.826  1.00  0.00     0.116 C 
BRANCH  24  25
ATOM     25  C   UNL A   1      31.804  29.907  26.280  1.00  0.00     0.023 C 
BRANCH  25  26
ATOM     26  C   UNL A   1      31.582  31.393  26.555  1.00  0.00     0.023 C 
BRANCH  26  27
ATOM     27  C   UNL A   1      32.697  32.046  27.333  1.00  0.00     0.116 C 
BRANCH  27  28
ATOM     28  N   UNL A   1      32.498  33.490  27.497  1.00  0.00    -0.352 N 
ATOM     29  C   UNL A   1      33.095  34.336  28.421  1.00  0.00     0.251 C 
ATOM     30  H   UNL A   1      31.863  33.912  26.876  1.00  0.00     0.163 HD
ATOM     31  O   UNL A   1      32.609  35.420  28.713  1.00  0.00    -0.269 OA
BRANCH  29  32
ATOM     32  C   UNL A   1      34.375  33.914  29.006  1.00  0.00     0.039 A 
ATOM     33  C   UNL A   1      34.559  33.489  30.327  1.00  0.00     0.014 A 
ATOM     34  C   UNL A   1      35.432  33.895  28.125  1.00  0.00     0.014 A 
ATOM     35  C   UNL A   1      35.831  33.042  30.699  1.00  0.00     0.010 A 
ATOM     36  C   UNL A   1      36.361  32.955  28.386  1.00  0.00     0.010 A 
ATOM     37  C   UNL A   1      36.765  32.826  29.687  1.00  0.00    -0.014 A 
BRANCH  37  38
ATOM     38  C   UNL A   1      38.093  32.265  29.823  1.00  0.00     0.031 A 
ATOM     39  C   UNL A   1      38.151  30.867  29.346  1.00  0.00     0.074 A 
ATOM     40  C   UNL A   1      39.167  33.059  30.063  1.00  0.00     0.049 A 
ATOM     41  N   UNL A   1      38.091  29.801  30.071  1.00  0.00    -0.248 NA
ATOM     42  C   UNL A   1      37.962  30.610  27.905  1.00  0.00     0.031 C 
ATOM     43  C   UNL A   1      39.228  34.525  30.200  1.00  0.00     0.029 A 
ATOM     44  N   UNL A   1      40.482  32.710  30.169  1.00  0.00    -0.354 N 
ATOM     45  C   UNL A   1      38.184  28.748  29.167  1.00  0.00     0.074 A 
ATOM     46  C   UNL A   1      37.767  29.289  27.907  1.00  0.00     0.031 C 
ATOM     47  C   UNL A   1      40.513  34.947  30.146  1.00  0.00     0.029 A 
ATOM     48  C   UNL A   1      41.380  33.788  30.136  1.00  0.00     0.049 A 
ATOM     49  H   UNL A   1      40.777  31.777  30.263  1.00  0.00     0.167 HD
ATOM     50  C   UNL A   1      38.966  27.670  29.459  1.00  0.00     0.037 A 
ATOM     51  C   UNL A   1      42.737  33.681  30.081  1.00  0.00     0.037 A 
ATOM     52  C   UNL A   1      39.322  27.693  30.864  1.00  0.00     0.049 A 
ATOM     53  C   UNL A   1      43.068  32.297  30.524  1.00  0.00     0.074 A 
ATOM     54  C   UNL A   1      38.618  27.692  32.052  1.00  0.00     0.029 A 
ATOM     55  N   UNL A   1      40.575  28.171  31.168  1.00  0.00    -0.354 N 
ATOM     56  N   UNL A   1      42.849  31.865  31.737  1.00  0.00    -0.248 NA
ATOM     57  C   UNL A   1      43.105  31.275  29.489  1.00  0.00     0.031 C 
ATOM     58  C   UNL A   1      39.322  28.600  32.899  1.00  0.00     0.029 A 
ATOM     59  C   UNL A   1      40.477  29.020  32.237  1.00  0.00     0.049 A 
ATOM     60  H   UNL A   1      41.407  27.940  30.694  1.00  0.00     0.167 HD
ATOM     61  C   UNL A   1      42.281  30.609  31.565  1.00  0.00     0.074 A 
ATOM     62  C   UNL A   1      42.502  30.283  30.153  1.00  0.00     0.031 C 
ATOM     63  C   UNL A   1      41.406  30.099  32.483  1.00  0.00     0.037 A 
BRANCH  50  64
ATOM     64  C   UNL A   1      39.809  26.907  28.450  1.00  0.00     0.057 A 
ATOM     65  C   UNL A   1      40.658  27.655  27.610  1.00  0.00     0.134 A 
ATOM     66  C   UNL A   1      39.619  25.569  28.046  1.00  0.00     0.134 A 
ATOM     67  F   UNL A   1      40.963  28.930  27.897  1.00  0.00    -0.206 F 
ATOM     68  C   UNL A   1      41.147  27.161  26.396  1.00  0.00     0.040 A 
ATOM     69  C   UNL A   1      40.136  25.054  26.853  1.00  0.00     0.040 A 
ATOM     70  F   UNL A   1      38.870  24.693  28.721  1.00  0.00    -0.206 F 
ATOM     71  C   UNL A   1      40.865  25.863  26.001  1.00  0.00     0.006 A 
ENDBRANCH  50  64
BRANCH  51  72
ATOM     72  C   UNL A   1      43.721  34.522  29.352  1.00  0.00     0.057 A 
ATOM     73  C   UNL A   1      43.858  34.452  27.955  1.00  0.00     0.134 A 
ATOM     74  C   UNL A   1      44.329  35.628  29.970  1.00  0.00     0.134 A 
ATOM     75  F   UNL A   1      43.276  33.462  27.263  1.00  0.00    -0.206 F 
ATOM     76  C   UNL A   1      44.540  35.434  27.217  1.00  0.00     0.040 A 
ATOM     77  C   UNL A   1      45.010  36.615  29.246  1.00  0.00     0.040 A 
ATOM     78  F   UNL A   1      44.201  35.837  31.287  1.00  0.00    -0.206 F 
ATOM     79  C   UNL A   1      45.107  36.528  27.862  1.00  0.00     0.006 A 
ENDBRANCH  51  72
BRANCH  63  80
ATOM     80  C   UNL A   1      41.255  30.821  33.797  1.00  0.00     0.057 A 
ATOM     81  C   UNL A   1      40.275  31.788  34.072  1.00  0.00     0.134 A 
ATOM     82  C   UNL A   1      42.021  30.378  34.880  1.00  0.00     0.134 A 
ATOM     83  F   UNL A   1      39.433  32.212  33.122  1.00  0.00    -0.206 F 
ATOM     84  C   UNL A   1      40.085  32.305  35.359  1.00  0.00     0.040 A 
ATOM     85  C   UNL A   1      41.823  30.863  36.173  1.00  0.00     0.040 A 
ATOM     86  F   UNL A   1      42.940  29.416  34.702  1.00  0.00    -0.206 F 
ATOM     87  C   UNL A   1      40.857  31.834  36.417  1.00  0.00     0.006 A 
ENDBRANCH  63  80
ENDBRANCH  37  38
ENDBRANCH  29  32
ENDBRANCH  27  28
ENDBRANCH  26  27
ENDBRANCH  25  26
ENDBRANCH  24  25
ENDBRANCH   3  24
TORSDOF 18
ENDMDL
