MODEL 1
REMARK VINA RESULT:     -11.9      0.000      0.000
REMARK SMILES CCOc1ccc(NC(=O)N2CC[C@@H](C(=O)NCCCCNC(=O)c3ccc(-c4c5nc(c(-c6c(F)cccc6F)c6ccc([nH]6)c(-c6c(F)cccc6F)c6nc(c(-c7c(F)cccc7F)c7ccc4[nH]7)C=C6)C=C5)cc3)[C@@H]2C)cc1
REMARK SMILES IDX 18 1 17 2 15 3 16 4 14 6 11 7 12 8 79 9 13 10 80 11 9 12
REMARK SMILES IDX 8 13 10 15 7 16 4 17 5 18 82 19 6 20 81 21 3 22 2 23 1 24
REMARK SMILES IDX 19 25 20 26 21 27 22 28 23 29 24 31 25 32 26 33 78 34 27 35
REMARK SMILES IDX 77 36 28 37 29 38 30 39 71 40 31 41 76 42 70 43 72 44 32 45
REMARK SMILES IDX 75 46 69 47 68 48 33 50 59 51 42 52 58 53 43 54 46 55 57 56
REMARK SMILES IDX 73 57 44 58 45 59 56 61 74 62 47 63 34 64 35 65 40 66 36 67
REMARK SMILES IDX 37 68 39 69 41 70 38 71 60 72 61 73 66 74 62 75 63 76 65 77
REMARK SMILES IDX 67 78 64 79 48 80 49 81 54 82 50 83 51 84 53 85 55 86 52 87
REMARK H PARENT 17 5 8 14 22 30 72 49 46 60
REMARK Flexibility Score: inf
ROOT
ATOM      1  C   UNL A   1      33.023  30.030  25.913  1.00  0.00     0.116 C 
ENDROOT
BRANCH   1   2
ATOM      2  N   UNL A   1      33.258  29.591  24.545  1.00  0.00    -0.356 N 
ATOM      3  C   UNL A   1      33.362  28.373  23.950  1.00  0.00     0.225 C 
ATOM      4  O   UNL A   1      33.464  28.392  22.716  1.00  0.00    -0.275 OA
ATOM      5  H   UNL A   1      33.366  30.339  23.913  1.00  0.00     0.163 HD
BRANCH   3   6
ATOM      6  C   UNL A   1      33.440  27.020  24.665  1.00  0.00     0.102 C 
ATOM      7  N   UNL A   1      31.688  25.576  24.104  1.00  0.00    -0.321 N 
ATOM      8  C   UNL A   1      32.891  24.865  23.692  1.00  0.00     0.122 C 
ATOM      9  C   UNL A   1      32.069  26.521  25.148  1.00  0.00     0.096 C 
ATOM     10  C   UNL A   1      34.038  25.862  23.863  1.00  0.00     0.037 C 
ATOM     11  C   UNL A   1      32.117  25.852  26.525  1.00  0.00     0.032 C 
BRANCH   7  12
ATOM     12  C   UNL A   1      30.486  25.065  23.743  1.00  0.00     0.322 C 
ATOM     13  N   UNL A   1      29.326  25.751  23.635  1.00  0.00    -0.308 N 
ATOM     14  H   UNL A   1      28.564  25.132  23.568  1.00  0.00     0.171 HD
ATOM     15  O   UNL A   1      30.421  23.888  23.355  1.00  0.00    -0.248 OA
BRANCH  13  16
ATOM     16  C   UNL A   1      28.880  27.089  23.590  1.00  0.00     0.043 A 
ATOM     17  C   UNL A   1      27.739  29.601  23.022  1.00  0.00     0.119 A 
ATOM     18  C   UNL A   1      29.105  29.454  22.998  1.00  0.00     0.048 A 
ATOM     19  C   UNL A   1      26.926  28.543  23.415  1.00  0.00     0.048 A 
ATOM     20  C   UNL A   1      29.639  28.190  23.221  1.00  0.00     0.030 A 
ATOM     21  C   UNL A   1      27.501  27.304  23.749  1.00  0.00     0.030 A 
BRANCH  17  22
ATOM     22  O   UNL A   1      27.223  30.667  22.348  1.00  0.00    -0.494 OA
BRANCH  22  23
ATOM     23  C   UNL A   1      28.028  31.834  22.460  1.00  0.00     0.226 C 
ATOM     24  C   UNL A   1      28.025  32.496  21.099  1.00  0.00     0.049 C 
ENDBRANCH  22  23
ENDBRANCH  17  22
ENDBRANCH  13  16
ENDBRANCH   7  12
ENDBRANCH   3   6
ENDBRANCH   1   2
BRANCH   1  25
ATOM     25  C   UNL A   1      31.594  30.472  26.202  1.00  0.00     0.023 C 
BRANCH  25  26
ATOM     26  C   UNL A   1      31.400  31.933  26.587  1.00  0.00     0.023 C 
BRANCH  26  27
ATOM     27  C   UNL A   1      32.631  32.519  27.250  1.00  0.00     0.116 C 
BRANCH  27  28
ATOM     28  N   UNL A   1      32.453  33.939  27.545  1.00  0.00    -0.352 N 
ATOM     29  C   UNL A   1      33.052  34.722  28.499  1.00  0.00     0.251 C 
ATOM     30  H   UNL A   1      31.803  34.406  26.971  1.00  0.00     0.163 HD
ATOM     31  O   UNL A   1      32.593  35.821  28.779  1.00  0.00    -0.269 OA
BRANCH  29  32
ATOM     32  C   UNL A   1      34.258  34.221  29.180  1.00  0.00     0.039 A 
ATOM     33  C   UNL A   1      34.133  33.534  30.388  1.00  0.00     0.014 A 
ATOM     34  C   UNL A   1      35.516  34.427  28.609  1.00  0.00     0.014 A 
ATOM     35  C   UNL A   1      35.270  33.002  30.992  1.00  0.00     0.010 A 
ATOM     36  C   UNL A   1      36.621  33.788  29.137  1.00  0.00     0.010 A 
ATOM     37  C   UNL A   1      36.516  33.096  30.350  1.00  0.00    -0.014 A 
BRANCH  37  38
ATOM     38  C   UNL A   1      37.743  32.517  30.939  1.00  0.00     0.031 A 
ATOM     39  C   UNL A   1      38.363  31.300  30.306  1.00  0.00     0.074 A 
ATOM     40  C   UNL A   1      38.243  33.033  32.077  1.00  0.00     0.049 A 
ATOM     41  N   UNL A   1      39.375  30.580  30.715  1.00  0.00    -0.248 NA
ATOM     42  C   UNL A   1      37.732  30.796  29.074  1.00  0.00     0.031 C 
ATOM     43  C   UNL A   1      37.684  34.172  32.810  1.00  0.00     0.029 A 
ATOM     44  N   UNL A   1      39.330  32.660  32.823  1.00  0.00    -0.354 N 
ATOM     45  C   UNL A   1      39.482  29.534  29.807  1.00  0.00     0.074 A 
ATOM     46  C   UNL A   1      38.389  29.666  28.871  1.00  0.00     0.031 C 
ATOM     47  C   UNL A   1      38.455  34.428  33.878  1.00  0.00     0.029 A 
ATOM     48  C   UNL A   1      39.532  33.446  33.930  1.00  0.00     0.049 A 
ATOM     49  H   UNL A   1      39.912  31.902  32.587  1.00  0.00     0.167 HD
ATOM     50  C   UNL A   1      40.426  28.568  29.740  1.00  0.00     0.037 A 
ATOM     51  C   UNL A   1      40.480  33.373  34.883  1.00  0.00     0.037 A 
ATOM     52  C   UNL A   1      41.531  28.473  30.655  1.00  0.00     0.049 A 
ATOM     53  C   UNL A   1      41.524  32.295  34.782  1.00  0.00     0.074 A 
ATOM     54  C   UNL A   1      42.587  27.579  30.642  1.00  0.00     0.029 A 
ATOM     55  N   UNL A   1      41.718  29.303  31.751  1.00  0.00    -0.354 N 
ATOM     56  N   UNL A   1      41.660  31.358  33.875  1.00  0.00    -0.248 NA
ATOM     57  C   UNL A   1      42.550  32.271  35.832  1.00  0.00     0.031 C 
ATOM     58  C   UNL A   1      43.386  27.838  31.760  1.00  0.00     0.029 A 
ATOM     59  C   UNL A   1      42.860  28.929  32.437  1.00  0.00     0.049 A 
ATOM     60  H   UNL A   1      41.125  30.049  32.003  1.00  0.00     0.167 HD
ATOM     61  C   UNL A   1      42.802  30.650  34.227  1.00  0.00     0.074 A 
ATOM     62  C   UNL A   1      43.328  31.279  35.421  1.00  0.00     0.031 C 
ATOM     63  C   UNL A   1      43.367  29.578  33.619  1.00  0.00     0.037 A 
BRANCH  50  64
ATOM     64  C   UNL A   1      40.307  27.554  28.639  1.00  0.00     0.057 A 
ATOM     65  C   UNL A   1      40.962  27.711  27.409  1.00  0.00     0.134 A 
ATOM     66  C   UNL A   1      39.540  26.395  28.815  1.00  0.00     0.134 A 
ATOM     67  F   UNL A   1      41.699  28.806  27.165  1.00  0.00    -0.206 F 
ATOM     68  C   UNL A   1      40.832  26.770  26.385  1.00  0.00     0.040 A 
ATOM     69  C   UNL A   1      39.431  25.431  27.812  1.00  0.00     0.040 A 
ATOM     70  F   UNL A   1      38.889  26.178  29.967  1.00  0.00    -0.206 F 
ATOM     71  C   UNL A   1      40.071  25.621  26.589  1.00  0.00     0.006 A 
ENDBRANCH  50  64
BRANCH  51  72
ATOM     72  C   UNL A   1      40.506  34.364  35.989  1.00  0.00     0.057 A 
ATOM     73  C   UNL A   1      39.831  34.121  37.190  1.00  0.00     0.134 A 
ATOM     74  C   UNL A   1      41.200  35.575  35.875  1.00  0.00     0.134 A 
ATOM     75  F   UNL A   1      39.137  32.985  37.357  1.00  0.00    -0.206 F 
ATOM     76  C   UNL A   1      39.821  35.054  38.228  1.00  0.00     0.040 A 
ATOM     77  C   UNL A   1      41.222  36.506  36.915  1.00  0.00     0.040 A 
ATOM     78  F   UNL A   1      41.878  35.865  34.755  1.00  0.00    -0.206 F 
ATOM     79  C   UNL A   1      40.523  36.251  38.093  1.00  0.00     0.006 A 
ENDBRANCH  51  72
BRANCH  63  80
ATOM     80  C   UNL A   1      44.637  29.045  34.213  1.00  0.00     0.057 A 
ATOM     81  C   UNL A   1      45.893  29.542  33.846  1.00  0.00     0.134 A 
ATOM     82  C   UNL A   1      44.595  28.052  35.201  1.00  0.00     0.134 A 
ATOM     83  F   UNL A   1      46.001  30.486  32.898  1.00  0.00    -0.206 F 
ATOM     84  C   UNL A   1      47.066  29.051  34.421  1.00  0.00     0.040 A 
ATOM     85  C   UNL A   1      45.759  27.577  35.805  1.00  0.00     0.040 A 
ATOM     86  F   UNL A   1      43.423  27.542  35.607  1.00  0.00    -0.206 F 
ATOM     87  C   UNL A   1      46.999  28.071  35.410  1.00  0.00     0.006 A 
ENDBRANCH  63  80
ENDBRANCH  37  38
ENDBRANCH  29  32
ENDBRANCH  27  28
ENDBRANCH  26  27
ENDBRANCH  25  26
ENDBRANCH   1  25
TORSDOF 15
ENDMDL
MODEL 2
REMARK VINA RESULT:     -11.9      4.905      9.608
REMARK SMILES CCOc1ccc(NC(=O)N2CC[C@@H](C(=O)NCCCCNC(=O)c3ccc(-c4c5nc(c(-c6c(F)cccc6F)c6ccc([nH]6)c(-c6c(F)cccc6F)c6nc(c(-c7c(F)cccc7F)c7ccc4[nH]7)C=C6)C=C5)cc3)[C@@H]2C)cc1
REMARK SMILES IDX 18 1 17 2 15 3 16 4 14 6 11 7 12 8 79 9 13 10 80 11 9 12
REMARK SMILES IDX 8 13 10 15 7 16 4 17 5 18 82 19 6 20 81 21 3 22 2 23 1 24
REMARK SMILES IDX 19 25 20 26 21 27 22 28 23 29 24 31 25 32 26 33 78 34 27 35
REMARK SMILES IDX 77 36 28 37 29 38 30 39 71 40 31 41 76 42 70 43 72 44 32 45
REMARK SMILES IDX 75 46 69 47 68 48 33 50 59 51 42 52 58 53 43 54 46 55 57 56
REMARK SMILES IDX 73 57 44 58 45 59 56 61 74 62 47 63 34 64 35 65 40 66 36 67
REMARK SMILES IDX 37 68 39 69 41 70 38 71 60 72 61 73 66 74 62 75 63 76 65 77
REMARK SMILES IDX 67 78 64 79 48 80 49 81 54 82 50 83 51 84 53 85 55 86 52 87
REMARK H PARENT 17 5 8 14 22 30 72 49 46 60
REMARK Flexibility Score: inf
ROOT
ATOM      1  C   UNL A   1      36.037  21.374  25.564  1.00  0.00     0.116 C 
ENDROOT
BRANCH   1   2
ATOM      2  N   UNL A   1      34.825  20.603  25.332  1.00  0.00    -0.356 N 
ATOM      3  C   UNL A   1      33.686  20.826  24.626  1.00  0.00     0.225 C 
ATOM      4  O   UNL A   1      32.897  19.872  24.574  1.00  0.00    -0.275 OA
ATOM      5  H   UNL A   1      34.831  19.728  25.786  1.00  0.00     0.163 HD
BRANCH   3   6
ATOM      6  C   UNL A   1      33.270  22.149  23.972  1.00  0.00     0.102 C 
ATOM      7  N   UNL A   1      32.340  23.674  25.480  1.00  0.00    -0.321 N 
ATOM      8  C   UNL A   1      33.514  24.356  24.950  1.00  0.00     0.122 C 
ATOM      9  C   UNL A   1      31.927  22.678  24.498  1.00  0.00     0.096 C 
ATOM     10  C   UNL A   1      34.253  23.314  24.112  1.00  0.00     0.037 C 
ATOM     11  C   UNL A   1      31.047  23.292  23.406  1.00  0.00     0.032 C 
BRANCH   7  12
ATOM     12  C   UNL A   1      31.685  24.241  26.522  1.00  0.00     0.322 C 
ATOM     13  N   UNL A   1      31.057  25.439  26.513  1.00  0.00    -0.308 N 
ATOM     14  H   UNL A   1      30.844  25.723  27.431  1.00  0.00     0.171 HD
ATOM     15  O   UNL A   1      31.520  23.586  27.563  1.00  0.00    -0.248 OA
BRANCH  13  16
ATOM     16  C   UNL A   1      30.616  26.404  25.583  1.00  0.00     0.043 A 
ATOM     17  C   UNL A   1      29.904  27.954  23.342  1.00  0.00     0.119 A 
ATOM     18  C   UNL A   1      30.916  28.379  24.170  1.00  0.00     0.048 A 
ATOM     19  C   UNL A   1      29.172  26.814  23.658  1.00  0.00     0.048 A 
ATOM     20  C   UNL A   1      31.288  27.566  25.233  1.00  0.00     0.030 A 
ATOM     21  C   UNL A   1      29.495  26.070  24.806  1.00  0.00     0.030 A 
BRANCH  17  22
ATOM     22  O   UNL A   1      29.877  28.476  22.084  1.00  0.00    -0.494 OA
BRANCH  22  23
ATOM     23  C   UNL A   1      29.633  29.877  22.072  1.00  0.00     0.226 C 
ATOM     24  C   UNL A   1      28.134  30.058  22.176  1.00  0.00     0.049 C 
ENDBRANCH  22  23
ENDBRANCH  17  22
ENDBRANCH  13  16
ENDBRANCH   7  12
ENDBRANCH   3   6
ENDBRANCH   1   2
BRANCH   1  25
ATOM     25  C   UNL A   1      37.175  21.078  24.594  1.00  0.00     0.023 C 
BRANCH  25  26
ATOM     26  C   UNL A   1      38.066  19.892  24.935  1.00  0.00     0.023 C 
BRANCH  26  27
ATOM     27  C   UNL A   1      39.141  20.252  25.940  1.00  0.00     0.116 C 
BRANCH  27  28
ATOM     28  N   UNL A   1      40.187  19.232  25.992  1.00  0.00    -0.352 N 
ATOM     29  C   UNL A   1      41.549  19.371  26.070  1.00  0.00     0.251 C 
ATOM     30  H   UNL A   1      39.864  18.301  25.966  1.00  0.00     0.163 HD
ATOM     31  O   UNL A   1      42.285  18.422  25.836  1.00  0.00    -0.269 OA
BRANCH  29  32
ATOM     32  C   UNL A   1      42.114  20.680  26.442  1.00  0.00     0.039 A 
ATOM     33  C   UNL A   1      42.547  21.553  25.443  1.00  0.00     0.014 A 
ATOM     34  C   UNL A   1      42.203  21.041  27.788  1.00  0.00     0.014 A 
ATOM     35  C   UNL A   1      43.015  22.816  25.798  1.00  0.00     0.010 A 
ATOM     36  C   UNL A   1      42.541  22.337  28.128  1.00  0.00     0.010 A 
ATOM     37  C   UNL A   1      42.980  23.228  27.141  1.00  0.00    -0.014 A 
BRANCH  37  38
ATOM     38  C   UNL A   1      43.437  24.572  27.557  1.00  0.00     0.031 A 
ATOM     39  C   UNL A   1      42.420  25.604  27.964  1.00  0.00     0.074 A 
ATOM     40  C   UNL A   1      44.745  24.882  27.489  1.00  0.00     0.049 A 
ATOM     41  N   UNL A   1      42.595  26.863  28.268  1.00  0.00    -0.248 NA
ATOM     42  C   UNL A   1      41.010  25.175  27.989  1.00  0.00     0.031 C 
ATOM     43  C   UNL A   1      45.810  23.978  27.047  1.00  0.00     0.029 A 
ATOM     44  N   UNL A   1      45.401  26.048  27.782  1.00  0.00    -0.354 N 
ATOM     45  C   UNL A   1      41.324  27.375  28.493  1.00  0.00     0.074 A 
ATOM     46  C   UNL A   1      40.380  26.316  28.218  1.00  0.00     0.031 C 
ATOM     47  C   UNL A   1      46.989  24.611  27.135  1.00  0.00     0.029 A 
ATOM     48  C   UNL A   1      46.759  25.977  27.595  1.00  0.00     0.049 A 
ATOM     49  H   UNL A   1      44.942  26.860  28.098  1.00  0.00     0.167 HD
ATOM     50  C   UNL A   1      40.975  28.609  28.923  1.00  0.00     0.037 A 
ATOM     51  C   UNL A   1      47.709  26.914  27.771  1.00  0.00     0.037 A 
ATOM     52  C   UNL A   1      41.927  29.641  29.231  1.00  0.00     0.049 A 
ATOM     53  C   UNL A   1      47.296  28.276  28.257  1.00  0.00     0.074 A 
ATOM     54  C   UNL A   1      41.694  30.906  29.741  1.00  0.00     0.029 A 
ATOM     55  N   UNL A   1      43.298  29.524  29.054  1.00  0.00    -0.354 N 
ATOM     56  N   UNL A   1      46.097  28.726  28.541  1.00  0.00    -0.248 NA
ATOM     57  C   UNL A   1      48.370  29.258  28.454  1.00  0.00     0.031 C 
ATOM     58  C   UNL A   1      42.920  31.572  29.824  1.00  0.00     0.029 A 
ATOM     59  C   UNL A   1      43.924  30.702  29.422  1.00  0.00     0.049 A 
ATOM     60  H   UNL A   1      43.758  28.721  28.716  1.00  0.00     0.167 HD
ATOM     61  C   UNL A   1      46.274  30.032  28.979  1.00  0.00     0.074 A 
ATOM     62  C   UNL A   1      47.698  30.294  28.938  1.00  0.00     0.031 C 
ATOM     63  C   UNL A   1      45.345  30.934  29.380  1.00  0.00     0.037 A 
BRANCH  50  64
ATOM     64  C   UNL A   1      39.511  28.899  29.093  1.00  0.00     0.057 A 
ATOM     65  C   UNL A   1      38.859  28.741  30.324  1.00  0.00     0.134 A 
ATOM     66  C   UNL A   1      38.744  29.358  28.014  1.00  0.00     0.134 A 
ATOM     67  F   UNL A   1      39.529  28.287  31.395  1.00  0.00    -0.206 F 
ATOM     68  C   UNL A   1      37.494  28.998  30.468  1.00  0.00     0.040 A 
ATOM     69  C   UNL A   1      37.387  29.651  28.154  1.00  0.00     0.040 A 
ATOM     70  F   UNL A   1      39.303  29.536  26.808  1.00  0.00    -0.206 F 
ATOM     71  C   UNL A   1      36.756  29.463  29.382  1.00  0.00     0.006 A 
ENDBRANCH  50  64
BRANCH  51  72
ATOM     72  C   UNL A   1      49.135  26.589  27.519  1.00  0.00     0.057 A 
ATOM     73  C   UNL A   1      49.725  26.845  26.276  1.00  0.00     0.134 A 
ATOM     74  C   UNL A   1      49.944  26.015  28.508  1.00  0.00     0.134 A 
ATOM     75  F   UNL A   1      49.000  27.382  25.283  1.00  0.00    -0.206 F 
ATOM     76  C   UNL A   1      51.057  26.519  26.015  1.00  0.00     0.040 A 
ATOM     77  C   UNL A   1      51.285  25.709  28.270  1.00  0.00     0.040 A 
ATOM     78  F   UNL A   1      49.445  25.756  29.726  1.00  0.00    -0.206 F 
ATOM     79  C   UNL A   1      51.842  25.952  27.016  1.00  0.00     0.006 A 
ENDBRANCH  51  72
BRANCH  63  80
ATOM     80  C   UNL A   1      45.845  32.271  29.842  1.00  0.00     0.057 A 
ATOM     81  C   UNL A   1      46.162  32.521  31.182  1.00  0.00     0.134 A 
ATOM     82  C   UNL A   1      46.053  33.307  28.921  1.00  0.00     0.134 A 
ATOM     83  F   UNL A   1      45.974  31.575  32.114  1.00  0.00    -0.206 F 
ATOM     84  C   UNL A   1      46.644  33.764  31.596  1.00  0.00     0.040 A 
ATOM     85  C   UNL A   1      46.565  34.541  29.318  1.00  0.00     0.040 A 
ATOM     86  F   UNL A   1      45.781  33.128  27.620  1.00  0.00    -0.206 F 
ATOM     87  C   UNL A   1      46.855  34.775  30.660  1.00  0.00     0.006 A 
ENDBRANCH  63  80
ENDBRANCH  37  38
ENDBRANCH  29  32
ENDBRANCH  27  28
ENDBRANCH  26  27
ENDBRANCH  25  26
ENDBRANCH   1  25
TORSDOF 15
ENDMDL
MODEL 3
REMARK VINA RESULT:     -11.8      0.940      6.242
REMARK SMILES CCOc1ccc(NC(=O)N2CC[C@@H](C(=O)NCCCCNC(=O)c3ccc(-c4c5nc(c(-c6c(F)cccc6F)c6ccc([nH]6)c(-c6c(F)cccc6F)c6nc(c(-c7c(F)cccc7F)c7ccc4[nH]7)C=C6)C=C5)cc3)[C@@H]2C)cc1
REMARK SMILES IDX 18 1 17 2 15 3 16 4 14 6 11 7 12 8 79 9 13 10 80 11 9 12
REMARK SMILES IDX 8 13 10 15 7 16 4 17 5 18 82 19 6 20 81 21 3 22 2 23 1 24
REMARK SMILES IDX 19 25 20 26 21 27 22 28 23 29 24 31 25 32 26 33 78 34 27 35
REMARK SMILES IDX 77 36 28 37 29 38 30 39 71 40 31 41 76 42 70 43 72 44 32 45
REMARK SMILES IDX 75 46 69 47 68 48 33 50 59 51 42 52 58 53 43 54 46 55 57 56
REMARK SMILES IDX 73 57 44 58 45 59 56 61 74 62 47 63 34 64 35 65 40 66 36 67
REMARK SMILES IDX 37 68 39 69 41 70 38 71 60 72 61 73 66 74 62 75 63 76 65 77
REMARK SMILES IDX 67 78 64 79 48 80 49 81 54 82 50 83 51 84 53 85 55 86 52 87
REMARK H PARENT 17 5 8 14 22 30 72 49 46 60
REMARK Flexibility Score: inf
ROOT
ATOM      1  C   UNL A   1      32.813  30.047  26.143  1.00  0.00     0.116 C 
ENDROOT
BRANCH   1   2
ATOM      2  N   UNL A   1      33.298  29.693  24.817  1.00  0.00    -0.356 N 
ATOM      3  C   UNL A   1      33.511  28.515  24.175  1.00  0.00     0.225 C 
ATOM      4  O   UNL A   1      33.841  28.611  22.984  1.00  0.00    -0.275 OA
ATOM      5  H   UNL A   1      33.522  30.478  24.266  1.00  0.00     0.163 HD
BRANCH   3   6
ATOM      6  C   UNL A   1      33.455  27.117  24.802  1.00  0.00     0.102 C 
ATOM      7  N   UNL A   1      31.640  25.844  24.062  1.00  0.00    -0.321 N 
ATOM      8  C   UNL A   1      32.811  25.073  23.664  1.00  0.00     0.122 C 
ATOM      9  C   UNL A   1      32.029  26.692  25.184  1.00  0.00     0.096 C 
ATOM     10  C   UNL A   1      34.013  25.970  23.956  1.00  0.00     0.037 C 
ATOM     11  C   UNL A   1      31.955  25.938  26.514  1.00  0.00     0.032 C 
BRANCH   7  12
ATOM     12  C   UNL A   1      30.426  25.445  23.610  1.00  0.00     0.322 C 
ATOM     13  N   UNL A   1      29.325  26.221  23.488  1.00  0.00    -0.308 N 
ATOM     14  H   UNL A   1      28.526  25.664  23.343  1.00  0.00     0.171 HD
ATOM     15  O   UNL A   1      30.300  24.302  23.143  1.00  0.00    -0.248 OA
BRANCH  13  16
ATOM     16  C   UNL A   1      28.977  27.588  23.507  1.00  0.00     0.043 A 
ATOM     17  C   UNL A   1      28.121  30.226  23.014  1.00  0.00     0.119 A 
ATOM     18  C   UNL A   1      29.455  29.973  23.231  1.00  0.00     0.048 A 
ATOM     19  C   UNL A   1      27.186  29.203  23.130  1.00  0.00     0.048 A 
ATOM     20  C   UNL A   1      29.858  28.655  23.410  1.00  0.00     0.030 A 
ATOM     21  C   UNL A   1      27.609  27.896  23.428  1.00  0.00     0.030 A 
BRANCH  17  22
ATOM     22  O   UNL A   1      27.811  31.390  22.377  1.00  0.00    -0.494 OA
BRANCH  22  23
ATOM     23  C   UNL A   1      28.437  31.507  21.106  1.00  0.00     0.226 C 
ATOM     24  C   UNL A   1      27.655  32.545  20.331  1.00  0.00     0.049 C 
ENDBRANCH  22  23
ENDBRANCH  17  22
ENDBRANCH  13  16
ENDBRANCH   7  12
ENDBRANCH   3   6
ENDBRANCH   1   2
BRANCH   1  25
ATOM     25  C   UNL A   1      31.441  30.710  26.163  1.00  0.00     0.023 C 
BRANCH  25  26
ATOM     26  C   UNL A   1      31.401  32.174  26.578  1.00  0.00     0.023 C 
BRANCH  26  27
ATOM     27  C   UNL A   1      32.728  32.648  27.135  1.00  0.00     0.116 C 
BRANCH  27  28
ATOM     28  N   UNL A   1      32.640  34.023  27.625  1.00  0.00    -0.352 N 
ATOM     29  C   UNL A   1      33.244  34.612  28.707  1.00  0.00     0.251 C 
ATOM     30  H   UNL A   1      32.059  34.618  27.096  1.00  0.00     0.163 HD
ATOM     31  O   UNL A   1      32.853  35.694  29.123  1.00  0.00    -0.269 OA
BRANCH  29  32
ATOM     32  C   UNL A   1      34.370  33.923  29.360  1.00  0.00     0.039 A 
ATOM     33  C   UNL A   1      34.118  33.002  30.378  1.00  0.00     0.014 A 
ATOM     34  C   UNL A   1      35.678  34.188  28.950  1.00  0.00     0.014 A 
ATOM     35  C   UNL A   1      35.183  32.304  30.944  1.00  0.00     0.010 A 
ATOM     36  C   UNL A   1      36.715  33.402  29.417  1.00  0.00     0.010 A 
ATOM     37  C   UNL A   1      36.483  32.474  30.440  1.00  0.00    -0.014 A 
BRANCH  37  38
ATOM     38  C   UNL A   1      37.636  31.728  30.989  1.00  0.00     0.031 A 
ATOM     39  C   UNL A   1      38.150  32.069  32.362  1.00  0.00     0.074 A 
ATOM     40  C   UNL A   1      38.263  30.814  30.225  1.00  0.00     0.049 A 
ATOM     41  N   UNL A   1      39.202  31.610  32.990  1.00  0.00    -0.248 NA
ATOM     42  C   UNL A   1      37.409  33.098  33.113  1.00  0.00     0.031 C 
ATOM     43  C   UNL A   1      37.888  30.451  28.856  1.00  0.00     0.029 A 
ATOM     44  N   UNL A   1      39.354  30.029  30.490  1.00  0.00    -0.354 N 
ATOM     45  C   UNL A   1      39.257  32.309  34.188  1.00  0.00     0.074 A 
ATOM     46  C   UNL A   1      38.184  33.276  34.171  1.00  0.00     0.031 C 
ATOM     47  C   UNL A   1      38.712  29.488  28.416  1.00  0.00     0.029 A 
ATOM     48  C   UNL A   1      39.698  29.199  29.452  1.00  0.00     0.049 A 
ATOM     49  H   UNL A   1      39.845  30.057  31.343  1.00  0.00     0.167 HD
ATOM     50  C   UNL A   1      40.109  32.139  35.226  1.00  0.00     0.037 A 
ATOM     51  C   UNL A   1      40.702  28.309  29.350  1.00  0.00     0.037 A 
ATOM     52  C   UNL A   1      41.148  31.146  35.245  1.00  0.00     0.049 A 
ATOM     53  C   UNL A   1      41.630  28.132  30.520  1.00  0.00     0.074 A 
ATOM     54  C   UNL A   1      42.025  30.834  36.268  1.00  0.00     0.029 A 
ATOM     55  N   UNL A   1      41.450  30.304  34.184  1.00  0.00    -0.354 N 
ATOM     56  N   UNL A   1      41.627  28.744  31.680  1.00  0.00    -0.248 NA
ATOM     57  C   UNL A   1      42.697  27.134  30.369  1.00  0.00     0.031 C 
ATOM     58  C   UNL A   1      42.891  29.838  35.808  1.00  0.00     0.029 A 
ATOM     59  C   UNL A   1      42.517  29.488  34.519  1.00  0.00     0.049 A 
ATOM     60  H   UNL A   1      40.976  30.289  33.321  1.00  0.00     0.167 HD
ATOM     61  C   UNL A   1      42.669  28.187  32.409  1.00  0.00     0.074 A 
ATOM     62  C   UNL A   1      43.271  27.175  31.564  1.00  0.00     0.031 C 
ATOM     63  C   UNL A   1      43.092  28.482  33.662  1.00  0.00     0.037 A 
BRANCH  50  64
ATOM     64  C   UNL A   1      39.940  33.035  36.419  1.00  0.00     0.057 A 
ATOM     65  C   UNL A   1      39.024  32.749  37.440  1.00  0.00     0.134 A 
ATOM     66  C   UNL A   1      40.716  34.194  36.557  1.00  0.00     0.134 A 
ATOM     67  F   UNL A   1      38.235  31.665  37.364  1.00  0.00    -0.206 F 
ATOM     68  C   UNL A   1      38.863  33.597  38.538  1.00  0.00     0.040 A 
ATOM     69  C   UNL A   1      40.588  35.030  37.666  1.00  0.00     0.040 A 
ATOM     70  F   UNL A   1      41.615  34.527  35.620  1.00  0.00    -0.206 F 
ATOM     71  C   UNL A   1      39.654  34.738  38.657  1.00  0.00     0.006 A 
ENDBRANCH  50  64
BRANCH  51  72
ATOM     72  C   UNL A   1      40.861  27.499  28.115  1.00  0.00     0.057 A 
ATOM     73  C   UNL A   1      41.641  27.958  27.048  1.00  0.00     0.134 A 
ATOM     74  C   UNL A   1      40.239  26.253  27.969  1.00  0.00     0.134 A 
ATOM     75  F   UNL A   1      42.253  29.150  27.121  1.00  0.00    -0.206 F 
ATOM     76  C   UNL A   1      41.778  27.222  25.869  1.00  0.00     0.040 A 
ATOM     77  C   UNL A   1      40.389  25.493  26.807  1.00  0.00     0.040 A 
ATOM     78  F   UNL A   1      39.488  25.750  28.959  1.00  0.00    -0.206 F 
ATOM     79  C   UNL A   1      41.152  25.982  25.749  1.00  0.00     0.006 A 
ENDBRANCH  51  72
BRANCH  63  80
ATOM     80  C   UNL A   1      44.232  27.674  34.208  1.00  0.00     0.057 A 
ATOM     81  C   UNL A   1      45.557  28.121  34.139  1.00  0.00     0.134 A 
ATOM     82  C   UNL A   1      43.992  26.453  34.851  1.00  0.00     0.134 A 
ATOM     83  F   UNL A   1      45.855  29.277  33.525  1.00  0.00    -0.206 F 
ATOM     84  C   UNL A   1      46.607  27.369  34.667  1.00  0.00     0.040 A 
ATOM     85  C   UNL A   1      45.029  25.709  35.411  1.00  0.00     0.040 A 
ATOM     86  F   UNL A   1      42.743  25.975  34.963  1.00  0.00    -0.206 F 
ATOM     87  C   UNL A   1      46.342  26.163  35.313  1.00  0.00     0.006 A 
ENDBRANCH  63  80
ENDBRANCH  37  38
ENDBRANCH  29  32
ENDBRANCH  27  28
ENDBRANCH  26  27
ENDBRANCH  25  26
ENDBRANCH   1  25
TORSDOF 15
ENDMDL
