MODEL 1
REMARK VINA RESULT:     -12.5      0.000      0.000
REMARK SMILES Cc1cc(OC(F)(F)F)cc2c1O[C@H](C(F)(F)F)C(C(=O)NCCCCNC(=O)c1ccc(-c3c4nc(c(-c5c(F)cccc5F)c5ccc([nH]5)c(-c5c(F)cccc5F)c5nc(c(-c6c(F)cccc6F)c6ccc3[nH]6)C=C5)C=C4)cc1)=C2
REMARK SMILES IDX 24 1 23 2 22 3 20 4 21 5 19 7 1 8 2 9 3 10 12 11 4 12 11 13
REMARK SMILES IDX 13 14 10 15 84 16 14 17 5 18 6 19 7 20 8 21 9 22 15 23 16 24
REMARK SMILES IDX 17 25 18 26 25 27 26 28 27 29 28 30 29 32 30 33 31 34 83 35
REMARK SMILES IDX 32 36 82 37 33 38 34 39 35 40 76 41 36 42 81 43 75 44 77 45
REMARK SMILES IDX 37 46 80 47 74 48 73 49 38 51 64 52 47 53 63 54 48 55 51 56
REMARK SMILES IDX 62 57 78 58 49 59 50 60 61 62 79 63 52 64 39 65 40 66 45 67
REMARK SMILES IDX 41 68 42 69 44 70 46 71 43 72 65 73 66 74 71 75 67 76 68 77
REMARK SMILES IDX 70 78 72 79 69 80 53 81 54 82 59 83 55 84 56 85 58 86 60 87
REMARK SMILES IDX 57 88
REMARK H PARENT 22 6 27 31 77 50 51 61
REMARK Flexibility Score: inf
ROOT
ATOM      1  C   UNL A   1      31.794  30.402  26.886  1.00  0.00     0.023 C 
ENDROOT
BRANCH   1   2
ATOM      2  C   UNL A   1      33.264  30.000  26.803  1.00  0.00     0.116 C 
BRANCH   2   3
ATOM      3  N   UNL A   1      33.655  29.655  25.450  1.00  0.00    -0.352 N 
ATOM      4  C   UNL A   1      33.621  28.553  24.665  1.00  0.00     0.251 C 
ATOM      5  O   UNL A   1      34.091  28.701  23.532  1.00  0.00    -0.270 OA
ATOM      6  H   UNL A   1      34.050  30.424  24.978  1.00  0.00     0.163 HD
BRANCH   4   7
ATOM      7  C   UNL A   1      33.074  27.224  25.070  1.00  0.00     0.067 C 
ATOM      8  C   UNL A   1      30.305  23.249  26.873  1.00  0.00     0.048 C 
ATOM      9  C   UNL A   1      31.731  23.486  26.457  1.00  0.00    -0.005 A 
ATOM     10  C   UNL A   1      32.630  22.406  26.479  1.00  0.00     0.054 A 
ATOM     11  C   UNL A   1      32.192  24.741  26.044  1.00  0.00     0.131 A 
ATOM     12  C   UNL A   1      33.965  22.578  26.106  1.00  0.00     0.130 A 
ATOM     13  C   UNL A   1      33.526  24.928  25.674  1.00  0.00     0.021 A 
ATOM     14  O   UNL A   1      31.307  25.784  26.065  1.00  0.00    -0.475 OA
ATOM     15  C   UNL A   1      34.405  23.843  25.705  1.00  0.00     0.058 A 
ATOM     16  C   UNL A   1      33.987  26.260  25.298  1.00  0.00     0.025 C 
ATOM     17  C   UNL A   1      31.613  26.904  25.193  1.00  0.00     0.314 C 
BRANCH  12  18
ATOM     18  O   UNL A   1      34.932  21.612  26.092  1.00  0.00    -0.406 OA
BRANCH  18  19
ATOM     19  C   UNL A   1      35.268  21.032  24.843  1.00  0.00     0.573 C 
ATOM     20  F   UNL A   1      36.136  21.811  24.161  1.00  0.00    -0.132 F 
ATOM     21  F   UNL A   1      35.799  19.801  25.005  1.00  0.00    -0.132 F 
ATOM     22  F   UNL A   1      34.144  20.910  24.104  1.00  0.00    -0.132 F 
ENDBRANCH  18  19
ENDBRANCH  12  18
BRANCH  17  23
ATOM     23  C   UNL A   1      30.932  26.692  23.827  1.00  0.00     0.429 C 
ATOM     24  F   UNL A   1      29.910  25.806  23.939  1.00  0.00    -0.167 F 
ATOM     25  F   UNL A   1      30.394  27.834  23.335  1.00  0.00    -0.167 F 
ATOM     26  F   UNL A   1      31.778  26.219  22.885  1.00  0.00    -0.167 F 
ENDBRANCH  17  23
ENDBRANCH   4   7
ENDBRANCH   2   3
ENDBRANCH   1   2
BRANCH   1  27
ATOM     27  C   UNL A   1      31.560  31.913  26.812  1.00  0.00     0.023 C 
BRANCH  27  28
ATOM     28  C   UNL A   1      32.738  32.776  27.255  1.00  0.00     0.116 C 
BRANCH  28  29
ATOM     29  N   UNL A   1      32.365  34.134  27.625  1.00  0.00    -0.352 N 
ATOM     30  C   UNL A   1      32.974  34.941  28.556  1.00  0.00     0.251 C 
ATOM     31  H   UNL A   1      31.588  34.516  27.157  1.00  0.00     0.163 HD
ATOM     32  O   UNL A   1      32.534  36.051  28.826  1.00  0.00    -0.269 OA
BRANCH  30  33
ATOM     33  C   UNL A   1      34.158  34.412  29.251  1.00  0.00     0.039 A 
ATOM     34  C   UNL A   1      33.975  33.669  30.418  1.00  0.00     0.014 A 
ATOM     35  C   UNL A   1      35.423  34.562  28.676  1.00  0.00     0.014 A 
ATOM     36  C   UNL A   1      35.067  33.018  30.986  1.00  0.00     0.010 A 
ATOM     37  C   UNL A   1      36.501  33.875  29.219  1.00  0.00     0.010 A 
ATOM     38  C   UNL A   1      36.328  33.096  30.375  1.00  0.00    -0.014 A 
BRANCH  38  39
ATOM     39  C   UNL A   1      37.494  32.388  30.948  1.00  0.00     0.031 A 
ATOM     40  C   UNL A   1      38.118  32.901  32.211  1.00  0.00     0.074 A 
ATOM     41  C   UNL A   1      38.018  31.329  30.306  1.00  0.00     0.049 A 
ATOM     42  N   UNL A   1      39.167  32.460  32.853  1.00  0.00    -0.248 NA
ATOM     43  C   UNL A   1      37.486  34.083  32.822  1.00  0.00     0.031 C 
ATOM     44  C   UNL A   1      37.520  30.766  29.048  1.00  0.00     0.029 A 
ATOM     45  N   UNL A   1      39.095  30.542  30.619  1.00  0.00    -0.354 N 
ATOM     46  C   UNL A   1      39.325  33.310  33.939  1.00  0.00     0.074 A 
ATOM     47  C   UNL A   1      38.297  34.323  33.841  1.00  0.00     0.031 C 
ATOM     48  C   UNL A   1      38.288  29.718  28.703  1.00  0.00     0.029 A 
ATOM     49  C   UNL A   1      39.338  29.548  29.703  1.00  0.00     0.049 A 
ATOM     50  H   UNL A   1      39.644  30.677  31.426  1.00  0.00     0.167 HD
ATOM     51  C   UNL A   1      40.232  33.238  34.941  1.00  0.00     0.037 A 
ATOM     52  C   UNL A   1      40.304  28.611  29.679  1.00  0.00     0.037 A 
ATOM     53  C   UNL A   1      41.242  32.222  35.045  1.00  0.00     0.049 A 
ATOM     54  C   UNL A   1      41.307  28.562  30.797  1.00  0.00     0.074 A 
ATOM     55  C   UNL A   1      42.176  32.029  36.047  1.00  0.00     0.029 A 
ATOM     56  N   UNL A   1      41.450  31.224  34.105  1.00  0.00    -0.354 N 
ATOM     57  N   UNL A   1      41.405  29.330  31.855  1.00  0.00    -0.248 NA
ATOM     58  C   UNL A   1      42.331  27.511  30.719  1.00  0.00     0.031 C 
ATOM     59  C   UNL A   1      42.967  30.928  35.700  1.00  0.00     0.029 A 
ATOM     60  C   UNL A   1      42.507  30.420  34.496  1.00  0.00     0.049 A 
ATOM     61  H   UNL A   1      40.923  31.105  33.281  1.00  0.00     0.167 HD
ATOM     62  C   UNL A   1      42.481  28.840  32.582  1.00  0.00     0.074 A 
ATOM     63  C   UNL A   1      42.999  27.702  31.849  1.00  0.00     0.031 C 
ATOM     64  C   UNL A   1      42.997  29.289  33.751  1.00  0.00     0.037 A 
BRANCH  51  65
ATOM     65  C   UNL A   1      40.152  34.292  36.003  1.00  0.00     0.057 A 
ATOM     66  C   UNL A   1      39.347  34.113  37.133  1.00  0.00     0.134 A 
ATOM     67  C   UNL A   1      40.881  35.485  35.904  1.00  0.00     0.134 A 
ATOM     68  F   UNL A   1      38.627  32.991  37.287  1.00  0.00    -0.206 F 
ATOM     69  C   UNL A   1      39.275  35.083  38.135  1.00  0.00     0.040 A 
ATOM     70  C   UNL A   1      40.833  36.452  36.909  1.00  0.00     0.040 A 
ATOM     71  F   UNL A   1      41.685  35.705  34.853  1.00  0.00    -0.206 F 
ATOM     72  C   UNL A   1      40.024  36.254  38.026  1.00  0.00     0.006 A 
ENDBRANCH  51  65
BRANCH  52  73
ATOM     73  C   UNL A   1      40.361  27.623  28.575  1.00  0.00     0.057 A 
ATOM     74  C   UNL A   1      39.650  26.420  28.633  1.00  0.00     0.134 A 
ATOM     75  C   UNL A   1      41.104  27.881  27.418  1.00  0.00     0.134 A 
ATOM     76  F   UNL A   1      38.921  26.115  29.717  1.00  0.00    -0.206 F 
ATOM     77  C   UNL A   1      39.674  25.507  27.576  1.00  0.00     0.040 A 
ATOM     78  C   UNL A   1      41.122  26.987  26.346  1.00  0.00     0.040 A 
ATOM     79  F   UNL A   1      41.789  29.027  27.298  1.00  0.00    -0.206 F 
ATOM     80  C   UNL A   1      40.406  25.794  26.426  1.00  0.00     0.006 A 
ENDBRANCH  52  73
BRANCH  64  81
ATOM     81  C   UNL A   1      44.157  28.529  34.318  1.00  0.00     0.057 A 
ATOM     82  C   UNL A   1      45.471  28.884  33.987  1.00  0.00     0.134 A 
ATOM     83  C   UNL A   1      43.973  27.432  35.167  1.00  0.00     0.134 A 
ATOM     84  F   UNL A   1      45.712  29.923  33.174  1.00  0.00    -0.206 F 
ATOM     85  C   UNL A   1      46.563  28.171  34.482  1.00  0.00     0.040 A 
ATOM     86  C   UNL A   1      45.058  26.724  35.684  1.00  0.00     0.040 A 
ATOM     87  F   UNL A   1      42.739  27.055  35.532  1.00  0.00    -0.206 F 
ATOM     88  C   UNL A   1      46.358  27.090  35.338  1.00  0.00     0.006 A 
ENDBRANCH  64  81
ENDBRANCH  38  39
ENDBRANCH  30  33
ENDBRANCH  28  29
ENDBRANCH  27  28
ENDBRANCH   1  27
TORSDOF 14
ENDMDL
MODEL 2
REMARK VINA RESULT:     -12.5      0.315      1.697
REMARK SMILES Cc1cc(OC(F)(F)F)cc2c1O[C@H](C(F)(F)F)C(C(=O)NCCCCNC(=O)c1ccc(-c3c4nc(c(-c5c(F)cccc5F)c5ccc([nH]5)c(-c5c(F)cccc5F)c5nc(c(-c6c(F)cccc6F)c6ccc3[nH]6)C=C5)C=C4)cc1)=C2
REMARK SMILES IDX 24 1 23 2 22 3 20 4 21 5 19 7 1 8 2 9 3 10 12 11 4 12 11 13
REMARK SMILES IDX 13 14 10 15 84 16 14 17 5 18 6 19 7 20 8 21 9 22 15 23 16 24
REMARK SMILES IDX 17 25 18 26 25 27 26 28 27 29 28 30 29 32 30 33 31 34 83 35
REMARK SMILES IDX 32 36 82 37 33 38 34 39 35 40 76 41 36 42 81 43 75 44 77 45
REMARK SMILES IDX 37 46 80 47 74 48 73 49 38 51 64 52 47 53 63 54 48 55 51 56
REMARK SMILES IDX 62 57 78 58 49 59 50 60 61 62 79 63 52 64 39 65 40 66 45 67
REMARK SMILES IDX 41 68 42 69 44 70 46 71 43 72 65 73 66 74 71 75 67 76 68 77
REMARK SMILES IDX 70 78 72 79 69 80 53 81 54 82 59 83 55 84 56 85 58 86 60 87
REMARK SMILES IDX 57 88
REMARK H PARENT 22 6 27 31 77 50 51 61
REMARK Flexibility Score: inf
ROOT
ATOM      1  C   UNL A   1      31.763  30.437  26.856  1.00  0.00     0.023 C 
ENDROOT
BRANCH   1   2
ATOM      2  C   UNL A   1      33.231  30.042  26.729  1.00  0.00     0.116 C 
BRANCH   2   3
ATOM      3  N   UNL A   1      33.581  29.690  25.366  1.00  0.00    -0.352 N 
ATOM      4  C   UNL A   1      33.551  28.577  24.596  1.00  0.00     0.251 C 
ATOM      5  O   UNL A   1      33.973  28.725  23.445  1.00  0.00    -0.270 OA
ATOM      6  H   UNL A   1      33.935  30.465  24.870  1.00  0.00     0.163 HD
BRANCH   4   7
ATOM      7  C   UNL A   1      33.061  27.238  25.037  1.00  0.00     0.067 C 
ATOM      8  C   UNL A   1      30.464  23.202  26.959  1.00  0.00     0.048 C 
ATOM      9  C   UNL A   1      31.877  23.485  26.526  1.00  0.00    -0.005 A 
ATOM     10  C   UNL A   1      32.818  22.443  26.566  1.00  0.00     0.054 A 
ATOM     11  C   UNL A   1      32.284  24.747  26.079  1.00  0.00     0.131 A 
ATOM     12  C   UNL A   1      34.142  22.658  26.179  1.00  0.00     0.130 A 
ATOM     13  C   UNL A   1      33.607  24.977  25.693  1.00  0.00     0.021 A 
ATOM     14  O   UNL A   1      31.359  25.754  26.082  1.00  0.00    -0.475 OA
ATOM     15  C   UNL A   1      34.529  23.929  25.743  1.00  0.00     0.058 A 
ATOM     16  C   UNL A   1      34.013  26.317  25.281  1.00  0.00     0.025 C 
ATOM     17  C   UNL A   1      31.614  26.864  25.180  1.00  0.00     0.314 C 
BRANCH  12  18
ATOM     18  O   UNL A   1      35.147  21.731  26.179  1.00  0.00    -0.406 OA
BRANCH  18  19
ATOM     19  C   UNL A   1      35.485  21.121  24.945  1.00  0.00     0.573 C 
ATOM     20  F   UNL A   1      35.915  19.854  25.129  1.00  0.00    -0.132 F 
ATOM     21  F   UNL A   1      34.435  21.123  24.097  1.00  0.00    -0.132 F 
ATOM     22  F   UNL A   1      36.487  21.825  24.374  1.00  0.00    -0.132 F 
ENDBRANCH  18  19
ENDBRANCH  12  18
BRANCH  17  23
ATOM     23  C   UNL A   1      30.932  26.592  23.825  1.00  0.00     0.429 C 
ATOM     24  F   UNL A   1      30.352  27.724  23.352  1.00  0.00    -0.167 F 
ATOM     25  F   UNL A   1      31.811  26.189  22.876  1.00  0.00    -0.167 F 
ATOM     26  F   UNL A   1      29.972  25.645  23.900  1.00  0.00    -0.167 F 
ENDBRANCH  17  23
ENDBRANCH   4   7
ENDBRANCH   2   3
ENDBRANCH   1   2
BRANCH   1  27
ATOM     27  C   UNL A   1      31.522  31.948  26.807  1.00  0.00     0.023 C 
BRANCH  27  28
ATOM     28  C   UNL A   1      32.709  32.809  27.231  1.00  0.00     0.116 C 
BRANCH  28  29
ATOM     29  N   UNL A   1      32.340  34.161  27.630  1.00  0.00    -0.352 N 
ATOM     30  C   UNL A   1      32.973  34.960  28.551  1.00  0.00     0.251 C 
ATOM     31  H   UNL A   1      31.548  34.545  27.190  1.00  0.00     0.163 HD
ATOM     32  O   UNL A   1      32.536  36.064  28.848  1.00  0.00    -0.269 OA
BRANCH  30  33
ATOM     33  C   UNL A   1      34.180  34.429  29.204  1.00  0.00     0.039 A 
ATOM     34  C   UNL A   1      34.037  33.666  30.364  1.00  0.00     0.014 A 
ATOM     35  C   UNL A   1      35.427  34.598  28.595  1.00  0.00     0.014 A 
ATOM     36  C   UNL A   1      35.149  33.014  30.889  1.00  0.00     0.010 A 
ATOM     37  C   UNL A   1      36.525  33.910  29.096  1.00  0.00     0.010 A 
ATOM     38  C   UNL A   1      36.392  33.111  30.243  1.00  0.00    -0.014 A 
BRANCH  38  39
ATOM     39  C   UNL A   1      37.578  32.403  30.771  1.00  0.00     0.031 A 
ATOM     40  C   UNL A   1      38.263  32.929  31.997  1.00  0.00     0.074 A 
ATOM     41  C   UNL A   1      38.064  31.331  30.120  1.00  0.00     0.049 A 
ATOM     42  N   UNL A   1      39.338  32.489  32.595  1.00  0.00    -0.248 NA
ATOM     43  C   UNL A   1      37.669  34.123  32.620  1.00  0.00     0.031 C 
ATOM     44  C   UNL A   1      37.505  30.755  28.895  1.00  0.00     0.029 A 
ATOM     45  N   UNL A   1      39.150  30.542  30.394  1.00  0.00    -0.354 N 
ATOM     46  C   UNL A   1      39.553  33.353  33.660  1.00  0.00     0.074 A 
ATOM     47  C   UNL A   1      38.528  34.371  33.597  1.00  0.00     0.031 C 
ATOM     48  C   UNL A   1      38.249  29.697  28.530  1.00  0.00     0.029 A 
ATOM     49  C   UNL A   1      39.344  29.534  29.481  1.00  0.00     0.049 A 
ATOM     50  H   UNL A   1      39.737  30.683  31.172  1.00  0.00     0.167 HD
ATOM     51  C   UNL A   1      40.505  33.288  34.620  1.00  0.00     0.037 A 
ATOM     52  C   UNL A   1      40.301  28.589  29.425  1.00  0.00     0.037 A 
ATOM     53  C   UNL A   1      41.513  32.266  34.691  1.00  0.00     0.049 A 
ATOM     54  C   UNL A   1      41.355  28.548  30.496  1.00  0.00     0.074 A 
ATOM     55  C   UNL A   1      42.491  32.081  35.650  1.00  0.00     0.029 A 
ATOM     56  N   UNL A   1      41.670  31.254  33.756  1.00  0.00    -0.354 N 
ATOM     57  N   UNL A   1      41.507  29.330  31.537  1.00  0.00    -0.248 NA
ATOM     58  C   UNL A   1      42.368  27.489  30.385  1.00  0.00     0.031 C 
ATOM     59  C   UNL A   1      43.258  30.969  35.282  1.00  0.00     0.029 A 
ATOM     60  C   UNL A   1      42.739  30.448  34.108  1.00  0.00     0.049 A 
ATOM     61  H   UNL A   1      41.104  31.127  32.960  1.00  0.00     0.167 HD
ATOM     62  C   UNL A   1      42.614  28.842  32.220  1.00  0.00     0.074 A 
ATOM     63  C   UNL A   1      43.089  27.691  31.480  1.00  0.00     0.031 C 
ATOM     64  C   UNL A   1      43.186  29.303  33.358  1.00  0.00     0.037 A 
BRANCH  51  65
ATOM     65  C   UNL A   1      40.482  34.356  35.669  1.00  0.00     0.057 A 
ATOM     66  C   UNL A   1      41.209  35.540  35.505  1.00  0.00     0.134 A 
ATOM     67  C   UNL A   1      39.733  34.210  36.845  1.00  0.00     0.134 A 
ATOM     68  F   UNL A   1      41.944  35.741  34.401  1.00  0.00    -0.206 F 
ATOM     69  C   UNL A   1      41.186  36.548  36.472  1.00  0.00     0.040 A 
ATOM     70  C   UNL A   1      39.685  35.219  37.808  1.00  0.00     0.040 A 
ATOM     71  F   UNL A   1      39.000  33.106  37.050  1.00  0.00    -0.206 F 
ATOM     72  C   UNL A   1      40.417  36.390  37.624  1.00  0.00     0.006 A 
ENDBRANCH  51  65
BRANCH  52  73
ATOM     73  C   UNL A   1      40.300  27.586  28.333  1.00  0.00     0.057 A 
ATOM     74  C   UNL A   1      40.967  27.817  27.126  1.00  0.00     0.134 A 
ATOM     75  C   UNL A   1      39.656  26.354  28.492  1.00  0.00     0.134 A 
ATOM     76  F   UNL A   1      41.600  28.981  26.914  1.00  0.00    -0.206 F 
ATOM     77  C   UNL A   1      40.997  26.856  26.114  1.00  0.00     0.040 A 
ATOM     78  C   UNL A   1      39.693  25.376  27.496  1.00  0.00     0.040 A 
ATOM     79  F   UNL A   1      39.017  26.068  29.636  1.00  0.00    -0.206 F 
ATOM     80  C   UNL A   1      40.365  25.629  26.302  1.00  0.00     0.006 A 
ENDBRANCH  52  73
BRANCH  64  81
ATOM     81  C   UNL A   1      44.367  28.544  33.880  1.00  0.00     0.057 A 
ATOM     82  C   UNL A   1      44.189  27.453  34.740  1.00  0.00     0.134 A 
ATOM     83  C   UNL A   1      45.678  28.908  33.553  1.00  0.00     0.134 A 
ATOM     84  F   UNL A   1      42.957  27.059  35.093  1.00  0.00    -0.206 F 
ATOM     85  C   UNL A   1      45.277  26.751  35.258  1.00  0.00     0.040 A 
ATOM     86  C   UNL A   1      46.773  28.201  34.049  1.00  0.00     0.040 A 
ATOM     87  F   UNL A   1      45.911  29.934  32.721  1.00  0.00    -0.206 F 
ATOM     88  C   UNL A   1      46.574  27.122  34.909  1.00  0.00     0.006 A 
ENDBRANCH  64  81
ENDBRANCH  38  39
ENDBRANCH  30  33
ENDBRANCH  28  29
ENDBRANCH  27  28
ENDBRANCH   1  27
TORSDOF 14
ENDMDL
MODEL 3
REMARK VINA RESULT:     -12.4      1.934      2.858
REMARK SMILES Cc1cc(OC(F)(F)F)cc2c1O[C@H](C(F)(F)F)C(C(=O)NCCCCNC(=O)c1ccc(-c3c4nc(c(-c5c(F)cccc5F)c5ccc([nH]5)c(-c5c(F)cccc5F)c5nc(c(-c6c(F)cccc6F)c6ccc3[nH]6)C=C5)C=C4)cc1)=C2
REMARK SMILES IDX 24 1 23 2 22 3 20 4 21 5 19 7 1 8 2 9 3 10 12 11 4 12 11 13
REMARK SMILES IDX 13 14 10 15 84 16 14 17 5 18 6 19 7 20 8 21 9 22 15 23 16 24
REMARK SMILES IDX 17 25 18 26 25 27 26 28 27 29 28 30 29 32 30 33 31 34 83 35
REMARK SMILES IDX 32 36 82 37 33 38 34 39 35 40 76 41 36 42 81 43 75 44 77 45
REMARK SMILES IDX 37 46 80 47 74 48 73 49 38 51 64 52 47 53 63 54 48 55 51 56
REMARK SMILES IDX 62 57 78 58 49 59 50 60 61 62 79 63 52 64 39 65 40 66 45 67
REMARK SMILES IDX 41 68 42 69 44 70 46 71 43 72 65 73 66 74 71 75 67 76 68 77
REMARK SMILES IDX 70 78 72 79 69 80 53 81 54 82 59 83 55 84 56 85 58 86 60 87
REMARK SMILES IDX 57 88
REMARK H PARENT 22 6 27 31 77 50 51 61
REMARK Flexibility Score: inf
ROOT
ATOM      1  C   UNL A   1      34.534  30.931  27.876  1.00  0.00     0.023 C 
ENDROOT
BRANCH   1   2
ATOM      2  C   UNL A   1      34.432  29.443  27.554  1.00  0.00     0.116 C 
BRANCH   2   3
ATOM      3  N   UNL A   1      33.110  28.918  27.835  1.00  0.00    -0.352 N 
ATOM      4  C   UNL A   1      32.256  28.039  27.260  1.00  0.00     0.251 C 
ATOM      5  O   UNL A   1      31.182  27.890  27.850  1.00  0.00    -0.270 OA
ATOM      6  H   UNL A   1      32.734  29.303  28.660  1.00  0.00     0.163 HD
BRANCH   4   7
ATOM      7  C   UNL A   1      32.523  27.272  26.007  1.00  0.00     0.067 C 
ATOM      8  C   UNL A   1      32.534  25.198  21.272  1.00  0.00     0.048 C 
ATOM      9  C   UNL A   1      33.135  24.866  22.610  1.00  0.00    -0.005 A 
ATOM     10  C   UNL A   1      33.976  23.745  22.715  1.00  0.00     0.054 A 
ATOM     11  C   UNL A   1      32.890  25.637  23.753  1.00  0.00     0.131 A 
ATOM     12  C   UNL A   1      34.552  23.393  23.937  1.00  0.00     0.130 A 
ATOM     13  C   UNL A   1      33.457  25.293  24.983  1.00  0.00     0.021 A 
ATOM     14  O   UNL A   1      32.042  26.702  23.633  1.00  0.00    -0.475 OA
ATOM     15  C   UNL A   1      34.288  24.173  25.067  1.00  0.00     0.058 A 
ATOM     16  C   UNL A   1      33.142  26.087  26.166  1.00  0.00     0.025 C 
ATOM     17  C   UNL A   1      32.187  27.753  24.625  1.00  0.00     0.314 C 
BRANCH  12  18
ATOM     18  O   UNL A   1      35.377  22.328  24.166  1.00  0.00    -0.406 OA
BRANCH  18  19
ATOM     19  C   UNL A   1      36.750  22.473  23.845  1.00  0.00     0.573 C 
ATOM     20  F   UNL A   1      37.440  21.348  24.134  1.00  0.00    -0.132 F 
ATOM     21  F   UNL A   1      36.915  22.781  22.541  1.00  0.00    -0.132 F 
ATOM     22  F   UNL A   1      37.264  23.481  24.582  1.00  0.00    -0.132 F 
ENDBRANCH  18  19
ENDBRANCH  12  18
BRANCH  17  23
ATOM     23  C   UNL A   1      33.176  28.815  24.107  1.00  0.00     0.429 C 
ATOM     24  F   UNL A   1      34.455  28.419  24.329  1.00  0.00    -0.167 F 
ATOM     25  F   UNL A   1      33.066  29.017  22.772  1.00  0.00    -0.167 F 
ATOM     26  F   UNL A   1      33.016  30.019  24.701  1.00  0.00    -0.167 F 
ENDBRANCH  17  23
ENDBRANCH   4   7
ENDBRANCH   2   3
ENDBRANCH   1   2
BRANCH   1  27
ATOM     27  C   UNL A   1      33.209  31.686  27.746  1.00  0.00     0.023 C 
BRANCH  27  28
ATOM     28  C   UNL A   1      33.319  33.099  27.179  1.00  0.00     0.116 C 
BRANCH  28  29
ATOM     29  N   UNL A   1      32.737  34.122  28.037  1.00  0.00    -0.352 N 
ATOM     30  C   UNL A   1      33.265  34.635  29.197  1.00  0.00     0.251 C 
ATOM     31  H   UNL A   1      31.867  34.486  27.754  1.00  0.00     0.163 HD
ATOM     32  O   UNL A   1      32.655  35.457  29.869  1.00  0.00    -0.269 OA
BRANCH  30  33
ATOM     33  C   UNL A   1      34.580  34.137  29.631  1.00  0.00     0.039 A 
ATOM     34  C   UNL A   1      34.647  33.304  30.749  1.00  0.00     0.014 A 
ATOM     35  C   UNL A   1      35.712  34.408  28.858  1.00  0.00     0.014 A 
ATOM     36  C   UNL A   1      35.854  32.687  31.063  1.00  0.00     0.010 A 
ATOM     37  C   UNL A   1      36.904  33.756  29.148  1.00  0.00     0.010 A 
ATOM     38  C   UNL A   1      36.980  32.888  30.250  1.00  0.00    -0.014 A 
BRANCH  38  39
ATOM     39  C   UNL A   1      38.264  32.219  30.553  1.00  0.00     0.031 A 
ATOM     40  C   UNL A   1      39.237  32.881  31.481  1.00  0.00     0.074 A 
ATOM     41  C   UNL A   1      38.571  31.055  29.953  1.00  0.00     0.049 A 
ATOM     42  N   UNL A   1      40.431  32.490  31.843  1.00  0.00    -0.248 NA
ATOM     43  C   UNL A   1      38.818  34.165  32.065  1.00  0.00     0.031 C 
ATOM     44  C   UNL A   1      37.720  30.340  29.000  1.00  0.00     0.029 A 
ATOM     45  N   UNL A   1      39.694  30.274  30.049  1.00  0.00    -0.354 N 
ATOM     46  C   UNL A   1      40.907  33.480  32.691  1.00  0.00     0.074 A 
ATOM     47  C   UNL A   1      39.897  34.514  32.750  1.00  0.00     0.031 C 
ATOM     48  C   UNL A   1      38.349  29.218  28.607  1.00  0.00     0.029 A 
ATOM     49  C   UNL A   1      39.651  29.148  29.264  1.00  0.00     0.049 A 
ATOM     50  H   UNL A   1      40.459  30.499  30.626  1.00  0.00     0.167 HD
ATOM     51  C   UNL A   1      42.072  33.513  33.379  1.00  0.00     0.037 A 
ATOM     52  C   UNL A   1      40.565  28.174  29.097  1.00  0.00     0.037 A 
ATOM     53  C   UNL A   1      43.068  32.478  33.332  1.00  0.00     0.049 A 
ATOM     54  C   UNL A   1      41.857  28.242  29.863  1.00  0.00     0.074 A 
ATOM     55  C   UNL A   1      44.258  32.390  34.029  1.00  0.00     0.029 A 
ATOM     56  N   UNL A   1      42.984  31.346  32.535  1.00  0.00    -0.354 N 
ATOM     57  N   UNL A   1      42.267  29.150  30.714  1.00  0.00    -0.248 NA
ATOM     58  C   UNL A   1      42.811  27.145  29.645  1.00  0.00     0.031 C 
ATOM     59  C   UNL A   1      44.910  31.216  33.635  1.00  0.00     0.029 A 
ATOM     60  C   UNL A   1      44.110  30.560  32.713  1.00  0.00     0.049 A 
ATOM     61  H   UNL A   1      42.235  31.133  31.933  1.00  0.00     0.167 HD
ATOM     62  C   UNL A   1      43.512  28.722  31.155  1.00  0.00     0.074 A 
ATOM     63  C   UNL A   1      43.786  27.468  30.484  1.00  0.00     0.031 C 
ATOM     64  C   UNL A   1      44.355  29.312  32.038  1.00  0.00     0.037 A 
BRANCH  51  65
ATOM     65  C   UNL A   1      42.314  34.712  34.243  1.00  0.00     0.057 A 
ATOM     66  C   UNL A   1      42.902  35.868  33.719  1.00  0.00     0.134 A 
ATOM     67  C   UNL A   1      41.960  34.718  35.599  1.00  0.00     0.134 A 
ATOM     68  F   UNL A   1      43.262  35.925  32.428  1.00  0.00    -0.206 F 
ATOM     69  C   UNL A   1      43.122  36.996  34.514  1.00  0.00     0.040 A 
ATOM     70  C   UNL A   1      42.155  35.846  36.397  1.00  0.00     0.040 A 
ATOM     71  F   UNL A   1      41.375  33.646  36.154  1.00  0.00    -0.206 F 
ATOM     72  C   UNL A   1      42.742  36.988  35.855  1.00  0.00     0.006 A 
ENDBRANCH  51  65
BRANCH  52  73
ATOM     73  C   UNL A   1      40.289  27.035  28.189  1.00  0.00     0.057 A 
ATOM     74  C   UNL A   1      40.845  26.969  26.908  1.00  0.00     0.134 A 
ATOM     75  C   UNL A   1      39.485  25.966  28.603  1.00  0.00     0.134 A 
ATOM     76  F   UNL A   1      41.621  27.965  26.454  1.00  0.00    -0.206 F 
ATOM     77  C   UNL A   1      40.614  25.878  26.068  1.00  0.00     0.040 A 
ATOM     78  C   UNL A   1      39.261  24.860  27.781  1.00  0.00     0.040 A 
ATOM     79  F   UNL A   1      38.942  25.966  29.828  1.00  0.00    -0.206 F 
ATOM     80  C   UNL A   1      39.826  24.816  26.508  1.00  0.00     0.006 A 
ENDBRANCH  52  73
BRANCH  64  81
ATOM     81  C   UNL A   1      45.631  28.590  32.343  1.00  0.00     0.057 A 
ATOM     82  C   UNL A   1      45.691  27.660  33.388  1.00  0.00     0.134 A 
ATOM     83  C   UNL A   1      46.805  28.837  31.622  1.00  0.00     0.134 A 
ATOM     84  F   UNL A   1      44.601  27.384  34.118  1.00  0.00    -0.206 F 
ATOM     85  C   UNL A   1      46.878  26.999  33.705  1.00  0.00     0.040 A 
ATOM     86  C   UNL A   1      47.993  28.168  31.918  1.00  0.00     0.040 A 
ATOM     87  F   UNL A   1      46.805  29.706  30.601  1.00  0.00    -0.206 F 
ATOM     88  C   UNL A   1      48.032  27.249  32.965  1.00  0.00     0.006 A 
ENDBRANCH  64  81
ENDBRANCH  38  39
ENDBRANCH  30  33
ENDBRANCH  28  29
ENDBRANCH  27  28
ENDBRANCH   1  27
TORSDOF 14
ENDMDL
