MODEL 1
REMARK VINA RESULT:     -11.9      0.000      0.000
REMARK SMILES O=C(Cc1ccn[nH]1)Nc1sc2c(c1C(=O)NCCCCNC(=O)c1ccc(-c3c4nc(c(-c5c(F)cccc5F)c5ccc([nH]5)c(-c5c(F)cccc5F)c5nc(c(-c6c(F)cccc6F)c6ccc3[nH]6)C=C5)C=C4)cc1)CCC2
REMARK SMILES IDX 19 1 18 2 17 3 15 4 16 5 14 7 10 8 11 9 12 10 13 11 81 12
REMARK SMILES IDX 79 13 80 14 9 15 1 16 2 17 3 19 4 20 5 21 8 22 6 23 7 24
REMARK SMILES IDX 20 26 21 27 22 28 23 29 24 31 25 32 26 33 78 34 27 35 77 36
REMARK SMILES IDX 28 37 29 38 30 39 71 40 31 41 76 42 70 43 72 44 32 45 75 46
REMARK SMILES IDX 69 47 68 48 33 50 59 51 42 52 58 53 43 54 46 55 57 56 73 57
REMARK SMILES IDX 44 58 45 59 56 61 74 62 47 63 34 64 35 65 40 66 36 67 37 68
REMARK SMILES IDX 39 69 41 70 38 71 60 72 61 73 66 74 62 75 63 76 65 77 67 78
REMARK SMILES IDX 64 79 48 80 49 81 54 82 50 83 51 84 53 85 55 86 52 87
REMARK H PARENT 17 6 9 18 8 25 22 30 72 49 46 60
REMARK Flexibility Score: inf
ROOT
ATOM      1  C   UNL A   1      34.675  29.512  27.235  1.00  0.00     0.023 C 
ENDROOT
BRANCH   1   2
ATOM      2  C   UNL A   1      33.956  28.622  26.224  1.00  0.00     0.116 C 
BRANCH   2   3
ATOM      3  N   UNL A   1      32.630  28.255  26.638  1.00  0.00    -0.352 N 
ATOM      4  C   UNL A   1      31.794  27.219  26.326  1.00  0.00     0.254 C 
ATOM      5  O   UNL A   1      30.904  27.059  27.173  1.00  0.00    -0.269 OA
ATOM      6  H   UNL A   1      32.239  28.885  27.286  1.00  0.00     0.163 HD
BRANCH   4   7
ATOM      7  C   UNL A   1      31.934  26.301  25.172  1.00  0.00     0.078 A 
ATOM      8  C   UNL A   1      30.838  26.115  24.317  1.00  0.00     0.108 A 
ATOM      9  S   UNL A   1      30.955  24.794  23.246  1.00  0.00    -0.122 S 
ATOM     10  C   UNL A   1      32.556  24.615  23.662  1.00  0.00     0.011 A 
ATOM     11  C   UNL A   1      32.982  25.430  24.686  1.00  0.00    -0.019 A 
ATOM     12  C   UNL A   1      33.566  23.671  23.128  1.00  0.00     0.047 C 
ATOM     13  C   UNL A   1      34.402  25.083  24.986  1.00  0.00     0.038 C 
ATOM     14  C   UNL A   1      34.856  24.238  23.762  1.00  0.00     0.010 C 
BRANCH   8  15
ATOM     15  N   UNL A   1      29.636  26.770  24.175  1.00  0.00    -0.317 N 
ATOM     16  O   UNL A   1      30.226  27.938  22.252  1.00  0.00    -0.274 OA
ATOM     17  C   UNL A   1      29.439  27.703  23.166  1.00  0.00     0.230 C 
ATOM     18  H   UNL A   1      28.903  26.575  24.803  1.00  0.00     0.170 HD
BRANCH  17  19
ATOM     19  C   UNL A   1      28.073  28.365  23.242  1.00  0.00     0.155 C 
BRANCH  19  20
ATOM     20  C   UNL A   1      28.075  29.751  22.675  1.00  0.00     0.044 A 
ATOM     21  C   UNL A   1      28.073  30.979  23.305  1.00  0.00     0.045 A 
ATOM     22  N   UNL A   1      28.056  30.039  21.334  1.00  0.00    -0.282 N 
ATOM     23  C   UNL A   1      28.001  31.923  22.265  1.00  0.00     0.135 A 
ATOM     24  N   UNL A   1      27.963  31.348  21.063  1.00  0.00    -0.184 NA
ATOM     25  H   UNL A   1      28.106  29.347  20.634  1.00  0.00     0.190 HD
ENDBRANCH  19  20
ENDBRANCH  17  19
ENDBRANCH   8  15
ENDBRANCH   4   7
ENDBRANCH   2   3
ENDBRANCH   1   2
BRANCH   1  26
ATOM     26  C   UNL A   1      34.089  30.920  27.414  1.00  0.00     0.023 C 
BRANCH  26  27
ATOM     27  C   UNL A   1      35.084  31.993  27.854  1.00  0.00     0.116 C 
BRANCH  27  28
ATOM     28  N   UNL A   1      34.795  32.555  29.180  1.00  0.00    -0.352 N 
ATOM     29  C   UNL A   1      35.183  32.075  30.425  1.00  0.00     0.251 C 
ATOM     30  H   UNL A   1      34.256  33.378  29.188  1.00  0.00     0.163 HD
ATOM     31  O   UNL A   1      34.574  32.368  31.441  1.00  0.00    -0.269 OA
BRANCH  29  32
ATOM     32  C   UNL A   1      36.394  31.242  30.497  1.00  0.00     0.039 A 
ATOM     33  C   UNL A   1      36.374  29.844  30.503  1.00  0.00     0.014 A 
ATOM     34  C   UNL A   1      37.595  31.937  30.518  1.00  0.00     0.014 A 
ATOM     35  C   UNL A   1      37.592  29.161  30.478  1.00  0.00     0.010 A 
ATOM     36  C   UNL A   1      38.753  31.282  30.238  1.00  0.00     0.010 A 
ATOM     37  C   UNL A   1      38.775  29.900  30.344  1.00  0.00    -0.014 A 
BRANCH  37  38
ATOM     38  C   UNL A   1      40.092  29.296  30.222  1.00  0.00     0.031 A 
ATOM     39  C   UNL A   1      40.783  29.102  31.521  1.00  0.00     0.074 A 
ATOM     40  C   UNL A   1      40.467  28.670  29.083  1.00  0.00     0.049 A 
ATOM     41  N   UNL A   1      41.814  29.735  31.971  1.00  0.00    -0.248 NA
ATOM     42  C   UNL A   1      40.140  28.231  32.521  1.00  0.00     0.031 C 
ATOM     43  C   UNL A   1      39.689  28.474  27.850  1.00  0.00     0.029 A 
ATOM     44  N   UNL A   1      41.595  27.956  28.829  1.00  0.00    -0.354 N 
ATOM     45  C   UNL A   1      42.099  29.151  33.203  1.00  0.00     0.074 A 
ATOM     46  C   UNL A   1      40.906  28.453  33.590  1.00  0.00     0.031 C 
ATOM     47  C   UNL A   1      40.266  27.517  27.090  1.00  0.00     0.029 A 
ATOM     48  C   UNL A   1      41.533  27.150  27.692  1.00  0.00     0.049 A 
ATOM     49  H   UNL A   1      42.394  28.004  29.402  1.00  0.00     0.167 HD
ATOM     50  C   UNL A   1      43.388  29.026  33.631  1.00  0.00     0.037 A 
ATOM     51  C   UNL A   1      42.455  26.226  27.319  1.00  0.00     0.037 A 
ATOM     52  C   UNL A   1      44.264  29.860  32.834  1.00  0.00     0.049 A 
ATOM     53  C   UNL A   1      43.703  26.536  28.065  1.00  0.00     0.074 A 
ATOM     54  C   UNL A   1      44.326  31.208  32.534  1.00  0.00     0.029 A 
ATOM     55  N   UNL A   1      45.026  29.234  31.876  1.00  0.00    -0.354 N 
ATOM     56  N   UNL A   1      44.414  27.612  27.866  1.00  0.00    -0.248 NA
ATOM     57  C   UNL A   1      43.869  25.908  29.368  1.00  0.00     0.031 C 
ATOM     58  C   UNL A   1      44.691  31.261  31.155  1.00  0.00     0.029 A 
ATOM     59  C   UNL A   1      44.918  29.957  30.718  1.00  0.00     0.049 A 
ATOM     60  H   UNL A   1      45.555  28.414  32.000  1.00  0.00     0.167 HD
ATOM     61  C   UNL A   1      44.768  28.041  29.137  1.00  0.00     0.074 A 
ATOM     62  C   UNL A   1      44.459  26.915  30.019  1.00  0.00     0.031 C 
ATOM     63  C   UNL A   1      44.983  29.365  29.401  1.00  0.00     0.037 A 
BRANCH  50  64
ATOM     64  C   UNL A   1      43.932  27.851  34.427  1.00  0.00     0.057 A 
ATOM     65  C   UNL A   1      44.649  28.128  35.609  1.00  0.00     0.134 A 
ATOM     66  C   UNL A   1      44.066  26.529  33.958  1.00  0.00     0.134 A 
ATOM     67  F   UNL A   1      44.583  29.335  36.191  1.00  0.00    -0.206 F 
ATOM     68  C   UNL A   1      45.541  27.215  36.184  1.00  0.00     0.040 A 
ATOM     69  C   UNL A   1      44.918  25.593  34.553  1.00  0.00     0.040 A 
ATOM     70  F   UNL A   1      43.460  26.074  32.858  1.00  0.00    -0.206 F 
ATOM     71  C   UNL A   1      45.695  25.948  35.641  1.00  0.00     0.006 A 
ENDBRANCH  50  64
BRANCH  51  72
ATOM     72  C   UNL A   1      42.259  24.928  26.627  1.00  0.00     0.057 A 
ATOM     73  C   UNL A   1      43.021  24.581  25.501  1.00  0.00     0.134 A 
ATOM     74  C   UNL A   1      41.531  23.882  27.220  1.00  0.00     0.134 A 
ATOM     75  F   UNL A   1      43.781  25.500  24.886  1.00  0.00    -0.206 F 
ATOM     76  C   UNL A   1      43.080  23.268  25.012  1.00  0.00     0.040 A 
ATOM     77  C   UNL A   1      41.580  22.567  26.741  1.00  0.00     0.040 A 
ATOM     78  F   UNL A   1      40.823  24.082  28.340  1.00  0.00    -0.206 F 
ATOM     79  C   UNL A   1      42.368  22.253  25.642  1.00  0.00     0.006 A 
ENDBRANCH  51  72
BRANCH  63  80
ATOM     80  C   UNL A   1      45.065  30.318  28.240  1.00  0.00     0.057 A 
ATOM     81  C   UNL A   1      43.978  31.047  27.733  1.00  0.00     0.134 A 
ATOM     82  C   UNL A   1      46.327  30.634  27.730  1.00  0.00     0.134 A 
ATOM     83  F   UNL A   1      42.744  30.885  28.224  1.00  0.00    -0.206 F 
ATOM     84  C   UNL A   1      44.139  32.021  26.742  1.00  0.00     0.040 A 
ATOM     85  C   UNL A   1      46.507  31.626  26.764  1.00  0.00     0.040 A 
ATOM     86  F   UNL A   1      47.421  30.017  28.205  1.00  0.00    -0.206 F 
ATOM     87  C   UNL A   1      45.409  32.318  26.259  1.00  0.00     0.006 A 
ENDBRANCH  63  80
ENDBRANCH  37  38
ENDBRANCH  29  32
ENDBRANCH  27  28
ENDBRANCH  26  27
ENDBRANCH   1  26
TORSDOF 14
ENDMDL
MODEL 2
REMARK VINA RESULT:     -11.8      3.289      7.550
REMARK SMILES O=C(Cc1ccn[nH]1)Nc1sc2c(c1C(=O)NCCCCNC(=O)c1ccc(-c3c4nc(c(-c5c(F)cccc5F)c5ccc([nH]5)c(-c5c(F)cccc5F)c5nc(c(-c6c(F)cccc6F)c6ccc3[nH]6)C=C5)C=C4)cc1)CCC2
REMARK SMILES IDX 19 1 18 2 17 3 15 4 16 5 14 7 10 8 11 9 12 10 13 11 81 12
REMARK SMILES IDX 79 13 80 14 9 15 1 16 2 17 3 19 4 20 5 21 8 22 6 23 7 24
REMARK SMILES IDX 20 26 21 27 22 28 23 29 24 31 25 32 26 33 78 34 27 35 77 36
REMARK SMILES IDX 28 37 29 38 30 39 71 40 31 41 76 42 70 43 72 44 32 45 75 46
REMARK SMILES IDX 69 47 68 48 33 50 59 51 42 52 58 53 43 54 46 55 57 56 73 57
REMARK SMILES IDX 44 58 45 59 56 61 74 62 47 63 34 64 35 65 40 66 36 67 37 68
REMARK SMILES IDX 39 69 41 70 38 71 60 72 61 73 66 74 62 75 63 76 65 77 67 78
REMARK SMILES IDX 64 79 48 80 49 81 54 82 50 83 51 84 53 85 55 86 52 87
REMARK H PARENT 17 6 9 18 8 25 22 30 72 49 46 60
REMARK Flexibility Score: inf
ROOT
ATOM      1  C   UNL A   1      39.092  22.013  26.191  1.00  0.00     0.023 C 
ENDROOT
BRANCH   1   2
ATOM      2  C   UNL A   1      37.760  22.681  25.859  1.00  0.00     0.116 C 
BRANCH   2   3
ATOM      3  N   UNL A   1      37.516  22.782  24.448  1.00  0.00    -0.352 N 
ATOM      4  C   UNL A   1      36.382  22.832  23.684  1.00  0.00     0.254 C 
ATOM      5  O   UNL A   1      36.593  23.298  22.556  1.00  0.00    -0.269 OA
ATOM      6  H   UNL A   1      38.343  22.824  23.914  1.00  0.00     0.163 HD
BRANCH   4   7
ATOM      7  C   UNL A   1      35.016  22.471  24.126  1.00  0.00     0.078 A 
ATOM      8  C   UNL A   1      34.053  23.484  24.249  1.00  0.00     0.108 A 
ATOM      9  S   UNL A   1      32.636  23.056  25.094  1.00  0.00    -0.122 S 
ATOM     10  C   UNL A   1      33.113  21.463  25.061  1.00  0.00     0.011 A 
ATOM     11  C   UNL A   1      34.374  21.247  24.554  1.00  0.00    -0.019 A 
ATOM     12  C   UNL A   1      32.400  20.258  25.547  1.00  0.00     0.047 C 
ATOM     13  C   UNL A   1      34.673  19.789  24.675  1.00  0.00     0.038 C 
ATOM     14  C   UNL A   1      33.290  19.138  24.962  1.00  0.00     0.010 C 
BRANCH   8  15
ATOM     15  N   UNL A   1      34.019  24.800  23.848  1.00  0.00    -0.317 N 
ATOM     16  O   UNL A   1      33.199  24.380  21.712  1.00  0.00    -0.274 OA
ATOM     17  C   UNL A   1      33.647  25.151  22.557  1.00  0.00     0.230 C 
ATOM     18  H   UNL A   1      34.266  25.506  24.489  1.00  0.00     0.170 HD
BRANCH  17  19
ATOM     19  C   UNL A   1      33.759  26.646  22.304  1.00  0.00     0.155 C 
BRANCH  19  20
ATOM     20  C   UNL A   1      32.452  27.356  22.478  1.00  0.00     0.044 A 
ATOM     21  C   UNL A   1      32.180  28.667  22.812  1.00  0.00     0.045 A 
ATOM     22  N   UNL A   1      31.224  26.761  22.344  1.00  0.00    -0.282 N 
ATOM     23  C   UNL A   1      30.779  28.739  22.902  1.00  0.00     0.135 A 
ATOM     24  N   UNL A   1      30.196  27.568  22.642  1.00  0.00    -0.184 NA
ATOM     25  H   UNL A   1      31.107  25.827  22.055  1.00  0.00     0.190 HD
ENDBRANCH  19  20
ENDBRANCH  17  19
ENDBRANCH   8  15
ENDBRANCH   4   7
ENDBRANCH   2   3
ENDBRANCH   1   2
BRANCH   1  26
ATOM     26  C   UNL A   1      39.360  20.678  25.479  1.00  0.00     0.023 C 
BRANCH  26  27
ATOM     27  C   UNL A   1      39.826  19.536  26.381  1.00  0.00     0.116 C 
BRANCH  27  28
ATOM     28  N   UNL A   1      41.116  18.959  25.978  1.00  0.00    -0.352 N 
ATOM     29  C   UNL A   1      42.301  19.618  25.673  1.00  0.00     0.251 C 
ATOM     30  H   UNL A   1      41.144  17.977  25.917  1.00  0.00     0.163 HD
ATOM     31  O   UNL A   1      43.161  19.099  24.982  1.00  0.00    -0.269 OA
BRANCH  29  32
ATOM     32  C   UNL A   1      42.519  20.950  26.259  1.00  0.00     0.039 A 
ATOM     33  C   UNL A   1      42.832  22.087  25.506  1.00  0.00     0.014 A 
ATOM     34  C   UNL A   1      42.355  21.031  27.634  1.00  0.00     0.014 A 
ATOM     35  C   UNL A   1      42.922  23.315  26.163  1.00  0.00     0.010 A 
ATOM     36  C   UNL A   1      42.193  22.248  28.219  1.00  0.00     0.010 A 
ATOM     37  C   UNL A   1      42.598  23.377  27.525  1.00  0.00    -0.014 A 
BRANCH  37  38
ATOM     38  C   UNL A   1      42.575  24.611  28.292  1.00  0.00     0.031 A 
ATOM     39  C   UNL A   1      41.315  25.380  28.149  1.00  0.00     0.074 A 
ATOM     40  C   UNL A   1      43.466  24.827  29.287  1.00  0.00     0.049 A 
ATOM     41  N   UNL A   1      41.139  26.504  27.538  1.00  0.00    -0.248 NA
ATOM     42  C   UNL A   1      40.060  24.735  28.573  1.00  0.00     0.031 C 
ATOM     43  C   UNL A   1      44.534  23.936  29.766  1.00  0.00     0.029 A 
ATOM     44  N   UNL A   1      43.524  25.852  30.178  1.00  0.00    -0.354 N 
ATOM     45  C   UNL A   1      39.798  26.827  27.732  1.00  0.00     0.074 A 
ATOM     46  C   UNL A   1      39.154  25.604  28.120  1.00  0.00     0.031 C 
ATOM     47  C   UNL A   1      44.968  24.349  30.978  1.00  0.00     0.029 A 
ATOM     48  C   UNL A   1      44.336  25.616  31.288  1.00  0.00     0.049 A 
ATOM     49  H   UNL A   1      43.033  26.695  30.050  1.00  0.00     0.167 HD
ATOM     50  C   UNL A   1      39.409  28.126  27.872  1.00  0.00     0.037 A 
ATOM     51  C   UNL A   1      44.430  26.406  32.388  1.00  0.00     0.037 A 
ATOM     52  C   UNL A   1      40.470  29.016  27.447  1.00  0.00     0.049 A 
ATOM     53  C   UNL A   1      43.879  27.735  32.013  1.00  0.00     0.074 A 
ATOM     54  C   UNL A   1      41.192  29.191  26.282  1.00  0.00     0.029 A 
ATOM     55  N   UNL A   1      41.207  29.630  28.432  1.00  0.00    -0.354 N 
ATOM     56  N   UNL A   1      44.446  28.534  31.151  1.00  0.00    -0.248 NA
ATOM     57  C   UNL A   1      42.452  27.941  32.213  1.00  0.00     0.031 C 
ATOM     58  C   UNL A   1      42.529  29.447  26.712  1.00  0.00     0.029 A 
ATOM     59  C   UNL A   1      42.531  29.503  28.105  1.00  0.00     0.049 A 
ATOM     60  H   UNL A   1      40.847  30.081  29.230  1.00  0.00     0.167 HD
ATOM     61  C   UNL A   1      43.398  29.032  30.389  1.00  0.00     0.074 A 
ATOM     62  C   UNL A   1      42.187  28.681  31.132  1.00  0.00     0.031 C 
ATOM     63  C   UNL A   1      43.586  29.401  29.087  1.00  0.00     0.037 A 
BRANCH  50  64
ATOM     64  C   UNL A   1      38.300  28.610  28.792  1.00  0.00     0.057 A 
ATOM     65  C   UNL A   1      37.411  29.587  28.301  1.00  0.00     0.134 A 
ATOM     66  C   UNL A   1      38.244  28.418  30.188  1.00  0.00     0.134 A 
ATOM     67  F   UNL A   1      37.328  29.847  26.987  1.00  0.00    -0.206 F 
ATOM     68  C   UNL A   1      36.648  30.407  29.140  1.00  0.00     0.040 A 
ATOM     69  C   UNL A   1      37.450  29.200  31.032  1.00  0.00     0.040 A 
ATOM     70  F   UNL A   1      39.005  27.534  30.839  1.00  0.00    -0.206 F 
ATOM     71  C   UNL A   1      36.684  30.229  30.515  1.00  0.00     0.006 A 
ENDBRANCH  50  64
BRANCH  51  72
ATOM     72  C   UNL A   1      44.655  26.023  33.804  1.00  0.00     0.057 A 
ATOM     73  C   UNL A   1      43.612  25.523  34.597  1.00  0.00     0.134 A 
ATOM     74  C   UNL A   1      45.952  25.864  34.324  1.00  0.00     0.134 A 
ATOM     75  F   UNL A   1      42.341  25.593  34.171  1.00  0.00    -0.206 F 
ATOM     76  C   UNL A   1      43.843  24.876  35.820  1.00  0.00     0.040 A 
ATOM     77  C   UNL A   1      46.197  25.222  35.544  1.00  0.00     0.040 A 
ATOM     78  F   UNL A   1      47.029  26.241  33.622  1.00  0.00    -0.206 F 
ATOM     79  C   UNL A   1      45.143  24.712  36.290  1.00  0.00     0.006 A 
ENDBRANCH  51  72
BRANCH  63  80
ATOM     80  C   UNL A   1      44.996  29.486  28.567  1.00  0.00     0.057 A 
ATOM     81  C   UNL A   1      45.672  28.434  27.930  1.00  0.00     0.134 A 
ATOM     82  C   UNL A   1      45.626  30.733  28.563  1.00  0.00     0.134 A 
ATOM     83  F   UNL A   1      45.111  27.227  27.799  1.00  0.00    -0.206 F 
ATOM     84  C   UNL A   1      46.930  28.611  27.345  1.00  0.00     0.040 A 
ATOM     85  C   UNL A   1      46.867  30.932  27.954  1.00  0.00     0.040 A 
ATOM     86  F   UNL A   1      45.017  31.799  29.105  1.00  0.00    -0.206 F 
ATOM     87  C   UNL A   1      47.529  29.866  27.350  1.00  0.00     0.006 A 
ENDBRANCH  63  80
ENDBRANCH  37  38
ENDBRANCH  29  32
ENDBRANCH  27  28
ENDBRANCH  26  27
ENDBRANCH   1  26
TORSDOF 14
ENDMDL
MODEL 3
REMARK VINA RESULT:     -11.8      3.504      7.879
REMARK SMILES O=C(Cc1ccn[nH]1)Nc1sc2c(c1C(=O)NCCCCNC(=O)c1ccc(-c3c4nc(c(-c5c(F)cccc5F)c5ccc([nH]5)c(-c5c(F)cccc5F)c5nc(c(-c6c(F)cccc6F)c6ccc3[nH]6)C=C5)C=C4)cc1)CCC2
REMARK SMILES IDX 19 1 18 2 17 3 15 4 16 5 14 7 10 8 11 9 12 10 13 11 81 12
REMARK SMILES IDX 79 13 80 14 9 15 1 16 2 17 3 19 4 20 5 21 8 22 6 23 7 24
REMARK SMILES IDX 20 26 21 27 22 28 23 29 24 31 25 32 26 33 78 34 27 35 77 36
REMARK SMILES IDX 28 37 29 38 30 39 71 40 31 41 76 42 70 43 72 44 32 45 75 46
REMARK SMILES IDX 69 47 68 48 33 50 59 51 42 52 58 53 43 54 46 55 57 56 73 57
REMARK SMILES IDX 44 58 45 59 56 61 74 62 47 63 34 64 35 65 40 66 36 67 37 68
REMARK SMILES IDX 39 69 41 70 38 71 60 72 61 73 66 74 62 75 63 76 65 77 67 78
REMARK SMILES IDX 64 79 48 80 49 81 54 82 50 83 51 84 53 85 55 86 52 87
REMARK H PARENT 17 6 9 18 8 25 22 30 72 49 46 60
REMARK Flexibility Score: inf
ROOT
ATOM      1  C   UNL A   1      38.368  22.773  26.068  1.00  0.00     0.023 C 
ENDROOT
BRANCH   1   2
ATOM      2  C   UNL A   1      37.201  23.711  25.771  1.00  0.00     0.116 C 
BRANCH   2   3
ATOM      3  N   UNL A   1      35.943  23.220  26.259  1.00  0.00    -0.352 N 
ATOM      4  C   UNL A   1      34.641  23.419  25.890  1.00  0.00     0.254 C 
ATOM      5  O   UNL A   1      33.890  22.529  26.312  1.00  0.00    -0.269 OA
ATOM      6  H   UNL A   1      36.038  22.609  27.026  1.00  0.00     0.163 HD
BRANCH   4   7
ATOM      7  C   UNL A   1      34.138  24.502  25.014  1.00  0.00     0.078 A 
ATOM      8  C   UNL A   1      33.709  24.181  23.717  1.00  0.00     0.108 A 
ATOM      9  S   UNL A   1      33.491  25.504  22.665  1.00  0.00    -0.122 S 
ATOM     10  C   UNL A   1      33.660  26.541  23.954  1.00  0.00     0.011 A 
ATOM     11  C   UNL A   1      34.013  25.938  25.140  1.00  0.00    -0.019 A 
ATOM     12  C   UNL A   1      33.540  28.018  23.995  1.00  0.00     0.047 C 
ATOM     13  C   UNL A   1      34.205  27.010  26.160  1.00  0.00     0.038 C 
ATOM     14  C   UNL A   1      33.551  28.268  25.520  1.00  0.00     0.010 C 
BRANCH   8  15
ATOM     15  N   UNL A   1      33.450  22.988  23.083  1.00  0.00    -0.317 N 
ATOM     16  O   UNL A   1      31.224  22.843  23.745  1.00  0.00    -0.274 OA
ATOM     17  C   UNL A   1      32.216  22.362  23.201  1.00  0.00     0.230 C 
ATOM     18  H   UNL A   1      34.154  22.569  22.536  1.00  0.00     0.170 HD
BRANCH  17  19
ATOM     19  C   UNL A   1      32.172  21.019  22.490  1.00  0.00     0.155 C 
BRANCH  19  20
ATOM     20  C   UNL A   1      32.328  19.866  23.433  1.00  0.00     0.044 A 
ATOM     21  C   UNL A   1      32.400  18.510  23.188  1.00  0.00     0.045 A 
ATOM     22  N   UNL A   1      32.406  19.986  24.797  1.00  0.00    -0.282 N 
ATOM     23  C   UNL A   1      32.467  17.912  24.459  1.00  0.00     0.135 A 
ATOM     24  N   UNL A   1      32.444  18.813  25.442  1.00  0.00    -0.184 NA
ATOM     25  H   UNL A   1      32.432  20.855  25.260  1.00  0.00     0.190 HD
ENDBRANCH  19  20
ENDBRANCH  17  19
ENDBRANCH   8  15
ENDBRANCH   4   7
ENDBRANCH   2   3
ENDBRANCH   1   2
BRANCH   1  26
ATOM     26  C   UNL A   1      38.032  21.274  26.060  1.00  0.00     0.023 C 
BRANCH  26  27
ATOM     27  C   UNL A   1      38.734  20.450  24.983  1.00  0.00     0.116 C 
BRANCH  27  28
ATOM     28  N   UNL A   1      39.555  19.356  25.520  1.00  0.00    -0.352 N 
ATOM     29  C   UNL A   1      40.864  19.405  25.983  1.00  0.00     0.251 C 
ATOM     30  H   UNL A   1      39.120  18.474  25.558  1.00  0.00     0.163 HD
ATOM     31  O   UNL A   1      41.565  18.407  26.023  1.00  0.00    -0.269 OA
BRANCH  29  32
ATOM     32  C   UNL A   1      41.371  20.693  26.483  1.00  0.00     0.039 A 
ATOM     33  C   UNL A   1      42.001  21.644  25.675  1.00  0.00     0.014 A 
ATOM     34  C   UNL A   1      41.149  20.938  27.830  1.00  0.00     0.014 A 
ATOM     35  C   UNL A   1      42.355  22.870  26.243  1.00  0.00     0.010 A 
ATOM     36  C   UNL A   1      41.260  22.206  28.308  1.00  0.00     0.010 A 
ATOM     37  C   UNL A   1      41.975  23.134  27.566  1.00  0.00    -0.014 A 
BRANCH  37  38
ATOM     38  C   UNL A   1      42.213  24.402  28.234  1.00  0.00     0.031 A 
ATOM     39  C   UNL A   1      41.096  25.368  28.100  1.00  0.00     0.074 A 
ATOM     40  C   UNL A   1      43.193  24.527  29.159  1.00  0.00     0.049 A 
ATOM     41  N   UNL A   1      41.073  26.462  27.413  1.00  0.00    -0.248 NA
ATOM     42  C   UNL A   1      39.780  24.982  28.641  1.00  0.00     0.031 C 
ATOM     43  C   UNL A   1      44.124  23.497  29.648  1.00  0.00     0.029 A 
ATOM     44  N   UNL A   1      43.484  25.584  29.962  1.00  0.00    -0.354 N 
ATOM     45  C   UNL A   1      39.822  27.025  27.654  1.00  0.00     0.074 A 
ATOM     46  C   UNL A   1      39.007  25.962  28.172  1.00  0.00     0.031 C 
ATOM     47  C   UNL A   1      44.702  23.911  30.798  1.00  0.00     0.029 A 
ATOM     48  C   UNL A   1      44.316  25.286  31.041  1.00  0.00     0.049 A 
ATOM     49  H   UNL A   1      43.135  26.489  29.795  1.00  0.00     0.167 HD
ATOM     50  C   UNL A   1      39.670  28.379  27.713  1.00  0.00     0.037 A 
ATOM     51  C   UNL A   1      44.617  26.121  32.070  1.00  0.00     0.037 A 
ATOM     52  C   UNL A   1      40.835  29.039  27.162  1.00  0.00     0.049 A 
ATOM     53  C   UNL A   1      44.276  27.497  31.622  1.00  0.00     0.074 A 
ATOM     54  C   UNL A   1      41.497  29.006  25.949  1.00  0.00     0.029 A 
ATOM     55  N   UNL A   1      41.730  29.581  28.055  1.00  0.00    -0.354 N 
ATOM     56  N   UNL A   1      44.912  28.124  30.670  1.00  0.00    -0.248 NA
ATOM     57  C   UNL A   1      42.921  27.961  31.883  1.00  0.00     0.031 C 
ATOM     58  C   UNL A   1      42.884  29.054  26.285  1.00  0.00     0.029 A 
ATOM     59  C   UNL A   1      42.988  29.204  27.667  1.00  0.00     0.049 A 
ATOM     60  H   UNL A   1      41.507  30.140  28.833  1.00  0.00     0.167 HD
ATOM     61  C   UNL A   1      43.915  28.744  29.930  1.00  0.00     0.074 A 
ATOM     62  C   UNL A   1      42.714  28.660  30.763  1.00  0.00     0.031 C 
ATOM     63  C   UNL A   1      44.074  28.985  28.594  1.00  0.00     0.037 A 
BRANCH  50  64
ATOM     64  C   UNL A   1      38.723  29.109  28.652  1.00  0.00     0.057 A 
ATOM     65  C   UNL A   1      38.816  28.834  30.031  1.00  0.00     0.134 A 
ATOM     66  C   UNL A   1      37.555  29.801  28.271  1.00  0.00     0.134 A 
ATOM     67  F   UNL A   1      39.891  28.216  30.542  1.00  0.00    -0.206 F 
ATOM     68  C   UNL A   1      37.768  29.087  30.925  1.00  0.00     0.040 A 
ATOM     69  C   UNL A   1      36.523  30.102  29.165  1.00  0.00     0.040 A 
ATOM     70  F   UNL A   1      37.289  30.156  27.011  1.00  0.00    -0.206 F 
ATOM     71  C   UNL A   1      36.606  29.703  30.487  1.00  0.00     0.006 A 
ENDBRANCH  50  64
BRANCH  51  72
ATOM     72  C   UNL A   1      44.869  25.801  33.496  1.00  0.00     0.057 A 
ATOM     73  C   UNL A   1      43.812  25.536  34.380  1.00  0.00     0.134 A 
ATOM     74  C   UNL A   1      46.153  25.463  33.958  1.00  0.00     0.134 A 
ATOM     75  F   UNL A   1      42.544  25.787  34.018  1.00  0.00    -0.206 F 
ATOM     76  C   UNL A   1      44.015  24.942  35.634  1.00  0.00     0.040 A 
ATOM     77  C   UNL A   1      46.370  24.872  35.209  1.00  0.00     0.040 A 
ATOM     78  F   UNL A   1      47.230  25.609  33.173  1.00  0.00    -0.206 F 
ATOM     79  C   UNL A   1      45.297  24.596  36.047  1.00  0.00     0.006 A 
ENDBRANCH  51  72
BRANCH  63  80
ATOM     80  C   UNL A   1      45.440  28.788  27.994  1.00  0.00     0.057 A 
ATOM     81  C   UNL A   1      46.484  29.722  28.072  1.00  0.00     0.134 A 
ATOM     82  C   UNL A   1      45.756  27.533  27.465  1.00  0.00     0.134 A 
ATOM     83  F   UNL A   1      46.305  30.916  28.647  1.00  0.00    -0.206 F 
ATOM     84  C   UNL A   1      47.773  29.430  27.615  1.00  0.00     0.040 A 
ATOM     85  C   UNL A   1      47.046  27.217  27.035  1.00  0.00     0.040 A 
ATOM     86  F   UNL A   1      44.823  26.570  27.409  1.00  0.00    -0.206 F 
ATOM     87  C   UNL A   1      48.059  28.169  27.101  1.00  0.00     0.006 A 
ENDBRANCH  63  80
ENDBRANCH  37  38
ENDBRANCH  29  32
ENDBRANCH  27  28
ENDBRANCH  26  27
ENDBRANCH   1  26
TORSDOF 14
ENDMDL
