MODEL 1
REMARK VINA RESULT:     -12.9      0.000      0.000
REMARK SMILES CC(=O)Nc1ccc(/C=N/c2ccccc2C(=O)NCCCCNC(=O)c2ccc(-c3c4nc(c(-c5c(F)cccc5F)c5ccc([nH]5)c(-c5c(F)cccc5F)c5nc(c(-c6c(F)cccc6F)c6ccc3[nH]6)C=C5)C=C4)cc2)cc1
REMARK SMILES IDX 21 1 20 2 19 3 17 4 18 5 16 7 11 8 12 9 13 10 15 11 14 12
REMARK SMILES IDX 10 13 9 14 8 15 5 16 6 17 82 18 7 19 81 20 4 21 1 22 2 23
REMARK SMILES IDX 3 24 22 26 23 27 24 28 25 29 26 31 27 32 28 33 80 34 29 35
REMARK SMILES IDX 79 36 30 37 31 38 32 39 73 40 33 41 78 42 72 43 74 44 34 45
REMARK SMILES IDX 77 46 71 47 70 48 35 50 61 51 44 52 60 53 45 54 48 55 59 56
REMARK SMILES IDX 75 57 46 58 47 59 58 61 76 62 49 63 36 64 37 65 42 66 38 67
REMARK SMILES IDX 39 68 41 69 43 70 40 71 62 72 63 73 68 74 64 75 65 76 67 77
REMARK SMILES IDX 69 78 66 79 50 80 51 81 56 82 52 83 53 84 55 85 57 86 54 87
REMARK H PARENT 19 6 4 25 24 30 74 49 48 60
REMARK Flexibility Score: inf
ROOT
ATOM      1  C   UNL A   1      33.302  29.080  24.834  1.00  0.00     0.023 C 
ENDROOT
BRANCH   1   2
ATOM      2  C   UNL A   1      33.575  27.663  25.319  1.00  0.00     0.116 C 
BRANCH   2   3
ATOM      3  N   UNL A   1      33.913  26.710  24.285  1.00  0.00    -0.352 N 
ATOM      4  C   UNL A   1      33.349  25.487  24.005  1.00  0.00     0.253 C 
ATOM      5  O   UNL A   1      33.738  24.904  22.989  1.00  0.00    -0.269 OA
ATOM      6  H   UNL A   1      34.655  26.976  23.695  1.00  0.00     0.163 HD
BRANCH   4   7
ATOM      7  C   UNL A   1      32.372  24.788  24.889  1.00  0.00     0.065 A 
ATOM      8  C   UNL A   1      31.072  25.221  25.225  1.00  0.00     0.076 A 
ATOM      9  C   UNL A   1      30.303  24.430  26.096  1.00  0.00     0.029 A 
ATOM     10  C   UNL A   1      30.772  23.214  26.593  1.00  0.00     0.002 A 
ATOM     11  C   UNL A   1      32.822  23.539  25.376  1.00  0.00     0.016 A 
ATOM     12  C   UNL A   1      32.031  22.761  26.222  1.00  0.00     0.001 A 
BRANCH   8  13
ATOM     13  N   UNL A   1      30.489  26.439  24.841  1.00  0.00    -0.255 NA
ATOM     14  C   UNL A   1      30.022  26.558  23.641  1.00  0.00     0.119 C 
BRANCH  14  15
ATOM     15  C   UNL A   1      29.541  27.874  23.168  1.00  0.00    -0.007 A 
ATOM     16  C   UNL A   1      28.493  30.218  22.017  1.00  0.00     0.041 A 
ATOM     17  C   UNL A   1      29.848  29.884  21.864  1.00  0.00     0.027 A 
ATOM     18  C   UNL A   1      27.676  29.358  22.752  1.00  0.00     0.027 A 
ATOM     19  C   UNL A   1      30.373  28.721  22.434  1.00  0.00     0.012 A 
ATOM     20  C   UNL A   1      28.195  28.193  23.332  1.00  0.00     0.012 A 
BRANCH  16  21
ATOM     21  N   UNL A   1      28.050  31.359  21.322  1.00  0.00    -0.326 N 
ATOM     22  C   UNL A   1      28.786  33.243  22.782  1.00  0.00     0.114 C 
ATOM     23  C   UNL A   1      28.045  32.693  21.600  1.00  0.00     0.221 C 
ATOM     24  O   UNL A   1      27.431  33.457  20.850  1.00  0.00    -0.275 OA
ATOM     25  H   UNL A   1      27.660  31.147  20.443  1.00  0.00     0.169 HD
ENDBRANCH  16  21
ENDBRANCH  14  15
ENDBRANCH   8  13
ENDBRANCH   4   7
ENDBRANCH   2   3
ENDBRANCH   1   2
BRANCH   1  26
ATOM     26  C   UNL A   1      32.059  29.769  25.399  1.00  0.00     0.023 C 
BRANCH  26  27
ATOM     27  C   UNL A   1      32.091  30.159  26.877  1.00  0.00     0.116 C 
BRANCH  27  28
ATOM     28  N   UNL A   1      32.234  31.587  27.108  1.00  0.00    -0.352 N 
ATOM     29  C   UNL A   1      33.300  32.321  27.576  1.00  0.00     0.251 C 
ATOM     30  H   UNL A   1      31.435  32.119  26.892  1.00  0.00     0.163 HD
ATOM     31  O   UNL A   1      33.149  33.524  27.779  1.00  0.00    -0.269 OA
BRANCH  29  32
ATOM     32  C   UNL A   1      34.615  31.690  27.861  1.00  0.00     0.039 A 
ATOM     33  C   UNL A   1      35.729  32.527  28.001  1.00  0.00     0.014 A 
ATOM     34  C   UNL A   1      34.776  30.308  27.992  1.00  0.00     0.014 A 
ATOM     35  C   UNL A   1      36.948  32.002  28.428  1.00  0.00     0.010 A 
ATOM     36  C   UNL A   1      35.966  29.791  28.497  1.00  0.00     0.010 A 
ATOM     37  C   UNL A   1      37.039  30.645  28.775  1.00  0.00    -0.014 A 
BRANCH  37  38
ATOM     38  C   UNL A   1      38.158  30.163  29.619  1.00  0.00     0.031 A 
ATOM     39  C   UNL A   1      38.343  30.628  31.028  1.00  0.00     0.074 A 
ATOM     40  C   UNL A   1      39.074  29.366  29.034  1.00  0.00     0.049 A 
ATOM     41  N   UNL A   1      39.275  30.301  31.886  1.00  0.00    -0.248 NA
ATOM     42  C   UNL A   1      37.376  31.613  31.532  1.00  0.00     0.031 C 
ATOM     43  C   UNL A   1      39.035  28.929  27.634  1.00  0.00     0.029 A 
ATOM     44  N   UNL A   1      40.211  28.783  29.528  1.00  0.00    -0.354 N 
ATOM     45  C   UNL A   1      39.007  31.032  33.035  1.00  0.00     0.074 A 
ATOM     46  C   UNL A   1      37.864  31.872  32.738  1.00  0.00     0.031 C 
ATOM     47  C   UNL A   1      40.063  28.102  27.401  1.00  0.00     0.029 A 
ATOM     48  C   UNL A   1      40.857  27.985  28.615  1.00  0.00     0.049 A 
ATOM     49  H   UNL A   1      40.534  28.922  30.448  1.00  0.00     0.167 HD
ATOM     50  C   UNL A   1      39.646  30.988  34.229  1.00  0.00     0.037 A 
ATOM     51  C   UNL A   1      41.964  27.231  28.745  1.00  0.00     0.037 A 
ATOM     52  C   UNL A   1      40.796  30.158  34.492  1.00  0.00     0.049 A 
ATOM     53  C   UNL A   1      42.660  27.206  30.073  1.00  0.00     0.074 A 
ATOM     54  C   UNL A   1      41.494  29.993  35.676  1.00  0.00     0.029 A 
ATOM     55  N   UNL A   1      41.426  29.359  33.545  1.00  0.00    -0.354 N 
ATOM     56  N   UNL A   1      42.341  27.829  31.183  1.00  0.00    -0.248 NA
ATOM     57  C   UNL A   1      43.862  26.372  30.169  1.00  0.00     0.031 C 
ATOM     58  C   UNL A   1      42.577  29.140  35.431  1.00  0.00     0.029 A 
ATOM     59  C   UNL A   1      42.523  28.725  34.108  1.00  0.00     0.049 A 
ATOM     60  H   UNL A   1      41.137  29.260  32.610  1.00  0.00     0.167 HD
ATOM     61  C   UNL A   1      43.289  27.443  32.118  1.00  0.00     0.074 A 
ATOM     62  C   UNL A   1      44.183  26.520  31.447  1.00  0.00     0.031 C 
ATOM     63  C   UNL A   1      43.405  27.815  33.418  1.00  0.00     0.037 A 
BRANCH  50  64
ATOM     64  C   UNL A   1      39.113  31.870  35.325  1.00  0.00     0.057 A 
ATOM     65  C   UNL A   1      39.458  33.228  35.415  1.00  0.00     0.134 A 
ATOM     66  C   UNL A   1      38.253  31.363  36.308  1.00  0.00     0.134 A 
ATOM     67  F   UNL A   1      40.281  33.781  34.511  1.00  0.00    -0.206 F 
ATOM     68  C   UNL A   1      39.010  34.032  36.466  1.00  0.00     0.040 A 
ATOM     69  C   UNL A   1      37.773  32.166  37.346  1.00  0.00     0.040 A 
ATOM     70  F   UNL A   1      37.870  30.079  36.283  1.00  0.00    -0.206 F 
ATOM     71  C   UNL A   1      38.162  33.501  37.435  1.00  0.00     0.006 A 
ENDBRANCH  50  64
BRANCH  51  72
ATOM     72  C   UNL A   1      42.424  26.395  27.610  1.00  0.00     0.057 A 
ATOM     73  C   UNL A   1      41.972  25.077  27.466  1.00  0.00     0.134 A 
ATOM     74  C   UNL A   1      43.279  26.893  26.621  1.00  0.00     0.134 A 
ATOM     75  F   UNL A   1      41.156  24.540  28.385  1.00  0.00    -0.206 F 
ATOM     76  C   UNL A   1      42.362  24.283  26.387  1.00  0.00     0.040 A 
ATOM     77  C   UNL A   1      43.658  26.118  25.523  1.00  0.00     0.040 A 
ATOM     78  F   UNL A   1      43.733  28.154  26.689  1.00  0.00    -0.206 F 
ATOM     79  C   UNL A   1      43.203  24.806  25.408  1.00  0.00     0.006 A 
ENDBRANCH  51  72
BRANCH  63  80
ATOM     80  C   UNL A   1      44.531  27.199  34.196  1.00  0.00     0.057 A 
ATOM     81  C   UNL A   1      44.392  25.972  34.857  1.00  0.00     0.134 A 
ATOM     82  C   UNL A   1      45.777  27.836  34.267  1.00  0.00     0.134 A 
ATOM     83  F   UNL A   1      43.219  25.321  34.843  1.00  0.00    -0.206 F 
ATOM     84  C   UNL A   1      45.443  25.413  35.584  1.00  0.00     0.040 A 
ATOM     85  C   UNL A   1      46.845  27.271  34.966  1.00  0.00     0.040 A 
ATOM     86  F   UNL A   1      45.978  29.011  33.653  1.00  0.00    -0.206 F 
ATOM     87  C   UNL A   1      46.677  26.060  35.632  1.00  0.00     0.006 A 
ENDBRANCH  63  80
ENDBRANCH  37  38
ENDBRANCH  29  32
ENDBRANCH  27  28
ENDBRANCH  26  27
ENDBRANCH   1  26
TORSDOF 14
ENDMDL
MODEL 2
REMARK VINA RESULT:     -12.9      4.760      9.719
REMARK SMILES CC(=O)Nc1ccc(/C=N/c2ccccc2C(=O)NCCCCNC(=O)c2ccc(-c3c4nc(c(-c5c(F)cccc5F)c5ccc([nH]5)c(-c5c(F)cccc5F)c5nc(c(-c6c(F)cccc6F)c6ccc3[nH]6)C=C5)C=C4)cc2)cc1
REMARK SMILES IDX 21 1 20 2 19 3 17 4 18 5 16 7 11 8 12 9 13 10 15 11 14 12
REMARK SMILES IDX 10 13 9 14 8 15 5 16 6 17 82 18 7 19 81 20 4 21 1 22 2 23
REMARK SMILES IDX 3 24 22 26 23 27 24 28 25 29 26 31 27 32 28 33 80 34 29 35
REMARK SMILES IDX 79 36 30 37 31 38 32 39 73 40 33 41 78 42 72 43 74 44 34 45
REMARK SMILES IDX 77 46 71 47 70 48 35 50 61 51 44 52 60 53 45 54 48 55 59 56
REMARK SMILES IDX 75 57 46 58 47 59 58 61 76 62 49 63 36 64 37 65 42 66 38 67
REMARK SMILES IDX 39 68 41 69 43 70 40 71 62 72 63 73 68 74 64 75 65 76 67 77
REMARK SMILES IDX 69 78 66 79 50 80 51 81 56 82 52 83 53 84 55 85 57 86 54 87
REMARK H PARENT 19 6 4 25 24 30 74 49 48 60
REMARK Flexibility Score: inf
ROOT
ATOM      1  C   UNL A   1      36.427  22.211  24.221  1.00  0.00     0.023 C 
ENDROOT
BRANCH   1   2
ATOM      2  C   UNL A   1      36.534  23.694  24.545  1.00  0.00     0.116 C 
BRANCH   2   3
ATOM      3  N   UNL A   1      35.568  24.191  25.499  1.00  0.00    -0.352 N 
ATOM      4  C   UNL A   1      34.307  24.694  25.284  1.00  0.00     0.253 C 
ATOM      5  O   UNL A   1      33.621  24.948  26.278  1.00  0.00    -0.269 OA
ATOM      6  H   UNL A   1      35.856  24.164  26.440  1.00  0.00     0.163 HD
BRANCH   4   7
ATOM      7  C   UNL A   1      33.752  25.031  23.940  1.00  0.00     0.065 A 
ATOM      8  C   UNL A   1      33.275  24.127  22.969  1.00  0.00     0.076 A 
ATOM      9  C   UNL A   1      32.806  24.638  21.746  1.00  0.00     0.029 A 
ATOM     10  C   UNL A   1      32.758  26.009  21.492  1.00  0.00     0.002 A 
ATOM     11  C   UNL A   1      33.668  26.418  23.681  1.00  0.00     0.016 A 
ATOM     12  C   UNL A   1      33.179  26.903  22.467  1.00  0.00     0.001 A 
BRANCH   8  13
ATOM     13  N   UNL A   1      33.307  22.727  23.066  1.00  0.00    -0.255 NA
ATOM     14  C   UNL A   1      32.500  22.138  23.888  1.00  0.00     0.119 C 
BRANCH  14  15
ATOM     15  C   UNL A   1      32.619  20.682  24.117  1.00  0.00    -0.007 A 
ATOM     16  C   UNL A   1      32.521  17.905  24.564  1.00  0.00     0.041 A 
ATOM     17  C   UNL A   1      32.815  18.794  25.611  1.00  0.00     0.027 A 
ATOM     18  C   UNL A   1      32.275  18.432  23.296  1.00  0.00     0.027 A 
ATOM     19  C   UNL A   1      32.865  20.173  25.394  1.00  0.00     0.012 A 
ATOM     20  C   UNL A   1      32.329  19.814  23.067  1.00  0.00     0.012 A 
BRANCH  16  21
ATOM     21  N   UNL A   1      32.401  16.548  24.915  1.00  0.00    -0.326 N 
ATOM     22  C   UNL A   1      34.770  15.807  25.159  1.00  0.00     0.114 C 
ATOM     23  C   UNL A   1      33.296  15.539  25.105  1.00  0.00     0.221 C 
ATOM     24  O   UNL A   1      32.876  14.388  25.254  1.00  0.00    -0.275 OA
ATOM     25  H   UNL A   1      31.468  16.266  25.052  1.00  0.00     0.169 HD
ENDBRANCH  16  21
ENDBRANCH  14  15
ENDBRANCH   8  13
ENDBRANCH   4   7
ENDBRANCH   2   3
ENDBRANCH   1   2
BRANCH   1  26
ATOM     26  C   UNL A   1      36.933  21.239  25.289  1.00  0.00     0.023 C 
BRANCH  26  27
ATOM     27  C   UNL A   1      38.368  21.428  25.779  1.00  0.00     0.116 C 
BRANCH  27  28
ATOM     28  N   UNL A   1      39.175  20.221  25.724  1.00  0.00    -0.352 N 
ATOM     29  C   UNL A   1      40.496  20.004  26.046  1.00  0.00     0.251 C 
ATOM     30  H   UNL A   1      38.697  19.423  25.402  1.00  0.00     0.163 HD
ATOM     31  O   UNL A   1      40.988  18.900  25.822  1.00  0.00    -0.269 OA
BRANCH  29  32
ATOM     32  C   UNL A   1      41.340  21.076  26.636  1.00  0.00     0.039 A 
ATOM     33  C   UNL A   1      42.154  21.820  25.773  1.00  0.00     0.014 A 
ATOM     34  C   UNL A   1      41.348  21.362  28.004  1.00  0.00     0.014 A 
ATOM     35  C   UNL A   1      42.837  22.937  26.250  1.00  0.00     0.010 A 
ATOM     36  C   UNL A   1      41.961  22.523  28.468  1.00  0.00     0.010 A 
ATOM     37  C   UNL A   1      42.658  23.349  27.580  1.00  0.00    -0.014 A 
BRANCH  37  38
ATOM     38  C   UNL A   1      43.008  24.731  27.988  1.00  0.00     0.031 A 
ATOM     39  C   UNL A   1      44.425  25.158  28.203  1.00  0.00     0.074 A 
ATOM     40  C   UNL A   1      41.990  25.569  28.265  1.00  0.00     0.049 A 
ATOM     41  N   UNL A   1      44.885  26.328  28.565  1.00  0.00    -0.248 NA
ATOM     42  C   UNL A   1      45.460  24.132  28.021  1.00  0.00     0.031 C 
ATOM     43  C   UNL A   1      40.567  25.221  28.175  1.00  0.00     0.029 A 
ATOM     44  N   UNL A   1      41.982  26.876  28.675  1.00  0.00    -0.354 N 
ATOM     45  C   UNL A   1      46.263  26.184  28.649  1.00  0.00     0.074 A 
ATOM     46  C   UNL A   1      46.556  24.794  28.366  1.00  0.00     0.031 C 
ATOM     47  C   UNL A   1      39.829  26.301  28.462  1.00  0.00     0.029 A 
ATOM     48  C   UNL A   1      40.719  27.403  28.798  1.00  0.00     0.049 A 
ATOM     49  H   UNL A   1      42.801  27.388  28.864  1.00  0.00     0.167 HD
ATOM     50  C   UNL A   1      47.193  27.133  28.916  1.00  0.00     0.037 A 
ATOM     51  C   UNL A   1      40.321  28.643  29.135  1.00  0.00     0.037 A 
ATOM     52  C   UNL A   1      46.873  28.507  29.216  1.00  0.00     0.049 A 
ATOM     53  C   UNL A   1      41.368  29.673  29.437  1.00  0.00     0.074 A 
ATOM     54  C   UNL A   1      47.732  29.566  29.454  1.00  0.00     0.029 A 
ATOM     55  N   UNL A   1      45.582  29.009  29.333  1.00  0.00    -0.354 N 
ATOM     56  N   UNL A   1      42.673  29.551  29.420  1.00  0.00    -0.248 NA
ATOM     57  C   UNL A   1      40.888  31.011  29.801  1.00  0.00     0.031 C 
ATOM     58  C   UNL A   1      46.962  30.693  29.768  1.00  0.00     0.029 A 
ATOM     59  C   UNL A   1      45.621  30.354  29.670  1.00  0.00     0.049 A 
ATOM     60  H   UNL A   1      44.760  28.486  29.197  1.00  0.00     0.167 HD
ATOM     61  C   UNL A   1      43.175  30.802  29.743  1.00  0.00     0.074 A 
ATOM     62  C   UNL A   1      42.030  31.671  29.937  1.00  0.00     0.031 C 
ATOM     63  C   UNL A   1      44.467  31.198  29.866  1.00  0.00     0.037 A 
BRANCH  50  64
ATOM     64  C   UNL A   1      48.635  26.703  28.904  1.00  0.00     0.057 A 
ATOM     65  C   UNL A   1      49.299  26.310  30.076  1.00  0.00     0.134 A 
ATOM     66  C   UNL A   1      49.374  26.686  27.715  1.00  0.00     0.134 A 
ATOM     67  F   UNL A   1      48.655  26.306  31.254  1.00  0.00    -0.206 F 
ATOM     68  C   UNL A   1      50.654  25.967  30.074  1.00  0.00     0.040 A 
ATOM     69  C   UNL A   1      50.721  26.314  27.694  1.00  0.00     0.040 A 
ATOM     70  F   UNL A   1      48.805  27.037  26.552  1.00  0.00    -0.206 F 
ATOM     71  C   UNL A   1      51.368  25.966  28.878  1.00  0.00     0.006 A 
ENDBRANCH  50  64
BRANCH  51  72
ATOM     72  C   UNL A   1      38.876  28.981  29.128  1.00  0.00     0.057 A 
ATOM     73  C   UNL A   1      38.103  28.829  30.285  1.00  0.00     0.134 A 
ATOM     74  C   UNL A   1      38.243  29.503  27.994  1.00  0.00     0.134 A 
ATOM     75  F   UNL A   1      38.652  28.326  31.401  1.00  0.00    -0.206 F 
ATOM     76  C   UNL A   1      36.751  29.173  30.313  1.00  0.00     0.040 A 
ATOM     77  C   UNL A   1      36.897  29.875  28.015  1.00  0.00     0.040 A 
ATOM     78  F   UNL A   1      38.931  29.691  26.859  1.00  0.00    -0.206 F 
ATOM     79  C   UNL A   1      36.146  29.705  29.176  1.00  0.00     0.006 A 
ENDBRANCH  51  72
BRANCH  63  80
ATOM     80  C   UNL A   1      44.700  32.642  30.203  1.00  0.00     0.057 A 
ATOM     81  C   UNL A   1      44.847  33.081  31.525  1.00  0.00     0.134 A 
ATOM     82  C   UNL A   1      44.799  33.601  29.187  1.00  0.00     0.134 A 
ATOM     83  F   UNL A   1      44.745  32.214  32.544  1.00  0.00    -0.206 F 
ATOM     84  C   UNL A   1      45.056  34.427  31.827  1.00  0.00     0.040 A 
ATOM     85  C   UNL A   1      45.038  34.946  29.475  1.00  0.00     0.040 A 
ATOM     86  F   UNL A   1      44.672  33.247  27.899  1.00  0.00    -0.206 F 
ATOM     87  C   UNL A   1      45.161  35.362  30.798  1.00  0.00     0.006 A 
ENDBRANCH  63  80
ENDBRANCH  37  38
ENDBRANCH  29  32
ENDBRANCH  27  28
ENDBRANCH  26  27
ENDBRANCH   1  26
TORSDOF 14
ENDMDL
MODEL 3
REMARK VINA RESULT:     -12.7      4.550      9.894
REMARK SMILES CC(=O)Nc1ccc(/C=N/c2ccccc2C(=O)NCCCCNC(=O)c2ccc(-c3c4nc(c(-c5c(F)cccc5F)c5ccc([nH]5)c(-c5c(F)cccc5F)c5nc(c(-c6c(F)cccc6F)c6ccc3[nH]6)C=C5)C=C4)cc2)cc1
REMARK SMILES IDX 21 1 20 2 19 3 17 4 18 5 16 7 11 8 12 9 13 10 15 11 14 12
REMARK SMILES IDX 10 13 9 14 8 15 5 16 6 17 82 18 7 19 81 20 4 21 1 22 2 23
REMARK SMILES IDX 3 24 22 26 23 27 24 28 25 29 26 31 27 32 28 33 80 34 29 35
REMARK SMILES IDX 79 36 30 37 31 38 32 39 73 40 33 41 78 42 72 43 74 44 34 45
REMARK SMILES IDX 77 46 71 47 70 48 35 50 61 51 44 52 60 53 45 54 48 55 59 56
REMARK SMILES IDX 75 57 46 58 47 59 58 61 76 62 49 63 36 64 37 65 42 66 38 67
REMARK SMILES IDX 39 68 41 69 43 70 40 71 62 72 63 73 68 74 64 75 65 76 67 77
REMARK SMILES IDX 69 78 66 79 50 80 51 81 56 82 52 83 53 84 55 85 57 86 54 87
REMARK H PARENT 19 6 4 25 24 30 74 49 48 60
REMARK Flexibility Score: inf
ROOT
ATOM      1  C   UNL A   1      35.413  22.384  26.254  1.00  0.00     0.023 C 
ENDROOT
BRANCH   1   2
ATOM      2  C   UNL A   1      35.473  23.757  25.601  1.00  0.00     0.116 C 
BRANCH   2   3
ATOM      3  N   UNL A   1      34.549  24.735  26.131  1.00  0.00    -0.352 N 
ATOM      4  C   UNL A   1      33.475  25.342  25.523  1.00  0.00     0.253 C 
ATOM      5  O   UNL A   1      32.760  26.063  26.225  1.00  0.00    -0.269 OA
ATOM      6  H   UNL A   1      34.713  25.006  27.063  1.00  0.00     0.163 HD
BRANCH   4   7
ATOM      7  C   UNL A   1      33.172  25.255  24.065  1.00  0.00     0.065 A 
ATOM      8  C   UNL A   1      32.736  24.116  23.357  1.00  0.00     0.076 A 
ATOM      9  C   UNL A   1      32.521  24.226  21.972  1.00  0.00     0.029 A 
ATOM     10  C   UNL A   1      32.681  25.436  21.296  1.00  0.00     0.002 A 
ATOM     11  C   UNL A   1      33.301  26.481  23.373  1.00  0.00     0.016 A 
ATOM     12  C   UNL A   1      33.061  26.570  22.001  1.00  0.00     0.001 A 
BRANCH   8  13
ATOM     13  N   UNL A   1      32.578  22.828  23.892  1.00  0.00    -0.255 NA
ATOM     14  C   UNL A   1      32.973  21.810  23.200  1.00  0.00     0.119 C 
BRANCH  14  15
ATOM     15  C   UNL A   1      32.681  20.440  23.675  1.00  0.00    -0.007 A 
ATOM     16  C   UNL A   1      32.445  17.804  24.631  1.00  0.00     0.041 A 
ATOM     17  C   UNL A   1      32.412  18.077  23.255  1.00  0.00     0.027 A 
ATOM     18  C   UNL A   1      32.601  18.872  25.516  1.00  0.00     0.027 A 
ATOM     19  C   UNL A   1      32.528  19.384  22.775  1.00  0.00     0.012 A 
ATOM     20  C   UNL A   1      32.713  20.187  25.045  1.00  0.00     0.012 A 
BRANCH  16  21
ATOM     21  N   UNL A   1      32.417  16.446  24.998  1.00  0.00    -0.326 N 
ATOM     22  C   UNL A   1      34.828  15.883  25.303  1.00  0.00     0.114 C 
ATOM     23  C   UNL A   1      33.378  15.507  25.221  1.00  0.00     0.221 C 
ATOM     24  O   UNL A   1      33.039  14.330  25.377  1.00  0.00    -0.275 OA
ATOM     25  H   UNL A   1      31.504  16.099  25.119  1.00  0.00     0.169 HD
ENDBRANCH  16  21
ENDBRANCH  14  15
ENDBRANCH   8  13
ENDBRANCH   4   7
ENDBRANCH   2   3
ENDBRANCH   1   2
BRANCH   1  26
ATOM     26  C   UNL A   1      36.076  21.234  25.493  1.00  0.00     0.023 C 
BRANCH  26  27
ATOM     27  C   UNL A   1      37.443  21.510  24.867  1.00  0.00     0.116 C 
BRANCH  27  28
ATOM     28  N   UNL A   1      38.493  20.616  25.325  1.00  0.00    -0.352 N 
ATOM     29  C   UNL A   1      39.592  20.850  26.121  1.00  0.00     0.251 C 
ATOM     30  H   UNL A   1      38.404  19.687  25.014  1.00  0.00     0.163 HD
ATOM     31  O   UNL A   1      40.403  19.943  26.295  1.00  0.00    -0.269 OA
BRANCH  29  32
ATOM     32  C   UNL A   1      39.829  22.174  26.753  1.00  0.00     0.039 A 
ATOM     33  C   UNL A   1      40.825  22.266  27.732  1.00  0.00     0.014 A 
ATOM     34  C   UNL A   1      39.100  23.316  26.407  1.00  0.00     0.014 A 
ATOM     35  C   UNL A   1      41.195  23.512  28.236  1.00  0.00     0.010 A 
ATOM     36  C   UNL A   1      39.521  24.569  26.843  1.00  0.00     0.010 A 
ATOM     37  C   UNL A   1      40.611  24.677  27.714  1.00  0.00    -0.014 A 
BRANCH  37  38
ATOM     38  C   UNL A   1      41.269  25.992  27.903  1.00  0.00     0.031 A 
ATOM     39  C   UNL A   1      42.656  26.261  27.412  1.00  0.00     0.074 A 
ATOM     40  C   UNL A   1      40.609  26.914  28.633  1.00  0.00     0.049 A 
ATOM     41  N   UNL A   1      43.364  27.357  27.509  1.00  0.00    -0.248 NA
ATOM     42  C   UNL A   1      43.353  25.146  26.757  1.00  0.00     0.031 C 
ATOM     43  C   UNL A   1      39.287  26.717  29.236  1.00  0.00     0.029 A 
ATOM     44  N   UNL A   1      40.949  28.190  28.996  1.00  0.00    -0.354 N 
ATOM     45  C   UNL A   1      44.588  27.069  26.922  1.00  0.00     0.074 A 
ATOM     46  C   UNL A   1      44.549  25.674  26.534  1.00  0.00     0.031 C 
ATOM     47  C   UNL A   1      38.904  27.850  29.841  1.00  0.00     0.029 A 
ATOM     48  C   UNL A   1      39.967  28.835  29.708  1.00  0.00     0.049 A 
ATOM     49  H   UNL A   1      41.812  28.605  28.768  1.00  0.00     0.167 HD
ATOM     50  C   UNL A   1      45.636  27.902  26.710  1.00  0.00     0.037 A 
ATOM     51  C   UNL A   1      39.923  30.089  30.193  1.00  0.00     0.037 A 
ATOM     52  C   UNL A   1      45.658  29.284  27.125  1.00  0.00     0.049 A 
ATOM     53  C   UNL A   1      41.098  30.989  29.956  1.00  0.00     0.074 A 
ATOM     54  C   UNL A   1      46.643  30.235  26.921  1.00  0.00     0.029 A 
ATOM     55  N   UNL A   1      44.646  29.907  27.846  1.00  0.00    -0.354 N 
ATOM     56  N   UNL A   1      42.214  30.736  29.315  1.00  0.00    -0.248 NA
ATOM     57  C   UNL A   1      41.007  32.347  30.503  1.00  0.00     0.031 C 
ATOM     58  C   UNL A   1      46.251  31.415  27.565  1.00  0.00     0.029 A 
ATOM     59  C   UNL A   1      44.996  31.220  28.121  1.00  0.00     0.049 A 
ATOM     60  H   UNL A   1      43.804  29.479  28.121  1.00  0.00     0.167 HD
ATOM     61  C   UNL A   1      42.950  31.911  29.357  1.00  0.00     0.074 A 
ATOM     62  C   UNL A   1      42.144  32.879  30.075  1.00  0.00     0.031 C 
ATOM     63  C   UNL A   1      44.180  32.166  28.845  1.00  0.00     0.037 A 
BRANCH  50  64
ATOM     64  C   UNL A   1      46.838  27.329  26.009  1.00  0.00     0.057 A 
ATOM     65  C   UNL A   1      47.868  26.687  26.713  1.00  0.00     0.134 A 
ATOM     66  C   UNL A   1      46.977  27.423  24.618  1.00  0.00     0.134 A 
ATOM     67  F   UNL A   1      47.805  26.564  28.048  1.00  0.00    -0.206 F 
ATOM     68  C   UNL A   1      49.011  26.207  26.068  1.00  0.00     0.040 A 
ATOM     69  C   UNL A   1      48.100  26.919  23.958  1.00  0.00     0.040 A 
ATOM     70  F   UNL A   1      46.028  28.013  23.876  1.00  0.00    -0.206 F 
ATOM     71  C   UNL A   1      49.127  26.320  24.685  1.00  0.00     0.006 A 
ENDBRANCH  50  64
BRANCH  51  72
ATOM     72  C   UNL A   1      38.699  30.572  30.878  1.00  0.00     0.057 A 
ATOM     73  C   UNL A   1      37.676  31.198  30.155  1.00  0.00     0.134 A 
ATOM     74  C   UNL A   1      38.494  30.383  32.250  1.00  0.00     0.134 A 
ATOM     75  F   UNL A   1      37.817  31.414  28.838  1.00  0.00    -0.206 F 
ATOM     76  C   UNL A   1      36.501  31.629  30.771  1.00  0.00     0.040 A 
ATOM     77  C   UNL A   1      37.312  30.786  32.875  1.00  0.00     0.040 A 
ATOM     78  F   UNL A   1      39.426  29.773  32.997  1.00  0.00    -0.206 F 
ATOM     79  C   UNL A   1      36.314  31.416  32.135  1.00  0.00     0.006 A 
ENDBRANCH  51  72
BRANCH  63  80
ATOM     80  C   UNL A   1      44.710  33.558  29.028  1.00  0.00     0.057 A 
ATOM     81  C   UNL A   1      45.503  33.911  30.127  1.00  0.00     0.134 A 
ATOM     82  C   UNL A   1      44.438  34.552  28.079  1.00  0.00     0.134 A 
ATOM     83  F   UNL A   1      45.785  33.011  31.081  1.00  0.00    -0.206 F 
ATOM     84  C   UNL A   1      45.985  35.211  30.290  1.00  0.00     0.040 A 
ATOM     85  C   UNL A   1      44.940  35.847  28.216  1.00  0.00     0.040 A 
ATOM     86  F   UNL A   1      43.689  34.278  27.000  1.00  0.00    -0.206 F 
ATOM     87  C   UNL A   1      45.709  36.181  29.327  1.00  0.00     0.006 A 
ENDBRANCH  63  80
ENDBRANCH  37  38
ENDBRANCH  29  32
ENDBRANCH  27  28
ENDBRANCH  26  27
ENDBRANCH   1  26
TORSDOF 14
ENDMDL
