MODEL 1
REMARK VINA RESULT:     -12.1      0.000      0.000
REMARK SMILES N#Cc1cccc(C(=O)N2CCC(CC(=O)NCCCCNC(=O)c3ccc(-c4c5nc(c(-c6c(F)cccc6F)c6ccc([nH]6)c(-c6c(F)cccc6F)c6nc(c(-c7c(F)cccc7F)c7ccc4[nH]7)C=C6)C=C5)cc3)CC2)c1
REMARK SMILES IDX 19 1 18 2 17 3 15 4 16 5 14 7 13 8 8 9 9 10 10 11 11 12
REMARK SMILES IDX 80 13 12 14 79 15 7 16 3 17 4 18 81 19 5 20 6 21 2 22 1 23
REMARK SMILES IDX 20 24 21 25 22 26 23 27 24 29 25 30 26 31 78 32 27 33 77 34
REMARK SMILES IDX 28 35 29 36 30 37 71 38 31 39 76 40 70 41 72 42 32 43 75 44
REMARK SMILES IDX 69 45 68 46 33 48 59 49 42 50 58 51 43 52 46 53 57 54 73 55
REMARK SMILES IDX 44 56 45 57 56 59 74 60 47 61 34 62 35 63 40 64 36 65 37 66
REMARK SMILES IDX 39 67 41 68 38 69 60 70 61 71 66 72 62 73 63 74 65 75 67 76
REMARK SMILES IDX 64 77 48 78 49 79 54 80 50 81 51 82 53 83 55 84 52 85
REMARK H PARENT 17 6 22 28 72 47 46 58
REMARK Flexibility Score: inf
ROOT
ATOM      1  C   UNL A   1      36.975  21.685  24.563  1.00  0.00     0.023 C 
ENDROOT
BRANCH   1   2
ATOM      2  C   UNL A   1      36.949  22.652  25.762  1.00  0.00     0.116 C 
BRANCH   2   3
ATOM      3  N   UNL A   1      35.721  22.535  26.536  1.00  0.00    -0.356 N 
ATOM      4  C   UNL A   1      34.583  23.292  26.554  1.00  0.00     0.220 C 
ATOM      5  O   UNL A   1      33.695  22.961  27.343  1.00  0.00    -0.275 OA
ATOM      6  H   UNL A   1      35.709  21.773  27.160  1.00  0.00     0.163 HD
BRANCH   4   7
ATOM      7  C   UNL A   1      34.395  24.507  25.640  1.00  0.00     0.103 C 
BRANCH   7   8
ATOM      8  C   UNL A   1      32.990  25.160  25.689  1.00  0.00     0.002 C 
ATOM      9  C   UNL A   1      31.094  27.934  23.325  1.00  0.00     0.253 C 
ATOM     10  O   UNL A   1      32.019  28.176  22.558  1.00  0.00    -0.269 OA
ATOM     11  N   UNL A   1      31.207  27.077  24.401  1.00  0.00    -0.339 N 
ATOM     12  C   UNL A   1      31.927  27.519  25.562  1.00  0.00     0.120 C 
ATOM     13  C   UNL A   1      30.876  25.663  24.336  1.00  0.00     0.120 C 
ATOM     14  C   UNL A   1      33.148  26.666  25.753  1.00  0.00     0.026 C 
ATOM     15  C   UNL A   1      32.118  24.771  24.482  1.00  0.00     0.026 C 
BRANCH   9  16
ATOM     16  C   UNL A   1      29.808  28.691  23.268  1.00  0.00     0.041 A 
ATOM     17  C   UNL A   1      28.612  30.798  23.095  1.00  0.00     0.053 A 
ATOM     18  C   UNL A   1      27.402  30.104  23.047  1.00  0.00     0.019 A 
ATOM     19  C   UNL A   1      29.809  30.091  23.206  1.00  0.00     0.033 A 
ATOM     20  C   UNL A   1      27.393  28.707  23.103  1.00  0.00     0.002 A 
ATOM     21  C   UNL A   1      28.593  28.000  23.211  1.00  0.00     0.014 A 
BRANCH  17  22
ATOM     22  C   UNL A   1      28.653  32.227  23.019  1.00  0.00     0.099 C 
ATOM     23  N   UNL A   1      28.650  33.387  22.939  1.00  0.00    -0.192 NA
ENDBRANCH  17  22
ENDBRANCH   9  16
ENDBRANCH   7   8
ENDBRANCH   4   7
ENDBRANCH   2   3
ENDBRANCH   1   2
BRANCH   1  24
ATOM     24  C   UNL A   1      37.848  20.460  24.717  1.00  0.00     0.023 C 
BRANCH  24  25
ATOM     25  C   UNL A   1      38.937  20.645  25.740  1.00  0.00     0.116 C 
BRANCH  25  26
ATOM     26  N   UNL A   1      39.862  19.517  25.794  1.00  0.00    -0.352 N 
ATOM     27  C   UNL A   1      41.196  19.536  26.122  1.00  0.00     0.251 C 
ATOM     28  H   UNL A   1      39.485  18.636  25.569  1.00  0.00     0.163 HD
ATOM     29  O   UNL A   1      41.903  18.548  25.977  1.00  0.00    -0.269 OA
BRANCH  27  30
ATOM     30  C   UNL A   1      41.758  20.805  26.614  1.00  0.00     0.039 A 
ATOM     31  C   UNL A   1      42.090  21.803  25.700  1.00  0.00     0.014 A 
ATOM     32  C   UNL A   1      41.819  21.040  27.991  1.00  0.00     0.014 A 
ATOM     33  C   UNL A   1      42.419  23.069  26.177  1.00  0.00     0.010 A 
ATOM     34  C   UNL A   1      41.993  22.332  28.449  1.00  0.00     0.010 A 
ATOM     35  C   UNL A   1      42.327  23.355  27.551  1.00  0.00    -0.014 A 
BRANCH  35  36
ATOM     36  C   UNL A   1      42.618  24.707  28.078  1.00  0.00     0.031 A 
ATOM     37  C   UNL A   1      44.030  25.069  28.450  1.00  0.00     0.074 A 
ATOM     38  C   UNL A   1      41.613  25.585  28.262  1.00  0.00     0.049 A 
ATOM     39  N   UNL A   1      44.491  26.184  28.952  1.00  0.00    -0.248 NA
ATOM     40  C   UNL A   1      45.057  24.028  28.266  1.00  0.00     0.031 C 
ATOM     41  C   UNL A   1      40.197  25.327  27.993  1.00  0.00     0.029 A 
ATOM     42  N   UNL A   1      41.632  26.879  28.716  1.00  0.00    -0.354 N 
ATOM     43  C   UNL A   1      45.850  25.973  29.147  1.00  0.00     0.074 A 
ATOM     44  C   UNL A   1      46.126  24.600  28.794  1.00  0.00     0.031 C 
ATOM     45  C   UNL A   1      39.491  26.441  28.241  1.00  0.00     0.029 A 
ATOM     46  C   UNL A   1      40.395  27.474  28.735  1.00  0.00     0.049 A 
ATOM     47  H   UNL A   1      42.456  27.337  29.002  1.00  0.00     0.167 HD
ATOM     48  C   UNL A   1      46.793  26.855  29.548  1.00  0.00     0.037 A 
ATOM     49  C   UNL A   1      40.033  28.715  29.113  1.00  0.00     0.037 A 
ATOM     50  C   UNL A   1      46.512  28.224  29.885  1.00  0.00     0.049 A 
ATOM     51  C   UNL A   1      41.097  29.668  29.586  1.00  0.00     0.074 A 
ATOM     52  C   UNL A   1      47.398  29.216  30.262  1.00  0.00     0.029 A 
ATOM     53  N   UNL A   1      45.245  28.791  29.895  1.00  0.00    -0.354 N 
ATOM     54  N   UNL A   1      42.390  29.479  29.696  1.00  0.00    -0.248 NA
ATOM     55  C   UNL A   1      40.651  31.011  29.978  1.00  0.00     0.031 C 
ATOM     56  C   UNL A   1      46.660  30.363  30.566  1.00  0.00     0.029 A 
ATOM     57  C   UNL A   1      45.324  30.112  30.300  1.00  0.00     0.049 A 
ATOM     58  H   UNL A   1      44.414  28.322  29.650  1.00  0.00     0.167 HD
ATOM     59  C   UNL A   1      42.916  30.689  30.131  1.00  0.00     0.074 A 
ATOM     60  C   UNL A   1      41.803  31.607  30.251  1.00  0.00     0.031 C 
ATOM     61  C   UNL A   1      44.204  31.014  30.403  1.00  0.00     0.037 A 
BRANCH  48  62
ATOM     62  C   UNL A   1      48.208  26.362  29.646  1.00  0.00     0.057 A 
ATOM     63  C   UNL A   1      48.701  25.742  30.803  1.00  0.00     0.134 A 
ATOM     64  C   UNL A   1      49.084  26.488  28.561  1.00  0.00     0.134 A 
ATOM     65  F   UNL A   1      47.923  25.604  31.888  1.00  0.00    -0.206 F 
ATOM     66  C   UNL A   1      50.020  25.294  30.888  1.00  0.00     0.040 A 
ATOM     67  C   UNL A   1      50.394  26.011  28.620  1.00  0.00     0.040 A 
ATOM     68  F   UNL A   1      48.679  27.069  27.421  1.00  0.00    -0.206 F 
ATOM     69  C   UNL A   1      50.868  25.420  29.789  1.00  0.00     0.006 A 
ENDBRANCH  48  62
BRANCH  49  70
ATOM     70  C   UNL A   1      38.609  29.134  29.042  1.00  0.00     0.057 A 
ATOM     71  C   UNL A   1      37.765  29.027  30.155  1.00  0.00     0.134 A 
ATOM     72  C   UNL A   1      38.051  29.629  27.858  1.00  0.00     0.134 A 
ATOM     73  F   UNL A   1      38.235  28.547  31.316  1.00  0.00    -0.206 F 
ATOM     74  C   UNL A   1      36.413  29.366  30.083  1.00  0.00     0.040 A 
ATOM     75  C   UNL A   1      36.709  30.004  27.781  1.00  0.00     0.040 A 
ATOM     76  F   UNL A   1      38.806  29.770  26.759  1.00  0.00    -0.206 F 
ATOM     77  C   UNL A   1      35.882  29.861  28.894  1.00  0.00     0.006 A 
ENDBRANCH  49  70
BRANCH  61  78
ATOM     78  C   UNL A   1      44.489  32.436  30.797  1.00  0.00     0.057 A 
ATOM     79  C   UNL A   1      44.528  32.850  32.133  1.00  0.00     0.134 A 
ATOM     80  C   UNL A   1      44.768  33.398  29.814  1.00  0.00     0.134 A 
ATOM     81  F   UNL A   1      44.263  31.983  33.122  1.00  0.00    -0.206 F 
ATOM     82  C   UNL A   1      44.796  34.176  32.478  1.00  0.00     0.040 A 
ATOM     83  C   UNL A   1      45.075  34.716  30.148  1.00  0.00     0.040 A 
ATOM     84  F   UNL A   1      44.763  33.066  28.515  1.00  0.00    -0.206 F 
ATOM     85  C   UNL A   1      45.078  35.111  31.483  1.00  0.00     0.006 A 
ENDBRANCH  61  78
ENDBRANCH  35  36
ENDBRANCH  27  30
ENDBRANCH  25  26
ENDBRANCH  24  25
ENDBRANCH   1  24
TORSDOF 14
ENDMDL
MODEL 2
REMARK VINA RESULT:     -12.0      4.251      9.923
REMARK SMILES N#Cc1cccc(C(=O)N2CCC(CC(=O)NCCCCNC(=O)c3ccc(-c4c5nc(c(-c6c(F)cccc6F)c6ccc([nH]6)c(-c6c(F)cccc6F)c6nc(c(-c7c(F)cccc7F)c7ccc4[nH]7)C=C6)C=C5)cc3)CC2)c1
REMARK SMILES IDX 19 1 18 2 17 3 15 4 16 5 14 7 13 8 8 9 9 10 10 11 11 12
REMARK SMILES IDX 80 13 12 14 79 15 7 16 3 17 4 18 81 19 5 20 6 21 2 22 1 23
REMARK SMILES IDX 20 24 21 25 22 26 23 27 24 29 25 30 26 31 78 32 27 33 77 34
REMARK SMILES IDX 28 35 29 36 30 37 71 38 31 39 76 40 70 41 72 42 32 43 75 44
REMARK SMILES IDX 69 45 68 46 33 48 59 49 42 50 58 51 43 52 46 53 57 54 73 55
REMARK SMILES IDX 44 56 45 57 56 59 74 60 47 61 34 62 35 63 40 64 36 65 37 66
REMARK SMILES IDX 39 67 41 68 38 69 60 70 61 71 66 72 62 73 63 74 65 75 67 76
REMARK SMILES IDX 64 77 48 78 49 79 54 80 50 81 51 82 53 83 55 84 52 85
REMARK H PARENT 17 6 22 28 72 47 46 58
REMARK Flexibility Score: inf
ROOT
ATOM      1  C   UNL A   1      31.908  30.551  26.698  1.00  0.00     0.023 C 
ENDROOT
BRANCH   1   2
ATOM      2  C   UNL A   1      32.016  30.003  25.263  1.00  0.00     0.116 C 
BRANCH   2   3
ATOM      3  N   UNL A   1      30.751  30.085  24.546  1.00  0.00    -0.356 N 
ATOM      4  C   UNL A   1      30.279  29.406  23.457  1.00  0.00     0.220 C 
ATOM      5  O   UNL A   1      29.155  29.704  23.048  1.00  0.00    -0.275 OA
ATOM      6  H   UNL A   1      30.122  30.748  24.912  1.00  0.00     0.163 HD
BRANCH   4   7
ATOM      7  C   UNL A   1      31.096  28.315  22.756  1.00  0.00     0.103 C 
BRANCH   7   8
ATOM      8  C   UNL A   1      31.623  27.187  23.679  1.00  0.00     0.002 C 
ATOM      9  C   UNL A   1      33.637  23.679  22.963  1.00  0.00     0.253 C 
ATOM     10  O   UNL A   1      33.653  23.730  21.739  1.00  0.00    -0.269 OA
ATOM     11  N   UNL A   1      33.005  24.619  23.752  1.00  0.00    -0.339 N 
ATOM     12  C   UNL A   1      31.572  24.602  23.829  1.00  0.00     0.120 C 
ATOM     13  C   UNL A   1      33.676  25.788  24.296  1.00  0.00     0.120 C 
ATOM     14  C   UNL A   1      31.020  25.868  23.240  1.00  0.00     0.026 C 
ATOM     15  C   UNL A   1      33.160  27.093  23.673  1.00  0.00     0.026 C 
BRANCH   9  16
ATOM     16  C   UNL A   1      34.151  22.490  23.706  1.00  0.00     0.041 A 
ATOM     17  C   UNL A   1      33.797  20.271  24.630  1.00  0.00     0.053 A 
ATOM     18  C   UNL A   1      35.142  20.214  25.000  1.00  0.00     0.019 A 
ATOM     19  C   UNL A   1      33.306  21.407  23.986  1.00  0.00     0.033 A 
ATOM     20  C   UNL A   1      35.992  21.288  24.720  1.00  0.00     0.002 A 
ATOM     21  C   UNL A   1      35.500  22.424  24.072  1.00  0.00     0.014 A 
BRANCH  17  22
ATOM     22  C   UNL A   1      32.909  19.179  24.885  1.00  0.00     0.099 C 
ATOM     23  N   UNL A   1      32.155  18.316  25.084  1.00  0.00    -0.192 NA
ENDBRANCH  17  22
ENDBRANCH   9  16
ENDBRANCH   7   8
ENDBRANCH   4   7
ENDBRANCH   2   3
ENDBRANCH   1   2
BRANCH   1  24
ATOM     24  C   UNL A   1      31.620  32.030  26.824  1.00  0.00     0.023 C 
BRANCH  24  25
ATOM     25  C   UNL A   1      32.764  32.799  27.428  1.00  0.00     0.116 C 
BRANCH  25  26
ATOM     26  N   UNL A   1      32.439  34.200  27.675  1.00  0.00    -0.352 N 
ATOM     27  C   UNL A   1      33.017  35.052  28.586  1.00  0.00     0.251 C 
ATOM     28  H   UNL A   1      31.719  34.582  27.123  1.00  0.00     0.163 HD
ATOM     29  O   UNL A   1      32.549  36.161  28.808  1.00  0.00    -0.269 OA
BRANCH  27  30
ATOM     30  C   UNL A   1      34.198  34.565  29.319  1.00  0.00     0.039 A 
ATOM     31  C   UNL A   1      34.018  33.843  30.496  1.00  0.00     0.014 A 
ATOM     32  C   UNL A   1      35.466  34.714  28.752  1.00  0.00     0.014 A 
ATOM     33  C   UNL A   1      35.116  33.207  31.069  1.00  0.00     0.010 A 
ATOM     34  C   UNL A   1      36.517  33.957  29.235  1.00  0.00     0.010 A 
ATOM     35  C   UNL A   1      36.363  33.221  30.417  1.00  0.00    -0.014 A 
BRANCH  35  36
ATOM     36  C   UNL A   1      37.533  32.508  30.977  1.00  0.00     0.031 A 
ATOM     37  C   UNL A   1      38.156  32.998  32.256  1.00  0.00     0.074 A 
ATOM     38  C   UNL A   1      38.055  31.457  30.318  1.00  0.00     0.049 A 
ATOM     39  N   UNL A   1      39.198  32.535  32.896  1.00  0.00    -0.248 NA
ATOM     40  C   UNL A   1      37.551  34.187  32.882  1.00  0.00     0.031 C 
ATOM     41  C   UNL A   1      37.572  30.928  29.040  1.00  0.00     0.029 A 
ATOM     42  N   UNL A   1      39.110  30.640  30.635  1.00  0.00    -0.354 N 
ATOM     43  C   UNL A   1      39.371  33.377  33.986  1.00  0.00     0.074 A 
ATOM     44  C   UNL A   1      38.388  34.428  33.877  1.00  0.00     0.031 C 
ATOM     45  C   UNL A   1      38.297  29.848  28.708  1.00  0.00     0.029 A 
ATOM     46  C   UNL A   1      39.327  29.640  29.720  1.00  0.00     0.049 A 
ATOM     47  H   UNL A   1      39.661  30.760  31.443  1.00  0.00     0.167 HD
ATOM     48  C   UNL A   1      40.248  33.264  35.010  1.00  0.00     0.037 A 
ATOM     49  C   UNL A   1      40.257  28.666  29.700  1.00  0.00     0.037 A 
ATOM     50  C   UNL A   1      41.216  32.207  35.118  1.00  0.00     0.049 A 
ATOM     51  C   UNL A   1      41.241  28.580  30.835  1.00  0.00     0.074 A 
ATOM     52  C   UNL A   1      42.123  31.972  36.134  1.00  0.00     0.029 A 
ATOM     53  N   UNL A   1      41.408  31.213  34.169  1.00  0.00    -0.354 N 
ATOM     54  N   UNL A   1      41.348  29.340  31.898  1.00  0.00    -0.248 NA
ATOM     55  C   UNL A   1      42.229  27.496  30.770  1.00  0.00     0.031 C 
ATOM     56  C   UNL A   1      42.910  30.877  35.768  1.00  0.00     0.029 A 
ATOM     57  C   UNL A   1      42.439  30.379  34.564  1.00  0.00     0.049 A 
ATOM     58  H   UNL A   1      40.886  31.115  33.339  1.00  0.00     0.167 HD
ATOM     59  C   UNL A   1      42.387  28.802  32.648  1.00  0.00     0.074 A 
ATOM     60  C   UNL A   1      42.866  27.644  31.922  1.00  0.00     0.031 C 
ATOM     61  C   UNL A   1      42.896  29.223  33.832  1.00  0.00     0.037 A 
BRANCH  48  62
ATOM     62  C   UNL A   1      40.199  34.312  36.084  1.00  0.00     0.057 A 
ATOM     63  C   UNL A   1      40.959  35.488  36.013  1.00  0.00     0.134 A 
ATOM     64  C   UNL A   1      39.363  34.154  37.196  1.00  0.00     0.134 A 
ATOM     65  F   UNL A   1      41.795  35.698  34.984  1.00  0.00    -0.206 F 
ATOM     66  C   UNL A   1      40.912  36.453  37.020  1.00  0.00     0.040 A 
ATOM     67  C   UNL A   1      39.280  35.128  38.192  1.00  0.00     0.040 A 
ATOM     68  F   UNL A   1      38.606  33.055  37.331  1.00  0.00    -0.206 F 
ATOM     69  C   UNL A   1      40.063  36.278  38.111  1.00  0.00     0.006 A 
ENDBRANCH  48  62
BRANCH  49  70
ATOM     70  C   UNL A   1      40.291  27.684  28.584  1.00  0.00     0.057 A 
ATOM     71  C   UNL A   1      39.610  26.464  28.671  1.00  0.00     0.134 A 
ATOM     72  C   UNL A   1      41.021  27.931  27.416  1.00  0.00     0.134 A 
ATOM     73  F   UNL A   1      38.903  26.161  29.770  1.00  0.00    -0.206 F 
ATOM     74  C   UNL A   1      39.680  25.512  27.652  1.00  0.00     0.040 A 
ATOM     75  C   UNL A   1      41.073  27.003  26.375  1.00  0.00     0.040 A 
ATOM     76  F   UNL A   1      41.685  29.086  27.263  1.00  0.00    -0.206 F 
ATOM     77  C   UNL A   1      40.410  25.783  26.496  1.00  0.00     0.006 A 
ENDBRANCH  49  70
BRANCH  61  78
ATOM     78  C   UNL A   1      43.987  28.396  34.449  1.00  0.00     0.057 A 
ATOM     79  C   UNL A   1      45.344  28.696  34.278  1.00  0.00     0.134 A 
ATOM     80  C   UNL A   1      43.667  27.297  35.260  1.00  0.00     0.134 A 
ATOM     81  F   UNL A   1      45.720  29.728  33.508  1.00  0.00    -0.206 F 
ATOM     82  C   UNL A   1      46.343  27.915  34.860  1.00  0.00     0.040 A 
ATOM     83  C   UNL A   1      44.655  26.532  35.879  1.00  0.00     0.040 A 
ATOM     84  F   UNL A   1      42.387  26.961  35.479  1.00  0.00    -0.206 F 
ATOM     85  C   UNL A   1      45.999  26.833  35.670  1.00  0.00     0.006 A 
ENDBRANCH  61  78
ENDBRANCH  35  36
ENDBRANCH  27  30
ENDBRANCH  25  26
ENDBRANCH  24  25
ENDBRANCH   1  24
TORSDOF 14
ENDMDL
MODEL 3
REMARK VINA RESULT:     -12.0      4.160      9.903
REMARK SMILES N#Cc1cccc(C(=O)N2CCC(CC(=O)NCCCCNC(=O)c3ccc(-c4c5nc(c(-c6c(F)cccc6F)c6ccc([nH]6)c(-c6c(F)cccc6F)c6nc(c(-c7c(F)cccc7F)c7ccc4[nH]7)C=C6)C=C5)cc3)CC2)c1
REMARK SMILES IDX 19 1 18 2 17 3 15 4 16 5 14 7 13 8 8 9 9 10 10 11 11 12
REMARK SMILES IDX 80 13 12 14 79 15 7 16 3 17 4 18 81 19 5 20 6 21 2 22 1 23
REMARK SMILES IDX 20 24 21 25 22 26 23 27 24 29 25 30 26 31 78 32 27 33 77 34
REMARK SMILES IDX 28 35 29 36 30 37 71 38 31 39 76 40 70 41 72 42 32 43 75 44
REMARK SMILES IDX 69 45 68 46 33 48 59 49 42 50 58 51 43 52 46 53 57 54 73 55
REMARK SMILES IDX 44 56 45 57 56 59 74 60 47 61 34 62 35 63 40 64 36 65 37 66
REMARK SMILES IDX 39 67 41 68 38 69 60 70 61 71 66 72 62 73 63 74 65 75 67 76
REMARK SMILES IDX 64 77 48 78 49 79 54 80 50 81 51 82 53 83 55 84 52 85
REMARK H PARENT 17 6 22 28 72 47 46 58
REMARK Flexibility Score: inf
ROOT
ATOM      1  C   UNL A   1      32.008  30.136  26.830  1.00  0.00     0.023 C 
ENDROOT
BRANCH   1   2
ATOM      2  C   UNL A   1      33.470  29.737  26.555  1.00  0.00     0.116 C 
BRANCH   2   3
ATOM      3  N   UNL A   1      33.675  29.314  25.177  1.00  0.00    -0.356 N 
ATOM      4  C   UNL A   1      33.783  28.072  24.615  1.00  0.00     0.220 C 
ATOM      5  O   UNL A   1      33.977  28.016  23.399  1.00  0.00    -0.275 OA
ATOM      6  H   UNL A   1      33.749  30.056  24.534  1.00  0.00     0.163 HD
BRANCH   4   7
ATOM      7  C   UNL A   1      33.670  26.787  25.442  1.00  0.00     0.103 C 
BRANCH   7   8
ATOM      8  C   UNL A   1      33.210  25.533  24.656  1.00  0.00     0.002 C 
ATOM      9  C   UNL A   1      33.865  21.508  25.150  1.00  0.00     0.253 C 
ATOM     10  O   UNL A   1      34.628  21.568  26.107  1.00  0.00    -0.269 OA
ATOM     11  N   UNL A   1      33.362  22.623  24.512  1.00  0.00    -0.339 N 
ATOM     12  C   UNL A   1      34.230  23.375  23.650  1.00  0.00     0.120 C 
ATOM     13  C   UNL A   1      32.092  23.239  24.860  1.00  0.00     0.120 C 
ATOM     14  C   UNL A   1      34.431  24.751  24.214  1.00  0.00     0.026 C 
ATOM     15  C   UNL A   1      32.276  24.631  25.484  1.00  0.00     0.026 C 
BRANCH   9  16
ATOM     16  C   UNL A   1      33.556  20.213  24.473  1.00  0.00     0.041 A 
ATOM     17  C   UNL A   1      33.896  17.818  24.254  1.00  0.00     0.053 A 
ATOM     18  C   UNL A   1      32.896  17.767  23.281  1.00  0.00     0.019 A 
ATOM     19  C   UNL A   1      34.223  19.038  24.845  1.00  0.00     0.033 A 
ATOM     20  C   UNL A   1      32.223  18.934  22.908  1.00  0.00     0.002 A 
ATOM     21  C   UNL A   1      32.549  20.156  23.503  1.00  0.00     0.014 A 
BRANCH  17  22
ATOM     22  C   UNL A   1      34.588  16.637  24.671  1.00  0.00     0.099 C 
ATOM     23  N   UNL A   1      35.117  15.654  24.999  1.00  0.00    -0.192 NA
ENDBRANCH  17  22
ENDBRANCH   9  16
ENDBRANCH   7   8
ENDBRANCH   4   7
ENDBRANCH   2   3
ENDBRANCH   1   2
BRANCH   1  24
ATOM     24  C   UNL A   1      31.707  31.617  26.794  1.00  0.00     0.023 C 
BRANCH  24  25
ATOM     25  C   UNL A   1      32.861  32.460  27.267  1.00  0.00     0.116 C 
BRANCH  25  26
ATOM     26  N   UNL A   1      32.480  33.842  27.541  1.00  0.00    -0.352 N 
ATOM     27  C   UNL A   1      33.027  34.699  28.465  1.00  0.00     0.251 C 
ATOM     28  H   UNL A   1      31.743  34.204  26.998  1.00  0.00     0.163 HD
ATOM     29  O   UNL A   1      32.515  35.784  28.710  1.00  0.00    -0.269 OA
BRANCH  27  30
ATOM     30  C   UNL A   1      34.229  34.247  29.185  1.00  0.00     0.039 A 
ATOM     31  C   UNL A   1      34.087  33.407  30.288  1.00  0.00     0.014 A 
ATOM     32  C   UNL A   1      35.492  34.553  28.671  1.00  0.00     0.014 A 
ATOM     33  C   UNL A   1      35.223  32.815  30.833  1.00  0.00     0.010 A 
ATOM     34  C   UNL A   1      36.593  33.845  29.115  1.00  0.00     0.010 A 
ATOM     35  C   UNL A   1      36.477  32.993  30.221  1.00  0.00    -0.014 A 
BRANCH  35  36
ATOM     36  C   UNL A   1      37.692  32.332  30.748  1.00  0.00     0.031 A 
ATOM     37  C   UNL A   1      38.330  32.851  32.008  1.00  0.00     0.074 A 
ATOM     38  C   UNL A   1      38.240  31.302  30.075  1.00  0.00     0.049 A 
ATOM     39  N   UNL A   1      39.408  32.434  32.619  1.00  0.00    -0.248 NA
ATOM     40  C   UNL A   1      37.694  34.015  32.649  1.00  0.00     0.031 C 
ATOM     41  C   UNL A   1      37.744  30.750  28.813  1.00  0.00     0.029 A 
ATOM     42  N   UNL A   1      39.338  30.532  30.363  1.00  0.00    -0.354 N 
ATOM     43  C   UNL A   1      39.577  33.285  33.703  1.00  0.00     0.074 A 
ATOM     44  C   UNL A   1      38.547  34.294  33.620  1.00  0.00     0.031 C 
ATOM     45  C   UNL A   1      38.504  29.701  28.461  1.00  0.00     0.029 A 
ATOM     46  C   UNL A   1      39.570  29.539  29.443  1.00  0.00     0.049 A 
ATOM     47  H   UNL A   1      39.905  30.677  31.155  1.00  0.00     0.167 HD
ATOM     48  C   UNL A   1      40.487  33.213  34.701  1.00  0.00     0.037 A 
ATOM     49  C   UNL A   1      40.540  28.606  29.398  1.00  0.00     0.037 A 
ATOM     50  C   UNL A   1      41.501  32.197  34.782  1.00  0.00     0.049 A 
ATOM     51  C   UNL A   1      41.559  28.565  30.505  1.00  0.00     0.074 A 
ATOM     52  C   UNL A   1      42.446  32.004  35.772  1.00  0.00     0.029 A 
ATOM     53  N   UNL A   1      41.708  31.210  33.829  1.00  0.00    -0.354 N 
ATOM     54  N   UNL A   1      41.664  29.331  31.564  1.00  0.00    -0.248 NA
ATOM     55  C   UNL A   1      42.589  27.524  30.413  1.00  0.00     0.031 C 
ATOM     56  C   UNL A   1      43.268  30.942  35.385  1.00  0.00     0.029 A 
ATOM     57  C   UNL A   1      42.785  30.422  34.196  1.00  0.00     0.049 A 
ATOM     58  H   UNL A   1      41.168  31.088  33.015  1.00  0.00     0.167 HD
ATOM     59  C   UNL A   1      42.745  28.840  32.284  1.00  0.00     0.074 A 
ATOM     60  C   UNL A   1      43.252  27.701  31.546  1.00  0.00     0.031 C 
ATOM     61  C   UNL A   1      43.269  29.285  33.453  1.00  0.00     0.037 A 
BRANCH  48  62
ATOM     62  C   UNL A   1      40.423  34.260  35.775  1.00  0.00     0.057 A 
ATOM     63  C   UNL A   1      39.727  34.054  36.975  1.00  0.00     0.134 A 
ATOM     64  C   UNL A   1      41.085  35.484  35.618  1.00  0.00     0.134 A 
ATOM     65  F   UNL A   1      39.055  32.911  37.186  1.00  0.00    -0.206 F 
ATOM     66  C   UNL A   1      39.667  35.036  37.964  1.00  0.00     0.040 A 
ATOM     67  C   UNL A   1      41.064  36.459  36.616  1.00  0.00     0.040 A 
ATOM     68  F   UNL A   1      41.772  35.749  34.497  1.00  0.00    -0.206 F 
ATOM     69  C   UNL A   1      40.346  36.241  37.789  1.00  0.00     0.006 A 
ENDBRANCH  48  62
BRANCH  49  70
ATOM     70  C   UNL A   1      40.584  27.624  28.283  1.00  0.00     0.057 A 
ATOM     71  C   UNL A   1      41.280  27.901  27.100  1.00  0.00     0.134 A 
ATOM     72  C   UNL A   1      39.914  26.398  28.362  1.00  0.00     0.134 A 
ATOM     73  F   UNL A   1      41.932  29.064  26.956  1.00  0.00    -0.206 F 
ATOM     74  C   UNL A   1      41.282  27.009  26.026  1.00  0.00     0.040 A 
ATOM     75  C   UNL A   1      39.934  25.482  27.310  1.00  0.00     0.040 A 
ATOM     76  F   UNL A   1      39.238  26.065  29.472  1.00  0.00    -0.206 F 
ATOM     77  C   UNL A   1      40.610  25.792  26.131  1.00  0.00     0.006 A 
ENDBRANCH  49  70
BRANCH  61  78
ATOM     78  C   UNL A   1      44.412  28.506  34.039  1.00  0.00     0.057 A 
ATOM     79  C   UNL A   1      45.750  28.835  33.791  1.00  0.00     0.134 A 
ATOM     80  C   UNL A   1      44.163  27.426  34.899  1.00  0.00     0.134 A 
ATOM     81  F   UNL A   1      46.059  29.851  32.971  1.00  0.00    -0.206 F 
ATOM     82  C   UNL A   1      46.797  28.099  34.346  1.00  0.00     0.040 A 
ATOM     83  C   UNL A   1      45.200  26.707  35.490  1.00  0.00     0.040 A 
ATOM     84  F   UNL A   1      42.904  27.065  35.192  1.00  0.00    -0.206 F 
ATOM     85  C   UNL A   1      46.523  27.035  35.205  1.00  0.00     0.006 A 
ENDBRANCH  61  78
ENDBRANCH  35  36
ENDBRANCH  27  30
ENDBRANCH  25  26
ENDBRANCH  24  25
ENDBRANCH   1  24
TORSDOF 14
ENDMDL
