MODEL 1
REMARK VINA RESULT:     -11.1      0.000      0.000
REMARK SMILES O=C(NCCCCNC(=O)[C@@H]1C[C@@H]2CC[C@H]1N2C(=O)C[C@@H]1CCCCO1)c1ccc(-c2c3nc(c(-c4c(F)cccc4F)c4ccc([nH]4)c(-c4c(F)cccc4F)c4nc(c(-c5c(F)cccc5F)c5ccc2[nH]5)C=C4)C=C3)cc1
REMARK SMILES IDX 6 1 5 2 4 3 3 4 1 5 2 6 27 8 28 9 80 10 29 11 79 12 30 13
REMARK SMILES IDX 31 14 32 15 73 16 33 17 78 18 72 19 74 20 34 21 77 22 71 23
REMARK SMILES IDX 70 24 35 26 61 27 44 28 60 29 45 30 48 31 59 32 75 33 46 34
REMARK SMILES IDX 47 35 58 37 76 38 49 39 36 40 37 41 42 42 38 43 39 44 41 45
REMARK SMILES IDX 43 46 40 47 62 48 63 49 68 50 64 51 65 52 67 53 69 54 66 55
REMARK SMILES IDX 50 56 51 57 56 58 52 59 53 60 55 61 57 62 54 63 7 64 8 65
REMARK SMILES IDX 9 66 10 68 11 69 12 70 16 71 13 72 15 73 17 74 14 75 18 76
REMARK SMILES IDX 19 77 20 78 21 79 22 80 26 81 23 82 25 83 24 84
REMARK H PARENT 3 7 74 25 48 36 8 67
REMARK Flexibility Score: inf
ROOT
ATOM      1  C   UNL A   1      38.694  22.853  26.196  1.00  0.00     0.023 C 
ENDROOT
BRANCH   1   2
ATOM      2  C   UNL A   1      38.822  21.532  25.439  1.00  0.00     0.023 C 
BRANCH   2   3
ATOM      3  C   UNL A   1      39.072  20.305  26.306  1.00  0.00     0.116 C 
BRANCH   3   4
ATOM      4  N   UNL A   1      40.193  19.495  25.850  1.00  0.00    -0.352 N 
ATOM      5  O   UNL A   1      42.340  19.030  25.328  1.00  0.00    -0.269 OA
ATOM      6  C   UNL A   1      41.536  19.791  25.859  1.00  0.00     0.251 C 
ATOM      7  H   UNL A   1      39.956  18.612  25.484  1.00  0.00     0.163 HD
BRANCH   6   8
ATOM      8  C   UNL A   1      42.006  21.051  26.475  1.00  0.00     0.039 A 
ATOM      9  C   UNL A   1      42.032  21.198  27.863  1.00  0.00     0.014 A 
ATOM     10  C   UNL A   1      42.395  22.109  25.650  1.00  0.00     0.014 A 
ATOM     11  C   UNL A   1      42.275  22.450  28.417  1.00  0.00     0.010 A 
ATOM     12  C   UNL A   1      42.728  23.344  26.214  1.00  0.00     0.010 A 
ATOM     13  C   UNL A   1      42.622  23.539  27.600  1.00  0.00    -0.014 A 
BRANCH  13  14
ATOM     14  C   UNL A   1      42.882  24.860  28.229  1.00  0.00     0.031 A 
ATOM     15  C   UNL A   1      44.278  25.286  28.598  1.00  0.00     0.074 A 
ATOM     16  C   UNL A   1      41.850  25.705  28.417  1.00  0.00     0.049 A 
ATOM     17  N   UNL A   1      44.686  26.428  29.093  1.00  0.00    -0.248 NA
ATOM     18  C   UNL A   1      45.355  24.304  28.396  1.00  0.00     0.031 C 
ATOM     19  C   UNL A   1      40.449  25.403  28.112  1.00  0.00     0.029 A 
ATOM     20  N   UNL A   1      41.820  26.995  28.877  1.00  0.00    -0.354 N 
ATOM     21  C   UNL A   1      46.056  26.295  29.285  1.00  0.00     0.074 A 
ATOM     22  C   UNL A   1      46.408  24.952  28.874  1.00  0.00     0.031 C 
ATOM     23  C   UNL A   1      39.707  26.497  28.334  1.00  0.00     0.029 A 
ATOM     24  C   UNL A   1      40.566  27.556  28.848  1.00  0.00     0.049 A 
ATOM     25  H   UNL A   1      42.619  27.474  29.196  1.00  0.00     0.167 HD
ATOM     26  C   UNL A   1      46.939  27.208  29.754  1.00  0.00     0.037 A 
ATOM     27  C   UNL A   1      40.152  28.789  29.195  1.00  0.00     0.037 A 
ATOM     28  C   UNL A   1      46.594  28.555  30.133  1.00  0.00     0.049 A 
ATOM     29  C   UNL A   1      41.153  29.783  29.704  1.00  0.00     0.074 A 
ATOM     30  C   UNL A   1      47.428  29.569  30.575  1.00  0.00     0.029 A 
ATOM     31  N   UNL A   1      45.309  29.076  30.115  1.00  0.00    -0.354 N 
ATOM     32  N   UNL A   1      42.450  29.651  29.846  1.00  0.00    -0.248 NA
ATOM     33  C   UNL A   1      40.633  31.096  30.106  1.00  0.00     0.031 C 
ATOM     34  C   UNL A   1      46.643  30.691  30.859  1.00  0.00     0.029 A 
ATOM     35  C   UNL A   1      45.325  30.390  30.555  1.00  0.00     0.049 A 
ATOM     36  H   UNL A   1      44.505  28.585  29.831  1.00  0.00     0.167 HD
ATOM     37  C   UNL A   1      42.903  30.868  30.334  1.00  0.00     0.074 A 
ATOM     38  C   UNL A   1      41.745  31.731  30.447  1.00  0.00     0.031 C 
ATOM     39  C   UNL A   1      44.166  31.237  30.660  1.00  0.00     0.037 A 
BRANCH  26  40
ATOM     40  C   UNL A   1      48.371  26.781  29.900  1.00  0.00     0.057 A 
ATOM     41  C   UNL A   1      48.832  26.103  31.036  1.00  0.00     0.134 A 
ATOM     42  C   UNL A   1      49.291  27.011  28.868  1.00  0.00     0.134 A 
ATOM     43  F   UNL A   1      48.006  25.861  32.064  1.00  0.00    -0.206 F 
ATOM     44  C   UNL A   1      50.160  25.687  31.149  1.00  0.00     0.040 A 
ATOM     45  C   UNL A   1      50.616  26.580  28.960  1.00  0.00     0.040 A 
ATOM     46  F   UNL A   1      48.914  27.648  27.750  1.00  0.00    -0.206 F 
ATOM     47  C   UNL A   1      51.055  25.920  30.106  1.00  0.00     0.006 A 
ENDBRANCH  26  40
BRANCH  27  48
ATOM     48  C   UNL A   1      38.721  29.151  29.056  1.00  0.00     0.057 A 
ATOM     49  C   UNL A   1      37.851  29.085  30.149  1.00  0.00     0.134 A 
ATOM     50  C   UNL A   1      38.193  29.580  27.833  1.00  0.00     0.134 A 
ATOM     51  F   UNL A   1      38.296  28.666  31.342  1.00  0.00    -0.206 F 
ATOM     52  C   UNL A   1      36.502  29.424  30.029  1.00  0.00     0.040 A 
ATOM     53  C   UNL A   1      36.853  29.945  27.704  1.00  0.00     0.040 A 
ATOM     54  F   UNL A   1      38.980  29.671  26.750  1.00  0.00    -0.206 F 
ATOM     55  C   UNL A   1      36.002  29.862  28.803  1.00  0.00     0.006 A 
ENDBRANCH  27  48
BRANCH  39  56
ATOM     56  C   UNL A   1      44.357  32.644  31.141  1.00  0.00     0.057 A 
ATOM     57  C   UNL A   1      44.601  33.701  30.255  1.00  0.00     0.134 A 
ATOM     58  C   UNL A   1      44.282  32.947  32.506  1.00  0.00     0.134 A 
ATOM     59  F   UNL A   1      44.699  33.473  28.936  1.00  0.00    -0.206 F 
ATOM     60  C   UNL A   1      44.790  35.006  30.712  1.00  0.00     0.040 A 
ATOM     61  C   UNL A   1      44.445  34.252  32.974  1.00  0.00     0.040 A 
ATOM     62  F   UNL A   1      44.044  31.981  33.406  1.00  0.00    -0.206 F 
ATOM     63  C   UNL A   1      44.708  35.284  32.075  1.00  0.00     0.006 A 
ENDBRANCH  39  56
ENDBRANCH  13  14
ENDBRANCH   6   8
ENDBRANCH   3   4
ENDBRANCH   2   3
ENDBRANCH   1   2
BRANCH   1  64
ATOM     64  C   UNL A   1      37.542  23.742  25.737  1.00  0.00     0.116 C 
BRANCH  64  65
ATOM     65  N   UNL A   1      37.169  23.491  24.354  1.00  0.00    -0.356 N 
ATOM     66  C   UNL A   1      35.933  23.268  23.816  1.00  0.00     0.225 C 
ATOM     67  H   UNL A   1      37.916  23.480  23.712  1.00  0.00     0.163 HD
ATOM     68  O   UNL A   1      35.832  23.175  22.596  1.00  0.00    -0.275 OA
BRANCH  66  69
ATOM     69  C   UNL A   1      34.747  23.221  24.749  1.00  0.00     0.103 C 
ATOM     70  C   UNL A   1      34.524  21.881  25.500  1.00  0.00     0.040 C 
ATOM     71  C   UNL A   1      33.358  23.474  24.120  1.00  0.00     0.098 C 
ATOM     72  C   UNL A   1      32.998  21.684  25.372  1.00  0.00     0.086 C 
ATOM     73  C   UNL A   1      32.971  22.394  23.093  1.00  0.00     0.028 C 
ATOM     74  N   UNL A   1      32.556  23.063  25.267  1.00  0.00    -0.336 N 
ATOM     75  C   UNL A   1      32.703  21.158  23.967  1.00  0.00     0.027 C 
BRANCH  74  76
ATOM     76  C   UNL A   1      32.065  23.761  26.337  1.00  0.00     0.225 C 
ATOM     77  O   UNL A   1      32.310  23.380  27.488  1.00  0.00    -0.275 OA
BRANCH  76  78
ATOM     78  C   UNL A   1      31.116  24.937  26.153  1.00  0.00     0.132 C 
BRANCH  78  79
ATOM     79  C   UNL A   1      31.702  26.339  25.959  1.00  0.00     0.127 C 
ATOM     80  C   UNL A   1      33.236  26.377  26.079  1.00  0.00     0.033 C 
ATOM     81  O   UNL A   1      30.974  27.195  26.849  1.00  0.00    -0.378 OA
ATOM     82  C   UNL A   1      33.835  27.742  26.425  1.00  0.00     0.005 C 
ATOM     83  C   UNL A   1      31.730  28.071  27.665  1.00  0.00     0.160 C 
ATOM     84  C   UNL A   1      32.793  28.764  26.845  1.00  0.00     0.029 C 
ENDBRANCH  78  79
ENDBRANCH  76  78
ENDBRANCH  74  76
ENDBRANCH  66  69
ENDBRANCH  64  65
ENDBRANCH   1  64
TORSDOF 14
ENDMDL
MODEL 2
REMARK VINA RESULT:     -11.0      0.950      1.993
REMARK SMILES O=C(NCCCCNC(=O)[C@@H]1C[C@@H]2CC[C@H]1N2C(=O)C[C@@H]1CCCCO1)c1ccc(-c2c3nc(c(-c4c(F)cccc4F)c4ccc([nH]4)c(-c4c(F)cccc4F)c4nc(c(-c5c(F)cccc5F)c5ccc2[nH]5)C=C4)C=C3)cc1
REMARK SMILES IDX 6 1 5 2 4 3 3 4 1 5 2 6 27 8 28 9 80 10 29 11 79 12 30 13
REMARK SMILES IDX 31 14 32 15 73 16 33 17 78 18 72 19 74 20 34 21 77 22 71 23
REMARK SMILES IDX 70 24 35 26 61 27 44 28 60 29 45 30 48 31 59 32 75 33 46 34
REMARK SMILES IDX 47 35 58 37 76 38 49 39 36 40 37 41 42 42 38 43 39 44 41 45
REMARK SMILES IDX 43 46 40 47 62 48 63 49 68 50 64 51 65 52 67 53 69 54 66 55
REMARK SMILES IDX 50 56 51 57 56 58 52 59 53 60 55 61 57 62 54 63 7 64 8 65
REMARK SMILES IDX 9 66 10 68 11 69 12 70 16 71 13 72 15 73 17 74 14 75 18 76
REMARK SMILES IDX 19 77 20 78 21 79 22 80 26 81 23 82 25 83 24 84
REMARK H PARENT 3 7 74 25 48 36 8 67
REMARK Flexibility Score: inf
ROOT
ATOM      1  C   UNL A   1      36.440  20.840  24.967  1.00  0.00     0.023 C 
ENDROOT
BRANCH   1   2
ATOM      2  C   UNL A   1      37.917  20.567  24.688  1.00  0.00     0.023 C 
BRANCH   2   3
ATOM      3  C   UNL A   1      38.803  20.456  25.922  1.00  0.00     0.116 C 
BRANCH   3   4
ATOM      4  N   UNL A   1      39.863  19.468  25.784  1.00  0.00    -0.352 N 
ATOM      5  O   UNL A   1      41.982  18.688  25.752  1.00  0.00    -0.269 OA
ATOM      6  C   UNL A   1      41.209  19.600  26.032  1.00  0.00     0.251 C 
ATOM      7  H   UNL A   1      39.575  18.580  25.470  1.00  0.00     0.163 HD
BRANCH   6   8
ATOM      8  C   UNL A   1      41.731  20.863  26.599  1.00  0.00     0.039 A 
ATOM      9  C   UNL A   1      41.777  21.057  27.980  1.00  0.00     0.014 A 
ATOM     10  C   UNL A   1      42.147  21.877  25.733  1.00  0.00     0.014 A 
ATOM     11  C   UNL A   1      42.071  22.318  28.487  1.00  0.00     0.010 A 
ATOM     12  C   UNL A   1      42.530  23.119  26.250  1.00  0.00     0.010 A 
ATOM     13  C   UNL A   1      42.447  23.365  27.629  1.00  0.00    -0.014 A 
BRANCH  13  14
ATOM     14  C   UNL A   1      42.760  24.696  28.209  1.00  0.00     0.031 A 
ATOM     15  C   UNL A   1      44.179  25.100  28.513  1.00  0.00     0.074 A 
ATOM     16  C   UNL A   1      41.755  25.571  28.411  1.00  0.00     0.049 A 
ATOM     17  N   UNL A   1      44.631  26.246  28.958  1.00  0.00    -0.248 NA
ATOM     18  C   UNL A   1      45.224  24.088  28.299  1.00  0.00     0.031 C 
ATOM     19  C   UNL A   1      40.337  25.293  28.170  1.00  0.00     0.029 A 
ATOM     20  N   UNL A   1      41.772  26.874  28.835  1.00  0.00    -0.354 N 
ATOM     21  C   UNL A   1      46.004  26.086  29.102  1.00  0.00     0.074 A 
ATOM     22  C   UNL A   1      46.310  24.724  28.717  1.00  0.00     0.031 C 
ATOM     23  C   UNL A   1      39.629  26.410  28.388  1.00  0.00     0.029 A 
ATOM     24  C   UNL A   1      40.530  27.463  28.837  1.00  0.00     0.049 A 
ATOM     25  H   UNL A   1      42.593  27.343  29.110  1.00  0.00     0.167 HD
ATOM     26  C   UNL A   1      46.924  26.992  29.510  1.00  0.00     0.037 A 
ATOM     27  C   UNL A   1      40.158  28.714  29.164  1.00  0.00     0.037 A 
ATOM     28  C   UNL A   1      46.624  28.356  29.862  1.00  0.00     0.049 A 
ATOM     29  C   UNL A   1      41.200  29.698  29.605  1.00  0.00     0.074 A 
ATOM     30  C   UNL A   1      47.497  29.363  30.242  1.00  0.00     0.029 A 
ATOM     31  N   UNL A   1      45.351  28.907  29.878  1.00  0.00    -0.354 N 
ATOM     32  N   UNL A   1      42.497  29.540  29.701  1.00  0.00    -0.248 NA
ATOM     33  C   UNL A   1      40.724  31.034  29.988  1.00  0.00     0.031 C 
ATOM     34  C   UNL A   1      46.749  30.510  30.524  1.00  0.00     0.029 A 
ATOM     35  C   UNL A   1      45.414  30.232  30.279  1.00  0.00     0.049 A 
ATOM     36  H   UNL A   1      44.526  28.427  29.639  1.00  0.00     0.167 HD
ATOM     37  C   UNL A   1      42.997  30.760  30.136  1.00  0.00     0.074 A 
ATOM     38  C   UNL A   1      41.863  31.653  30.268  1.00  0.00     0.031 C 
ATOM     39  C   UNL A   1      44.279  31.108  30.403  1.00  0.00     0.037 A 
BRANCH  26  40
ATOM     40  C   UNL A   1      48.351  26.535  29.614  1.00  0.00     0.057 A 
ATOM     41  C   UNL A   1      49.274  26.737  28.579  1.00  0.00     0.134 A 
ATOM     42  C   UNL A   1      48.819  25.927  30.786  1.00  0.00     0.134 A 
ATOM     43  F   UNL A   1      48.888  27.303  27.427  1.00  0.00    -0.206 F 
ATOM     44  C   UNL A   1      50.604  26.331  28.699  1.00  0.00     0.040 A 
ATOM     45  C   UNL A   1      50.152  25.538  30.927  1.00  0.00     0.040 A 
ATOM     46  F   UNL A   1      47.990  25.711  31.819  1.00  0.00    -0.206 F 
ATOM     47  C   UNL A   1      51.049  25.736  29.878  1.00  0.00     0.006 A 
ENDBRANCH  26  40
BRANCH  27  48
ATOM     48  C   UNL A   1      38.731  29.105  29.068  1.00  0.00     0.057 A 
ATOM     49  C   UNL A   1      38.184  29.545  27.858  1.00  0.00     0.134 A 
ATOM     50  C   UNL A   1      37.880  29.039  30.177  1.00  0.00     0.134 A 
ATOM     51  F   UNL A   1      38.954  29.644  26.765  1.00  0.00    -0.206 F 
ATOM     52  C   UNL A   1      36.842  29.915  27.756  1.00  0.00     0.040 A 
ATOM     53  C   UNL A   1      36.532  29.383  30.084  1.00  0.00     0.040 A 
ATOM     54  F   UNL A   1      38.345  28.618  31.363  1.00  0.00    -0.206 F 
ATOM     55  C   UNL A   1      36.010  29.828  28.872  1.00  0.00     0.006 A 
ENDBRANCH  27  48
BRANCH  39  56
ATOM     56  C   UNL A   1      44.519  32.524  30.835  1.00  0.00     0.057 A 
ATOM     57  C   UNL A   1      44.759  33.547  29.910  1.00  0.00     0.134 A 
ATOM     58  C   UNL A   1      44.497  32.868  32.192  1.00  0.00     0.134 A 
ATOM     59  F   UNL A   1      44.808  33.279  28.596  1.00  0.00    -0.206 F 
ATOM     60  C   UNL A   1      44.995  34.861  30.321  1.00  0.00     0.040 A 
ATOM     61  C   UNL A   1      44.708  34.181  32.615  1.00  0.00     0.040 A 
ATOM     62  F   UNL A   1      44.266  31.935  33.128  1.00  0.00    -0.206 F 
ATOM     63  C   UNL A   1      44.965  35.180  31.678  1.00  0.00     0.006 A 
ENDBRANCH  39  56
ENDBRANCH  13  14
ENDBRANCH   6   8
ENDBRANCH   3   4
ENDBRANCH   2   3
ENDBRANCH   1   2
BRANCH   1  64
ATOM     64  C   UNL A   1      36.156  22.176  25.649  1.00  0.00     0.116 C 
BRANCH  64  65
ATOM     65  N   UNL A   1      35.394  22.017  26.877  1.00  0.00    -0.356 N 
ATOM     66  C   UNL A   1      34.173  22.532  27.212  1.00  0.00     0.225 C 
ATOM     67  H   UNL A   1      35.818  21.456  27.566  1.00  0.00     0.163 HD
ATOM     68  O   UNL A   1      33.664  22.188  28.275  1.00  0.00    -0.275 OA
BRANCH  66  69
ATOM     69  C   UNL A   1      33.486  23.441  26.223  1.00  0.00     0.103 C 
ATOM     70  C   UNL A   1      32.265  24.234  26.761  1.00  0.00     0.040 C 
ATOM     71  C   UNL A   1      32.905  22.775  24.955  1.00  0.00     0.098 C 
ATOM     72  C   UNL A   1      31.244  24.082  25.613  1.00  0.00     0.086 C 
ATOM     73  C   UNL A   1      31.776  21.779  25.277  1.00  0.00     0.028 C 
ATOM     74  N   UNL A   1      32.136  23.919  24.479  1.00  0.00    -0.336 N 
ATOM     75  C   UNL A   1      30.618  22.690  25.716  1.00  0.00     0.027 C 
BRANCH  74  76
ATOM     76  C   UNL A   1      32.456  24.953  23.642  1.00  0.00     0.225 C 
ATOM     77  O   UNL A   1      33.447  24.866  22.906  1.00  0.00    -0.275 OA
BRANCH  76  78
ATOM     78  C   UNL A   1      31.693  26.269  23.670  1.00  0.00     0.132 C 
BRANCH  78  79
ATOM     79  C   UNL A   1      32.219  27.413  24.543  1.00  0.00     0.127 C 
ATOM     80  C   UNL A   1      33.622  27.143  25.115  1.00  0.00     0.033 C 
ATOM     81  O   UNL A   1      31.185  27.686  25.497  1.00  0.00    -0.378 OA
ATOM     82  C   UNL A   1      33.984  27.941  26.369  1.00  0.00     0.005 C 
ATOM     83  C   UNL A   1      31.572  27.795  26.855  1.00  0.00     0.160 C 
ATOM     84  C   UNL A   1      32.799  28.667  26.981  1.00  0.00     0.029 C 
ENDBRANCH  78  79
ENDBRANCH  76  78
ENDBRANCH  74  76
ENDBRANCH  66  69
ENDBRANCH  64  65
ENDBRANCH   1  64
TORSDOF 14
ENDMDL
MODEL 3
REMARK VINA RESULT:     -10.9      1.894      2.491
REMARK SMILES O=C(NCCCCNC(=O)[C@@H]1C[C@@H]2CC[C@H]1N2C(=O)C[C@@H]1CCCCO1)c1ccc(-c2c3nc(c(-c4c(F)cccc4F)c4ccc([nH]4)c(-c4c(F)cccc4F)c4nc(c(-c5c(F)cccc5F)c5ccc2[nH]5)C=C4)C=C3)cc1
REMARK SMILES IDX 6 1 5 2 4 3 3 4 1 5 2 6 27 8 28 9 80 10 29 11 79 12 30 13
REMARK SMILES IDX 31 14 32 15 73 16 33 17 78 18 72 19 74 20 34 21 77 22 71 23
REMARK SMILES IDX 70 24 35 26 61 27 44 28 60 29 45 30 48 31 59 32 75 33 46 34
REMARK SMILES IDX 47 35 58 37 76 38 49 39 36 40 37 41 42 42 38 43 39 44 41 45
REMARK SMILES IDX 43 46 40 47 62 48 63 49 68 50 64 51 65 52 67 53 69 54 66 55
REMARK SMILES IDX 50 56 51 57 56 58 52 59 53 60 55 61 57 62 54 63 7 64 8 65
REMARK SMILES IDX 9 66 10 68 11 69 12 70 16 71 13 72 15 73 17 74 14 75 18 76
REMARK SMILES IDX 19 77 20 78 21 79 22 80 26 81 23 82 25 83 24 84
REMARK H PARENT 3 7 74 25 48 36 8 67
REMARK Flexibility Score: inf
ROOT
ATOM      1  C   UNL A   1      36.428  20.452  25.016  1.00  0.00     0.023 C 
ENDROOT
BRANCH   1   2
ATOM      2  C   UNL A   1      37.867  20.110  24.629  1.00  0.00     0.023 C 
BRANCH   2   3
ATOM      3  C   UNL A   1      38.889  20.231  25.751  1.00  0.00     0.116 C 
BRANCH   3   4
ATOM      4  N   UNL A   1      39.875  19.160  25.751  1.00  0.00    -0.352 N 
ATOM      5  O   UNL A   1      41.933  18.233  25.833  1.00  0.00    -0.269 OA
ATOM      6  C   UNL A   1      41.228  19.227  25.986  1.00  0.00     0.251 C 
ATOM      7  H   UNL A   1      39.523  18.261  25.557  1.00  0.00     0.163 HD
BRANCH   6   8
ATOM      8  C   UNL A   1      41.842  20.514  26.381  1.00  0.00     0.039 A 
ATOM      9  C   UNL A   1      41.987  20.847  27.728  1.00  0.00     0.014 A 
ATOM     10  C   UNL A   1      42.244  21.410  25.389  1.00  0.00     0.014 A 
ATOM     11  C   UNL A   1      42.370  22.137  28.079  1.00  0.00     0.010 A 
ATOM     12  C   UNL A   1      42.715  22.678  25.746  1.00  0.00     0.010 A 
ATOM     13  C   UNL A   1      42.735  23.069  27.093  1.00  0.00    -0.014 A 
BRANCH  13  14
ATOM     14  C   UNL A   1      43.144  24.436  27.508  1.00  0.00     0.031 A 
ATOM     15  C   UNL A   1      44.578  24.884  27.408  1.00  0.00     0.074 A 
ATOM     16  C   UNL A   1      42.199  25.300  27.926  1.00  0.00     0.049 A 
ATOM     17  N   UNL A   1      45.093  26.060  27.664  1.00  0.00    -0.248 NA
ATOM     18  C   UNL A   1      45.565  23.883  26.973  1.00  0.00     0.031 C 
ATOM     19  C   UNL A   1      40.777  24.981  28.080  1.00  0.00     0.029 A 
ATOM     20  N   UNL A   1      42.282  26.624  28.269  1.00  0.00    -0.354 N 
ATOM     21  C   UNL A   1      46.460  25.936  27.448  1.00  0.00     0.074 A 
ATOM     22  C   UNL A   1      46.700  24.562  27.061  1.00  0.00     0.031 C 
ATOM     23  C   UNL A   1      40.113  26.093  28.425  1.00  0.00     0.029 A 
ATOM     24  C   UNL A   1      41.066  27.187  28.571  1.00  0.00     0.049 A 
ATOM     25  H   UNL A   1      43.130  27.123  28.296  1.00  0.00     0.167 HD
ATOM     26  C   UNL A   1      47.425  26.881  27.557  1.00  0.00     0.037 A 
ATOM     27  C   UNL A   1      40.750  28.446  28.926  1.00  0.00     0.037 A 
ATOM     28  C   UNL A   1      47.182  28.256  27.912  1.00  0.00     0.049 A 
ATOM     29  C   UNL A   1      41.838  29.473  29.031  1.00  0.00     0.074 A 
ATOM     30  C   UNL A   1      48.090  29.298  28.001  1.00  0.00     0.029 A 
ATOM     31  N   UNL A   1      45.940  28.781  28.237  1.00  0.00    -0.354 N 
ATOM     32  N   UNL A   1      43.120  29.347  28.789  1.00  0.00    -0.248 NA
ATOM     33  C   UNL A   1      41.435  30.818  29.463  1.00  0.00     0.031 C 
ATOM     34  C   UNL A   1      47.404  30.444  28.416  1.00  0.00     0.029 A 
ATOM     35  C   UNL A   1      46.061  30.127  28.544  1.00  0.00     0.049 A 
ATOM     36  H   UNL A   1      45.097  28.273  28.247  1.00  0.00     0.167 HD
ATOM     37  C   UNL A   1      43.674  30.598  29.019  1.00  0.00     0.074 A 
ATOM     38  C   UNL A   1      42.586  31.474  29.404  1.00  0.00     0.031 C 
ATOM     39  C   UNL A   1      44.969  30.986  28.923  1.00  0.00     0.037 A 
BRANCH  26  40
ATOM     40  C   UNL A   1      48.844  26.459  27.303  1.00  0.00     0.057 A 
ATOM     41  C   UNL A   1      49.674  25.990  28.328  1.00  0.00     0.134 A 
ATOM     42  C   UNL A   1      49.369  26.479  26.004  1.00  0.00     0.134 A 
ATOM     43  F   UNL A   1      49.236  25.957  29.595  1.00  0.00    -0.206 F 
ATOM     44  C   UNL A   1      50.983  25.576  28.075  1.00  0.00     0.040 A 
ATOM     45  C   UNL A   1      50.669  26.046  25.734  1.00  0.00     0.040 A 
ATOM     46  F   UNL A   1      48.625  26.909  24.974  1.00  0.00    -0.206 F 
ATOM     47  C   UNL A   1      51.482  25.597  26.773  1.00  0.00     0.006 A 
ENDBRANCH  26  40
BRANCH  27  48
ATOM     48  C   UNL A   1      39.336  28.803  29.191  1.00  0.00     0.057 A 
ATOM     49  C   UNL A   1      38.774  28.627  30.461  1.00  0.00     0.134 A 
ATOM     50  C   UNL A   1      38.518  29.338  28.189  1.00  0.00     0.134 A 
ATOM     51  F   UNL A   1      39.505  28.105  31.456  1.00  0.00    -0.206 F 
ATOM     52  C   UNL A   1      37.444  28.960  30.721  1.00  0.00     0.040 A 
ATOM     53  C   UNL A   1      37.194  29.697  28.442  1.00  0.00     0.040 A 
ATOM     54  F   UNL A   1      39.002  29.536  26.954  1.00  0.00    -0.206 F 
ATOM     55  C   UNL A   1      36.652  29.504  29.711  1.00  0.00     0.006 A 
ENDBRANCH  27  48
BRANCH  39  56
ATOM     56  C   UNL A   1      45.268  32.427  29.210  1.00  0.00     0.057 A 
ATOM     57  C   UNL A   1      45.184  33.410  28.216  1.00  0.00     0.134 A 
ATOM     58  C   UNL A   1      45.629  32.836  30.499  1.00  0.00     0.134 A 
ATOM     59  F   UNL A   1      44.857  33.079  26.958  1.00  0.00    -0.206 F 
ATOM     60  C   UNL A   1      45.475  34.748  28.489  1.00  0.00     0.040 A 
ATOM     61  C   UNL A   1      45.900  34.174  30.790  1.00  0.00     0.040 A 
ATOM     62  F   UNL A   1      45.721  31.944  31.496  1.00  0.00    -0.206 F 
ATOM     63  C   UNL A   1      45.831  35.132  29.780  1.00  0.00     0.006 A 
ENDBRANCH  39  56
ENDBRANCH  13  14
ENDBRANCH   6   8
ENDBRANCH   3   4
ENDBRANCH   2   3
ENDBRANCH   1   2
BRANCH   1  64
ATOM     64  C   UNL A   1      36.265  21.779  25.752  1.00  0.00     0.116 C 
BRANCH  64  65
ATOM     65  N   UNL A   1      35.254  21.710  26.794  1.00  0.00    -0.356 N 
ATOM     66  C   UNL A   1      34.118  22.455  26.951  1.00  0.00     0.225 C 
ATOM     67  H   UNL A   1      35.409  21.028  27.487  1.00  0.00     0.163 HD
ATOM     68  O   UNL A   1      33.346  22.161  27.859  1.00  0.00    -0.275 OA
BRANCH  66  69
ATOM     69  C   UNL A   1      33.841  23.553  25.954  1.00  0.00     0.103 C 
ATOM     70  C   UNL A   1      33.086  24.794  26.499  1.00  0.00     0.040 C 
ATOM     71  C   UNL A   1      32.990  23.173  24.721  1.00  0.00     0.098 C 
ATOM     72  C   UNL A   1      32.055  25.068  25.383  1.00  0.00     0.086 C 
ATOM     73  C   UNL A   1      31.559  22.750  25.100  1.00  0.00     0.028 C 
ATOM     74  N   UNL A   1      32.755  24.527  24.231  1.00  0.00    -0.336 N 
ATOM     75  C   UNL A   1      30.907  24.070  25.542  1.00  0.00     0.027 C 
BRANCH  74  76
ATOM     76  C   UNL A   1      33.450  25.317  23.356  1.00  0.00     0.225 C 
ATOM     77  O   UNL A   1      34.027  24.806  22.388  1.00  0.00    -0.275 OA
BRANCH  76  78
ATOM     78  C   UNL A   1      33.638  26.807  23.603  1.00  0.00     0.132 C 
BRANCH  78  79
ATOM     79  C   UNL A   1      32.571  27.782  23.097  1.00  0.00     0.127 C 
ATOM     80  C   UNL A   1      32.045  28.727  24.193  1.00  0.00     0.033 C 
ATOM     81  O   UNL A   1      31.591  26.980  22.426  1.00  0.00    -0.378 OA
ATOM     82  C   UNL A   1      30.666  29.334  23.930  1.00  0.00     0.005 C 
ATOM     83  C   UNL A   1      30.233  27.212  22.752  1.00  0.00     0.160 C 
ATOM     84  C   UNL A   1      29.943  28.696  22.757  1.00  0.00     0.029 C 
ENDBRANCH  78  79
ENDBRANCH  76  78
ENDBRANCH  74  76
ENDBRANCH  66  69
ENDBRANCH  64  65
ENDBRANCH   1  64
TORSDOF 14
ENDMDL
