MODEL 1
REMARK VINA RESULT:     -11.5      0.000      0.000
REMARK SMILES N#Cc1cc2c(nc1N(CC(=O)NCCCCNC(=O)c1ccc(-c3c4nc(c(-c5c(F)cccc5F)c5ccc([nH]5)c(-c5c(F)cccc5F)c5nc(c(-c6c(F)cccc6F)c6ccc3[nH]6)C=C5)C=C4)cc1)CC(F)(F)F)CCC2
REMARK SMILES IDX 15 1 14 2 13 3 11 4 12 5 10 7 9 8 8 9 3 10 4 11 5 12 7 13
REMARK SMILES IDX 6 14 82 15 80 16 81 17 2 18 1 19 75 20 76 21 77 22 78 23
REMARK SMILES IDX 79 24 16 25 17 26 18 27 19 28 20 30 21 31 22 32 74 33 23 34
REMARK SMILES IDX 73 35 24 36 25 37 26 38 67 39 27 40 72 41 66 42 68 43 28 44
REMARK SMILES IDX 71 45 65 46 64 47 29 49 55 50 38 51 54 52 39 53 42 54 53 55
REMARK SMILES IDX 69 56 40 57 41 58 52 60 70 61 43 62 30 63 31 64 36 65 32 66
REMARK SMILES IDX 33 67 35 68 37 69 34 70 56 71 57 72 62 73 58 74 59 75 61 76
REMARK SMILES IDX 63 77 60 78 44 79 45 80 50 81 46 82 47 83 49 84 51 85 48 86
REMARK H PARENT 13 6 18 29 68 48 42 59
REMARK Flexibility Score: inf
ROOT
ATOM      1  C   UNL A   1      31.641  30.423  26.351  1.00  0.00     0.023 C 
ENDROOT
BRANCH   1   2
ATOM      2  C   UNL A   1      33.073  30.011  26.020  1.00  0.00     0.116 C 
BRANCH   2   3
ATOM      3  N   UNL A   1      33.237  29.703  24.616  1.00  0.00    -0.355 N 
ATOM      4  C   UNL A   1      33.529  28.495  24.047  1.00  0.00     0.239 C 
ATOM      5  O   UNL A   1      33.686  28.442  22.825  1.00  0.00    -0.273 OA
ATOM      6  H   UNL A   1      33.124  30.456  23.993  1.00  0.00     0.163 HD
BRANCH   4   7
ATOM      7  C   UNL A   1      33.669  27.243  24.924  1.00  0.00     0.218 C 
BRANCH   7   8
ATOM      8  N   UNL A   1      32.564  26.268  24.714  1.00  0.00    -0.337 N 
BRANCH   8   9
ATOM      9  C   UNL A   1      32.899  24.940  24.488  1.00  0.00     0.147 A 
ATOM     10  C   UNL A   1      33.325  24.362  23.269  1.00  0.00     0.095 A 
ATOM     11  C   UNL A   1      33.781  23.024  23.227  1.00  0.00     0.029 A 
ATOM     12  C   UNL A   1      33.736  22.272  24.374  1.00  0.00    -0.025 A 
ATOM     13  N   UNL A   1      32.833  24.137  25.589  1.00  0.00    -0.234 NA
ATOM     14  C   UNL A   1      33.232  22.857  25.510  1.00  0.00     0.046 A 
ATOM     15  C   UNL A   1      34.182  20.873  24.630  1.00  0.00     0.038 C 
ATOM     16  C   UNL A   1      33.244  21.894  26.665  1.00  0.00     0.057 C 
ATOM     17  C   UNL A   1      33.420  20.559  25.927  1.00  0.00     0.011 C 
BRANCH  10  18
ATOM     18  C   UNL A   1      33.288  25.029  22.004  1.00  0.00     0.103 C 
ATOM     19  N   UNL A   1      33.267  25.591  20.991  1.00  0.00    -0.192 NA
ENDBRANCH  10  18
ENDBRANCH   8   9
BRANCH   8  20
ATOM     20  C   UNL A   1      31.191  26.836  24.850  1.00  0.00     0.234 C 
BRANCH  20  21
ATOM     21  C   UNL A   1      30.216  26.620  23.674  1.00  0.00     0.405 C 
ATOM     22  F   UNL A   1      29.878  25.323  23.506  1.00  0.00    -0.169 F 
ATOM     23  F   UNL A   1      29.069  27.310  23.877  1.00  0.00    -0.169 F 
ATOM     24  F   UNL A   1      30.733  27.052  22.501  1.00  0.00    -0.169 F 
ENDBRANCH  20  21
ENDBRANCH   8  20
ENDBRANCH   7   8
ENDBRANCH   4   7
ENDBRANCH   2   3
ENDBRANCH   1   2
BRANCH   1  25
ATOM     25  C   UNL A   1      31.471  31.925  26.574  1.00  0.00     0.023 C 
BRANCH  25  26
ATOM     26  C   UNL A   1      32.664  32.576  27.254  1.00  0.00     0.116 C 
BRANCH  26  27
ATOM     27  N   UNL A   1      32.406  33.964  27.618  1.00  0.00    -0.352 N 
ATOM     28  C   UNL A   1      33.020  34.720  28.586  1.00  0.00     0.251 C 
ATOM     29  H   UNL A   1      31.701  34.418  27.103  1.00  0.00     0.163 HD
ATOM     30  O   UNL A   1      32.584  35.820  28.903  1.00  0.00    -0.269 OA
BRANCH  28  31
ATOM     31  C   UNL A   1      34.204  34.158  29.259  1.00  0.00     0.039 A 
ATOM     32  C   UNL A   1      34.028  33.220  30.275  1.00  0.00     0.014 A 
ATOM     33  C   UNL A   1      35.483  34.501  28.810  1.00  0.00     0.014 A 
ATOM     34  C   UNL A   1      35.146  32.581  30.806  1.00  0.00     0.010 A 
ATOM     35  C   UNL A   1      36.580  33.784  29.262  1.00  0.00     0.010 A 
ATOM     36  C   UNL A   1      36.426  32.833  30.280  1.00  0.00    -0.014 A 
BRANCH  36  37
ATOM     37  C   UNL A   1      37.618  32.145  30.830  1.00  0.00     0.031 A 
ATOM     38  C   UNL A   1      38.121  32.512  32.198  1.00  0.00     0.074 A 
ATOM     39  C   UNL A   1      38.244  31.201  30.101  1.00  0.00     0.049 A 
ATOM     40  N   UNL A   1      39.116  31.998  32.874  1.00  0.00    -0.248 NA
ATOM     41  C   UNL A   1      37.436  33.616  32.892  1.00  0.00     0.031 C 
ATOM     42  C   UNL A   1      37.878  30.800  28.741  1.00  0.00     0.029 A 
ATOM     43  N   UNL A   1      39.311  30.394  30.408  1.00  0.00    -0.354 N 
ATOM     44  C   UNL A   1      39.164  32.707  34.067  1.00  0.00     0.074 A 
ATOM     45  C   UNL A   1      38.164  33.744  33.990  1.00  0.00     0.031 C 
ATOM     46  C   UNL A   1      38.670  29.789  28.353  1.00  0.00     0.029 A 
ATOM     47  C   UNL A   1      39.622  29.491  29.420  1.00  0.00     0.049 A 
ATOM     48  H   UNL A   1      39.807  30.457  31.255  1.00  0.00     0.167 HD
ATOM     49  C   UNL A   1      39.940  32.481  35.149  1.00  0.00     0.037 A 
ATOM     50  C   UNL A   1      40.560  28.525  29.387  1.00  0.00     0.037 A 
ATOM     51  C   UNL A   1      40.914  31.430  35.232  1.00  0.00     0.049 A 
ATOM     52  C   UNL A   1      41.442  28.322  30.590  1.00  0.00     0.074 A 
ATOM     53  C   UNL A   1      41.716  31.086  36.303  1.00  0.00     0.029 A 
ATOM     54  N   UNL A   1      41.217  30.556  34.199  1.00  0.00    -0.354 N 
ATOM     55  N   UNL A   1      41.414  28.940  31.746  1.00  0.00    -0.248 NA
ATOM     56  C   UNL A   1      42.484  27.289  30.488  1.00  0.00     0.031 C 
ATOM     57  C   UNL A   1      42.547  30.040  35.901  1.00  0.00     0.029 A 
ATOM     58  C   UNL A   1      42.225  29.695  34.597  1.00  0.00     0.049 A 
ATOM     59  H   UNL A   1      40.783  30.549  33.316  1.00  0.00     0.167 HD
ATOM     60  C   UNL A   1      42.418  28.362  32.513  1.00  0.00     0.074 A 
ATOM     61  C   UNL A   1      43.023  27.328  31.699  1.00  0.00     0.031 C 
ATOM     62  C   UNL A   1      42.807  28.666  33.774  1.00  0.00     0.037 A 
BRANCH  49  63
ATOM     63  C   UNL A   1      39.745  33.368  36.344  1.00  0.00     0.057 A 
ATOM     64  C   UNL A   1      40.478  34.551  36.506  1.00  0.00     0.134 A 
ATOM     65  C   UNL A   1      38.777  33.070  37.309  1.00  0.00     0.134 A 
ATOM     66  F   UNL A   1      41.432  34.888  35.624  1.00  0.00    -0.206 F 
ATOM     67  C   UNL A   1      40.266  35.397  37.595  1.00  0.00     0.040 A 
ATOM     68  C   UNL A   1      38.536  33.924  38.387  1.00  0.00     0.040 A 
ATOM     69  F   UNL A   1      38.037  31.954  37.213  1.00  0.00    -0.206 F 
ATOM     70  C   UNL A   1      39.284  35.089  38.533  1.00  0.00     0.006 A 
ENDBRANCH  49  63
BRANCH  50  71
ATOM     71  C   UNL A   1      40.687  27.652  28.190  1.00  0.00     0.057 A 
ATOM     72  C   UNL A   1      40.029  26.418  28.123  1.00  0.00     0.134 A 
ATOM     73  C   UNL A   1      41.454  28.032  27.081  1.00  0.00     0.134 A 
ATOM     74  F   UNL A   1      39.292  25.990  29.158  1.00  0.00    -0.206 F 
ATOM     75  C   UNL A   1      40.137  25.590  27.005  1.00  0.00     0.040 A 
ATOM     76  C   UNL A   1      41.550  27.226  25.945  1.00  0.00     0.040 A 
ATOM     77  F   UNL A   1      42.106  29.204  27.078  1.00  0.00    -0.206 F 
ATOM     78  C   UNL A   1      40.894  25.997  25.907  1.00  0.00     0.006 A 
ENDBRANCH  50  71
BRANCH  62  79
ATOM     79  C   UNL A   1      43.942  27.885  34.369  1.00  0.00     0.057 A 
ATOM     80  C   UNL A   1      45.253  28.377  34.351  1.00  0.00     0.134 A 
ATOM     81  C   UNL A   1      43.700  26.702  35.081  1.00  0.00     0.134 A 
ATOM     82  F   UNL A   1      45.549  29.501  33.682  1.00  0.00    -0.206 F 
ATOM     83  C   UNL A   1      46.283  27.721  35.025  1.00  0.00     0.040 A 
ATOM     84  C   UNL A   1      44.717  26.053  35.781  1.00  0.00     0.040 A 
ATOM     85  F   UNL A   1      42.463  26.188  35.148  1.00  0.00    -0.206 F 
ATOM     86  C   UNL A   1      46.013  26.564  35.756  1.00  0.00     0.006 A 
ENDBRANCH  62  79
ENDBRANCH  36  37
ENDBRANCH  28  31
ENDBRANCH  26  27
ENDBRANCH  25  26
ENDBRANCH   1  25
TORSDOF 16
ENDMDL
MODEL 2
REMARK VINA RESULT:     -11.4      1.631      3.033
REMARK SMILES N#Cc1cc2c(nc1N(CC(=O)NCCCCNC(=O)c1ccc(-c3c4nc(c(-c5c(F)cccc5F)c5ccc([nH]5)c(-c5c(F)cccc5F)c5nc(c(-c6c(F)cccc6F)c6ccc3[nH]6)C=C5)C=C4)cc1)CC(F)(F)F)CCC2
REMARK SMILES IDX 15 1 14 2 13 3 11 4 12 5 10 7 9 8 8 9 3 10 4 11 5 12 7 13
REMARK SMILES IDX 6 14 82 15 80 16 81 17 2 18 1 19 75 20 76 21 77 22 78 23
REMARK SMILES IDX 79 24 16 25 17 26 18 27 19 28 20 30 21 31 22 32 74 33 23 34
REMARK SMILES IDX 73 35 24 36 25 37 26 38 67 39 27 40 72 41 66 42 68 43 28 44
REMARK SMILES IDX 71 45 65 46 64 47 29 49 55 50 38 51 54 52 39 53 42 54 53 55
REMARK SMILES IDX 69 56 40 57 41 58 52 60 70 61 43 62 30 63 31 64 36 65 32 66
REMARK SMILES IDX 33 67 35 68 37 69 34 70 56 71 57 72 62 73 58 74 59 75 61 76
REMARK SMILES IDX 63 77 60 78 44 79 45 80 50 81 46 82 47 83 49 84 51 85 48 86
REMARK H PARENT 13 6 18 29 68 48 42 59
REMARK Flexibility Score: inf
ROOT
ATOM      1  C   UNL A   1      31.790  30.319  25.952  1.00  0.00     0.023 C 
ENDROOT
BRANCH   1   2
ATOM      2  C   UNL A   1      32.447  29.215  26.777  1.00  0.00     0.116 C 
BRANCH   2   3
ATOM      3  N   UNL A   1      31.521  28.148  27.090  1.00  0.00    -0.355 N 
ATOM      4  C   UNL A   1      31.428  26.917  26.504  1.00  0.00     0.239 C 
ATOM      5  O   UNL A   1      30.530  26.156  26.872  1.00  0.00    -0.273 OA
ATOM      6  H   UNL A   1      30.880  28.330  27.814  1.00  0.00     0.163 HD
BRANCH   4   7
ATOM      7  C   UNL A   1      32.417  26.508  25.404  1.00  0.00     0.218 C 
BRANCH   7   8
ATOM      8  N   UNL A   1      31.769  26.357  24.073  1.00  0.00    -0.337 N 
BRANCH   8   9
ATOM      9  C   UNL A   1      31.161  27.472  23.512  1.00  0.00     0.147 A 
ATOM     10  C   UNL A   1      31.792  28.527  22.811  1.00  0.00     0.095 A 
ATOM     11  C   UNL A   1      31.024  29.520  22.161  1.00  0.00     0.029 A 
ATOM     12  C   UNL A   1      29.658  29.486  22.281  1.00  0.00    -0.025 A 
ATOM     13  N   UNL A   1      29.803  27.508  23.638  1.00  0.00    -0.234 NA
ATOM     14  C   UNL A   1      29.102  28.489  23.045  1.00  0.00     0.046 A 
ATOM     15  C   UNL A   1      28.613  30.362  21.680  1.00  0.00     0.038 C 
ATOM     16  C   UNL A   1      27.603  28.606  23.080  1.00  0.00     0.057 C 
ATOM     17  C   UNL A   1      27.414  30.049  22.589  1.00  0.00     0.011 C 
BRANCH  10  18
ATOM     18  C   UNL A   1      33.208  28.713  22.740  1.00  0.00     0.103 C 
ATOM     19  N   UNL A   1      34.358  28.850  22.705  1.00  0.00    -0.192 NA
ENDBRANCH  10  18
ENDBRANCH   8   9
BRANCH   8  20
ATOM     20  C   UNL A   1      31.920  25.009  23.451  1.00  0.00     0.234 C 
BRANCH  20  21
ATOM     21  C   UNL A   1      32.884  24.887  22.252  1.00  0.00     0.405 C 
ATOM     22  F   UNL A   1      33.218  23.606  21.978  1.00  0.00    -0.169 F 
ATOM     23  F   UNL A   1      32.319  25.402  21.135  1.00  0.00    -0.169 F 
ATOM     24  F   UNL A   1      34.037  25.563  22.459  1.00  0.00    -0.169 F 
ENDBRANCH  20  21
ENDBRANCH   8  20
ENDBRANCH   7   8
ENDBRANCH   4   7
ENDBRANCH   2   3
ENDBRANCH   1   2
BRANCH   1  25
ATOM     25  C   UNL A   1      31.496  31.589  26.749  1.00  0.00     0.023 C 
BRANCH  25  26
ATOM     26  C   UNL A   1      32.747  32.322  27.204  1.00  0.00     0.116 C 
BRANCH  26  27
ATOM     27  N   UNL A   1      32.482  33.716  27.541  1.00  0.00    -0.352 N 
ATOM     28  C   UNL A   1      33.112  34.502  28.474  1.00  0.00     0.251 C 
ATOM     29  H   UNL A   1      31.759  34.149  27.034  1.00  0.00     0.163 HD
ATOM     30  O   UNL A   1      32.671  35.604  28.776  1.00  0.00    -0.269 OA
BRANCH  28  31
ATOM     31  C   UNL A   1      34.320  33.970  29.129  1.00  0.00     0.039 A 
ATOM     32  C   UNL A   1      34.181  33.140  30.240  1.00  0.00     0.014 A 
ATOM     33  C   UNL A   1      35.577  34.228  28.576  1.00  0.00     0.014 A 
ATOM     34  C   UNL A   1      35.313  32.519  30.766  1.00  0.00     0.010 A 
ATOM     35  C   UNL A   1      36.681  33.524  29.032  1.00  0.00     0.010 A 
ATOM     36  C   UNL A   1      36.565  32.680  30.145  1.00  0.00    -0.014 A 
BRANCH  36  37
ATOM     37  C   UNL A   1      37.770  32.011  30.690  1.00  0.00     0.031 A 
ATOM     38  C   UNL A   1      38.270  32.382  32.057  1.00  0.00     0.074 A 
ATOM     39  C   UNL A   1      38.409  31.079  29.956  1.00  0.00     0.049 A 
ATOM     40  N   UNL A   1      39.275  31.883  32.729  1.00  0.00    -0.248 NA
ATOM     41  C   UNL A   1      37.568  33.472  32.756  1.00  0.00     0.031 C 
ATOM     42  C   UNL A   1      38.047  30.677  28.595  1.00  0.00     0.029 A 
ATOM     43  N   UNL A   1      39.491  30.290  30.257  1.00  0.00    -0.354 N 
ATOM     44  C   UNL A   1      39.314  32.589  33.923  1.00  0.00     0.074 A 
ATOM     45  C   UNL A   1      38.296  33.609  33.853  1.00  0.00     0.031 C 
ATOM     46  C   UNL A   1      38.855  29.680  28.203  1.00  0.00     0.029 A 
ATOM     47  C   UNL A   1      39.815  29.395  29.266  1.00  0.00     0.049 A 
ATOM     48  H   UNL A   1      39.988  30.359  31.104  1.00  0.00     0.167 HD
ATOM     49  C   UNL A   1      40.097  32.374  35.004  1.00  0.00     0.037 A 
ATOM     50  C   UNL A   1      40.769  28.445  29.228  1.00  0.00     0.037 A 
ATOM     51  C   UNL A   1      41.089  31.338  35.080  1.00  0.00     0.049 A 
ATOM     52  C   UNL A   1      41.657  28.254  30.428  1.00  0.00     0.074 A 
ATOM     53  C   UNL A   1      41.900  31.005  36.148  1.00  0.00     0.029 A 
ATOM     54  N   UNL A   1      41.405  30.473  34.044  1.00  0.00    -0.354 N 
ATOM     55  N   UNL A   1      41.622  28.868  31.586  1.00  0.00    -0.248 NA
ATOM     56  C   UNL A   1      42.716  27.239  30.319  1.00  0.00     0.031 C 
ATOM     57  C   UNL A   1      42.748  29.974  35.741  1.00  0.00     0.029 A 
ATOM     58  C   UNL A   1      42.428  29.628  34.437  1.00  0.00     0.049 A 
ATOM     59  H   UNL A   1      40.968  30.461  33.162  1.00  0.00     0.167 HD
ATOM     60  C   UNL A   1      42.638  28.305  32.348  1.00  0.00     0.074 A 
ATOM     61  C   UNL A   1      43.258  27.284  31.530  1.00  0.00     0.031 C 
ATOM     62  C   UNL A   1      43.026  28.612  33.609  1.00  0.00     0.037 A 
BRANCH  49  63
ATOM     63  C   UNL A   1      39.890  33.253  36.201  1.00  0.00     0.057 A 
ATOM     64  C   UNL A   1      40.543  34.486  36.327  1.00  0.00     0.134 A 
ATOM     65  C   UNL A   1      38.988  32.894  37.209  1.00  0.00     0.134 A 
ATOM     66  F   UNL A   1      41.432  34.884  35.403  1.00  0.00    -0.206 F 
ATOM     67  C   UNL A   1      40.318  35.324  37.419  1.00  0.00     0.040 A 
ATOM     68  C   UNL A   1      38.733  33.737  38.292  1.00  0.00     0.040 A 
ATOM     69  F   UNL A   1      38.327  31.728  37.149  1.00  0.00    -0.206 F 
ATOM     70  C   UNL A   1      39.402  34.954  38.401  1.00  0.00     0.006 A 
ENDBRANCH  49  63
BRANCH  50  71
ATOM     71  C   UNL A   1      40.907  27.579  28.028  1.00  0.00     0.057 A 
ATOM     72  C   UNL A   1      40.176  26.391  27.907  1.00  0.00     0.134 A 
ATOM     73  C   UNL A   1      41.759  27.919  26.969  1.00  0.00     0.134 A 
ATOM     74  F   UNL A   1      39.354  26.001  28.892  1.00  0.00    -0.206 F 
ATOM     75  C   UNL A   1      40.294  25.569  26.785  1.00  0.00     0.040 A 
ATOM     76  C   UNL A   1      41.868  27.120  25.829  1.00  0.00     0.040 A 
ATOM     77  F   UNL A   1      42.485  29.046  27.019  1.00  0.00    -0.206 F 
ATOM     78  C   UNL A   1      41.137  25.937  25.737  1.00  0.00     0.006 A 
ENDBRANCH  50  71
BRANCH  62  79
ATOM     79  C   UNL A   1      44.175  27.848  34.199  1.00  0.00     0.057 A 
ATOM     80  C   UNL A   1      45.484  28.339  34.134  1.00  0.00     0.134 A 
ATOM     81  C   UNL A   1      43.951  26.687  34.951  1.00  0.00     0.134 A 
ATOM     82  F   UNL A   1      45.763  29.443  33.424  1.00  0.00    -0.206 F 
ATOM     83  C   UNL A   1      46.531  27.703  34.801  1.00  0.00     0.040 A 
ATOM     84  C   UNL A   1      44.985  26.059  35.644  1.00  0.00     0.040 A 
ATOM     85  F   UNL A   1      42.717  26.175  35.063  1.00  0.00    -0.206 F 
ATOM     86  C   UNL A   1      46.280  26.568  35.572  1.00  0.00     0.006 A 
ENDBRANCH  62  79
ENDBRANCH  36  37
ENDBRANCH  28  31
ENDBRANCH  26  27
ENDBRANCH  25  26
ENDBRANCH   1  25
TORSDOF 16
ENDMDL
MODEL 3
REMARK VINA RESULT:     -11.4      1.151      2.086
REMARK SMILES N#Cc1cc2c(nc1N(CC(=O)NCCCCNC(=O)c1ccc(-c3c4nc(c(-c5c(F)cccc5F)c5ccc([nH]5)c(-c5c(F)cccc5F)c5nc(c(-c6c(F)cccc6F)c6ccc3[nH]6)C=C5)C=C4)cc1)CC(F)(F)F)CCC2
REMARK SMILES IDX 15 1 14 2 13 3 11 4 12 5 10 7 9 8 8 9 3 10 4 11 5 12 7 13
REMARK SMILES IDX 6 14 82 15 80 16 81 17 2 18 1 19 75 20 76 21 77 22 78 23
REMARK SMILES IDX 79 24 16 25 17 26 18 27 19 28 20 30 21 31 22 32 74 33 23 34
REMARK SMILES IDX 73 35 24 36 25 37 26 38 67 39 27 40 72 41 66 42 68 43 28 44
REMARK SMILES IDX 71 45 65 46 64 47 29 49 55 50 38 51 54 52 39 53 42 54 53 55
REMARK SMILES IDX 69 56 40 57 41 58 52 60 70 61 43 62 30 63 31 64 36 65 32 66
REMARK SMILES IDX 33 67 35 68 37 69 34 70 56 71 57 72 62 73 58 74 59 75 61 76
REMARK SMILES IDX 63 77 60 78 44 79 45 80 50 81 46 82 47 83 49 84 51 85 48 86
REMARK H PARENT 13 6 18 29 68 48 42 59
REMARK Flexibility Score: inf
ROOT
ATOM      1  C   UNL A   1      31.760  30.530  26.867  1.00  0.00     0.023 C 
ENDROOT
BRANCH   1   2
ATOM      2  C   UNL A   1      33.233  30.131  26.829  1.00  0.00     0.116 C 
BRANCH   2   3
ATOM      3  N   UNL A   1      33.630  29.645  25.525  1.00  0.00    -0.355 N 
ATOM      4  C   UNL A   1      33.655  28.352  25.082  1.00  0.00     0.239 C 
ATOM      5  O   UNL A   1      34.080  28.128  23.946  1.00  0.00    -0.273 OA
ATOM      6  H   UNL A   1      33.916  30.328  24.878  1.00  0.00     0.163 HD
BRANCH   4   7
ATOM      7  C   UNL A   1      33.174  27.214  25.991  1.00  0.00     0.218 C 
BRANCH   7   8
ATOM      8  N   UNL A   1      32.835  25.977  25.236  1.00  0.00    -0.337 N 
BRANCH   8   9
ATOM      9  C   UNL A   1      33.535  24.816  25.534  1.00  0.00     0.147 A 
ATOM     10  C   UNL A   1      33.027  23.647  26.146  1.00  0.00     0.095 A 
ATOM     11  C   UNL A   1      33.823  22.483  26.247  1.00  0.00     0.029 A 
ATOM     12  C   UNL A   1      35.122  22.528  25.806  1.00  0.00    -0.025 A 
ATOM     13  N   UNL A   1      34.845  24.823  25.152  1.00  0.00    -0.234 NA
ATOM     14  C   UNL A   1      35.591  23.716  25.300  1.00  0.00     0.046 A 
ATOM     15  C   UNL A   1      36.161  21.462  25.751  1.00  0.00     0.038 C 
ATOM     16  C   UNL A   1      37.029  23.594  24.877  1.00  0.00     0.057 C 
ATOM     17  C   UNL A   1      37.437  22.306  25.608  1.00  0.00     0.011 C 
BRANCH  10  18
ATOM     18  C   UNL A   1      31.732  23.547  26.745  1.00  0.00     0.103 C 
ATOM     19  N   UNL A   1      30.692  23.479  27.251  1.00  0.00    -0.192 NA
ENDBRANCH  10  18
ENDBRANCH   8   9
BRANCH   8  20
ATOM     20  C   UNL A   1      31.701  26.120  24.276  1.00  0.00     0.234 C 
BRANCH  20  21
ATOM     21  C   UNL A   1      30.380  26.701  24.822  1.00  0.00     0.405 C 
ATOM     22  F   UNL A   1      30.276  28.035  24.631  1.00  0.00    -0.169 F 
ATOM     23  F   UNL A   1      29.319  26.124  24.210  1.00  0.00    -0.169 F 
ATOM     24  F   UNL A   1      30.239  26.477  26.149  1.00  0.00    -0.169 F 
ENDBRANCH  20  21
ENDBRANCH   8  20
ENDBRANCH   7   8
ENDBRANCH   4   7
ENDBRANCH   2   3
ENDBRANCH   1   2
BRANCH   1  25
ATOM     25  C   UNL A   1      31.531  32.038  26.795  1.00  0.00     0.023 C 
BRANCH  25  26
ATOM     26  C   UNL A   1      32.747  32.856  27.196  1.00  0.00     0.116 C 
BRANCH  26  27
ATOM     27  N   UNL A   1      32.392  34.204  27.626  1.00  0.00    -0.352 N 
ATOM     28  C   UNL A   1      32.945  34.948  28.639  1.00  0.00     0.251 C 
ATOM     29  H   UNL A   1      31.663  34.635  27.126  1.00  0.00     0.163 HD
ATOM     30  O   UNL A   1      32.433  36.000  29.005  1.00  0.00    -0.269 OA
BRANCH  28  31
ATOM     31  C   UNL A   1      34.159  34.434  29.297  1.00  0.00     0.039 A 
ATOM     32  C   UNL A   1      34.030  33.652  30.444  1.00  0.00     0.014 A 
ATOM     33  C   UNL A   1      35.410  34.657  28.715  1.00  0.00     0.014 A 
ATOM     34  C   UNL A   1      35.164  33.044  30.978  1.00  0.00     0.010 A 
ATOM     35  C   UNL A   1      36.515  33.963  29.183  1.00  0.00     0.010 A 
ATOM     36  C   UNL A   1      36.408  33.167  30.333  1.00  0.00    -0.014 A 
BRANCH  36  37
ATOM     37  C   UNL A   1      37.616  32.511  30.887  1.00  0.00     0.031 A 
ATOM     38  C   UNL A   1      38.223  33.028  32.160  1.00  0.00     0.074 A 
ATOM     39  C   UNL A   1      38.162  31.460  30.246  1.00  0.00     0.049 A 
ATOM     40  N   UNL A   1      39.247  32.567  32.830  1.00  0.00    -0.248 NA
ATOM     41  C   UNL A   1      37.619  34.235  32.750  1.00  0.00     0.031 C 
ATOM     42  C   UNL A   1      37.691  30.904  28.975  1.00  0.00     0.029 A 
ATOM     43  N   UNL A   1      39.225  30.659  30.582  1.00  0.00    -0.354 N 
ATOM     44  C   UNL A   1      39.399  33.419  33.916  1.00  0.00     0.074 A 
ATOM     45  C   UNL A   1      38.425  34.474  33.773  1.00  0.00     0.031 C 
ATOM     46  C   UNL A   1      38.425  29.823  28.669  1.00  0.00     0.029 A 
ATOM     47  C   UNL A   1      39.440  29.627  29.701  1.00  0.00     0.049 A 
ATOM     48  H   UNL A   1      39.780  30.810  31.380  1.00  0.00     0.167 HD
ATOM     49  C   UNL A   1      40.242  33.303  34.965  1.00  0.00     0.037 A 
ATOM     50  C   UNL A   1      40.346  28.631  29.730  1.00  0.00     0.037 A 
ATOM     51  C   UNL A   1      41.189  32.235  35.118  1.00  0.00     0.049 A 
ATOM     52  C   UNL A   1      41.303  28.549  30.889  1.00  0.00     0.074 A 
ATOM     53  C   UNL A   1      42.054  32.000  36.169  1.00  0.00     0.029 A 
ATOM     54  N   UNL A   1      41.395  31.227  34.188  1.00  0.00    -0.354 N 
ATOM     55  N   UNL A   1      41.374  29.309  31.955  1.00  0.00    -0.248 NA
ATOM     56  C   UNL A   1      42.306  27.474  30.852  1.00  0.00     0.031 C 
ATOM     57  C   UNL A   1      42.825  30.881  35.851  1.00  0.00     0.029 A 
ATOM     58  C   UNL A   1      42.404  30.387  34.626  1.00  0.00     0.049 A 
ATOM     59  H   UNL A   1      40.900  31.125  33.343  1.00  0.00     0.167 HD
ATOM     60  C   UNL A   1      42.412  28.795  32.722  1.00  0.00     0.074 A 
ATOM     61  C   UNL A   1      42.930  27.646  32.010  1.00  0.00     0.031 C 
ATOM     62  C   UNL A   1      42.898  29.241  33.906  1.00  0.00     0.037 A 
BRANCH  49  63
ATOM     63  C   UNL A   1      40.156  34.340  36.046  1.00  0.00     0.057 A 
ATOM     64  C   UNL A   1      39.358  34.152  37.182  1.00  0.00     0.134 A 
ATOM     65  C   UNL A   1      40.921  35.510  35.981  1.00  0.00     0.134 A 
ATOM     66  F   UNL A   1      38.588  33.058  37.299  1.00  0.00    -0.206 F 
ATOM     67  C   UNL A   1      39.311  35.097  38.207  1.00  0.00     0.040 A 
ATOM     68  C   UNL A   1      40.905  36.449  37.013  1.00  0.00     0.040 A 
ATOM     69  F   UNL A   1      41.709  35.752  34.922  1.00  0.00    -0.206 F 
ATOM     70  C   UNL A   1      40.096  36.245  38.128  1.00  0.00     0.006 A 
ENDBRANCH  49  63
BRANCH  50  71
ATOM     71  C   UNL A   1      40.364  27.610  28.649  1.00  0.00     0.057 A 
ATOM     72  C   UNL A   1      41.119  27.804  27.487  1.00  0.00     0.134 A 
ATOM     73  C   UNL A   1      39.642  26.415  28.754  1.00  0.00     0.134 A 
ATOM     74  F   UNL A   1      41.821  28.934  27.318  1.00  0.00    -0.206 F 
ATOM     75  C   UNL A   1      41.147  26.854  26.464  1.00  0.00     0.040 A 
ATOM     76  C   UNL A   1      39.680  25.444  27.752  1.00  0.00     0.040 A 
ATOM     77  F   UNL A   1      38.902  26.164  29.845  1.00  0.00    -0.206 F 
ATOM     78  C   UNL A   1      40.431  25.664  26.599  1.00  0.00     0.006 A 
ENDBRANCH  50  71
BRANCH  62  79
ATOM     79  C   UNL A   1      44.049  28.500  34.520  1.00  0.00     0.057 A 
ATOM     80  C   UNL A   1      45.369  28.926  34.337  1.00  0.00     0.134 A 
ATOM     81  C   UNL A   1      43.823  27.439  35.408  1.00  0.00     0.134 A 
ATOM     82  F   UNL A   1      45.650  29.932  33.495  1.00  0.00    -0.206 F 
ATOM     83  C   UNL A   1      46.427  28.324  35.019  1.00  0.00     0.040 A 
ATOM     84  C   UNL A   1      44.870  26.849  36.116  1.00  0.00     0.040 A 
ATOM     85  F   UNL A   1      42.579  26.995  35.637  1.00  0.00    -0.206 F 
ATOM     86  C   UNL A   1      46.177  27.293  35.924  1.00  0.00     0.006 A 
ENDBRANCH  62  79
ENDBRANCH  36  37
ENDBRANCH  28  31
ENDBRANCH  26  27
ENDBRANCH  25  26
ENDBRANCH   1  25
TORSDOF 16
ENDMDL
