MODEL 1
REMARK VINA RESULT:     -10.8      0.000      0.000
REMARK SMILES COc1ccc([C@@H]2[C@@H](C(=O)c3cccc4c3CCCC4)[C@H](C(=O)NCCCCNC(=O)c3ccc(-c4c5nc(c(-c6c(F)cccc6F)c6ccc([nH]6)c(-c6c(F)cccc6F)c6nc(c(-c7c(F)cccc7F)c7ccc4[nH]7)C=C6)C=C5)cc3)SC3=NC(=O)S[C@H]32)cc1
REMARK SMILES IDX 26 1 25 2 24 3 22 4 23 5 21 7 7 8 8 9 92 10 87 11 91 12
REMARK SMILES IDX 86 13 88 14 89 15 90 16 6 17 3 18 4 19 94 20 5 21 93 22 2 23
REMARK SMILES IDX 1 24 9 25 10 26 11 27 12 28 16 29 13 30 15 31 17 32 14 33
REMARK SMILES IDX 20 34 18 35 19 36 27 37 28 38 29 39 30 40 31 42 32 43 33 44
REMARK SMILES IDX 85 45 34 46 84 47 35 48 36 49 37 50 78 51 38 52 83 53 77 54
REMARK SMILES IDX 79 55 39 56 82 57 76 58 75 59 40 61 66 62 49 63 65 64 50 65
REMARK SMILES IDX 53 66 64 67 80 68 51 69 52 70 63 72 81 73 54 74 41 75 42 76
REMARK SMILES IDX 47 77 43 78 44 79 46 80 48 81 45 82 67 83 68 84 73 85 69 86
REMARK SMILES IDX 70 87 72 88 74 89 71 90 55 91 56 92 61 93 57 94 58 95 60 96
REMARK SMILES IDX 62 97 59 98
REMARK H PARENT 24 6 29 41 79 60 53 71
REMARK Flexibility Score: inf
ROOT
ATOM      1  C   UNL A   1      39.705  27.897  29.289  1.00  0.00     0.023 C 
ENDROOT
BRANCH   1   2
ATOM      2  C   UNL A   1      40.112  28.196  30.732  1.00  0.00     0.116 C 
BRANCH   2   3
ATOM      3  N   UNL A   1      39.043  27.911  31.676  1.00  0.00    -0.355 N 
ATOM      4  C   UNL A   1      38.415  28.691  32.605  1.00  0.00     0.234 C 
ATOM      5  O   UNL A   1      37.476  28.190  33.231  1.00  0.00    -0.274 OA
ATOM      6  H   UNL A   1      38.710  26.985  31.637  1.00  0.00     0.163 HD
BRANCH   4   7
ATOM      7  C   UNL A   1      38.818  30.156  32.853  1.00  0.00     0.153 C 
ATOM      8  C   UNL A   1      37.768  32.545  33.180  1.00  0.00     0.052 C 
ATOM      9  C   UNL A   1      37.673  31.136  32.511  1.00  0.00     0.093 C 
ATOM     10  C   UNL A   1      38.094  32.488  34.692  1.00  0.00     0.121 C 
ATOM     11  C   UNL A   1      39.397  31.818  34.995  1.00  0.00     0.093 C 
ATOM     12  S   UNL A   1      38.346  34.138  35.456  1.00  0.00    -0.052 SA
ATOM     13  S   UNL A   1      39.616  30.182  34.502  1.00  0.00    -0.095 SA
ATOM     14  N   UNL A   1      40.294  32.391  35.718  1.00  0.00    -0.200 NA
ATOM     15  C   UNL A   1      39.900  33.643  36.118  1.00  0.00     0.306 C 
ATOM     16  O   UNL A   1      40.523  34.367  36.862  1.00  0.00    -0.259 OA
BRANCH   8  17
ATOM     17  C   UNL A   1      36.454  33.325  33.024  1.00  0.00    -0.042 A 
ATOM     18  C   UNL A   1      34.008  34.664  32.619  1.00  0.00     0.118 A 
ATOM     19  C   UNL A   1      34.028  33.409  33.218  1.00  0.00     0.047 A 
ATOM     20  C   UNL A   1      35.203  35.265  32.231  1.00  0.00     0.047 A 
ATOM     21  C   UNL A   1      35.236  32.728  33.378  1.00  0.00     0.008 A 
ATOM     22  C   UNL A   1      36.417  34.604  32.440  1.00  0.00     0.008 A 
BRANCH  18  23
ATOM     23  O   UNL A   1      32.786  35.265  32.501  1.00  0.00    -0.497 OA
ATOM     24  C   UNL A   1      32.661  36.054  31.320  1.00  0.00     0.278 C 
ENDBRANCH  18  23
ENDBRANCH   8  17
BRANCH   9  25
ATOM     25  C   UNL A   1      37.448  31.115  30.957  1.00  0.00     0.168 C 
ATOM     26  O   UNL A   1      36.609  30.367  30.456  1.00  0.00    -0.294 OA
BRANCH  25  27
ATOM     27  C   UNL A   1      38.313  31.910  30.032  1.00  0.00     0.021 A 
ATOM     28  C   UNL A   1      37.693  32.729  29.107  1.00  0.00     0.012 A 
ATOM     29  C   UNL A   1      39.613  32.233  30.418  1.00  0.00    -0.034 A 
ATOM     30  C   UNL A   1      38.176  34.025  28.930  1.00  0.00     0.001 A 
ATOM     31  C   UNL A   1      39.958  33.587  30.502  1.00  0.00    -0.044 A 
ATOM     32  C   UNL A   1      40.758  31.445  29.735  1.00  0.00     0.036 C 
ATOM     33  C   UNL A   1      39.231  34.490  29.725  1.00  0.00     0.004 A 
ATOM     34  C   UNL A   1      41.217  33.956  31.241  1.00  0.00     0.036 C 
ATOM     35  C   UNL A   1      42.161  31.825  30.234  1.00  0.00     0.005 C 
ATOM     36  C   UNL A   1      42.128  32.737  31.458  1.00  0.00     0.005 C 
ENDBRANCH  25  27
ENDBRANCH   9  25
ENDBRANCH   4   7
ENDBRANCH   2   3
ENDBRANCH   1   2
BRANCH   1  37
ATOM     37  C   UNL A   1      39.644  26.411  28.935  1.00  0.00     0.023 C 
BRANCH  37  38
ATOM     38  C   UNL A   1      39.648  26.096  27.445  1.00  0.00     0.116 C 
BRANCH  38  39
ATOM     39  N   UNL A   1      40.008  24.716  27.157  1.00  0.00    -0.352 N 
ATOM     40  C   UNL A   1      41.221  24.194  26.773  1.00  0.00     0.251 C 
ATOM     41  H   UNL A   1      39.278  24.061  27.250  1.00  0.00     0.163 HD
ATOM     42  O   UNL A   1      41.300  23.017  26.434  1.00  0.00    -0.269 OA
BRANCH  40  43
ATOM     43  C   UNL A   1      42.422  25.057  26.733  1.00  0.00     0.039 A 
ATOM     44  C   UNL A   1      42.819  25.601  25.510  1.00  0.00     0.014 A 
ATOM     45  C   UNL A   1      43.146  25.342  27.894  1.00  0.00     0.014 A 
ATOM     46  C   UNL A   1      43.893  26.494  25.464  1.00  0.00     0.010 A 
ATOM     47  C   UNL A   1      44.164  26.293  27.860  1.00  0.00     0.010 A 
ATOM     48  C   UNL A   1      44.546  26.883  26.645  1.00  0.00    -0.014 A 
BRANCH  48  49
ATOM     49  C   UNL A   1      45.607  27.923  26.627  1.00  0.00     0.031 A 
ATOM     50  C   UNL A   1      45.252  29.381  26.740  1.00  0.00     0.074 A 
ATOM     51  C   UNL A   1      46.892  27.558  26.451  1.00  0.00     0.049 A 
ATOM     52  N   UNL A   1      46.038  30.428  26.704  1.00  0.00    -0.248 NA
ATOM     53  C   UNL A   1      43.825  29.707  26.890  1.00  0.00     0.031 C 
ATOM     54  C   UNL A   1      47.364  26.182  26.274  1.00  0.00     0.029 A 
ATOM     55  N   UNL A   1      48.038  28.310  26.383  1.00  0.00    -0.354 N 
ATOM     56  C   UNL A   1      45.204  31.532  26.818  1.00  0.00     0.074 A 
ATOM     57  C   UNL A   1      43.847  31.032  26.867  1.00  0.00     0.031 C 
ATOM     58  C   UNL A   1      48.700  26.187  26.147  1.00  0.00     0.029 A 
ATOM     59  C   UNL A   1      49.177  27.565  26.191  1.00  0.00     0.049 A 
ATOM     60  H   UNL A   1      48.044  29.291  26.465  1.00  0.00     0.167 HD
ATOM     61  C   UNL A   1      45.538  32.843  26.898  1.00  0.00     0.037 A 
ATOM     62  C   UNL A   1      50.460  27.948  26.055  1.00  0.00     0.037 A 
ATOM     63  C   UNL A   1      46.889  33.338  26.862  1.00  0.00     0.049 A 
ATOM     64  C   UNL A   1      50.803  29.412  26.130  1.00  0.00     0.074 A 
ATOM     65  C   UNL A   1      47.332  34.643  26.995  1.00  0.00     0.029 A 
ATOM     66  N   UNL A   1      48.016  32.552  26.672  1.00  0.00    -0.354 N 
ATOM     67  N   UNL A   1      50.009  30.438  26.317  1.00  0.00    -0.248 NA
ATOM     68  C   UNL A   1      52.221  29.767  25.980  1.00  0.00     0.031 C 
ATOM     69  C   UNL A   1      48.721  34.653  26.830  1.00  0.00     0.029 A 
ATOM     70  C   UNL A   1      49.150  33.348  26.654  1.00  0.00     0.049 A 
ATOM     71  H   UNL A   1      48.010  31.574  26.564  1.00  0.00     0.167 HD
ATOM     72  C   UNL A   1      50.833  31.556  26.336  1.00  0.00     0.074 A 
ATOM     73  C   UNL A   1      52.189  31.080  26.162  1.00  0.00     0.031 C 
ATOM     74  C   UNL A   1      50.496  32.862  26.482  1.00  0.00     0.037 A 
BRANCH  61  75
ATOM     75  C   UNL A   1      44.420  33.838  27.034  1.00  0.00     0.057 A 
ATOM     76  C   UNL A   1      44.001  34.313  28.285  1.00  0.00     0.134 A 
ATOM     77  C   UNL A   1      43.786  34.362  25.901  1.00  0.00     0.134 A 
ATOM     78  F   UNL A   1      44.558  33.844  29.411  1.00  0.00    -0.206 F 
ATOM     79  C   UNL A   1      42.976  35.252  28.403  1.00  0.00     0.040 A 
ATOM     80  C   UNL A   1      42.780  35.324  26.006  1.00  0.00     0.040 A 
ATOM     81  F   UNL A   1      44.143  33.959  24.672  1.00  0.00    -0.206 F 
ATOM     82  C   UNL A   1      42.367  35.767  27.260  1.00  0.00     0.006 A 
ENDBRANCH  61  75
BRANCH  62  83
ATOM     83  C   UNL A   1      51.526  26.933  25.848  1.00  0.00     0.057 A 
ATOM     84  C   UNL A   1      52.223  26.385  26.932  1.00  0.00     0.134 A 
ATOM     85  C   UNL A   1      51.884  26.499  24.566  1.00  0.00     0.134 A 
ATOM     86  F   UNL A   1      51.939  26.774  28.184  1.00  0.00    -0.206 F 
ATOM     87  C   UNL A   1      53.254  25.463  26.747  1.00  0.00     0.040 A 
ATOM     88  C   UNL A   1      52.895  25.557  24.370  1.00  0.00     0.040 A 
ATOM     89  F   UNL A   1      51.250  26.979  23.487  1.00  0.00    -0.206 F 
ATOM     90  C   UNL A   1      53.590  25.042  25.462  1.00  0.00     0.006 A 
ENDBRANCH  62  83
BRANCH  74  91
ATOM     91  C   UNL A   1      51.616  33.862  26.492  1.00  0.00     0.057 A 
ATOM     92  C   UNL A   1      52.271  34.232  27.675  1.00  0.00     0.134 A 
ATOM     93  C   UNL A   1      52.063  34.443  25.299  1.00  0.00     0.134 A 
ATOM     94  F   UNL A   1      51.885  33.723  28.854  1.00  0.00    -0.206 F 
ATOM     95  C   UNL A   1      53.308  35.167  27.673  1.00  0.00     0.040 A 
ATOM     96  C   UNL A   1      53.120  35.355  25.280  1.00  0.00     0.040 A 
ATOM     97  F   UNL A   1      51.488  34.127  24.129  1.00  0.00    -0.206 F 
ATOM     98  C   UNL A   1      53.740  35.726  26.472  1.00  0.00     0.006 A 
ENDBRANCH  74  91
ENDBRANCH  48  49
ENDBRANCH  40  43
ENDBRANCH  38  39
ENDBRANCH  37  38
ENDBRANCH   1  37
TORSDOF 15
ENDMDL
MODEL 2
REMARK VINA RESULT:     -10.7      4.331      7.682
REMARK SMILES COc1ccc([C@@H]2[C@@H](C(=O)c3cccc4c3CCCC4)[C@H](C(=O)NCCCCNC(=O)c3ccc(-c4c5nc(c(-c6c(F)cccc6F)c6ccc([nH]6)c(-c6c(F)cccc6F)c6nc(c(-c7c(F)cccc7F)c7ccc4[nH]7)C=C6)C=C5)cc3)SC3=NC(=O)S[C@H]32)cc1
REMARK SMILES IDX 26 1 25 2 24 3 22 4 23 5 21 7 7 8 8 9 92 10 87 11 91 12
REMARK SMILES IDX 86 13 88 14 89 15 90 16 6 17 3 18 4 19 94 20 5 21 93 22 2 23
REMARK SMILES IDX 1 24 9 25 10 26 11 27 12 28 16 29 13 30 15 31 17 32 14 33
REMARK SMILES IDX 20 34 18 35 19 36 27 37 28 38 29 39 30 40 31 42 32 43 33 44
REMARK SMILES IDX 85 45 34 46 84 47 35 48 36 49 37 50 78 51 38 52 83 53 77 54
REMARK SMILES IDX 79 55 39 56 82 57 76 58 75 59 40 61 66 62 49 63 65 64 50 65
REMARK SMILES IDX 53 66 64 67 80 68 51 69 52 70 63 72 81 73 54 74 41 75 42 76
REMARK SMILES IDX 47 77 43 78 44 79 46 80 48 81 45 82 67 83 68 84 73 85 69 86
REMARK SMILES IDX 70 87 72 88 74 89 71 90 55 91 56 92 61 93 57 94 58 95 60 96
REMARK SMILES IDX 62 97 59 98
REMARK H PARENT 24 6 29 41 79 60 53 71
REMARK Flexibility Score: inf
ROOT
ATOM      1  C   UNL A   1      38.003  33.584  29.420  1.00  0.00     0.023 C 
ENDROOT
BRANCH   1   2
ATOM      2  C   UNL A   1      38.573  34.599  30.411  1.00  0.00     0.116 C 
BRANCH   2   3
ATOM      3  N   UNL A   1      37.857  34.595  31.677  1.00  0.00    -0.355 N 
ATOM      4  C   UNL A   1      38.078  33.926  32.847  1.00  0.00     0.234 C 
ATOM      5  O   UNL A   1      37.331  34.174  33.798  1.00  0.00    -0.274 OA
ATOM      6  H   UNL A   1      37.067  35.183  31.693  1.00  0.00     0.163 HD
BRANCH   4   7
ATOM      7  C   UNL A   1      39.236  32.924  33.013  1.00  0.00     0.153 C 
ATOM      8  C   UNL A   1      41.035  32.138  34.763  1.00  0.00     0.052 C 
ATOM      9  C   UNL A   1      40.164  33.302  34.189  1.00  0.00     0.093 C 
ATOM     10  C   UNL A   1      40.237  30.835  35.008  1.00  0.00     0.121 C 
ATOM     11  C   UNL A   1      39.606  30.283  33.768  1.00  0.00     0.093 C 
ATOM     12  S   UNL A   1      41.277  29.423  35.548  1.00  0.00    -0.052 SA
ATOM     13  S   UNL A   1      38.474  31.260  32.914  1.00  0.00    -0.095 SA
ATOM     14  N   UNL A   1      39.793  29.061  33.407  1.00  0.00    -0.200 NA
ATOM     15  C   UNL A   1      40.631  28.400  34.269  1.00  0.00     0.306 C 
ATOM     16  O   UNL A   1      40.916  27.225  34.203  1.00  0.00    -0.259 OA
BRANCH   8  17
ATOM     17  C   UNL A   1      41.684  32.535  36.097  1.00  0.00    -0.042 A 
ATOM     18  C   UNL A   1      42.927  33.122  38.556  1.00  0.00     0.118 A 
ATOM     19  C   UNL A   1      43.690  32.990  37.401  1.00  0.00     0.047 A 
ATOM     20  C   UNL A   1      41.544  32.976  38.494  1.00  0.00     0.047 A 
ATOM     21  C   UNL A   1      43.078  32.657  36.192  1.00  0.00     0.008 A 
ATOM     22  C   UNL A   1      40.927  32.694  37.271  1.00  0.00     0.008 A 
BRANCH  18  23
ATOM     23  O   UNL A   1      43.602  33.452  39.699  1.00  0.00    -0.497 OA
ATOM     24  C   UNL A   1      43.140  34.662  40.295  1.00  0.00     0.278 C 
ENDBRANCH  18  23
ENDBRANCH   8  17
BRANCH   9  25
ATOM     25  C   UNL A   1      40.924  34.624  33.816  1.00  0.00     0.168 C 
ATOM     26  O   UNL A   1      41.569  34.702  32.771  1.00  0.00    -0.294 OA
BRANCH  25  27
ATOM     27  C   UNL A   1      40.985  35.782  34.759  1.00  0.00     0.021 A 
ATOM     28  C   UNL A   1      39.917  35.980  35.614  1.00  0.00     0.012 A 
ATOM     29  C   UNL A   1      42.226  36.291  35.141  1.00  0.00    -0.034 A 
ATOM     30  C   UNL A   1      40.175  36.268  36.953  1.00  0.00     0.001 A 
ATOM     31  C   UNL A   1      42.549  36.284  36.504  1.00  0.00    -0.044 A 
ATOM     32  C   UNL A   1      42.650  37.640  34.511  1.00  0.00     0.036 C 
ATOM     33  C   UNL A   1      41.497  36.291  37.419  1.00  0.00     0.004 A 
ATOM     34  C   UNL A   1      43.988  36.493  36.894  1.00  0.00     0.036 C 
ATOM     35  C   UNL A   1      44.043  38.122  34.947  1.00  0.00     0.005 C 
ATOM     36  C   UNL A   1      44.816  37.065  35.732  1.00  0.00     0.005 C 
ENDBRANCH  25  27
ENDBRANCH   9  25
ENDBRANCH   4   7
ENDBRANCH   2   3
ENDBRANCH   1   2
BRANCH   1  37
ATOM     37  C   UNL A   1      36.480  33.463  29.430  1.00  0.00     0.023 C 
BRANCH  37  38
ATOM     38  C   UNL A   1      35.838  33.213  28.071  1.00  0.00     0.116 C 
BRANCH  38  39
ATOM     39  N   UNL A   1      34.796  32.199  28.113  1.00  0.00    -0.352 N 
ATOM     40  C   UNL A   1      34.913  30.832  28.184  1.00  0.00     0.251 C 
ATOM     41  H   UNL A   1      33.872  32.542  28.086  1.00  0.00     0.163 HD
ATOM     42  O   UNL A   1      33.916  30.125  28.064  1.00  0.00    -0.269 OA
BRANCH  40  43
ATOM     43  C   UNL A   1      36.243  30.209  28.367  1.00  0.00     0.039 A 
ATOM     44  C   UNL A   1      37.116  30.156  27.278  1.00  0.00     0.014 A 
ATOM     45  C   UNL A   1      36.635  29.693  29.605  1.00  0.00     0.014 A 
ATOM     46  C   UNL A   1      38.411  29.659  27.451  1.00  0.00     0.010 A 
ATOM     47  C   UNL A   1      37.949  29.273  29.795  1.00  0.00     0.010 A 
ATOM     48  C   UNL A   1      38.854  29.255  28.722  1.00  0.00    -0.014 A 
BRANCH  48  49
ATOM     49  C   UNL A   1      40.263  28.841  28.946  1.00  0.00     0.031 A 
ATOM     50  C   UNL A   1      41.252  29.792  29.566  1.00  0.00     0.074 A 
ATOM     51  C   UNL A   1      40.670  27.623  28.537  1.00  0.00     0.049 A 
ATOM     52  N   UNL A   1      42.528  29.619  29.801  1.00  0.00    -0.248 NA
ATOM     53  C   UNL A   1      40.745  31.118  29.951  1.00  0.00     0.031 C 
ATOM     54  C   UNL A   1      39.825  26.627  27.873  1.00  0.00     0.029 A 
ATOM     55  N   UNL A   1      41.899  27.015  28.611  1.00  0.00    -0.354 N 
ATOM     56  C   UNL A   1      42.977  30.812  30.351  1.00  0.00     0.074 A 
ATOM     57  C   UNL A   1      41.851  31.720  30.363  1.00  0.00     0.031 C 
ATOM     58  C   UNL A   1      40.552  25.526  27.627  1.00  0.00     0.029 A 
ATOM     59  C   UNL A   1      41.922  25.750  28.077  1.00  0.00     0.049 A 
ATOM     60  H   UNL A   1      42.689  27.446  29.010  1.00  0.00     0.167 HD
ATOM     61  C   UNL A   1      44.209  31.117  30.826  1.00  0.00     0.037 A 
ATOM     62  C   UNL A   1      42.934  24.871  27.952  1.00  0.00     0.037 A 
ATOM     63  C   UNL A   1      45.325  30.207  30.827  1.00  0.00     0.049 A 
ATOM     64  C   UNL A   1      44.297  25.240  28.472  1.00  0.00     0.074 A 
ATOM     65  C   UNL A   1      46.596  30.403  31.339  1.00  0.00     0.029 A 
ATOM     66  N   UNL A   1      45.307  28.932  30.281  1.00  0.00    -0.354 N 
ATOM     67  N   UNL A   1      44.685  26.345  29.061  1.00  0.00    -0.248 NA
ATOM     68  C   UNL A   1      45.360  24.238  28.312  1.00  0.00     0.031 C 
ATOM     69  C   UNL A   1      47.363  29.269  31.054  1.00  0.00     0.029 A 
ATOM     70  C   UNL A   1      46.553  28.342  30.418  1.00  0.00     0.049 A 
ATOM     71  H   UNL A   1      44.526  28.510  29.858  1.00  0.00     0.167 HD
ATOM     72  C   UNL A   1      46.028  26.159  29.368  1.00  0.00     0.074 A 
ATOM     73  C   UNL A   1      46.380  24.829  28.918  1.00  0.00     0.031 C 
ATOM     74  C   UNL A   1      46.892  27.015  29.967  1.00  0.00     0.037 A 
BRANCH  61  75
ATOM     75  C   UNL A   1      44.416  32.495  31.388  1.00  0.00     0.057 A 
ATOM     76  C   UNL A   1      44.477  32.729  32.770  1.00  0.00     0.134 A 
ATOM     77  C   UNL A   1      44.602  33.594  30.541  1.00  0.00     0.134 A 
ATOM     78  F   UNL A   1      44.296  31.722  33.638  1.00  0.00    -0.206 F 
ATOM     79  C   UNL A   1      44.689  34.008  33.285  1.00  0.00     0.040 A 
ATOM     80  C   UNL A   1      44.845  34.873  31.045  1.00  0.00     0.040 A 
ATOM     81  F   UNL A   1      44.564  33.441  29.208  1.00  0.00    -0.206 F 
ATOM     82  C   UNL A   1      44.882  35.084  32.421  1.00  0.00     0.006 A 
ENDBRANCH  61  75
BRANCH  62  83
ATOM     83  C   UNL A   1      42.700  23.545  27.322  1.00  0.00     0.057 A 
ATOM     84  C   UNL A   1      42.302  22.441  28.085  1.00  0.00     0.134 A 
ATOM     85  C   UNL A   1      42.884  23.346  25.949  1.00  0.00     0.134 A 
ATOM     86  F   UNL A   1      42.127  22.564  29.410  1.00  0.00    -0.206 F 
ATOM     87  C   UNL A   1      42.121  21.182  27.512  1.00  0.00     0.040 A 
ATOM     88  C   UNL A   1      42.679  22.098  25.357  1.00  0.00     0.040 A 
ATOM     89  F   UNL A   1      43.258  24.364  25.160  1.00  0.00    -0.206 F 
ATOM     90  C   UNL A   1      42.305  21.009  26.142  1.00  0.00     0.006 A 
ENDBRANCH  62  83
BRANCH  74  91
ATOM     91  C   UNL A   1      48.293  26.526  30.199  1.00  0.00     0.057 A 
ATOM     92  C   UNL A   1      48.653  25.829  31.360  1.00  0.00     0.134 A 
ATOM     93  C   UNL A   1      49.288  26.731  29.235  1.00  0.00     0.134 A 
ATOM     94  F   UNL A   1      47.752  25.608  32.329  1.00  0.00    -0.206 F 
ATOM     95  C   UNL A   1      49.959  25.381  31.567  1.00  0.00     0.040 A 
ATOM     96  C   UNL A   1      50.590  26.262  29.416  1.00  0.00     0.040 A 
ATOM     97  F   UNL A   1      49.010  27.382  28.096  1.00  0.00    -0.206 F 
ATOM     98  C   UNL A   1      50.931  25.592  30.590  1.00  0.00     0.006 A 
ENDBRANCH  74  91
ENDBRANCH  48  49
ENDBRANCH  40  43
ENDBRANCH  38  39
ENDBRANCH  37  38
ENDBRANCH   1  37
TORSDOF 15
ENDMDL
MODEL 3
REMARK VINA RESULT:     -10.5      4.513      8.865
REMARK SMILES COc1ccc([C@@H]2[C@@H](C(=O)c3cccc4c3CCCC4)[C@H](C(=O)NCCCCNC(=O)c3ccc(-c4c5nc(c(-c6c(F)cccc6F)c6ccc([nH]6)c(-c6c(F)cccc6F)c6nc(c(-c7c(F)cccc7F)c7ccc4[nH]7)C=C6)C=C5)cc3)SC3=NC(=O)S[C@H]32)cc1
REMARK SMILES IDX 26 1 25 2 24 3 22 4 23 5 21 7 7 8 8 9 92 10 87 11 91 12
REMARK SMILES IDX 86 13 88 14 89 15 90 16 6 17 3 18 4 19 94 20 5 21 93 22 2 23
REMARK SMILES IDX 1 24 9 25 10 26 11 27 12 28 16 29 13 30 15 31 17 32 14 33
REMARK SMILES IDX 20 34 18 35 19 36 27 37 28 38 29 39 30 40 31 42 32 43 33 44
REMARK SMILES IDX 85 45 34 46 84 47 35 48 36 49 37 50 78 51 38 52 83 53 77 54
REMARK SMILES IDX 79 55 39 56 82 57 76 58 75 59 40 61 66 62 49 63 65 64 50 65
REMARK SMILES IDX 53 66 64 67 80 68 51 69 52 70 63 72 81 73 54 74 41 75 42 76
REMARK SMILES IDX 47 77 43 78 44 79 46 80 48 81 45 82 67 83 68 84 73 85 69 86
REMARK SMILES IDX 70 87 72 88 74 89 71 90 55 91 56 92 61 93 57 94 58 95 60 96
REMARK SMILES IDX 62 97 59 98
REMARK H PARENT 24 6 29 41 79 60 53 71
REMARK Flexibility Score: inf
ROOT
ATOM      1  C   UNL A   1      39.320  35.182  37.949  1.00  0.00     0.023 C 
ENDROOT
BRANCH   1   2
ATOM      2  C   UNL A   1      39.450  34.598  36.542  1.00  0.00     0.116 C 
BRANCH   2   3
ATOM      3  N   UNL A   1      38.668  33.383  36.376  1.00  0.00    -0.355 N 
ATOM      4  C   UNL A   1      37.685  33.046  35.490  1.00  0.00     0.234 C 
ATOM      5  O   UNL A   1      37.238  31.896  35.542  1.00  0.00    -0.274 OA
ATOM      6  H   UNL A   1      38.889  32.672  37.022  1.00  0.00     0.163 HD
BRANCH   4   7
ATOM      7  C   UNL A   1      37.164  34.032  34.429  1.00  0.00     0.153 C 
ATOM      8  C   UNL A   1      36.316  34.110  31.941  1.00  0.00     0.052 C 
ATOM      9  C   UNL A   1      37.251  33.446  33.002  1.00  0.00     0.093 C 
ATOM     10  C   UNL A   1      34.862  34.302  32.435  1.00  0.00     0.121 C 
ATOM     11  C   UNL A   1      34.758  35.168  33.651  1.00  0.00     0.093 C 
ATOM     12  S   UNL A   1      33.793  35.207  31.249  1.00  0.00    -0.052 SA
ATOM     13  S   UNL A   1      35.579  34.679  35.084  1.00  0.00    -0.095 SA
ATOM     14  N   UNL A   1      33.972  36.187  33.684  1.00  0.00    -0.200 NA
ATOM     15  C   UNL A   1      33.312  36.357  32.493  1.00  0.00     0.306 C 
ATOM     16  O   UNL A   1      32.464  37.194  32.278  1.00  0.00    -0.259 OA
BRANCH   8  17
ATOM     17  C   UNL A   1      36.255  33.275  30.653  1.00  0.00    -0.042 A 
ATOM     18  C   UNL A   1      36.219  31.633  28.364  1.00  0.00     0.118 A 
ATOM     19  C   UNL A   1      35.364  31.369  29.428  1.00  0.00     0.047 A 
ATOM     20  C   UNL A   1      37.086  32.720  28.426  1.00  0.00     0.047 A 
ATOM     21  C   UNL A   1      35.413  32.156  30.579  1.00  0.00     0.008 A 
ATOM     22  C   UNL A   1      37.098  33.540  29.558  1.00  0.00     0.008 A 
BRANCH  18  23
ATOM     23  O   UNL A   1      36.107  30.816  27.273  1.00  0.00    -0.497 OA
ATOM     24  C   UNL A   1      35.110  29.809  27.425  1.00  0.00     0.278 C 
ENDBRANCH  18  23
ENDBRANCH   8  17
BRANCH   9  25
ATOM     25  C   UNL A   1      38.766  33.313  32.611  1.00  0.00     0.168 C 
ATOM     26  O   UNL A   1      39.403  34.295  32.232  1.00  0.00    -0.294 OA
BRANCH  25  27
ATOM     27  C   UNL A   1      39.450  31.984  32.578  1.00  0.00     0.021 A 
ATOM     28  C   UNL A   1      40.097  31.558  33.724  1.00  0.00     0.012 A 
ATOM     29  C   UNL A   1      39.018  31.013  31.676  1.00  0.00    -0.034 A 
ATOM     30  C   UNL A   1      39.916  30.242  34.144  1.00  0.00     0.001 A 
ATOM     31  C   UNL A   1      38.567  29.791  32.191  1.00  0.00    -0.044 A 
ATOM     32  C   UNL A   1      39.917  30.758  30.442  1.00  0.00     0.036 C 
ATOM     33  C   UNL A   1      39.045  29.399  33.441  1.00  0.00     0.004 A 
ATOM     34  C   UNL A   1      37.781  28.883  31.282  1.00  0.00     0.036 C 
ATOM     35  C   UNL A   1      39.362  29.703  29.473  1.00  0.00     0.005 C 
ATOM     36  C   UNL A   1      37.932  29.286  29.806  1.00  0.00     0.005 C 
ENDBRANCH  25  27
ENDBRANCH   9  25
ENDBRANCH   4   7
ENDBRANCH   2   3
ENDBRANCH   1   2
BRANCH   1  37
ATOM     37  C   UNL A   1      40.127  36.457  38.190  1.00  0.00     0.023 C 
BRANCH  37  38
ATOM     38  C   UNL A   1      41.641  36.282  38.179  1.00  0.00     0.116 C 
BRANCH  38  39
ATOM     39  N   UNL A   1      42.153  35.684  39.402  1.00  0.00    -0.352 N 
ATOM     40  C   UNL A   1      42.701  34.439  39.600  1.00  0.00     0.251 C 
ATOM     41  H   UNL A   1      42.100  36.254  40.204  1.00  0.00     0.163 HD
ATOM     42  O   UNL A   1      42.949  34.054  40.739  1.00  0.00    -0.269 OA
BRANCH  40  43
ATOM     43  C   UNL A   1      42.958  33.549  38.446  1.00  0.00     0.039 A 
ATOM     44  C   UNL A   1      41.954  32.667  38.041  1.00  0.00     0.014 A 
ATOM     45  C   UNL A   1      44.174  33.590  37.758  1.00  0.00     0.014 A 
ATOM     46  C   UNL A   1      42.138  31.885  36.897  1.00  0.00     0.010 A 
ATOM     47  C   UNL A   1      44.325  32.871  36.575  1.00  0.00     0.010 A 
ATOM     48  C   UNL A   1      43.307  32.013  36.129  1.00  0.00    -0.014 A 
BRANCH  48  49
ATOM     49  C   UNL A   1      43.464  31.280  34.845  1.00  0.00     0.031 A 
ATOM     50  C   UNL A   1      43.335  32.001  33.530  1.00  0.00     0.074 A 
ATOM     51  C   UNL A   1      43.668  29.948  34.862  1.00  0.00     0.049 A 
ATOM     52  N   UNL A   1      43.402  31.520  32.315  1.00  0.00    -0.248 NA
ATOM     53  C   UNL A   1      43.073  33.448  33.590  1.00  0.00     0.031 C 
ATOM     54  C   UNL A   1      43.758  29.121  36.069  1.00  0.00     0.029 A 
ATOM     55  N   UNL A   1      43.828  29.051  33.836  1.00  0.00    -0.354 N 
ATOM     56  C   UNL A   1      43.183  32.599  31.468  1.00  0.00     0.074 A 
ATOM     57  C   UNL A   1      42.925  33.748  32.308  1.00  0.00     0.031 C 
ATOM     58  C   UNL A   1      43.986  27.848  35.714  1.00  0.00     0.029 A 
ATOM     59  C   UNL A   1      44.016  27.757  34.257  1.00  0.00     0.049 A 
ATOM     60  H   UNL A   1      43.811  29.311  32.887  1.00  0.00     0.167 HD
ATOM     61  C   UNL A   1      43.217  32.635  30.114  1.00  0.00     0.037 A 
ATOM     62  C   UNL A   1      44.184  26.623  33.552  1.00  0.00     0.037 A 
ATOM     63  C   UNL A   1      43.488  31.493  29.279  1.00  0.00     0.049 A 
ATOM     64  C   UNL A   1      44.200  26.687  32.049  1.00  0.00     0.074 A 
ATOM     65  C   UNL A   1      43.602  31.440  27.901  1.00  0.00     0.029 A 
ATOM     66  N   UNL A   1      43.678  30.199  29.745  1.00  0.00    -0.354 N 
ATOM     67  N   UNL A   1      44.070  27.729  31.265  1.00  0.00    -0.248 NA
ATOM     68  C   UNL A   1      44.392  25.417  31.335  1.00  0.00     0.031 C 
ATOM     69  C   UNL A   1      43.806  30.108  27.529  1.00  0.00     0.029 A 
ATOM     70  C   UNL A   1      43.880  29.338  28.678  1.00  0.00     0.049 A 
ATOM     71  H   UNL A   1      43.670  29.933  30.692  1.00  0.00     0.167 HD
ATOM     72  C   UNL A   1      44.192  27.245  29.968  1.00  0.00     0.074 A 
ATOM     73  C   UNL A   1      44.428  25.821  30.073  1.00  0.00     0.031 C 
ATOM     74  C   UNL A   1      44.115  27.921  28.795  1.00  0.00     0.037 A 
BRANCH  61  75
ATOM     75  C   UNL A   1      42.956  33.955  29.447  1.00  0.00     0.057 A 
ATOM     76  C   UNL A   1      41.655  34.424  29.217  1.00  0.00     0.134 A 
ATOM     77  C   UNL A   1      44.016  34.789  29.071  1.00  0.00     0.134 A 
ATOM     78  F   UNL A   1      40.594  33.670  29.544  1.00  0.00    -0.206 F 
ATOM     79  C   UNL A   1      41.419  35.661  28.615  1.00  0.00     0.040 A 
ATOM     80  C   UNL A   1      43.792  36.041  28.495  1.00  0.00     0.040 A 
ATOM     81  F   UNL A   1      45.287  34.408  29.268  1.00  0.00    -0.206 F 
ATOM     82  C   UNL A   1      42.491  36.477  28.260  1.00  0.00     0.006 A 
ENDBRANCH  61  75
BRANCH  62  83
ATOM     83  C   UNL A   1      44.365  25.326  34.255  1.00  0.00     0.057 A 
ATOM     84  C   UNL A   1      45.636  24.761  34.415  1.00  0.00     0.134 A 
ATOM     85  C   UNL A   1      43.275  24.612  34.767  1.00  0.00     0.134 A 
ATOM     86  F   UNL A   1      46.719  25.387  33.930  1.00  0.00    -0.206 F 
ATOM     87  C   UNL A   1      45.815  23.523  35.034  1.00  0.00     0.040 A 
ATOM     88  C   UNL A   1      43.442  23.387  35.414  1.00  0.00     0.040 A 
ATOM     89  F   UNL A   1      42.031  25.101  34.653  1.00  0.00    -0.206 F 
ATOM     90  C   UNL A   1      44.715  22.834  35.541  1.00  0.00     0.006 A 
ENDBRANCH  62  83
BRANCH  74  91
ATOM     91  C   UNL A   1      44.319  27.132  27.534  1.00  0.00     0.057 A 
ATOM     92  C   UNL A   1      43.251  26.538  26.849  1.00  0.00     0.134 A 
ATOM     93  C   UNL A   1      45.598  26.987  26.983  1.00  0.00     0.134 A 
ATOM     94  F   UNL A   1      42.001  26.627  27.328  1.00  0.00    -0.206 F 
ATOM     95  C   UNL A   1      43.452  25.803  25.679  1.00  0.00     0.040 A 
ATOM     96  C   UNL A   1      45.809  26.281  25.797  1.00  0.00     0.040 A 
ATOM     97  F   UNL A   1      46.665  27.538  27.581  1.00  0.00    -0.206 F 
ATOM     98  C   UNL A   1      44.734  25.678  25.147  1.00  0.00     0.006 A 
ENDBRANCH  74  91
ENDBRANCH  48  49
ENDBRANCH  40  43
ENDBRANCH  38  39
ENDBRANCH  37  38
ENDBRANCH   1  37
TORSDOF 15
ENDMDL
