MODEL 1
REMARK VINA RESULT:     -12.0      0.000      0.000
REMARK SMILES Cc1ccc(NC(=O)C[C@@H](C(=O)NCCCCNC(=O)c2ccc(-c3c4nc(c(-c5c(F)cccc5F)c5ccc([nH]5)c(-c5c(F)cccc5F)c5nc(c(-c6c(F)cccc6F)c6ccc3[nH]6)C=C5)C=C4)cc2)[C@@H](C)c2ccccc2)cc1Br
REMARK SMILES IDX 15 1 14 2 13 3 11 4 12 5 10 7 9 8 7 9 6 10 8 12 5 13 1 14
REMARK SMILES IDX 2 15 3 16 84 17 4 18 83 19 85 20 75 21 76 22 77 23 78 24
REMARK SMILES IDX 82 25 79 26 81 27 80 28 16 29 17 30 18 31 19 32 20 34 21 35
REMARK SMILES IDX 22 36 74 37 23 38 73 39 24 40 25 41 26 42 67 43 27 44 72 45
REMARK SMILES IDX 66 46 68 47 28 48 71 49 65 50 64 51 29 53 55 54 38 55 54 56
REMARK SMILES IDX 39 57 42 58 53 59 69 60 40 61 41 62 52 64 70 65 43 66 30 67
REMARK SMILES IDX 31 68 36 69 32 70 33 71 35 72 37 73 34 74 56 75 57 76 62 77
REMARK SMILES IDX 58 78 59 79 61 80 63 81 60 82 44 83 45 84 50 85 46 86 47 87
REMARK SMILES IDX 49 88 51 89 48 90
REMARK H PARENT 13 6 6 11 18 33 68 52 42 63
REMARK Flexibility Score: inf
ROOT
ATOM      1  C   UNL A   1      36.237  20.189  24.994  1.00  0.00     0.023 C 
ENDROOT
BRANCH   1   2
ATOM      2  C   UNL A   1      36.148  21.497  25.798  1.00  0.00     0.116 C 
BRANCH   2   3
ATOM      3  N   UNL A   1      35.089  21.474  26.788  1.00  0.00    -0.356 N 
ATOM      4  C   UNL A   1      33.916  22.147  26.916  1.00  0.00     0.224 C 
ATOM      5  O   UNL A   1      33.263  21.849  27.915  1.00  0.00    -0.275 OA
ATOM      6  H   UNL A   1      35.255  20.839  27.521  1.00  0.00     0.163 HD
BRANCH   4   7
ATOM      7  C   UNL A   1      33.457  23.189  25.895  1.00  0.00     0.095 C 
BRANCH   7   8
ATOM      8  C   UNL A   1      33.578  22.740  24.412  1.00  0.00     0.114 C 
BRANCH   8   9
ATOM      9  C   UNL A   1      32.392  22.398  23.542  1.00  0.00     0.225 C 
ATOM     10  N   UNL A   1      31.705  23.304  22.795  1.00  0.00    -0.326 N 
ATOM     11  H   UNL A   1      30.953  22.918  22.291  1.00  0.00     0.169 HD
ATOM     12  O   UNL A   1      32.015  21.221  23.493  1.00  0.00    -0.275 OA
BRANCH  10  13
ATOM     13  C   UNL A   1      31.862  24.683  22.605  1.00  0.00     0.042 A 
ATOM     14  C   UNL A   1      32.914  28.860  22.704  1.00  0.00     0.045 C 
ATOM     15  C   UNL A   1      32.494  27.426  22.560  1.00  0.00    -0.037 A 
ATOM     16  C   UNL A   1      33.447  26.469  22.190  1.00  0.00     0.007 A 
ATOM     17  C   UNL A   1      31.186  26.994  22.826  1.00  0.00     0.022 A 
ATOM     18  C   UNL A   1      33.122  25.112  22.179  1.00  0.00     0.026 A 
ATOM     19  C   UNL A   1      30.873  25.628  22.856  1.00  0.00     0.042 A 
ATOM     20  Br  UNL A   1      29.779  28.221  23.184  1.00  0.00    -0.050 Br
ENDBRANCH  10  13
ENDBRANCH   8   9
ENDBRANCH   7   8
BRANCH   7  21
ATOM     21  C   UNL A   1      34.174  24.597  26.014  1.00  0.00     0.029 C 
ATOM     22  C   UNL A   1      35.264  24.739  24.920  1.00  0.00     0.013 C 
BRANCH  21  23
ATOM     23  C   UNL A   1      33.326  25.872  26.061  1.00  0.00    -0.044 A 
ATOM     24  C   UNL A   1      33.871  27.164  26.023  1.00  0.00     0.004 A 
ATOM     25  C   UNL A   1      31.944  25.762  26.303  1.00  0.00     0.004 A 
ATOM     26  C   UNL A   1      33.068  28.291  26.248  1.00  0.00     0.000 A 
ATOM     27  C   UNL A   1      31.137  26.884  26.493  1.00  0.00     0.000 A 
ATOM     28  C   UNL A   1      31.703  28.152  26.480  1.00  0.00     0.000 A 
ENDBRANCH  21  23
ENDBRANCH   7  21
ENDBRANCH   4   7
ENDBRANCH   2   3
ENDBRANCH   1   2
BRANCH   1  29
ATOM     29  C   UNL A   1      37.648  19.672  24.706  1.00  0.00     0.023 C 
BRANCH  29  30
ATOM     30  C   UNL A   1      38.723  20.264  25.600  1.00  0.00     0.116 C 
BRANCH  30  31
ATOM     31  N   UNL A   1      39.843  19.349  25.761  1.00  0.00    -0.352 N 
ATOM     32  C   UNL A   1      41.151  19.606  26.081  1.00  0.00     0.251 C 
ATOM     33  H   UNL A   1      39.628  18.399  25.618  1.00  0.00     0.163 HD
ATOM     34  O   UNL A   1      42.003  18.731  25.907  1.00  0.00    -0.269 OA
BRANCH  32  35
ATOM     35  C   UNL A   1      41.552  20.918  26.629  1.00  0.00     0.039 A 
ATOM     36  C   UNL A   1      41.504  21.126  28.010  1.00  0.00     0.014 A 
ATOM     37  C   UNL A   1      41.931  21.962  25.782  1.00  0.00     0.014 A 
ATOM     38  C   UNL A   1      41.879  22.364  28.541  1.00  0.00     0.010 A 
ATOM     39  C   UNL A   1      42.403  23.154  26.315  1.00  0.00     0.010 A 
ATOM     40  C   UNL A   1      42.357  23.379  27.698  1.00  0.00    -0.014 A 
BRANCH  40  41
ATOM     41  C   UNL A   1      42.758  24.709  28.224  1.00  0.00     0.031 A 
ATOM     42  C   UNL A   1      41.711  25.769  28.443  1.00  0.00     0.074 A 
ATOM     43  C   UNL A   1      44.059  24.988  28.431  1.00  0.00     0.049 A 
ATOM     44  N   UNL A   1      41.859  27.025  28.783  1.00  0.00    -0.248 NA
ATOM     45  C   UNL A   1      40.311  25.377  28.207  1.00  0.00     0.031 C 
ATOM     46  C   UNL A   1      45.173  24.063  28.205  1.00  0.00     0.029 A 
ATOM     47  N   UNL A   1      44.667  26.137  28.870  1.00  0.00    -0.354 N 
ATOM     48  C   UNL A   1      40.583  27.573  28.765  1.00  0.00     0.074 A 
ATOM     49  C   UNL A   1      39.679  26.534  28.326  1.00  0.00     0.031 C 
ATOM     50  C   UNL A   1      46.323  24.673  28.533  1.00  0.00     0.029 A 
ATOM     51  C   UNL A   1      46.034  26.039  28.955  1.00  0.00     0.049 A 
ATOM     52  H   UNL A   1      44.170  26.954  29.101  1.00  0.00     0.167 HD
ATOM     53  C   UNL A   1      40.191  28.822  29.114  1.00  0.00     0.037 A 
ATOM     54  C   UNL A   1      46.950  26.952  29.330  1.00  0.00     0.037 A 
ATOM     55  C   UNL A   1      41.087  29.834  29.605  1.00  0.00     0.049 A 
ATOM     56  C   UNL A   1      46.489  28.321  29.746  1.00  0.00     0.074 A 
ATOM     57  C   UNL A   1      40.786  31.108  30.053  1.00  0.00     0.029 A 
ATOM     58  N   UNL A   1      42.460  29.680  29.720  1.00  0.00    -0.354 N 
ATOM     59  N   UNL A   1      45.272  28.808  29.783  1.00  0.00    -0.248 NA
ATOM     60  C   UNL A   1      47.527  29.265  30.183  1.00  0.00     0.031 C 
ATOM     61  C   UNL A   1      41.984  31.736  30.412  1.00  0.00     0.029 A 
ATOM     62  C   UNL A   1      43.024  30.840  30.224  1.00  0.00     0.049 A 
ATOM     63  H   UNL A   1      42.960  28.867  29.479  1.00  0.00     0.167 HD
ATOM     64  C   UNL A   1      45.394  30.102  30.271  1.00  0.00     0.074 A 
ATOM     65  C   UNL A   1      46.802  30.321  30.529  1.00  0.00     0.031 C 
ATOM     66  C   UNL A   1      44.427  31.028  30.487  1.00  0.00     0.037 A 
BRANCH  53  67
ATOM     67  C   UNL A   1      38.732  29.151  28.988  1.00  0.00     0.057 A 
ATOM     68  C   UNL A   1      38.167  29.554  27.771  1.00  0.00     0.134 A 
ATOM     69  C   UNL A   1      37.876  29.044  30.091  1.00  0.00     0.134 A 
ATOM     70  F   UNL A   1      38.934  29.690  26.678  1.00  0.00    -0.206 F 
ATOM     71  C   UNL A   1      36.811  29.871  27.662  1.00  0.00     0.040 A 
ATOM     72  C   UNL A   1      36.513  29.330  29.989  1.00  0.00     0.040 A 
ATOM     73  F   UNL A   1      38.348  28.658  31.286  1.00  0.00    -0.206 F 
ATOM     74  C   UNL A   1      35.979  29.753  28.773  1.00  0.00     0.006 A 
ENDBRANCH  53  67
BRANCH  54  75
ATOM     75  C   UNL A   1      48.390  26.591  29.365  1.00  0.00     0.057 A 
ATOM     76  C   UNL A   1      49.211  26.804  28.252  1.00  0.00     0.134 A 
ATOM     77  C   UNL A   1      48.978  26.026  30.502  1.00  0.00     0.134 A 
ATOM     78  F   UNL A   1      48.700  27.328  27.128  1.00  0.00    -0.206 F 
ATOM     79  C   UNL A   1      50.562  26.453  28.260  1.00  0.00     0.040 A 
ATOM     80  C   UNL A   1      50.333  25.692  30.533  1.00  0.00     0.040 A 
ATOM     81  F   UNL A   1      48.248  25.806  31.605  1.00  0.00    -0.206 F 
ATOM     82  C   UNL A   1      51.128  25.898  29.406  1.00  0.00     0.006 A 
ENDBRANCH  54  75
BRANCH  66  83
ATOM     83  C   UNL A   1      44.855  32.343  31.065  1.00  0.00     0.057 A 
ATOM     84  C   UNL A   1      45.201  33.430  30.253  1.00  0.00     0.134 A 
ATOM     85  C   UNL A   1      44.873  32.537  32.452  1.00  0.00     0.134 A 
ATOM     86  F   UNL A   1      45.214  33.303  28.917  1.00  0.00    -0.206 F 
ATOM     87  C   UNL A   1      45.570  34.659  30.800  1.00  0.00     0.040 A 
ATOM     88  C   UNL A   1      45.215  33.768  33.011  1.00  0.00     0.040 A 
ATOM     89  F   UNL A   1      44.543  31.537  33.284  1.00  0.00    -0.206 F 
ATOM     90  C   UNL A   1      45.569  34.832  32.184  1.00  0.00     0.006 A 
ENDBRANCH  66  83
ENDBRANCH  40  41
ENDBRANCH  32  35
ENDBRANCH  30  31
ENDBRANCH  29  30
ENDBRANCH   1  29
TORSDOF 16
ENDMDL
MODEL 2
REMARK VINA RESULT:     -11.7      1.025      2.067
REMARK SMILES Cc1ccc(NC(=O)C[C@@H](C(=O)NCCCCNC(=O)c2ccc(-c3c4nc(c(-c5c(F)cccc5F)c5ccc([nH]5)c(-c5c(F)cccc5F)c5nc(c(-c6c(F)cccc6F)c6ccc3[nH]6)C=C5)C=C4)cc2)[C@@H](C)c2ccccc2)cc1Br
REMARK SMILES IDX 15 1 14 2 13 3 11 4 12 5 10 7 9 8 7 9 6 10 8 12 5 13 1 14
REMARK SMILES IDX 2 15 3 16 84 17 4 18 83 19 85 20 75 21 76 22 77 23 78 24
REMARK SMILES IDX 82 25 79 26 81 27 80 28 16 29 17 30 18 31 19 32 20 34 21 35
REMARK SMILES IDX 22 36 74 37 23 38 73 39 24 40 25 41 26 42 67 43 27 44 72 45
REMARK SMILES IDX 66 46 68 47 28 48 71 49 65 50 64 51 29 53 55 54 38 55 54 56
REMARK SMILES IDX 39 57 42 58 53 59 69 60 40 61 41 62 52 64 70 65 43 66 30 67
REMARK SMILES IDX 31 68 36 69 32 70 33 71 35 72 37 73 34 74 56 75 57 76 62 77
REMARK SMILES IDX 58 78 59 79 61 80 63 81 60 82 44 83 45 84 50 85 46 86 47 87
REMARK SMILES IDX 49 88 51 89 48 90
REMARK H PARENT 13 6 6 11 18 33 68 52 42 63
REMARK Flexibility Score: inf
ROOT
ATOM      1  C   UNL A   1      36.359  20.637  24.600  1.00  0.00     0.023 C 
ENDROOT
BRANCH   1   2
ATOM      2  C   UNL A   1      35.408  21.014  25.749  1.00  0.00     0.116 C 
BRANCH   2   3
ATOM      3  N   UNL A   1      34.114  20.370  25.638  1.00  0.00    -0.356 N 
ATOM      4  C   UNL A   1      32.884  20.805  25.264  1.00  0.00     0.224 C 
ATOM      5  O   UNL A   1      32.006  19.943  25.295  1.00  0.00    -0.275 OA
ATOM      6  H   UNL A   1      34.131  19.417  25.888  1.00  0.00     0.163 HD
BRANCH   4   7
ATOM      7  C   UNL A   1      32.623  22.251  24.841  1.00  0.00     0.095 C 
BRANCH   7   8
ATOM      8  C   UNL A   1      31.121  22.652  24.800  1.00  0.00     0.114 C 
BRANCH   8   9
ATOM      9  C   UNL A   1      30.328  23.050  26.023  1.00  0.00     0.225 C 
ATOM     10  N   UNL A   1      30.157  24.334  26.439  1.00  0.00    -0.326 N 
ATOM     11  H   UNL A   1      29.618  24.419  27.258  1.00  0.00     0.169 HD
ATOM     12  O   UNL A   1      29.791  22.160  26.693  1.00  0.00    -0.275 OA
BRANCH  10  13
ATOM     13  C   UNL A   1      30.599  25.559  25.924  1.00  0.00     0.042 A 
ATOM     14  C   UNL A   1      31.567  29.669  25.066  1.00  0.00     0.045 C 
ATOM     15  C   UNL A   1      31.310  28.205  25.275  1.00  0.00    -0.037 A 
ATOM     16  C   UNL A   1      31.890  27.560  26.375  1.00  0.00     0.007 A 
ATOM     17  C   UNL A   1      30.470  27.459  24.435  1.00  0.00     0.022 A 
ATOM     18  C   UNL A   1      31.563  26.237  26.675  1.00  0.00     0.026 A 
ATOM     19  C   UNL A   1      30.110  26.144  24.762  1.00  0.00     0.042 A 
ATOM     20  Br  UNL A   1      29.755  28.189  22.831  1.00  0.00    -0.050 Br
ENDBRANCH  10  13
ENDBRANCH   8   9
ENDBRANCH   7   8
BRANCH   7  21
ATOM     21  C   UNL A   1      33.250  22.661  23.446  1.00  0.00     0.029 C 
ATOM     22  C   UNL A   1      32.489  21.962  22.289  1.00  0.00     0.013 C 
BRANCH  21  23
ATOM     23  C   UNL A   1      33.442  24.143  23.112  1.00  0.00    -0.044 A 
ATOM     24  C   UNL A   1      34.002  25.070  24.003  1.00  0.00     0.004 A 
ATOM     25  C   UNL A   1      32.902  24.647  21.913  1.00  0.00     0.004 A 
ATOM     26  C   UNL A   1      33.991  26.442  23.716  1.00  0.00     0.000 A 
ATOM     27  C   UNL A   1      32.921  26.008  21.610  1.00  0.00     0.000 A 
ATOM     28  C   UNL A   1      33.454  26.911  22.520  1.00  0.00     0.000 A 
ENDBRANCH  21  23
ENDBRANCH   7  21
ENDBRANCH   4   7
ENDBRANCH   2   3
ENDBRANCH   1   2
BRANCH   1  29
ATOM     29  C   UNL A   1      37.501  19.684  24.957  1.00  0.00     0.023 C 
BRANCH  29  30
ATOM     30  C   UNL A   1      38.711  20.365  25.571  1.00  0.00     0.116 C 
BRANCH  30  31
ATOM     31  N   UNL A   1      39.816  19.433  25.742  1.00  0.00    -0.352 N 
ATOM     32  C   UNL A   1      41.127  19.670  26.063  1.00  0.00     0.251 C 
ATOM     33  H   UNL A   1      39.585  18.485  25.606  1.00  0.00     0.163 HD
ATOM     34  O   UNL A   1      41.964  18.780  25.898  1.00  0.00    -0.269 OA
BRANCH  32  35
ATOM     35  C   UNL A   1      41.548  20.980  26.603  1.00  0.00     0.039 A 
ATOM     36  C   UNL A   1      41.556  21.180  27.986  1.00  0.00     0.014 A 
ATOM     37  C   UNL A   1      41.891  22.029  25.747  1.00  0.00     0.014 A 
ATOM     38  C   UNL A   1      41.952  22.414  28.508  1.00  0.00     0.010 A 
ATOM     39  C   UNL A   1      42.384  23.218  26.267  1.00  0.00     0.010 A 
ATOM     40  C   UNL A   1      42.394  23.436  27.652  1.00  0.00    -0.014 A 
BRANCH  40  41
ATOM     41  C   UNL A   1      42.814  24.763  28.170  1.00  0.00     0.031 A 
ATOM     42  C   UNL A   1      41.778  25.827  28.418  1.00  0.00     0.074 A 
ATOM     43  C   UNL A   1      44.122  25.036  28.342  1.00  0.00     0.049 A 
ATOM     44  N   UNL A   1      41.941  27.081  28.757  1.00  0.00    -0.248 NA
ATOM     45  C   UNL A   1      40.371  25.440  28.221  1.00  0.00     0.031 C 
ATOM     46  C   UNL A   1      45.225  24.107  28.084  1.00  0.00     0.029 A 
ATOM     47  N   UNL A   1      44.746  26.182  28.766  1.00  0.00    -0.354 N 
ATOM     48  C   UNL A   1      40.666  27.635  28.775  1.00  0.00     0.074 A 
ATOM     49  C   UNL A   1      39.747  26.600  28.359  1.00  0.00     0.031 C 
ATOM     50  C   UNL A   1      46.386  24.711  28.382  1.00  0.00     0.029 A 
ATOM     51  C   UNL A   1      46.115  26.077  28.814  1.00  0.00     0.049 A 
ATOM     52  H   UNL A   1      44.259  27.000  29.012  1.00  0.00     0.167 HD
ATOM     53  C   UNL A   1      40.290  28.884  29.136  1.00  0.00     0.037 A 
ATOM     54  C   UNL A   1      47.044  26.986  29.165  1.00  0.00     0.037 A 
ATOM     55  C   UNL A   1      41.203  29.892  29.604  1.00  0.00     0.049 A 
ATOM     56  C   UNL A   1      46.600  28.356  29.596  1.00  0.00     0.074 A 
ATOM     57  C   UNL A   1      40.920  31.167  30.063  1.00  0.00     0.029 A 
ATOM     58  N   UNL A   1      42.578  29.732  29.682  1.00  0.00    -0.354 N 
ATOM     59  N   UNL A   1      45.387  28.848  29.666  1.00  0.00    -0.248 NA
ATOM     60  C   UNL A   1      47.654  29.296  30.006  1.00  0.00     0.031 C 
ATOM     61  C   UNL A   1      42.130  31.789  30.390  1.00  0.00     0.029 A 
ATOM     62  C   UNL A   1      43.160  30.889  30.173  1.00  0.00     0.049 A 
ATOM     63  H   UNL A   1      43.068  28.917  29.426  1.00  0.00     0.167 HD
ATOM     64  C   UNL A   1      45.527  30.141  30.153  1.00  0.00     0.074 A 
ATOM     65  C   UNL A   1      46.942  30.353  30.373  1.00  0.00     0.031 C 
ATOM     66  C   UNL A   1      44.571  31.071  30.397  1.00  0.00     0.037 A 
BRANCH  53  67
ATOM     67  C   UNL A   1      38.829  29.220  29.051  1.00  0.00     0.057 A 
ATOM     68  C   UNL A   1      38.230  29.616  27.847  1.00  0.00     0.134 A 
ATOM     69  C   UNL A   1      38.005  29.127  30.179  1.00  0.00     0.134 A 
ATOM     70  F   UNL A   1      38.965  29.739  26.731  1.00  0.00    -0.206 F 
ATOM     71  C   UNL A   1      36.874  29.938  27.776  1.00  0.00     0.040 A 
ATOM     72  C   UNL A   1      36.642  29.418  30.114  1.00  0.00     0.040 A 
ATOM     73  F   UNL A   1      38.511  28.748  31.363  1.00  0.00    -0.206 F 
ATOM     74  C   UNL A   1      36.074  29.834  28.911  1.00  0.00     0.006 A 
ENDBRANCH  53  67
BRANCH  54  75
ATOM     75  C   UNL A   1      48.483  26.619  29.161  1.00  0.00     0.057 A 
ATOM     76  C   UNL A   1      49.286  26.876  28.044  1.00  0.00     0.134 A 
ATOM     77  C   UNL A   1      49.088  26.006  30.263  1.00  0.00     0.134 A 
ATOM     78  F   UNL A   1      48.758  27.447  26.951  1.00  0.00    -0.206 F 
ATOM     79  C   UNL A   1      50.635  26.520  28.014  1.00  0.00     0.040 A 
ATOM     80  C   UNL A   1      50.442  25.666  30.257  1.00  0.00     0.040 A 
ATOM     81  F   UNL A   1      48.376  25.743  31.368  1.00  0.00    -0.206 F 
ATOM     82  C   UNL A   1      51.218  25.917  29.126  1.00  0.00     0.006 A 
ENDBRANCH  54  75
BRANCH  66  83
ATOM     83  C   UNL A   1      45.020  32.383  30.966  1.00  0.00     0.057 A 
ATOM     84  C   UNL A   1      45.136  32.589  32.346  1.00  0.00     0.134 A 
ATOM     85  C   UNL A   1      45.388  33.435  30.118  1.00  0.00     0.134 A 
ATOM     86  F   UNL A   1      44.787  31.623  33.210  1.00  0.00    -0.206 F 
ATOM     87  C   UNL A   1      45.584  33.804  32.865  1.00  0.00     0.040 A 
ATOM     88  C   UNL A   1      45.861  34.646  30.625  1.00  0.00     0.040 A 
ATOM     89  F   UNL A   1      45.309  33.297  28.786  1.00  0.00    -0.206 F 
ATOM     90  C   UNL A   1      45.955  34.834  32.002  1.00  0.00     0.006 A 
ENDBRANCH  66  83
ENDBRANCH  40  41
ENDBRANCH  32  35
ENDBRANCH  30  31
ENDBRANCH  29  30
ENDBRANCH   1  29
TORSDOF 16
ENDMDL
MODEL 3
REMARK VINA RESULT:     -11.7      1.112      6.416
REMARK SMILES Cc1ccc(NC(=O)C[C@@H](C(=O)NCCCCNC(=O)c2ccc(-c3c4nc(c(-c5c(F)cccc5F)c5ccc([nH]5)c(-c5c(F)cccc5F)c5nc(c(-c6c(F)cccc6F)c6ccc3[nH]6)C=C5)C=C4)cc2)[C@@H](C)c2ccccc2)cc1Br
REMARK SMILES IDX 15 1 14 2 13 3 11 4 12 5 10 7 9 8 7 9 6 10 8 12 5 13 1 14
REMARK SMILES IDX 2 15 3 16 84 17 4 18 83 19 85 20 75 21 76 22 77 23 78 24
REMARK SMILES IDX 82 25 79 26 81 27 80 28 16 29 17 30 18 31 19 32 20 34 21 35
REMARK SMILES IDX 22 36 74 37 23 38 73 39 24 40 25 41 26 42 67 43 27 44 72 45
REMARK SMILES IDX 66 46 68 47 28 48 71 49 65 50 64 51 29 53 55 54 38 55 54 56
REMARK SMILES IDX 39 57 42 58 53 59 69 60 40 61 41 62 52 64 70 65 43 66 30 67
REMARK SMILES IDX 31 68 36 69 32 70 33 71 35 72 37 73 34 74 56 75 57 76 62 77
REMARK SMILES IDX 58 78 59 79 61 80 63 81 60 82 44 83 45 84 50 85 46 86 47 87
REMARK SMILES IDX 49 88 51 89 48 90
REMARK H PARENT 13 6 6 11 18 33 68 52 42 63
REMARK Flexibility Score: inf
ROOT
ATOM      1  C   UNL A   1      37.337  20.790  24.547  1.00  0.00     0.023 C 
ENDROOT
BRANCH   1   2
ATOM      2  C   UNL A   1      36.302  21.169  25.620  1.00  0.00     0.116 C 
BRANCH   2   3
ATOM      3  N   UNL A   1      35.065  20.424  25.492  1.00  0.00    -0.356 N 
ATOM      4  C   UNL A   1      33.786  20.781  25.205  1.00  0.00     0.224 C 
ATOM      5  O   UNL A   1      32.988  19.844  25.182  1.00  0.00    -0.275 OA
ATOM      6  H   UNL A   1      35.174  19.458  25.645  1.00  0.00     0.163 HD
BRANCH   4   7
ATOM      7  C   UNL A   1      33.383  22.231  24.937  1.00  0.00     0.095 C 
BRANCH   7   8
ATOM      8  C   UNL A   1      32.015  22.646  25.547  1.00  0.00     0.114 C 
BRANCH   8   9
ATOM      9  C   UNL A   1      31.871  23.353  26.874  1.00  0.00     0.225 C 
ATOM     10  N   UNL A   1      31.409  24.624  27.017  1.00  0.00    -0.326 N 
ATOM     11  H   UNL A   1      31.384  24.938  27.950  1.00  0.00     0.169 HD
ATOM     12  O   UNL A   1      32.186  22.745  27.904  1.00  0.00    -0.275 OA
BRANCH  10  13
ATOM     13  C   UNL A   1      30.959  25.574  26.091  1.00  0.00     0.042 A 
ATOM     14  C   UNL A   1      30.066  28.028  22.663  1.00  0.00     0.045 C 
ATOM     15  C   UNL A   1      30.286  27.232  23.918  1.00  0.00    -0.037 A 
ATOM     16  C   UNL A   1      29.815  25.914  23.982  1.00  0.00     0.007 A 
ATOM     17  C   UNL A   1      30.988  27.742  25.020  1.00  0.00     0.022 A 
ATOM     18  C   UNL A   1      30.120  25.105  25.076  1.00  0.00     0.026 A 
ATOM     19  C   UNL A   1      31.329  26.914  26.099  1.00  0.00     0.042 A 
ATOM     20  Br  UNL A   1      31.535  29.561  25.105  1.00  0.00    -0.050 Br
ENDBRANCH  10  13
ENDBRANCH   8   9
ENDBRANCH   7   8
BRANCH   7  21
ATOM     21  C   UNL A   1      33.352  22.641  23.407  1.00  0.00     0.029 C 
ATOM     22  C   UNL A   1      32.099  22.042  22.716  1.00  0.00     0.013 C 
BRANCH  21  23
ATOM     23  C   UNL A   1      33.496  24.116  23.019  1.00  0.00    -0.044 A 
ATOM     24  C   UNL A   1      34.032  25.091  23.872  1.00  0.00     0.004 A 
ATOM     25  C   UNL A   1      32.932  24.559  21.807  1.00  0.00     0.004 A 
ATOM     26  C   UNL A   1      33.977  26.450  23.536  1.00  0.00     0.000 A 
ATOM     27  C   UNL A   1      32.906  25.908  21.455  1.00  0.00     0.000 A 
ATOM     28  C   UNL A   1      33.417  26.859  22.329  1.00  0.00     0.000 A 
ENDBRANCH  21  23
ENDBRANCH   7  21
ENDBRANCH   4   7
ENDBRANCH   2   3
ENDBRANCH   1   2
BRANCH   1  29
ATOM     29  C   UNL A   1      38.227  19.587  24.867  1.00  0.00     0.023 C 
BRANCH  29  30
ATOM     30  C   UNL A   1      39.127  19.783  26.074  1.00  0.00     0.116 C 
BRANCH  30  31
ATOM     31  N   UNL A   1      40.406  19.111  25.897  1.00  0.00    -0.352 N 
ATOM     32  C   UNL A   1      41.679  19.618  25.928  1.00  0.00     0.251 C 
ATOM     33  H   UNL A   1      40.348  18.143  25.731  1.00  0.00     0.163 HD
ATOM     34  O   UNL A   1      42.614  18.943  25.491  1.00  0.00    -0.269 OA
BRANCH  32  35
ATOM     35  C   UNL A   1      41.944  20.966  26.474  1.00  0.00     0.039 A 
ATOM     36  C   UNL A   1      42.265  22.007  25.600  1.00  0.00     0.014 A 
ATOM     37  C   UNL A   1      41.921  21.196  27.851  1.00  0.00     0.014 A 
ATOM     38  C   UNL A   1      42.518  23.286  26.105  1.00  0.00     0.010 A 
ATOM     39  C   UNL A   1      42.069  22.486  28.344  1.00  0.00     0.010 A 
ATOM     40  C   UNL A   1      42.397  23.540  27.480  1.00  0.00    -0.014 A 
BRANCH  40  41
ATOM     41  C   UNL A   1      42.665  24.884  28.054  1.00  0.00     0.031 A 
ATOM     42  C   UNL A   1      44.057  25.233  28.511  1.00  0.00     0.074 A 
ATOM     43  C   UNL A   1      41.653  25.755  28.234  1.00  0.00     0.049 A 
ATOM     44  N   UNL A   1      44.480  26.299  29.142  1.00  0.00    -0.248 NA
ATOM     45  C   UNL A   1      45.107  24.230  28.264  1.00  0.00     0.031 C 
ATOM     46  C   UNL A   1      40.252  25.514  27.882  1.00  0.00     0.029 A 
ATOM     47  N   UNL A   1      41.648  27.018  28.769  1.00  0.00    -0.354 N 
ATOM     48  C   UNL A   1      45.829  26.077  29.395  1.00  0.00     0.074 A 
ATOM     49  C   UNL A   1      46.141  24.754  28.903  1.00  0.00     0.031 C 
ATOM     50  C   UNL A   1      39.530  26.604  28.185  1.00  0.00     0.029 A 
ATOM     51  C   UNL A   1      40.405  27.603  28.785  1.00  0.00     0.049 A 
ATOM     52  H   UNL A   1      42.457  27.462  29.109  1.00  0.00     0.167 HD
ATOM     53  C   UNL A   1      46.735  26.911  29.957  1.00  0.00     0.037 A 
ATOM     54  C   UNL A   1      40.019  28.811  29.238  1.00  0.00     0.037 A 
ATOM     55  C   UNL A   1      46.431  28.248  30.392  1.00  0.00     0.049 A 
ATOM     56  C   UNL A   1      41.049  29.735  29.826  1.00  0.00     0.074 A 
ATOM     57  C   UNL A   1      47.289  29.203  30.909  1.00  0.00     0.029 A 
ATOM     58  N   UNL A   1      45.169  28.821  30.349  1.00  0.00    -0.354 N 
ATOM     59  N   UNL A   1      42.333  29.535  30.005  1.00  0.00    -0.248 NA
ATOM     60  C   UNL A   1      40.580  31.055  30.269  1.00  0.00     0.031 C 
ATOM     61  C   UNL A   1      46.538  30.345  31.208  1.00  0.00     0.029 A 
ATOM     62  C   UNL A   1      45.222  30.115  30.839  1.00  0.00     0.049 A 
ATOM     63  H   UNL A   1      44.356  28.374  30.018  1.00  0.00     0.167 HD
ATOM     64  C   UNL A   1      42.829  30.711  30.552  1.00  0.00     0.074 A 
ATOM     65  C   UNL A   1      41.711  31.624  30.665  1.00  0.00     0.031 C 
ATOM     66  C   UNL A   1      44.097  31.010  30.928  1.00  0.00     0.037 A 
BRANCH  53  67
ATOM     67  C   UNL A   1      48.138  26.403  30.118  1.00  0.00     0.057 A 
ATOM     68  C   UNL A   1      48.550  25.720  31.270  1.00  0.00     0.134 A 
ATOM     69  C   UNL A   1      49.085  26.580  29.102  1.00  0.00     0.134 A 
ATOM     70  F   UNL A   1      47.696  25.529  32.288  1.00  0.00    -0.206 F 
ATOM     71  C   UNL A   1      49.859  25.260  31.420  1.00  0.00     0.040 A 
ATOM     72  C   UNL A   1      50.390  26.099  29.227  1.00  0.00     0.040 A 
ATOM     73  F   UNL A   1      48.758  27.219  27.968  1.00  0.00    -0.206 F 
ATOM     74  C   UNL A   1      50.782  25.444  30.394  1.00  0.00     0.006 A 
ENDBRANCH  53  67
BRANCH  54  75
ATOM     75  C   UNL A   1      38.601  29.232  29.118  1.00  0.00     0.057 A 
ATOM     76  C   UNL A   1      38.087  29.685  27.897  1.00  0.00     0.134 A 
ATOM     77  C   UNL A   1      37.727  29.193  30.211  1.00  0.00     0.134 A 
ATOM     78  F   UNL A   1      38.879  29.760  26.818  1.00  0.00    -0.206 F 
ATOM     79  C   UNL A   1      36.761  30.103  27.771  1.00  0.00     0.040 A 
ATOM     80  C   UNL A   1      36.393  29.585  30.093  1.00  0.00     0.040 A 
ATOM     81  F   UNL A   1      38.155  28.759  31.404  1.00  0.00    -0.206 F 
ATOM     82  C   UNL A   1      35.908  30.049  28.871  1.00  0.00     0.006 A 
ENDBRANCH  54  75
BRANCH  66  83
ATOM     83  C   UNL A   1      44.348  32.390  31.457  1.00  0.00     0.057 A 
ATOM     84  C   UNL A   1      44.296  32.677  32.827  1.00  0.00     0.134 A 
ATOM     85  C   UNL A   1      44.694  33.432  30.588  1.00  0.00     0.134 A 
ATOM     86  F   UNL A   1      43.958  31.723  33.708  1.00  0.00    -0.206 F 
ATOM     87  C   UNL A   1      44.559  33.958  33.312  1.00  0.00     0.040 A 
ATOM     88  C   UNL A   1      44.985  34.710  31.063  1.00  0.00     0.040 A 
ATOM     89  F   UNL A   1      44.770  33.219  29.265  1.00  0.00    -0.206 F 
ATOM     90  C   UNL A   1      44.913  34.976  32.429  1.00  0.00     0.006 A 
ENDBRANCH  66  83
ENDBRANCH  40  41
ENDBRANCH  32  35
ENDBRANCH  30  31
ENDBRANCH  29  30
ENDBRANCH   1  29
TORSDOF 16
ENDMDL
