MODEL 1
REMARK VINA RESULT:     -12.5      0.000      0.000
REMARK SMILES CCc1ccc2c(CC(=O)NCCCCNC(=O)c3ccc(-c4c5nc(c(-c6c(F)cccc6F)c6ccc([nH]6)c(-c6c(F)cccc6F)c6nc(c(-c7c(F)cccc7F)c7ccc4[nH]7)C=C6)C=C5)cc3)c(C(=O)c3cc(C)ccn3)[nH]c2c1
REMARK SMILES IDX 13 1 12 2 11 3 9 4 10 5 8 7 7 8 3 9 4 10 85 11 5 12 84 13
REMARK SMILES IDX 6 14 83 15 73 16 2 18 1 19 74 20 75 21 76 22 77 23 82 24
REMARK SMILES IDX 78 25 81 26 79 27 80 28 14 29 15 30 16 31 17 32 18 34 19 35
REMARK SMILES IDX 20 36 72 37 21 38 71 39 22 40 23 41 24 42 65 43 25 44 70 45
REMARK SMILES IDX 64 46 66 47 26 48 69 49 63 50 62 51 27 53 53 54 36 55 52 56
REMARK SMILES IDX 37 57 40 58 51 59 67 60 38 61 39 62 50 64 68 65 41 66 28 67
REMARK SMILES IDX 29 68 34 69 30 70 31 71 33 72 35 73 32 74 54 75 55 76 60 77
REMARK SMILES IDX 56 78 57 79 59 80 61 81 58 82 42 83 43 84 48 85 44 86 45 87
REMARK SMILES IDX 47 88 49 89 46 90
REMARK H PARENT 11 6 83 17 16 33 66 52 40 63
REMARK Flexibility Score: inf
ROOT
ATOM      1  C   UNL A   1      36.650  20.661  24.818  1.00  0.00     0.023 C 
ENDROOT
BRANCH   1   2
ATOM      2  C   UNL A   1      37.056  22.070  24.389  1.00  0.00     0.116 C 
BRANCH   2   3
ATOM      3  N   UNL A   1      36.034  22.729  23.604  1.00  0.00    -0.356 N 
ATOM      4  C   UNL A   1      35.172  23.728  23.958  1.00  0.00     0.224 C 
ATOM      5  O   UNL A   1      34.538  24.258  23.041  1.00  0.00    -0.275 OA
ATOM      6  H   UNL A   1      35.948  22.410  22.676  1.00  0.00     0.163 HD
BRANCH   4   7
ATOM      7  C   UNL A   1      35.103  24.261  25.386  1.00  0.00     0.138 C 
BRANCH   7   8
ATOM      8  C   UNL A   1      33.778  24.854  25.792  1.00  0.00    -0.002 A 
ATOM      9  C   UNL A   1      32.039  28.693  25.443  1.00  0.00    -0.046 A 
ATOM     10  C   UNL A   1      33.265  28.516  24.795  1.00  0.00     0.004 A 
ATOM     11  C   UNL A   1      31.448  27.615  26.124  1.00  0.00     0.030 A 
ATOM     12  C   UNL A   1      33.920  27.281  24.812  1.00  0.00     0.011 A 
ATOM     13  C   UNL A   1      32.125  26.387  26.138  1.00  0.00     0.046 A 
ATOM     14  C   UNL A   1      33.350  26.196  25.510  1.00  0.00     0.004 A 
ATOM     15  N   UNL A   1      31.789  25.192  26.730  1.00  0.00    -0.352 N 
ATOM     16  C   UNL A   1      32.736  24.221  26.473  1.00  0.00     0.093 A 
ATOM     17  H   UNL A   1      30.978  25.049  27.270  1.00  0.00     0.167 HD
BRANCH   9  18
ATOM     18  C   UNL A   1      31.367  30.047  25.426  1.00  0.00     0.032 C 
ATOM     19  C   UNL A   1      31.859  30.964  26.537  1.00  0.00     0.009 C 
ENDBRANCH   9  18
BRANCH  16  20
ATOM     20  C   UNL A   1      32.649  22.820  26.876  1.00  0.00     0.227 C 
ATOM     21  O   UNL A   1      32.605  22.464  28.052  1.00  0.00    -0.285 OA
BRANCH  20  22
ATOM     22  C   UNL A   1      32.666  21.750  25.843  1.00  0.00     0.113 A 
ATOM     23  C   UNL A   1      32.230  22.025  24.550  1.00  0.00     0.036 A 
ATOM     24  N   UNL A   1      33.177  20.555  26.230  1.00  0.00    -0.253 NA
ATOM     25  C   UNL A   1      32.323  21.014  23.591  1.00  0.00    -0.047 A 
ATOM     26  C   UNL A   1      33.290  19.609  25.277  1.00  0.00     0.112 A 
ATOM     27  C   UNL A   1      31.889  21.241  22.174  1.00  0.00     0.044 C 
ATOM     28  C   UNL A   1      32.880  19.787  23.964  1.00  0.00     0.023 A 
ENDBRANCH  20  22
ENDBRANCH  16  20
ENDBRANCH   7   8
ENDBRANCH   4   7
ENDBRANCH   2   3
ENDBRANCH   1   2
BRANCH   1  29
ATOM     29  C   UNL A   1      37.806  19.667  24.965  1.00  0.00     0.023 C 
BRANCH  29  30
ATOM     30  C   UNL A   1      38.990  20.147  25.796  1.00  0.00     0.116 C 
BRANCH  30  31
ATOM     31  N   UNL A   1      40.141  19.263  25.731  1.00  0.00    -0.352 N 
ATOM     32  C   UNL A   1      41.451  19.517  26.055  1.00  0.00     0.251 C 
ATOM     33  H   UNL A   1      39.956  18.352  25.406  1.00  0.00     0.163 HD
ATOM     34  O   UNL A   1      42.310  18.663  25.846  1.00  0.00    -0.269 OA
BRANCH  32  35
ATOM     35  C   UNL A   1      41.844  20.829  26.618  1.00  0.00     0.039 A 
ATOM     36  C   UNL A   1      42.294  21.820  25.740  1.00  0.00     0.014 A 
ATOM     37  C   UNL A   1      41.784  21.088  27.990  1.00  0.00     0.014 A 
ATOM     38  C   UNL A   1      42.623  23.086  26.229  1.00  0.00     0.010 A 
ATOM     39  C   UNL A   1      42.055  22.368  28.469  1.00  0.00     0.010 A 
ATOM     40  C   UNL A   1      42.477  23.379  27.593  1.00  0.00    -0.014 A 
BRANCH  40  41
ATOM     41  C   UNL A   1      42.754  24.742  28.111  1.00  0.00     0.031 A 
ATOM     42  C   UNL A   1      44.152  25.146  28.483  1.00  0.00     0.074 A 
ATOM     43  C   UNL A   1      41.735  25.606  28.284  1.00  0.00     0.049 A 
ATOM     44  N   UNL A   1      44.582  26.282  28.972  1.00  0.00    -0.248 NA
ATOM     45  C   UNL A   1      45.205  24.134  28.299  1.00  0.00     0.031 C 
ATOM     46  C   UNL A   1      40.326  25.323  28.004  1.00  0.00     0.029 A 
ATOM     47  N   UNL A   1      41.729  26.901  28.739  1.00  0.00    -0.354 N 
ATOM     48  C   UNL A   1      45.948  26.120  29.162  1.00  0.00     0.074 A 
ATOM     49  C   UNL A   1      46.270  24.761  28.779  1.00  0.00     0.031 C 
ATOM     50  C   UNL A   1      39.597  26.419  28.267  1.00  0.00     0.029 A 
ATOM     51  C   UNL A   1      40.480  27.472  28.759  1.00  0.00     0.049 A 
ATOM     52  H   UNL A   1      42.543  27.376  29.024  1.00  0.00     0.167 HD
ATOM     53  C   UNL A   1      46.857  27.027  29.592  1.00  0.00     0.037 A 
ATOM     54  C   UNL A   1      40.092  28.707  29.125  1.00  0.00     0.037 A 
ATOM     55  C   UNL A   1      46.545  28.384  29.953  1.00  0.00     0.049 A 
ATOM     56  C   UNL A   1      41.122  29.696  29.593  1.00  0.00     0.074 A 
ATOM     57  C   UNL A   1      47.404  29.388  30.365  1.00  0.00     0.029 A 
ATOM     58  N   UNL A   1      45.271  28.930  29.940  1.00  0.00    -0.354 N 
ATOM     59  N   UNL A   1      42.418  29.545  29.714  1.00  0.00    -0.248 NA
ATOM     60  C   UNL A   1      40.634  31.031  29.968  1.00  0.00     0.031 C 
ATOM     61  C   UNL A   1      46.646  30.536  30.625  1.00  0.00     0.029 A 
ATOM     62  C   UNL A   1      45.319  30.254  30.344  1.00  0.00     0.049 A 
ATOM     63  H   UNL A   1      44.451  28.448  29.683  1.00  0.00     0.167 HD
ATOM     64  C   UNL A   1      42.904  30.769  30.151  1.00  0.00     0.074 A 
ATOM     65  C   UNL A   1      41.764  31.657  30.262  1.00  0.00     0.031 C 
ATOM     66  C   UNL A   1      44.179  31.127  30.436  1.00  0.00     0.037 A 
BRANCH  53  67
ATOM     67  C   UNL A   1      48.285  26.580  29.681  1.00  0.00     0.057 A 
ATOM     68  C   UNL A   1      48.772  25.904  30.808  1.00  0.00     0.134 A 
ATOM     69  C   UNL A   1      49.174  26.796  28.621  1.00  0.00     0.134 A 
ATOM     70  F   UNL A   1      47.974  25.677  31.861  1.00  0.00    -0.206 F 
ATOM     71  C   UNL A   1      50.099  25.476  30.884  1.00  0.00     0.040 A 
ATOM     72  C   UNL A   1      50.497  26.355  28.677  1.00  0.00     0.040 A 
ATOM     73  F   UNL A   1      48.770  27.435  27.513  1.00  0.00    -0.206 F 
ATOM     74  C   UNL A   1      50.963  25.695  29.815  1.00  0.00     0.006 A 
ENDBRANCH  53  67
BRANCH  54  75
ATOM     75  C   UNL A   1      38.665  29.097  29.031  1.00  0.00     0.057 A 
ATOM     76  C   UNL A   1      38.130  29.578  27.829  1.00  0.00     0.134 A 
ATOM     77  C   UNL A   1      37.808  29.019  30.134  1.00  0.00     0.134 A 
ATOM     78  F   UNL A   1      38.909  29.695  26.744  1.00  0.00    -0.206 F 
ATOM     79  C   UNL A   1      36.800  29.988  27.733  1.00  0.00     0.040 A 
ATOM     80  C   UNL A   1      36.470  29.405  30.047  1.00  0.00     0.040 A 
ATOM     81  F   UNL A   1      38.260  28.561  31.311  1.00  0.00    -0.206 F 
ATOM     82  C   UNL A   1      35.964  29.898  28.846  1.00  0.00     0.006 A 
ENDBRANCH  54  75
BRANCH  66  83
ATOM     83  C   UNL A   1      44.410  32.546  30.858  1.00  0.00     0.057 A 
ATOM     84  C   UNL A   1      44.652  33.563  29.926  1.00  0.00     0.134 A 
ATOM     85  C   UNL A   1      44.368  32.902  32.211  1.00  0.00     0.134 A 
ATOM     86  F   UNL A   1      44.719  33.281  28.615  1.00  0.00    -0.206 F 
ATOM     87  C   UNL A   1      44.864  34.883  30.327  1.00  0.00     0.040 A 
ATOM     88  C   UNL A   1      44.559  34.221  32.623  1.00  0.00     0.040 A 
ATOM     89  F   UNL A   1      44.136  31.975  33.154  1.00  0.00    -0.206 F 
ATOM     90  C   UNL A   1      44.813  35.215  31.680  1.00  0.00     0.006 A 
ENDBRANCH  66  83
ENDBRANCH  40  41
ENDBRANCH  32  35
ENDBRANCH  30  31
ENDBRANCH  29  30
ENDBRANCH   1  29
TORSDOF 15
ENDMDL
MODEL 2
REMARK VINA RESULT:     -12.4      4.204      8.846
REMARK SMILES CCc1ccc2c(CC(=O)NCCCCNC(=O)c3ccc(-c4c5nc(c(-c6c(F)cccc6F)c6ccc([nH]6)c(-c6c(F)cccc6F)c6nc(c(-c7c(F)cccc7F)c7ccc4[nH]7)C=C6)C=C5)cc3)c(C(=O)c3cc(C)ccn3)[nH]c2c1
REMARK SMILES IDX 13 1 12 2 11 3 9 4 10 5 8 7 7 8 3 9 4 10 85 11 5 12 84 13
REMARK SMILES IDX 6 14 83 15 73 16 2 18 1 19 74 20 75 21 76 22 77 23 82 24
REMARK SMILES IDX 78 25 81 26 79 27 80 28 14 29 15 30 16 31 17 32 18 34 19 35
REMARK SMILES IDX 20 36 72 37 21 38 71 39 22 40 23 41 24 42 65 43 25 44 70 45
REMARK SMILES IDX 64 46 66 47 26 48 69 49 63 50 62 51 27 53 53 54 36 55 52 56
REMARK SMILES IDX 37 57 40 58 51 59 67 60 38 61 39 62 50 64 68 65 41 66 28 67
REMARK SMILES IDX 29 68 34 69 30 70 31 71 33 72 35 73 32 74 54 75 55 76 60 77
REMARK SMILES IDX 56 78 57 79 59 80 61 81 58 82 42 83 43 84 48 85 44 86 45 87
REMARK SMILES IDX 47 88 49 89 46 90
REMARK H PARENT 11 6 83 17 16 33 66 52 40 63
REMARK Flexibility Score: inf
ROOT
ATOM      1  C   UNL A   1      31.802  30.302  26.880  1.00  0.00     0.023 C 
ENDROOT
BRANCH   1   2
ATOM      2  C   UNL A   1      33.266  29.896  27.044  1.00  0.00     0.116 C 
BRANCH   2   3
ATOM      3  N   UNL A   1      33.820  29.310  25.843  1.00  0.00    -0.356 N 
ATOM      4  C   UNL A   1      33.629  28.067  25.311  1.00  0.00     0.224 C 
ATOM      5  O   UNL A   1      34.054  27.886  24.166  1.00  0.00    -0.275 OA
ATOM      6  H   UNL A   1      34.425  29.896  25.332  1.00  0.00     0.163 HD
BRANCH   4   7
ATOM      7  C   UNL A   1      32.806  27.002  26.031  1.00  0.00     0.138 C 
BRANCH   7   8
ATOM      8  C   UNL A   1      31.496  26.646  25.378  1.00  0.00    -0.002 A 
ATOM      9  C   UNL A   1      28.673  28.792  23.074  1.00  0.00    -0.046 A 
ATOM     10  C   UNL A   1      29.857  29.472  23.378  1.00  0.00     0.004 A 
ATOM     11  C   UNL A   1      28.500  27.465  23.501  1.00  0.00     0.030 A 
ATOM     12  C   UNL A   1      30.877  28.853  24.107  1.00  0.00     0.011 A 
ATOM     13  C   UNL A   1      29.532  26.865  24.239  1.00  0.00     0.046 A 
ATOM     14  C   UNL A   1      30.709  27.528  24.562  1.00  0.00     0.004 A 
ATOM     15  N   UNL A   1      29.619  25.607  24.785  1.00  0.00    -0.352 N 
ATOM     16  C   UNL A   1      30.832  25.417  25.417  1.00  0.00     0.093 A 
ATOM     17  H   UNL A   1      28.907  24.928  24.733  1.00  0.00     0.167 HD
BRANCH   9  18
ATOM     18  C   UNL A   1      27.578  29.496  22.305  1.00  0.00     0.032 C 
ATOM     19  C   UNL A   1      28.119  30.473  21.270  1.00  0.00     0.009 C 
ENDBRANCH   9  18
BRANCH  16  20
ATOM     20  C   UNL A   1      31.288  24.171  26.026  1.00  0.00     0.227 C 
ATOM     21  O   UNL A   1      31.327  23.995  27.242  1.00  0.00    -0.285 OA
BRANCH  20  22
ATOM     22  C   UNL A   1      31.786  23.065  25.164  1.00  0.00     0.113 A 
ATOM     23  C   UNL A   1      32.129  21.841  25.734  1.00  0.00     0.036 A 
ATOM     24  N   UNL A   1      31.816  23.313  23.831  1.00  0.00    -0.253 NA
ATOM     25  C   UNL A   1      32.528  20.806  24.885  1.00  0.00    -0.047 A 
ATOM     26  C   UNL A   1      32.169  22.286  23.034  1.00  0.00     0.112 A 
ATOM     27  C   UNL A   1      32.897  19.456  25.423  1.00  0.00     0.044 C 
ATOM     28  C   UNL A   1      32.531  21.034  23.507  1.00  0.00     0.023 A 
ENDBRANCH  20  22
ENDBRANCH  16  20
ENDBRANCH   7   8
ENDBRANCH   4   7
ENDBRANCH   2   3
ENDBRANCH   1   2
BRANCH   1  29
ATOM     29  C   UNL A   1      31.553  31.809  26.778  1.00  0.00     0.023 C 
BRANCH  29  30
ATOM     30  C   UNL A   1      32.784  32.695  26.929  1.00  0.00     0.116 C 
BRANCH  30  31
ATOM     31  N   UNL A   1      32.502  33.978  27.552  1.00  0.00    -0.352 N 
ATOM     32  C   UNL A   1      33.133  34.589  28.607  1.00  0.00     0.251 C 
ATOM     33  H   UNL A   1      31.751  34.480  27.162  1.00  0.00     0.163 HD
ATOM     34  O   UNL A   1      32.691  35.644  29.057  1.00  0.00    -0.269 OA
BRANCH  32  35
ATOM     35  C   UNL A   1      34.319  33.964  29.235  1.00  0.00     0.039 A 
ATOM     36  C   UNL A   1      34.115  32.967  30.194  1.00  0.00     0.014 A 
ATOM     37  C   UNL A   1      35.619  34.354  28.901  1.00  0.00     0.014 A 
ATOM     38  C   UNL A   1      35.210  32.319  30.769  1.00  0.00     0.010 A 
ATOM     39  C   UNL A   1      36.710  33.667  29.431  1.00  0.00     0.010 A 
ATOM     40  C   UNL A   1      36.515  32.642  30.370  1.00  0.00    -0.014 A 
BRANCH  40  41
ATOM     41  C   UNL A   1      37.682  31.909  30.921  1.00  0.00     0.031 A 
ATOM     42  C   UNL A   1      38.193  32.217  32.300  1.00  0.00     0.074 A 
ATOM     43  C   UNL A   1      38.309  30.990  30.161  1.00  0.00     0.049 A 
ATOM     44  N   UNL A   1      39.211  31.699  32.939  1.00  0.00    -0.248 NA
ATOM     45  C   UNL A   1      37.478  33.260  33.054  1.00  0.00     0.031 C 
ATOM     46  C   UNL A   1      37.940  30.631  28.790  1.00  0.00     0.029 A 
ATOM     47  N   UNL A   1      39.390  30.191  30.434  1.00  0.00    -0.354 N 
ATOM     48  C   UNL A   1      39.264  32.354  34.163  1.00  0.00     0.074 A 
ATOM     49  C   UNL A   1      38.204  33.340  34.160  1.00  0.00     0.031 C 
ATOM     50  C   UNL A   1      38.763  29.664  28.353  1.00  0.00     0.029 A 
ATOM     51  C   UNL A   1      39.732  29.355  29.400  1.00  0.00     0.049 A 
ATOM     52  H   UNL A   1      39.874  30.214  31.292  1.00  0.00     0.167 HD
ATOM     53  C   UNL A   1      40.102  32.138  35.204  1.00  0.00     0.037 A 
ATOM     54  C   UNL A   1      40.712  28.437  29.310  1.00  0.00     0.037 A 
ATOM     55  C   UNL A   1      41.143  31.143  35.219  1.00  0.00     0.049 A 
ATOM     56  C   UNL A   1      41.624  28.213  30.482  1.00  0.00     0.074 A 
ATOM     57  C   UNL A   1      42.018  30.825  36.242  1.00  0.00     0.029 A 
ATOM     58  N   UNL A   1      41.444  30.302  34.159  1.00  0.00    -0.354 N 
ATOM     59  N   UNL A   1      41.626  28.802  31.652  1.00  0.00    -0.248 NA
ATOM     60  C   UNL A   1      42.666  27.188  30.322  1.00  0.00     0.031 C 
ATOM     61  C   UNL A   1      42.867  29.806  35.793  1.00  0.00     0.029 A 
ATOM     62  C   UNL A   1      42.498  29.470  34.501  1.00  0.00     0.049 A 
ATOM     63  H   UNL A   1      40.980  30.298  33.291  1.00  0.00     0.167 HD
ATOM     64  C   UNL A   1      42.647  28.203  32.377  1.00  0.00     0.074 A 
ATOM     65  C   UNL A   1      43.236  27.195  31.519  1.00  0.00     0.031 C 
ATOM     66  C   UNL A   1      43.061  28.464  33.640  1.00  0.00     0.037 A 
BRANCH  53  67
ATOM     67  C   UNL A   1      39.916  32.987  36.425  1.00  0.00     0.057 A 
ATOM     68  C   UNL A   1      40.681  34.141  36.638  1.00  0.00     0.134 A 
ATOM     69  C   UNL A   1      38.942  32.670  37.380  1.00  0.00     0.134 A 
ATOM     70  F   UNL A   1      41.638  34.491  35.766  1.00  0.00    -0.206 F 
ATOM     71  C   UNL A   1      40.498  34.939  37.768  1.00  0.00     0.040 A 
ATOM     72  C   UNL A   1      38.735  33.472  38.503  1.00  0.00     0.040 A 
ATOM     73  F   UNL A   1      38.173  31.581  37.234  1.00  0.00    -0.206 F 
ATOM     74  C   UNL A   1      39.518  34.609  38.701  1.00  0.00     0.006 A 
ENDBRANCH  53  67
BRANCH  54  75
ATOM     75  C   UNL A   1      40.863  27.630  28.075  1.00  0.00     0.057 A 
ATOM     76  C   UNL A   1      40.231  26.387  27.948  1.00  0.00     0.134 A 
ATOM     77  C   UNL A   1      41.653  28.066  27.006  1.00  0.00     0.134 A 
ATOM     78  F   UNL A   1      39.478  25.908  28.949  1.00  0.00    -0.206 F 
ATOM     79  C   UNL A   1      40.395  25.597  26.811  1.00  0.00     0.040 A 
ATOM     80  C   UNL A   1      41.809  27.296  25.852  1.00  0.00     0.040 A 
ATOM     81  F   UNL A   1      42.280  29.250  27.065  1.00  0.00    -0.206 F 
ATOM     82  C   UNL A   1      41.185  26.053  25.756  1.00  0.00     0.006 A 
ENDBRANCH  54  75
BRANCH  66  83
ATOM     83  C   UNL A   1      44.179  27.622  34.179  1.00  0.00     0.057 A 
ATOM     84  C   UNL A   1      45.514  28.039  34.112  1.00  0.00     0.134 A 
ATOM     85  C   UNL A   1      43.911  26.392  34.791  1.00  0.00     0.134 A 
ATOM     86  F   UNL A   1      45.834  29.202  33.524  1.00  0.00    -0.206 F 
ATOM     87  C   UNL A   1      46.548  27.250  34.618  1.00  0.00     0.040 A 
ATOM     88  C   UNL A   1      44.935  25.604  35.318  1.00  0.00     0.040 A 
ATOM     89  F   UNL A   1      42.652  25.939  34.891  1.00  0.00    -0.206 F 
ATOM     90  C   UNL A   1      46.258  26.030  35.228  1.00  0.00     0.006 A 
ENDBRANCH  66  83
ENDBRANCH  40  41
ENDBRANCH  32  35
ENDBRANCH  30  31
ENDBRANCH  29  30
ENDBRANCH   1  29
TORSDOF 15
ENDMDL
MODEL 3
REMARK VINA RESULT:     -12.4      4.112      9.388
REMARK SMILES CCc1ccc2c(CC(=O)NCCCCNC(=O)c3ccc(-c4c5nc(c(-c6c(F)cccc6F)c6ccc([nH]6)c(-c6c(F)cccc6F)c6nc(c(-c7c(F)cccc7F)c7ccc4[nH]7)C=C6)C=C5)cc3)c(C(=O)c3cc(C)ccn3)[nH]c2c1
REMARK SMILES IDX 13 1 12 2 11 3 9 4 10 5 8 7 7 8 3 9 4 10 85 11 5 12 84 13
REMARK SMILES IDX 6 14 83 15 73 16 2 18 1 19 74 20 75 21 76 22 77 23 82 24
REMARK SMILES IDX 78 25 81 26 79 27 80 28 14 29 15 30 16 31 17 32 18 34 19 35
REMARK SMILES IDX 20 36 72 37 21 38 71 39 22 40 23 41 24 42 65 43 25 44 70 45
REMARK SMILES IDX 64 46 66 47 26 48 69 49 63 50 62 51 27 53 53 54 36 55 52 56
REMARK SMILES IDX 37 57 40 58 51 59 67 60 38 61 39 62 50 64 68 65 41 66 28 67
REMARK SMILES IDX 29 68 34 69 30 70 31 71 33 72 35 73 32 74 54 75 55 76 60 77
REMARK SMILES IDX 56 78 57 79 59 80 61 81 58 82 42 83 43 84 48 85 44 86 45 87
REMARK SMILES IDX 47 88 49 89 46 90
REMARK H PARENT 11 6 83 17 16 33 66 52 40 63
REMARK Flexibility Score: inf
ROOT
ATOM      1  C   UNL A   1      31.495  30.750  25.861  1.00  0.00     0.023 C 
ENDROOT
BRANCH   1   2
ATOM      2  C   UNL A   1      32.274  29.755  26.719  1.00  0.00     0.116 C 
BRANCH   2   3
ATOM      3  N   UNL A   1      31.645  28.453  26.773  1.00  0.00    -0.356 N 
ATOM      4  C   UNL A   1      32.169  27.219  26.507  1.00  0.00     0.224 C 
ATOM      5  O   UNL A   1      31.479  26.247  26.829  1.00  0.00    -0.275 OA
ATOM      6  H   UNL A   1      30.698  28.457  27.043  1.00  0.00     0.163 HD
BRANCH   4   7
ATOM      7  C   UNL A   1      33.589  27.047  25.976  1.00  0.00     0.138 C 
BRANCH   7   8
ATOM      8  C   UNL A   1      33.764  25.976  24.931  1.00  0.00    -0.002 A 
ATOM      9  C   UNL A   1      34.818  21.882  25.057  1.00  0.00    -0.046 A 
ATOM     10  C   UNL A   1      34.624  22.502  26.296  1.00  0.00     0.004 A 
ATOM     11  C   UNL A   1      34.624  22.614  23.873  1.00  0.00     0.030 A 
ATOM     12  C   UNL A   1      34.242  23.844  26.380  1.00  0.00     0.011 A 
ATOM     13  C   UNL A   1      34.249  23.961  23.978  1.00  0.00     0.046 A 
ATOM     14  C   UNL A   1      34.065  24.597  25.200  1.00  0.00     0.004 A 
ATOM     15  N   UNL A   1      34.013  24.898  23.001  1.00  0.00    -0.352 N 
ATOM     16  C   UNL A   1      33.640  26.111  23.546  1.00  0.00     0.093 A 
ATOM     17  H   UNL A   1      34.099  24.726  22.034  1.00  0.00     0.167 HD
BRANCH   9  18
ATOM     18  C   UNL A   1      35.254  20.436  24.999  1.00  0.00     0.032 C 
ATOM     19  C   UNL A   1      36.768  20.278  24.978  1.00  0.00     0.009 C 
ENDBRANCH   9  18
BRANCH  16  20
ATOM     20  C   UNL A   1      33.234  27.293  22.793  1.00  0.00     0.227 C 
ATOM     21  O   UNL A   1      34.025  27.986  22.156  1.00  0.00    -0.285 OA
BRANCH  20  22
ATOM     22  C   UNL A   1      31.814  27.737  22.822  1.00  0.00     0.113 A 
ATOM     23  C   UNL A   1      30.826  26.876  23.291  1.00  0.00     0.036 A 
ATOM     24  N   UNL A   1      31.580  29.015  22.431  1.00  0.00    -0.253 NA
ATOM     25  C   UNL A   1      29.515  27.352  23.365  1.00  0.00    -0.047 A 
ATOM     26  C   UNL A   1      30.313  29.459  22.547  1.00  0.00     0.112 A 
ATOM     27  C   UNL A   1      28.400  26.488  23.875  1.00  0.00     0.044 C 
ATOM     28  C   UNL A   1      29.262  28.676  22.999  1.00  0.00     0.023 A 
ENDBRANCH  20  22
ENDBRANCH  16  20
ENDBRANCH   7   8
ENDBRANCH   4   7
ENDBRANCH   2   3
ENDBRANCH   1   2
BRANCH   1  29
ATOM     29  C   UNL A   1      31.264  32.121  26.502  1.00  0.00     0.023 C 
BRANCH  29  30
ATOM     30  C   UNL A   1      32.488  32.767  27.142  1.00  0.00     0.116 C 
BRANCH  30  31
ATOM     31  N   UNL A   1      32.248  34.117  27.622  1.00  0.00    -0.352 N 
ATOM     32  C   UNL A   1      32.942  34.842  28.559  1.00  0.00     0.251 C 
ATOM     33  H   UNL A   1      31.477  34.577  27.218  1.00  0.00     0.163 HD
ATOM     34  O   UNL A   1      32.530  35.947  28.904  1.00  0.00    -0.269 OA
BRANCH  32  35
ATOM     35  C   UNL A   1      34.159  34.284  29.189  1.00  0.00     0.039 A 
ATOM     36  C   UNL A   1      34.015  33.511  30.345  1.00  0.00     0.014 A 
ATOM     37  C   UNL A   1      35.433  34.519  28.662  1.00  0.00     0.014 A 
ATOM     38  C   UNL A   1      35.136  32.926  30.936  1.00  0.00     0.010 A 
ATOM     39  C   UNL A   1      36.543  33.886  29.217  1.00  0.00     0.010 A 
ATOM     40  C   UNL A   1      36.405  33.083  30.359  1.00  0.00    -0.014 A 
BRANCH  40  41
ATOM     41  C   UNL A   1      37.592  32.405  30.937  1.00  0.00     0.031 A 
ATOM     42  C   UNL A   1      38.220  32.916  32.203  1.00  0.00     0.074 A 
ATOM     43  C   UNL A   1      38.130  31.348  30.299  1.00  0.00     0.049 A 
ATOM     44  N   UNL A   1      39.272  32.469  32.843  1.00  0.00    -0.248 NA
ATOM     45  C   UNL A   1      37.597  34.097  32.822  1.00  0.00     0.031 C 
ATOM     46  C   UNL A   1      37.643  30.782  29.039  1.00  0.00     0.029 A 
ATOM     47  N   UNL A   1      39.207  30.561  30.621  1.00  0.00    -0.354 N 
ATOM     48  C   UNL A   1      39.441  33.315  33.931  1.00  0.00     0.074 A 
ATOM     49  C   UNL A   1      38.412  34.330  33.841  1.00  0.00     0.031 C 
ATOM     50  C   UNL A   1      38.401  29.723  28.711  1.00  0.00     0.029 A 
ATOM     51  C   UNL A   1      39.442  29.552  29.719  1.00  0.00     0.049 A 
ATOM     52  H   UNL A   1      39.759  30.707  31.423  1.00  0.00     0.167 HD
ATOM     53  C   UNL A   1      40.354  33.241  34.928  1.00  0.00     0.037 A 
ATOM     54  C   UNL A   1      40.385  28.593  29.712  1.00  0.00     0.037 A 
ATOM     55  C   UNL A   1      41.364  32.221  35.033  1.00  0.00     0.049 A 
ATOM     56  C   UNL A   1      41.383  28.529  30.834  1.00  0.00     0.074 A 
ATOM     57  C   UNL A   1      42.310  32.041  36.027  1.00  0.00     0.029 A 
ATOM     58  N   UNL A   1      41.556  31.204  34.110  1.00  0.00    -0.354 N 
ATOM     59  N   UNL A   1      41.495  29.303  31.885  1.00  0.00    -0.248 NA
ATOM     60  C   UNL A   1      42.380  27.451  30.771  1.00  0.00     0.031 C 
ATOM     61  C   UNL A   1      43.091  30.928  35.693  1.00  0.00     0.029 A 
ATOM     62  C   UNL A   1      42.610  30.398  34.508  1.00  0.00     0.049 A 
ATOM     63  H   UNL A   1      41.024  31.075  33.292  1.00  0.00     0.167 HD
ATOM     64  C   UNL A   1      42.554  28.792  32.622  1.00  0.00     0.074 A 
ATOM     65  C   UNL A   1      43.044  27.633  31.904  1.00  0.00     0.031 C 
ATOM     66  C   UNL A   1      43.075  29.242  33.789  1.00  0.00     0.037 A 
BRANCH  53  67
ATOM     67  C   UNL A   1      40.290  34.287  35.999  1.00  0.00     0.057 A 
ATOM     68  C   UNL A   1      39.538  34.096  37.166  1.00  0.00     0.134 A 
ATOM     69  C   UNL A   1      41.010  35.482  35.882  1.00  0.00     0.134 A 
ATOM     70  F   UNL A   1      38.816  32.978  37.332  1.00  0.00    -0.206 F 
ATOM     71  C   UNL A   1      39.489  35.065  38.169  1.00  0.00     0.040 A 
ATOM     72  C   UNL A   1      40.986  36.449  36.888  1.00  0.00     0.040 A 
ATOM     73  F   UNL A   1      41.752  35.726  34.791  1.00  0.00    -0.206 F 
ATOM     74  C   UNL A   1      40.220  36.243  38.034  1.00  0.00     0.006 A 
ENDBRANCH  53  67
BRANCH  54  75
ATOM     75  C   UNL A   1      40.415  27.587  28.623  1.00  0.00     0.057 A 
ATOM     76  C   UNL A   1      41.150  27.818  27.454  1.00  0.00     0.134 A 
ATOM     77  C   UNL A   1      39.701  26.387  28.713  1.00  0.00     0.134 A 
ATOM     78  F   UNL A   1      41.837  28.959  27.303  1.00  0.00    -0.206 F 
ATOM     79  C   UNL A   1      41.157  26.901  26.402  1.00  0.00     0.040 A 
ATOM     80  C   UNL A   1      39.716  25.451  27.678  1.00  0.00     0.040 A 
ATOM     81  F   UNL A   1      38.983  26.107  29.809  1.00  0.00    -0.206 F 
ATOM     82  C   UNL A   1      40.439  25.710  26.515  1.00  0.00     0.006 A 
ENDBRANCH  54  75
BRANCH  66  83
ATOM     83  C   UNL A   1      44.209  28.456  34.376  1.00  0.00     0.057 A 
ATOM     84  C   UNL A   1      45.545  28.790  34.127  1.00  0.00     0.134 A 
ATOM     85  C   UNL A   1      43.958  27.367  35.220  1.00  0.00     0.134 A 
ATOM     86  F   UNL A   1      45.849  29.815  33.315  1.00  0.00    -0.206 F 
ATOM     87  C   UNL A   1      46.595  28.054  34.679  1.00  0.00     0.040 A 
ATOM     88  C   UNL A   1      44.998  26.636  35.794  1.00  0.00     0.040 A 
ATOM     89  F   UNL A   1      42.698  26.999  35.502  1.00  0.00    -0.206 F 
ATOM     90  C   UNL A   1      46.321  26.977  35.521  1.00  0.00     0.006 A 
ENDBRANCH  66  83
ENDBRANCH  40  41
ENDBRANCH  32  35
ENDBRANCH  30  31
ENDBRANCH  29  30
ENDBRANCH   1  29
TORSDOF 15
ENDMDL
