MODEL 1
REMARK VINA RESULT:     -12.6      0.000      0.000
REMARK SMILES O=C(Cn1nc(C(=O)NCCCCNC(=O)c2ccc(-c3c4nc(c(-c5c(F)cccc5F)c5ccc([nH]5)c(-c5c(F)cccc5F)c5nc(c(-c6c(F)cccc6F)c6ccc3[nH]6)C=C5)C=C4)cc2)c2ccccc2c1=O)NCc1ccc(F)cc1
REMARK SMILES IDX 10 1 9 2 7 3 8 4 6 6 4 7 5 8 77 9 76 10 78 11 71 12 75 13
REMARK SMILES IDX 72 14 74 15 73 16 3 17 2 18 1 19 79 20 80 22 81 23 82 24
REMARK SMILES IDX 87 25 83 26 86 27 84 28 85 29 11 30 12 31 13 32 14 33 15 34
REMARK SMILES IDX 16 36 17 37 18 38 70 39 19 40 69 41 20 42 21 43 22 44 63 45
REMARK SMILES IDX 23 46 68 47 62 48 64 49 24 50 67 51 61 52 60 53 25 55 51 56
REMARK SMILES IDX 34 57 50 58 35 59 38 60 49 61 65 62 36 63 37 64 48 66 66 67
REMARK SMILES IDX 39 68 26 69 27 70 32 71 28 72 29 73 31 74 33 75 30 76 52 77
REMARK SMILES IDX 53 78 58 79 54 80 55 81 57 82 59 83 56 84 40 85 41 86 46 87
REMARK SMILES IDX 42 88 43 89 45 90 47 91 44 92
REMARK H PARENT 9 5 79 21 14 35 64 54 38 65
REMARK Flexibility Score: inf
ROOT
ATOM      1  C   UNL A   1      32.958  29.502  26.388  1.00  0.00     0.116 C 
ENDROOT
BRANCH   1   2
ATOM      2  N   UNL A   1      33.402  29.541  25.013  1.00  0.00    -0.351 N 
ATOM      3  C   UNL A   1      32.859  29.041  23.852  1.00  0.00     0.272 C 
ATOM      4  O   UNL A   1      33.475  29.290  22.821  1.00  0.00    -0.267 OA
ATOM      5  H   UNL A   1      34.254  30.016  24.882  1.00  0.00     0.163 HD
BRANCH   3   6
ATOM      6  C   UNL A   1      31.541  28.222  23.820  1.00  0.00     0.156 A 
ATOM      7  N   UNL A   1      30.464  26.206  24.251  1.00  0.00    -0.219 N 
ATOM      8  N   UNL A   1      31.603  26.965  24.157  1.00  0.00    -0.163 NA
ATOM      9  C   UNL A   1      29.197  26.674  23.936  1.00  0.00     0.275 A 
ATOM     10  C   UNL A   1      29.105  28.075  23.500  1.00  0.00     0.051 A 
ATOM     11  O   UNL A   1      28.182  25.982  23.968  1.00  0.00    -0.267 OA
ATOM     12  C   UNL A   1      30.253  28.863  23.422  1.00  0.00     0.020 A 
ATOM     13  C   UNL A   1      27.849  28.582  23.126  1.00  0.00     0.014 A 
ATOM     14  C   UNL A   1      30.119  30.174  22.943  1.00  0.00     0.011 A 
ATOM     15  C   UNL A   1      27.732  29.886  22.659  1.00  0.00     0.001 A 
ATOM     16  C   UNL A   1      28.868  30.680  22.566  1.00  0.00     0.001 A 
BRANCH   7  17
ATOM     17  C   UNL A   1      30.606  24.792  24.579  1.00  0.00     0.248 C 
BRANCH  17  18
ATOM     18  C   UNL A   1      31.491  24.481  25.782  1.00  0.00     0.242 C 
ATOM     19  O   UNL A   1      31.054  24.276  26.911  1.00  0.00    -0.273 OA
ATOM     20  N   UNL A   1      32.839  24.480  25.491  1.00  0.00    -0.350 N 
ATOM     21  H   UNL A   1      33.136  24.742  24.590  1.00  0.00     0.163 HD
BRANCH  20  22
ATOM     22  C   UNL A   1      33.827  24.105  26.475  1.00  0.00     0.151 C 
BRANCH  22  23
ATOM     23  C   UNL A   1      34.901  23.212  25.903  1.00  0.00    -0.029 A 
ATOM     24  C   UNL A   1      36.105  23.702  25.377  1.00  0.00     0.008 A 
ATOM     25  C   UNL A   1      34.667  21.832  25.844  1.00  0.00     0.008 A 
ATOM     26  C   UNL A   1      37.074  22.823  24.882  1.00  0.00     0.039 A 
ATOM     27  C   UNL A   1      35.640  20.949  25.376  1.00  0.00     0.039 A 
ATOM     28  C   UNL A   1      36.841  21.454  24.903  1.00  0.00     0.123 A 
ATOM     29  F   UNL A   1      37.778  20.615  24.446  1.00  0.00    -0.207 F 
ENDBRANCH  22  23
ENDBRANCH  20  22
ENDBRANCH  17  18
ENDBRANCH   7  17
ENDBRANCH   3   6
ENDBRANCH   1   2
BRANCH   1  30
ATOM     30  C   UNL A   1      31.599  30.176  26.560  1.00  0.00     0.023 C 
BRANCH  30  31
ATOM     31  C   UNL A   1      31.620  31.694  26.389  1.00  0.00     0.023 C 
BRANCH  31  32
ATOM     32  C   UNL A   1      32.674  32.431  27.204  1.00  0.00     0.116 C 
BRANCH  32  33
ATOM     33  N   UNL A   1      32.281  33.771  27.627  1.00  0.00    -0.352 N 
ATOM     34  C   UNL A   1      32.930  34.616  28.501  1.00  0.00     0.251 C 
ATOM     35  H   UNL A   1      31.444  34.115  27.239  1.00  0.00     0.163 HD
ATOM     36  O   UNL A   1      32.537  35.742  28.750  1.00  0.00    -0.269 OA
BRANCH  34  37
ATOM     37  C   UNL A   1      34.141  34.128  29.159  1.00  0.00     0.039 A 
ATOM     38  C   UNL A   1      35.374  34.528  28.653  1.00  0.00     0.014 A 
ATOM     39  C   UNL A   1      34.031  33.238  30.230  1.00  0.00     0.014 A 
ATOM     40  C   UNL A   1      36.511  33.907  29.122  1.00  0.00     0.010 A 
ATOM     41  C   UNL A   1      35.190  32.700  30.778  1.00  0.00     0.010 A 
ATOM     42  C   UNL A   1      36.430  33.012  30.203  1.00  0.00    -0.014 A 
BRANCH  42  43
ATOM     43  C   UNL A   1      37.700  32.484  30.736  1.00  0.00     0.031 A 
ATOM     44  C   UNL A   1      38.261  32.991  32.026  1.00  0.00     0.074 A 
ATOM     45  C   UNL A   1      38.248  31.447  30.077  1.00  0.00     0.049 A 
ATOM     46  N   UNL A   1      39.268  32.525  32.717  1.00  0.00    -0.248 NA
ATOM     47  C   UNL A   1      37.617  34.173  32.618  1.00  0.00     0.031 C 
ATOM     48  C   UNL A   1      37.747  30.901  28.809  1.00  0.00     0.029 A 
ATOM     49  N   UNL A   1      39.288  30.625  30.404  1.00  0.00    -0.354 N 
ATOM     50  C   UNL A   1      39.382  33.355  33.824  1.00  0.00     0.074 A 
ATOM     51  C   UNL A   1      38.367  34.378  33.693  1.00  0.00     0.031 C 
ATOM     52  C   UNL A   1      38.419  29.781  28.517  1.00  0.00     0.029 A 
ATOM     53  C   UNL A   1      39.445  29.578  29.530  1.00  0.00     0.049 A 
ATOM     54  H   UNL A   1      39.867  30.769  31.187  1.00  0.00     0.167 HD
ATOM     55  C   UNL A   1      40.253  33.256  34.856  1.00  0.00     0.037 A 
ATOM     56  C   UNL A   1      40.329  28.566  29.548  1.00  0.00     0.037 A 
ATOM     57  C   UNL A   1      41.262  32.231  34.946  1.00  0.00     0.049 A 
ATOM     58  C   UNL A   1      41.309  28.516  30.681  1.00  0.00     0.074 A 
ATOM     59  C   UNL A   1      42.208  32.030  35.935  1.00  0.00     0.029 A 
ATOM     60  N   UNL A   1      41.459  31.235  33.997  1.00  0.00    -0.354 N 
ATOM     61  N   UNL A   1      41.396  29.294  31.733  1.00  0.00    -0.248 NA
ATOM     62  C   UNL A   1      42.316  27.454  30.623  1.00  0.00     0.031 C 
ATOM     63  C   UNL A   1      43.009  30.946  35.558  1.00  0.00     0.029 A 
ATOM     64  C   UNL A   1      42.528  30.432  34.363  1.00  0.00     0.049 A 
ATOM     65  H   UNL A   1      40.919  31.117  33.183  1.00  0.00     0.167 HD
ATOM     66  C   UNL A   1      42.469  28.815  32.469  1.00  0.00     0.074 A 
ATOM     67  C   UNL A   1      42.966  27.650  31.761  1.00  0.00     0.031 C 
ATOM     68  C   UNL A   1      43.007  29.294  33.619  1.00  0.00     0.037 A 
BRANCH  55  69
ATOM     69  C   UNL A   1      40.169  34.301  35.932  1.00  0.00     0.057 A 
ATOM     70  C   UNL A   1      39.364  34.102  37.060  1.00  0.00     0.134 A 
ATOM     71  C   UNL A   1      40.887  35.503  35.860  1.00  0.00     0.134 A 
ATOM     72  F   UNL A   1      38.648  32.976  37.196  1.00  0.00    -0.206 F 
ATOM     73  C   UNL A   1      39.278  35.056  38.078  1.00  0.00     0.040 A 
ATOM     74  C   UNL A   1      40.831  36.453  36.884  1.00  0.00     0.040 A 
ATOM     75  F   UNL A   1      41.693  35.753  34.817  1.00  0.00    -0.206 F 
ATOM     76  C   UNL A   1      40.020  36.231  37.994  1.00  0.00     0.006 A 
ENDBRANCH  55  69
BRANCH  56  77
ATOM     77  C   UNL A   1      40.335  27.555  28.461  1.00  0.00     0.057 A 
ATOM     78  C   UNL A   1      41.069  27.758  27.286  1.00  0.00     0.134 A 
ATOM     79  C   UNL A   1      39.620  26.357  28.574  1.00  0.00     0.134 A 
ATOM     80  F   UNL A   1      41.766  28.890  27.108  1.00  0.00    -0.206 F 
ATOM     81  C   UNL A   1      41.088  26.812  26.261  1.00  0.00     0.040 A 
ATOM     82  C   UNL A   1      39.657  25.387  27.572  1.00  0.00     0.040 A 
ATOM     83  F   UNL A   1      38.905  26.099  29.679  1.00  0.00    -0.206 F 
ATOM     84  C   UNL A   1      40.390  25.615  26.408  1.00  0.00     0.006 A 
ENDBRANCH  56  77
BRANCH  68  85
ATOM     85  C   UNL A   1      44.183  28.535  34.160  1.00  0.00     0.057 A 
ATOM     86  C   UNL A   1      45.488  28.908  33.822  1.00  0.00     0.134 A 
ATOM     87  C   UNL A   1      44.022  27.455  35.039  1.00  0.00     0.134 A 
ATOM     88  F   UNL A   1      45.711  29.927  32.979  1.00  0.00    -0.206 F 
ATOM     89  C   UNL A   1      46.594  28.243  34.350  1.00  0.00     0.040 A 
ATOM     90  C   UNL A   1      45.120  26.806  35.602  1.00  0.00     0.040 A 
ATOM     91  F   UNL A   1      42.795  27.061  35.416  1.00  0.00    -0.206 F 
ATOM     92  C   UNL A   1      46.412  27.199  35.256  1.00  0.00     0.006 A 
ENDBRANCH  68  85
ENDBRANCH  42  43
ENDBRANCH  34  37
ENDBRANCH  32  33
ENDBRANCH  31  32
ENDBRANCH  30  31
ENDBRANCH   1  30
TORSDOF 15
ENDMDL
MODEL 2
REMARK VINA RESULT:     -12.6      1.857      2.538
REMARK SMILES O=C(Cn1nc(C(=O)NCCCCNC(=O)c2ccc(-c3c4nc(c(-c5c(F)cccc5F)c5ccc([nH]5)c(-c5c(F)cccc5F)c5nc(c(-c6c(F)cccc6F)c6ccc3[nH]6)C=C5)C=C4)cc2)c2ccccc2c1=O)NCc1ccc(F)cc1
REMARK SMILES IDX 10 1 9 2 7 3 8 4 6 6 4 7 5 8 77 9 76 10 78 11 71 12 75 13
REMARK SMILES IDX 72 14 74 15 73 16 3 17 2 18 1 19 79 20 80 22 81 23 82 24
REMARK SMILES IDX 87 25 83 26 86 27 84 28 85 29 11 30 12 31 13 32 14 33 15 34
REMARK SMILES IDX 16 36 17 37 18 38 70 39 19 40 69 41 20 42 21 43 22 44 63 45
REMARK SMILES IDX 23 46 68 47 62 48 64 49 24 50 67 51 61 52 60 53 25 55 51 56
REMARK SMILES IDX 34 57 50 58 35 59 38 60 49 61 65 62 36 63 37 64 48 66 66 67
REMARK SMILES IDX 39 68 26 69 27 70 32 71 28 72 29 73 31 74 33 75 30 76 52 77
REMARK SMILES IDX 53 78 58 79 54 80 55 81 57 82 59 83 56 84 40 85 41 86 46 87
REMARK SMILES IDX 42 88 43 89 45 90 47 91 44 92
REMARK H PARENT 9 5 79 21 14 35 64 54 38 65
REMARK Flexibility Score: inf
ROOT
ATOM      1  C   UNL A   1      34.276  29.362  27.212  1.00  0.00     0.116 C 
ENDROOT
BRANCH   1   2
ATOM      2  N   UNL A   1      33.027  28.887  27.765  1.00  0.00    -0.351 N 
ATOM      3  C   UNL A   1      32.133  27.932  27.342  1.00  0.00     0.272 C 
ATOM      4  O   UNL A   1      31.173  27.731  28.079  1.00  0.00    -0.267 OA
ATOM      5  H   UNL A   1      32.769  29.331  28.604  1.00  0.00     0.163 HD
BRANCH   3   6
ATOM      6  C   UNL A   1      32.314  27.130  26.025  1.00  0.00     0.156 A 
ATOM      7  N   UNL A   1      33.180  25.247  24.969  1.00  0.00    -0.219 N 
ATOM      8  N   UNL A   1      33.057  26.061  26.066  1.00  0.00    -0.163 NA
ATOM      9  C   UNL A   1      32.600  25.519  23.738  1.00  0.00     0.275 A 
ATOM     10  C   UNL A   1      31.800  26.749  23.648  1.00  0.00     0.051 A 
ATOM     11  O   UNL A   1      32.752  24.820  22.739  1.00  0.00    -0.267 OA
ATOM     12  C   UNL A   1      31.650  27.573  24.764  1.00  0.00     0.020 A 
ATOM     13  C   UNL A   1      31.231  27.092  22.410  1.00  0.00     0.014 A 
ATOM     14  C   UNL A   1      30.927  28.764  24.608  1.00  0.00     0.011 A 
ATOM     15  C   UNL A   1      30.512  28.274  22.275  1.00  0.00     0.001 A 
ATOM     16  C   UNL A   1      30.363  29.110  23.373  1.00  0.00     0.001 A 
BRANCH   7  17
ATOM     17  C   UNL A   1      34.070  24.096  25.063  1.00  0.00     0.248 C 
BRANCH  17  18
ATOM     18  C   UNL A   1      33.425  22.803  25.554  1.00  0.00     0.242 C 
ATOM     19  O   UNL A   1      33.449  22.436  26.725  1.00  0.00    -0.273 OA
ATOM     20  N   UNL A   1      32.834  22.064  24.551  1.00  0.00    -0.350 N 
ATOM     21  H   UNL A   1      32.925  22.362  23.617  1.00  0.00     0.163 HD
BRANCH  20  22
ATOM     22  C   UNL A   1      32.083  20.865  24.835  1.00  0.00     0.151 C 
BRANCH  22  23
ATOM     23  C   UNL A   1      32.755  19.623  24.300  1.00  0.00    -0.029 A 
ATOM     24  C   UNL A   1      33.965  19.127  24.808  1.00  0.00     0.008 A 
ATOM     25  C   UNL A   1      32.175  18.961  23.211  1.00  0.00     0.008 A 
ATOM     26  C   UNL A   1      34.529  17.958  24.287  1.00  0.00     0.039 A 
ATOM     27  C   UNL A   1      32.718  17.780  22.705  1.00  0.00     0.039 A 
ATOM     28  C   UNL A   1      33.890  17.285  23.253  1.00  0.00     0.123 A 
ATOM     29  F   UNL A   1      34.423  16.156  22.770  1.00  0.00    -0.207 F 
ENDBRANCH  22  23
ENDBRANCH  20  22
ENDBRANCH  17  18
ENDBRANCH   7  17
ENDBRANCH   3   6
ENDBRANCH   1   2
BRANCH   1  30
ATOM     30  C   UNL A   1      34.541  30.817  27.587  1.00  0.00     0.023 C 
BRANCH  30  31
ATOM     31  C   UNL A   1      33.282  31.656  27.799  1.00  0.00     0.023 C 
BRANCH  31  32
ATOM     32  C   UNL A   1      33.324  33.061  27.213  1.00  0.00     0.116 C 
BRANCH  32  33
ATOM     33  N   UNL A   1      32.745  34.089  28.070  1.00  0.00    -0.352 N 
ATOM     34  C   UNL A   1      33.281  34.658  29.205  1.00  0.00     0.251 C 
ATOM     35  H   UNL A   1      31.857  34.419  27.803  1.00  0.00     0.163 HD
ATOM     36  O   UNL A   1      32.728  35.551  29.823  1.00  0.00    -0.269 OA
BRANCH  34  37
ATOM     37  C   UNL A   1      34.567  34.156  29.684  1.00  0.00     0.039 A 
ATOM     38  C   UNL A   1      35.717  34.515  28.987  1.00  0.00     0.014 A 
ATOM     39  C   UNL A   1      34.604  33.294  30.783  1.00  0.00     0.014 A 
ATOM     40  C   UNL A   1      36.899  33.877  29.294  1.00  0.00     0.010 A 
ATOM     41  C   UNL A   1      35.821  32.742  31.163  1.00  0.00     0.010 A 
ATOM     42  C   UNL A   1      36.966  33.010  30.399  1.00  0.00    -0.014 A 
BRANCH  42  43
ATOM     43  C   UNL A   1      38.290  32.465  30.747  1.00  0.00     0.031 A 
ATOM     44  C   UNL A   1      39.078  33.026  31.887  1.00  0.00     0.074 A 
ATOM     45  C   UNL A   1      38.687  31.367  30.078  1.00  0.00     0.049 A 
ATOM     46  N   UNL A   1      40.172  32.563  32.431  1.00  0.00    -0.248 NA
ATOM     47  C   UNL A   1      38.579  34.269  32.497  1.00  0.00     0.031 C 
ATOM     48  C   UNL A   1      37.963  30.764  28.952  1.00  0.00     0.029 A 
ATOM     49  N   UNL A   1      39.743  30.524  30.281  1.00  0.00    -0.354 N 
ATOM     50  C   UNL A   1      40.496  33.454  33.445  1.00  0.00     0.074 A 
ATOM     51  C   UNL A   1      39.506  34.508  33.415  1.00  0.00     0.031 C 
ATOM     52  C   UNL A   1      38.542  29.602  28.628  1.00  0.00     0.029 A 
ATOM     53  C   UNL A   1      39.717  29.419  29.467  1.00  0.00     0.049 A 
ATOM     54  H   UNL A   1      40.450  30.692  30.946  1.00  0.00     0.167 HD
ATOM     55  C   UNL A   1      41.526  33.384  34.321  1.00  0.00     0.037 A 
ATOM     56  C   UNL A   1      40.560  28.375  29.406  1.00  0.00     0.037 A 
ATOM     57  C   UNL A   1      42.505  32.325  34.311  1.00  0.00     0.049 A 
ATOM     58  C   UNL A   1      41.716  28.354  30.361  1.00  0.00     0.074 A 
ATOM     59  C   UNL A   1      43.598  32.147  35.140  1.00  0.00     0.029 A 
ATOM     60  N   UNL A   1      42.508  31.265  33.412  1.00  0.00    -0.354 N 
ATOM     61  N   UNL A   1      42.004  29.192  31.328  1.00  0.00    -0.248 NA
ATOM     62  C   UNL A   1      42.667  27.250  30.208  1.00  0.00     0.031 C 
ATOM     63  C   UNL A   1      44.291  31.009  34.709  1.00  0.00     0.029 A 
ATOM     64  C   UNL A   1      43.599  30.443  33.648  1.00  0.00     0.049 A 
ATOM     65  H   UNL A   1      41.835  31.120  32.710  1.00  0.00     0.167 HD
ATOM     66  C   UNL A   1      43.171  28.715  31.905  1.00  0.00     0.074 A 
ATOM     67  C   UNL A   1      43.505  27.489  31.204  1.00  0.00     0.031 C 
ATOM     68  C   UNL A   1      43.910  29.242  32.914  1.00  0.00     0.037 A 
BRANCH  55  69
ATOM     69  C   UNL A   1      41.658  34.496  35.322  1.00  0.00     0.057 A 
ATOM     70  C   UNL A   1      41.035  34.409  36.573  1.00  0.00     0.134 A 
ATOM     71  C   UNL A   1      42.404  35.653  35.057  1.00  0.00     0.134 A 
ATOM     72  F   UNL A   1      40.304  33.331  36.897  1.00  0.00    -0.206 F 
ATOM     73  C   UNL A   1      41.151  35.426  37.523  1.00  0.00     0.040 A 
ATOM     74  C   UNL A   1      42.550  36.666  36.009  1.00  0.00     0.040 A 
ATOM     75  F   UNL A   1      43.043  35.796  33.885  1.00  0.00    -0.206 F 
ATOM     76  C   UNL A   1      41.918  36.555  37.244  1.00  0.00     0.006 A 
ENDBRANCH  55  69
BRANCH  56  77
ATOM     77  C   UNL A   1      40.353  27.299  28.405  1.00  0.00     0.057 A 
ATOM     78  C   UNL A   1      39.531  26.199  28.681  1.00  0.00     0.134 A 
ATOM     79  C   UNL A   1      40.959  27.347  27.145  1.00  0.00     0.134 A 
ATOM     80  F   UNL A   1      38.929  26.085  29.875  1.00  0.00    -0.206 F 
ATOM     81  C   UNL A   1      39.323  25.186  27.747  1.00  0.00     0.040 A 
ATOM     82  C   UNL A   1      40.734  26.358  26.187  1.00  0.00     0.040 A 
ATOM     83  F   UNL A   1      41.751  28.378  26.815  1.00  0.00    -0.206 F 
ATOM     84  C   UNL A   1      39.916  25.269  26.489  1.00  0.00     0.006 A 
ENDBRANCH  56  77
BRANCH  68  85
ATOM     85  C   UNL A   1      45.137  28.470  33.301  1.00  0.00     0.057 A 
ATOM     86  C   UNL A   1      46.377  28.768  32.727  1.00  0.00     0.134 A 
ATOM     87  C   UNL A   1      45.094  27.453  34.265  1.00  0.00     0.134 A 
ATOM     88  F   UNL A   1      46.486  29.725  31.793  1.00  0.00    -0.206 F 
ATOM     89  C   UNL A   1      47.536  28.093  33.107  1.00  0.00     0.040 A 
ATOM     90  C   UNL A   1      46.252  26.795  34.680  1.00  0.00     0.040 A 
ATOM     91  F   UNL A   1      43.938  27.134  34.866  1.00  0.00    -0.206 F 
ATOM     92  C   UNL A   1      47.478  27.113  34.098  1.00  0.00     0.006 A 
ENDBRANCH  68  85
ENDBRANCH  42  43
ENDBRANCH  34  37
ENDBRANCH  32  33
ENDBRANCH  31  32
ENDBRANCH  30  31
ENDBRANCH   1  30
TORSDOF 15
ENDMDL
MODEL 3
REMARK VINA RESULT:     -12.4      2.418      7.370
REMARK SMILES O=C(Cn1nc(C(=O)NCCCCNC(=O)c2ccc(-c3c4nc(c(-c5c(F)cccc5F)c5ccc([nH]5)c(-c5c(F)cccc5F)c5nc(c(-c6c(F)cccc6F)c6ccc3[nH]6)C=C5)C=C4)cc2)c2ccccc2c1=O)NCc1ccc(F)cc1
REMARK SMILES IDX 10 1 9 2 7 3 8 4 6 6 4 7 5 8 77 9 76 10 78 11 71 12 75 13
REMARK SMILES IDX 72 14 74 15 73 16 3 17 2 18 1 19 79 20 80 22 81 23 82 24
REMARK SMILES IDX 87 25 83 26 86 27 84 28 85 29 11 30 12 31 13 32 14 33 15 34
REMARK SMILES IDX 16 36 17 37 18 38 70 39 19 40 69 41 20 42 21 43 22 44 63 45
REMARK SMILES IDX 23 46 68 47 62 48 64 49 24 50 67 51 61 52 60 53 25 55 51 56
REMARK SMILES IDX 34 57 50 58 35 59 38 60 49 61 65 62 36 63 37 64 48 66 66 67
REMARK SMILES IDX 39 68 26 69 27 70 32 71 28 72 29 73 31 74 33 75 30 76 52 77
REMARK SMILES IDX 53 78 58 79 54 80 55 81 57 82 59 83 56 84 40 85 41 86 46 87
REMARK SMILES IDX 42 88 43 89 45 90 47 91 44 92
REMARK H PARENT 9 5 79 21 14 35 64 54 38 65
REMARK Flexibility Score: inf
ROOT
ATOM      1  C   UNL A   1      34.739  24.568  25.865  1.00  0.00     0.116 C 
ENDROOT
BRANCH   1   2
ATOM      2  N   UNL A   1      33.475  24.382  26.542  1.00  0.00    -0.351 N 
ATOM      3  C   UNL A   1      32.260  25.014  26.418  1.00  0.00     0.272 C 
ATOM      4  O   UNL A   1      31.355  24.579  27.122  1.00  0.00    -0.267 OA
ATOM      5  H   UNL A   1      33.486  23.668  27.219  1.00  0.00     0.163 HD
BRANCH   3   6
ATOM      6  C   UNL A   1      32.018  26.196  25.443  1.00  0.00     0.156 A 
ATOM      7  N   UNL A   1      31.515  26.896  23.282  1.00  0.00    -0.219 N 
ATOM      8  N   UNL A   1      31.834  25.914  24.184  1.00  0.00    -0.163 NA
ATOM      9  C   UNL A   1      31.431  28.243  23.605  1.00  0.00     0.275 A 
ATOM     10  C   UNL A   1      31.688  28.597  25.009  1.00  0.00     0.051 A 
ATOM     11  O   UNL A   1      31.197  29.131  22.789  1.00  0.00    -0.267 OA
ATOM     12  C   UNL A   1      31.993  27.604  25.940  1.00  0.00     0.020 A 
ATOM     13  C   UNL A   1      31.661  29.953  25.375  1.00  0.00     0.014 A 
ATOM     14  C   UNL A   1      32.288  28.002  27.251  1.00  0.00     0.011 A 
ATOM     15  C   UNL A   1      31.951  30.330  26.682  1.00  0.00     0.001 A 
ATOM     16  C   UNL A   1      32.266  29.354  27.617  1.00  0.00     0.001 A 
BRANCH   7  17
ATOM     17  C   UNL A   1      31.375  26.522  21.879  1.00  0.00     0.248 C 
BRANCH  17  18
ATOM     18  C   UNL A   1      32.344  25.453  21.383  1.00  0.00     0.242 C 
ATOM     19  O   UNL A   1      33.238  25.672  20.571  1.00  0.00    -0.273 OA
ATOM     20  N   UNL A   1      32.104  24.202  21.912  1.00  0.00    -0.350 N 
ATOM     21  H   UNL A   1      31.317  24.066  22.487  1.00  0.00     0.163 HD
BRANCH  20  22
ATOM     22  C   UNL A   1      32.978  23.086  21.642  1.00  0.00     0.151 C 
BRANCH  22  23
ATOM     23  C   UNL A   1      32.764  21.939  22.602  1.00  0.00    -0.029 A 
ATOM     24  C   UNL A   1      32.217  20.708  22.214  1.00  0.00     0.008 A 
ATOM     25  C   UNL A   1      33.076  22.128  23.954  1.00  0.00     0.008 A 
ATOM     26  C   UNL A   1      32.063  19.674  23.143  1.00  0.00     0.039 A 
ATOM     27  C   UNL A   1      32.951  21.093  24.881  1.00  0.00     0.039 A 
ATOM     28  C   UNL A   1      32.449  19.870  24.464  1.00  0.00     0.123 A 
ATOM     29  F   UNL A   1      32.319  18.872  25.347  1.00  0.00    -0.207 F 
ENDBRANCH  22  23
ENDBRANCH  20  22
ENDBRANCH  17  18
ENDBRANCH   7  17
ENDBRANCH   3   6
ENDBRANCH   1   2
BRANCH   1  30
ATOM     30  C   UNL A   1      35.674  23.380  26.082  1.00  0.00     0.023 C 
BRANCH  30  31
ATOM     31  C   UNL A   1      37.071  23.557  25.488  1.00  0.00     0.023 C 
BRANCH  31  32
ATOM     32  C   UNL A   1      38.081  24.254  26.389  1.00  0.00     0.116 C 
BRANCH  32  33
ATOM     33  N   UNL A   1      39.474  24.029  26.019  1.00  0.00    -0.352 N 
ATOM     34  C   UNL A   1      40.598  24.673  26.489  1.00  0.00     0.251 C 
ATOM     35  H   UNL A   1      39.631  23.327  25.347  1.00  0.00     0.163 HD
ATOM     36  O   UNL A   1      41.728  24.372  26.145  1.00  0.00    -0.269 OA
BRANCH  34  37
ATOM     37  C   UNL A   1      40.416  25.770  27.437  1.00  0.00     0.039 A 
ATOM     38  C   UNL A   1      41.138  26.944  27.237  1.00  0.00     0.014 A 
ATOM     39  C   UNL A   1      39.575  25.595  28.538  1.00  0.00     0.014 A 
ATOM     40  C   UNL A   1      41.142  27.893  28.235  1.00  0.00     0.010 A 
ATOM     41  C   UNL A   1      39.492  26.608  29.488  1.00  0.00     0.010 A 
ATOM     42  C   UNL A   1      40.299  27.745  29.352  1.00  0.00    -0.014 A 
BRANCH  42  43
ATOM     43  C   UNL A   1      40.258  28.860  30.315  1.00  0.00     0.031 A 
ATOM     44  C   UNL A   1      39.210  29.922  30.218  1.00  0.00     0.074 A 
ATOM     45  C   UNL A   1      41.118  28.799  31.348  1.00  0.00     0.049 A 
ATOM     46  N   UNL A   1      38.928  30.871  31.070  1.00  0.00    -0.248 NA
ATOM     47  C   UNL A   1      38.372  29.926  29.009  1.00  0.00     0.031 C 
ATOM     48  C   UNL A   1      42.168  27.784  31.505  1.00  0.00     0.029 A 
ATOM     49  N   UNL A   1      41.209  29.548  32.486  1.00  0.00    -0.354 N 
ATOM     50  C   UNL A   1      37.882  31.588  30.504  1.00  0.00     0.074 A 
ATOM     51  C   UNL A   1      37.606  30.989  29.217  1.00  0.00     0.031 C 
ATOM     52  C   UNL A   1      42.731  27.917  32.712  1.00  0.00     0.029 A 
ATOM     53  C   UNL A   1      42.139  29.069  33.376  1.00  0.00     0.049 A 
ATOM     54  H   UNL A   1      40.662  30.350  32.653  1.00  0.00     0.167 HD
ATOM     55  C   UNL A   1      37.214  32.644  31.026  1.00  0.00     0.037 A 
ATOM     56  C   UNL A   1      42.476  29.521  34.595  1.00  0.00     0.037 A 
ATOM     57  C   UNL A   1      37.527  33.225  32.308  1.00  0.00     0.049 A 
ATOM     58  C   UNL A   1      41.747  30.721  35.121  1.00  0.00     0.074 A 
ATOM     59  C   UNL A   1      36.930  34.299  32.942  1.00  0.00     0.029 A 
ATOM     60  N   UNL A   1      38.538  32.777  33.149  1.00  0.00    -0.354 N 
ATOM     61  N   UNL A   1      40.747  31.380  34.587  1.00  0.00    -0.248 NA
ATOM     62  C   UNL A   1      42.200  31.243  36.413  1.00  0.00     0.031 C 
ATOM     63  C   UNL A   1      37.614  34.534  34.141  1.00  0.00     0.029 A 
ATOM     64  C   UNL A   1      38.601  33.570  34.285  1.00  0.00     0.049 A 
ATOM     65  H   UNL A   1      39.126  32.009  32.966  1.00  0.00     0.167 HD
ATOM     66  C   UNL A   1      40.446  32.397  35.480  1.00  0.00     0.074 A 
ATOM     67  C   UNL A   1      41.342  32.233  36.609  1.00  0.00     0.031 C 
ATOM     68  C   UNL A   1      39.523  33.387  35.377  1.00  0.00     0.037 A 
BRANCH  55  69
ATOM     69  C   UNL A   1      36.120  33.248  30.194  1.00  0.00     0.057 A 
ATOM     70  C   UNL A   1      36.423  34.083  29.111  1.00  0.00     0.134 A 
ATOM     71  C   UNL A   1      34.764  33.002  30.453  1.00  0.00     0.134 A 
ATOM     72  F   UNL A   1      37.698  34.363  28.803  1.00  0.00    -0.206 F 
ATOM     73  C   UNL A   1      35.423  34.648  28.317  1.00  0.00     0.040 A 
ATOM     74  C   UNL A   1      33.754  33.539  29.650  1.00  0.00     0.040 A 
ATOM     75  F   UNL A   1      34.400  32.197  31.463  1.00  0.00    -0.206 F 
ATOM     76  C   UNL A   1      34.084  34.369  28.581  1.00  0.00     0.006 A 
ENDBRANCH  55  69
BRANCH  56  77
ATOM     77  C   UNL A   1      43.553  28.857  35.372  1.00  0.00     0.057 A 
ATOM     78  C   UNL A   1      43.262  27.860  36.311  1.00  0.00     0.134 A 
ATOM     79  C   UNL A   1      44.899  29.193  35.187  1.00  0.00     0.134 A 
ATOM     80  F   UNL A   1      41.991  27.499  36.546  1.00  0.00    -0.206 F 
ATOM     81  C   UNL A   1      44.265  27.225  37.041  1.00  0.00     0.040 A 
ATOM     82  C   UNL A   1      45.917  28.542  35.886  1.00  0.00     0.040 A 
ATOM     83  F   UNL A   1      45.245  30.134  34.296  1.00  0.00    -0.206 F 
ATOM     84  C   UNL A   1      45.600  27.557  36.820  1.00  0.00     0.006 A 
ENDBRANCH  56  77
BRANCH  68  85
ATOM     85  C   UNL A   1      39.454  34.343  36.532  1.00  0.00     0.057 A 
ATOM     86  C   UNL A   1      38.743  34.010  37.690  1.00  0.00     0.134 A 
ATOM     87  C   UNL A   1      40.118  35.577  36.509  1.00  0.00     0.134 A 
ATOM     88  F   UNL A   1      38.079  32.847  37.774  1.00  0.00    -0.206 F 
ATOM     89  C   UNL A   1      38.705  34.865  38.791  1.00  0.00     0.040 A 
ATOM     90  C   UNL A   1      40.117  36.425  37.617  1.00  0.00     0.040 A 
ATOM     91  F   UNL A   1      40.832  35.945  35.434  1.00  0.00    -0.206 F 
ATOM     92  C   UNL A   1      39.407  36.069  38.762  1.00  0.00     0.006 A 
ENDBRANCH  68  85
ENDBRANCH  42  43
ENDBRANCH  34  37
ENDBRANCH  32  33
ENDBRANCH  31  32
ENDBRANCH  30  31
ENDBRANCH   1  30
TORSDOF 15
ENDMDL
