MODEL 1
REMARK VINA RESULT:     -12.0      0.000      0.000
REMARK SMILES O=C(CNC(=O)CN1C(=O)S/C(=C\c2cccc(F)c2)C1=O)NCCCCNC(=O)c1ccc(-c2c3nc(c(-c4c(F)cccc4F)c4ccc([nH]4)c(-c4c(F)cccc4F)c4nc(c(-c5c(F)cccc5F)c5ccc2[nH]5)C=C4)C=C3)cc1
REMARK SMILES IDX 24 1 23 2 1 3 2 4 3 6 4 7 5 8 6 10 7 11 8 12 9 13 21 14
REMARK SMILES IDX 10 15 11 16 12 17 22 18 13 19 14 20 15 21 20 22 16 23 18 24
REMARK SMILES IDX 17 25 19 26 25 27 26 28 27 29 28 30 29 31 30 33 31 34 32 35
REMARK SMILES IDX 84 36 33 37 83 38 34 39 35 40 36 41 77 42 37 43 82 44 76 45
REMARK SMILES IDX 78 46 38 47 81 48 75 49 74 50 39 52 65 53 48 54 64 55 49 56
REMARK SMILES IDX 52 57 63 58 79 59 50 60 51 61 62 63 80 64 53 65 40 66 41 67
REMARK SMILES IDX 46 68 42 69 43 70 45 71 47 72 44 73 66 74 67 75 72 76 68 77
REMARK SMILES IDX 69 78 71 79 73 80 70 81 54 82 55 83 60 84 56 85 57 86 59 87
REMARK SMILES IDX 61 88 58 89
REMARK H PARENT 23 5 4 9 28 32 78 51 52 62
REMARK Flexibility Score: inf
ROOT
ATOM      1  C   UNL A   1      31.002  29.189  24.317  1.00  0.00     0.116 C 
ENDROOT
BRANCH   1   2
ATOM      2  N   UNL A   1      30.591  27.797  24.361  1.00  0.00    -0.355 N 
ATOM      3  O   UNL A   1      30.721  27.419  22.101  1.00  0.00    -0.273 OA
ATOM      4  C   UNL A   1      30.481  27.010  23.234  1.00  0.00     0.239 C 
ATOM      5  H   UNL A   1      30.382  27.396  25.236  1.00  0.00     0.163 HD
BRANCH   4   6
ATOM      6  C   UNL A   1      29.892  25.616  23.487  1.00  0.00     0.216 C 
BRANCH   6   7
ATOM      7  N   UNL A   1      29.998  25.211  24.882  1.00  0.00    -0.345 N 
ATOM      8  C   UNL A   1      31.069  24.769  25.592  1.00  0.00     0.240 C 
ATOM      9  H   UNL A   1      29.157  25.264  25.392  1.00  0.00     0.164 HD
ATOM     10  O   UNL A   1      30.943  24.727  26.819  1.00  0.00    -0.273 OA
BRANCH   8  11
ATOM     11  C   UNL A   1      32.416  24.465  24.934  1.00  0.00     0.229 C 
BRANCH  11  12
ATOM     12  N   UNL A   1      32.919  23.108  25.084  1.00  0.00    -0.259 N 
ATOM     13  C   UNL A   1      33.691  22.759  26.157  1.00  0.00     0.294 C 
ATOM     14  C   UNL A   1      32.427  22.071  24.327  1.00  0.00     0.268 C 
ATOM     15  O   UNL A   1      34.110  23.507  27.032  1.00  0.00    -0.261 OA
ATOM     16  S   UNL A   1      33.982  21.028  26.170  1.00  0.00    -0.022 SA
ATOM     17  C   UNL A   1      32.939  20.761  24.835  1.00  0.00     0.083 C 
ATOM     18  O   UNL A   1      31.719  22.181  23.337  1.00  0.00    -0.268 OA
ATOM     19  C   UNL A   1      32.629  19.597  24.242  1.00  0.00     0.029 C 
BRANCH  19  20
ATOM     20  C   UNL A   1      33.150  18.260  24.565  1.00  0.00    -0.021 A 
ATOM     21  C   UNL A   1      34.464  17.895  24.270  1.00  0.00     0.008 A 
ATOM     22  C   UNL A   1      32.343  17.336  25.236  1.00  0.00     0.047 A 
ATOM     23  C   UNL A   1      34.948  16.630  24.635  1.00  0.00     0.004 A 
ATOM     24  C   UNL A   1      32.818  16.078  25.577  1.00  0.00     0.123 A 
ATOM     25  C   UNL A   1      34.120  15.715  25.285  1.00  0.00     0.039 A 
ATOM     26  F   UNL A   1      32.009  15.217  26.210  1.00  0.00    -0.207 F 
ENDBRANCH  19  20
ENDBRANCH  11  12
ENDBRANCH   8  11
ENDBRANCH   6   7
ENDBRANCH   4   6
ENDBRANCH   1   2
BRANCH   1  27
ATOM     27  C   UNL A   1      32.237  29.450  25.177  1.00  0.00     0.023 C 
BRANCH  27  28
ATOM     28  C   UNL A   1      32.769  28.207  25.885  1.00  0.00     0.023 C 
BRANCH  28  29
ATOM     29  C   UNL A   1      33.619  28.420  27.145  1.00  0.00     0.116 C 
BRANCH  29  30
ATOM     30  N   UNL A   1      33.648  29.796  27.618  1.00  0.00    -0.352 N 
ATOM     31  C   UNL A   1      34.632  30.586  28.175  1.00  0.00     0.251 C 
ATOM     32  H   UNL A   1      32.785  30.260  27.519  1.00  0.00     0.163 HD
ATOM     33  O   UNL A   1      34.322  31.735  28.491  1.00  0.00    -0.269 OA
BRANCH  31  34
ATOM     34  C   UNL A   1      36.025  30.127  28.470  1.00  0.00     0.039 A 
ATOM     35  C   UNL A   1      36.958  30.164  27.418  1.00  0.00     0.014 A 
ATOM     36  C   UNL A   1      36.439  29.602  29.694  1.00  0.00     0.014 A 
ATOM     37  C   UNL A   1      38.282  29.730  27.600  1.00  0.00     0.010 A 
ATOM     38  C   UNL A   1      37.781  29.224  29.894  1.00  0.00     0.010 A 
ATOM     39  C   UNL A   1      38.723  29.275  28.850  1.00  0.00    -0.014 A 
BRANCH  39  40
ATOM     40  C   UNL A   1      40.139  28.839  29.072  1.00  0.00     0.031 A 
ATOM     41  C   UNL A   1      41.147  29.771  29.703  1.00  0.00     0.074 A 
ATOM     42  C   UNL A   1      40.554  27.613  28.688  1.00  0.00     0.049 A 
ATOM     43  N   UNL A   1      42.433  29.595  29.898  1.00  0.00    -0.248 NA
ATOM     44  C   UNL A   1      40.646  31.073  30.166  1.00  0.00     0.031 C 
ATOM     45  C   UNL A   1      39.709  26.589  28.080  1.00  0.00     0.029 A 
ATOM     46  N   UNL A   1      41.799  27.022  28.742  1.00  0.00    -0.354 N 
ATOM     47  C   UNL A   1      42.894  30.763  30.493  1.00  0.00     0.074 A 
ATOM     48  C   UNL A   1      41.759  31.658  30.589  1.00  0.00     0.031 C 
ATOM     49  C   UNL A   1      40.449  25.498  27.823  1.00  0.00     0.029 A 
ATOM     50  C   UNL A   1      41.835  25.755  28.209  1.00  0.00     0.049 A 
ATOM     51  H   UNL A   1      42.588  27.467  29.125  1.00  0.00     0.167 HD
ATOM     52  C   UNL A   1      44.139  31.062  30.937  1.00  0.00     0.037 A 
ATOM     53  C   UNL A   1      42.859  24.893  28.034  1.00  0.00     0.037 A 
ATOM     54  C   UNL A   1      45.274  30.174  30.871  1.00  0.00     0.049 A 
ATOM     55  C   UNL A   1      44.248  25.269  28.480  1.00  0.00     0.074 A 
ATOM     56  C   UNL A   1      46.559  30.389  31.343  1.00  0.00     0.029 A 
ATOM     57  N   UNL A   1      45.268  28.913  30.299  1.00  0.00    -0.354 N 
ATOM     58  N   UNL A   1      44.656  26.364  29.070  1.00  0.00    -0.248 NA
ATOM     59  C   UNL A   1      45.319  24.288  28.237  1.00  0.00     0.031 C 
ATOM     60  C   UNL A   1      47.345  29.288  31.000  1.00  0.00     0.029 A 
ATOM     61  C   UNL A   1      46.536  28.355  30.376  1.00  0.00     0.049 A 
ATOM     62  H   UNL A   1      44.482  28.478  29.895  1.00  0.00     0.167 HD
ATOM     63  C   UNL A   1      46.017  26.193  29.297  1.00  0.00     0.074 A 
ATOM     64  C   UNL A   1      46.367  24.885  28.789  1.00  0.00     0.031 C 
ATOM     65  C   UNL A   1      46.892  27.050  29.879  1.00  0.00     0.037 A 
BRANCH  52  66
ATOM     66  C   UNL A   1      44.363  32.417  31.551  1.00  0.00     0.057 A 
ATOM     67  C   UNL A   1      44.134  32.628  32.918  1.00  0.00     0.134 A 
ATOM     68  C   UNL A   1      44.709  33.530  30.775  1.00  0.00     0.134 A 
ATOM     69  F   UNL A   1      43.784  31.608  33.716  1.00  0.00    -0.206 F 
ATOM     70  C   UNL A   1      44.226  33.899  33.487  1.00  0.00     0.040 A 
ATOM     71  C   UNL A   1      44.833  34.801  31.339  1.00  0.00     0.040 A 
ATOM     72  F   UNL A   1      44.946  33.398  29.462  1.00  0.00    -0.206 F 
ATOM     73  C   UNL A   1      44.580  34.991  32.696  1.00  0.00     0.006 A 
ENDBRANCH  52  66
BRANCH  53  74
ATOM     74  C   UNL A   1      42.605  23.567  27.411  1.00  0.00     0.057 A 
ATOM     75  C   UNL A   1      42.663  23.384  26.023  1.00  0.00     0.134 A 
ATOM     76  C   UNL A   1      42.289  22.449  28.194  1.00  0.00     0.134 A 
ATOM     77  F   UNL A   1      42.959  24.413  25.216  1.00  0.00    -0.206 F 
ATOM     78  C   UNL A   1      42.393  22.147  25.435  1.00  0.00     0.040 A 
ATOM     79  C   UNL A   1      42.043  21.200  27.621  1.00  0.00     0.040 A 
ATOM     80  F   UNL A   1      42.244  22.553  29.530  1.00  0.00    -0.206 F 
ATOM     81  C   UNL A   1      42.085  21.049  26.237  1.00  0.00     0.006 A 
ENDBRANCH  53  74
BRANCH  65  82
ATOM     82  C   UNL A   1      48.321  26.609  30.036  1.00  0.00     0.057 A 
ATOM     83  C   UNL A   1      48.730  25.909  31.181  1.00  0.00     0.134 A 
ATOM     84  C   UNL A   1      49.311  26.953  29.107  1.00  0.00     0.134 A 
ATOM     85  F   UNL A   1      47.837  25.555  32.118  1.00  0.00    -0.206 F 
ATOM     86  C   UNL A   1      50.070  25.587  31.404  1.00  0.00     0.040 A 
ATOM     87  C   UNL A   1      50.651  26.612  29.305  1.00  0.00     0.040 A 
ATOM     88  F   UNL A   1      48.989  27.615  27.985  1.00  0.00    -0.206 F 
ATOM     89  C   UNL A   1      51.035  25.937  30.462  1.00  0.00     0.006 A 
ENDBRANCH  65  82
ENDBRANCH  39  40
ENDBRANCH  31  34
ENDBRANCH  29  30
ENDBRANCH  28  29
ENDBRANCH  27  28
ENDBRANCH   1  27
TORSDOF 15
ENDMDL
MODEL 2
REMARK VINA RESULT:     -11.9      4.148      8.408
REMARK SMILES O=C(CNC(=O)CN1C(=O)S/C(=C\c2cccc(F)c2)C1=O)NCCCCNC(=O)c1ccc(-c2c3nc(c(-c4c(F)cccc4F)c4ccc([nH]4)c(-c4c(F)cccc4F)c4nc(c(-c5c(F)cccc5F)c5ccc2[nH]5)C=C4)C=C3)cc1
REMARK SMILES IDX 24 1 23 2 1 3 2 4 3 6 4 7 5 8 6 10 7 11 8 12 9 13 21 14
REMARK SMILES IDX 10 15 11 16 12 17 22 18 13 19 14 20 15 21 20 22 16 23 18 24
REMARK SMILES IDX 17 25 19 26 25 27 26 28 27 29 28 30 29 31 30 33 31 34 32 35
REMARK SMILES IDX 84 36 33 37 83 38 34 39 35 40 36 41 77 42 37 43 82 44 76 45
REMARK SMILES IDX 78 46 38 47 81 48 75 49 74 50 39 52 65 53 48 54 64 55 49 56
REMARK SMILES IDX 52 57 63 58 79 59 50 60 51 61 62 63 80 64 53 65 40 66 41 67
REMARK SMILES IDX 46 68 42 69 43 70 45 71 47 72 44 73 66 74 67 75 72 76 68 77
REMARK SMILES IDX 69 78 71 79 73 80 70 81 54 82 55 83 60 84 56 85 57 86 59 87
REMARK SMILES IDX 61 88 58 89
REMARK H PARENT 23 5 4 9 28 32 78 51 52 62
REMARK Flexibility Score: inf
ROOT
ATOM      1  C   UNL A   1      33.278  27.608  26.546  1.00  0.00     0.116 C 
ENDROOT
BRANCH   1   2
ATOM      2  N   UNL A   1      33.190  26.250  26.045  1.00  0.00    -0.355 N 
ATOM      3  O   UNL A   1      31.117  25.787  26.915  1.00  0.00    -0.273 OA
ATOM      4  C   UNL A   1      32.101  25.433  26.272  1.00  0.00     0.239 C 
ATOM      5  H   UNL A   1      33.941  25.893  25.517  1.00  0.00     0.163 HD
BRANCH   4   6
ATOM      6  C   UNL A   1      32.274  23.990  25.779  1.00  0.00     0.216 C 
BRANCH   6   7
ATOM      7  N   UNL A   1      33.455  23.824  24.943  1.00  0.00    -0.345 N 
ATOM      8  C   UNL A   1      33.630  24.041  23.613  1.00  0.00     0.240 C 
ATOM      9  H   UNL A   1      34.255  23.502  25.418  1.00  0.00     0.164 HD
ATOM     10  O   UNL A   1      34.794  24.058  23.201  1.00  0.00    -0.273 OA
BRANCH   8  11
ATOM     11  C   UNL A   1      32.466  24.383  22.681  1.00  0.00     0.229 C 
BRANCH  11  12
ATOM     12  N   UNL A   1      32.033  25.773  22.669  1.00  0.00    -0.259 N 
ATOM     13  C   UNL A   1      32.785  26.738  22.057  1.00  0.00     0.294 C 
ATOM     14  C   UNL A   1      30.751  26.130  23.013  1.00  0.00     0.268 C 
ATOM     15  O   UNL A   1      33.890  26.593  21.551  1.00  0.00    -0.261 OA
ATOM     16  S   UNL A   1      31.923  28.267  22.033  1.00  0.00    -0.022 SA
ATOM     17  C   UNL A   1      30.502  27.569  22.694  1.00  0.00     0.083 C 
ATOM     18  O   UNL A   1      29.930  25.408  23.560  1.00  0.00    -0.268 OA
ATOM     19  C   UNL A   1      29.333  28.168  22.969  1.00  0.00     0.029 C 
BRANCH  19  20
ATOM     20  C   UNL A   1      28.997  29.591  22.815  1.00  0.00    -0.021 A 
ATOM     21  C   UNL A   1      29.310  30.529  23.800  1.00  0.00     0.008 A 
ATOM     22  C   UNL A   1      28.401  30.048  21.635  1.00  0.00     0.047 A 
ATOM     23  C   UNL A   1      29.021  31.888  23.603  1.00  0.00     0.004 A 
ATOM     24  C   UNL A   1      28.098  31.389  21.452  1.00  0.00     0.123 A 
ATOM     25  C   UNL A   1      28.407  32.319  22.427  1.00  0.00     0.039 A 
ATOM     26  F   UNL A   1      27.517  31.784  20.311  1.00  0.00    -0.207 F 
ENDBRANCH  19  20
ENDBRANCH  11  12
ENDBRANCH   8  11
ENDBRANCH   6   7
ENDBRANCH   4   6
ENDBRANCH   1   2
BRANCH   1  27
ATOM     27  C   UNL A   1      33.728  28.591  25.467  1.00  0.00     0.023 C 
BRANCH  27  28
ATOM     28  C   UNL A   1      32.753  29.741  25.236  1.00  0.00     0.023 C 
BRANCH  28  29
ATOM     29  C   UNL A   1      31.854  30.153  26.411  1.00  0.00     0.116 C 
BRANCH  29  30
ATOM     30  N   UNL A   1      31.745  31.591  26.601  1.00  0.00    -0.352 N 
ATOM     31  C   UNL A   1      32.551  32.532  27.208  1.00  0.00     0.251 C 
ATOM     32  H   UNL A   1      30.922  31.974  26.215  1.00  0.00     0.163 HD
ATOM     33  O   UNL A   1      32.153  33.697  27.212  1.00  0.00    -0.269 OA
BRANCH  31  34
ATOM     34  C   UNL A   1      33.839  32.225  27.902  1.00  0.00     0.039 A 
ATOM     35  C   UNL A   1      34.050  30.901  28.328  1.00  0.00     0.014 A 
ATOM     36  C   UNL A   1      34.810  33.176  28.216  1.00  0.00     0.014 A 
ATOM     37  C   UNL A   1      35.221  30.530  29.009  1.00  0.00     0.010 A 
ATOM     38  C   UNL A   1      36.012  32.793  28.845  1.00  0.00     0.010 A 
ATOM     39  C   UNL A   1      36.234  31.466  29.257  1.00  0.00    -0.014 A 
BRANCH  39  40
ATOM     40  C   UNL A   1      37.505  31.082  29.953  1.00  0.00     0.031 A 
ATOM     41  C   UNL A   1      38.536  30.219  29.263  1.00  0.00     0.074 A 
ATOM     42  C   UNL A   1      37.745  31.474  31.222  1.00  0.00     0.049 A 
ATOM     43  N   UNL A   1      39.653  29.721  29.737  1.00  0.00    -0.248 NA
ATOM     44  C   UNL A   1      38.271  29.864  27.861  1.00  0.00     0.031 C 
ATOM     45  C   UNL A   1      36.864  32.318  32.025  1.00  0.00     0.029 A 
ATOM     46  N   UNL A   1      38.800  31.204  32.068  1.00  0.00    -0.354 N 
ATOM     47  C   UNL A   1      40.217  28.987  28.700  1.00  0.00     0.074 A 
ATOM     48  C   UNL A   1      39.297  29.070  27.584  1.00  0.00     0.031 C 
ATOM     49  C   UNL A   1      37.411  32.504  33.237  1.00  0.00     0.029 A 
ATOM     50  C   UNL A   1      38.665  31.759  33.319  1.00  0.00     0.049 A 
ATOM     51  H   UNL A   1      39.577  30.662  31.801  1.00  0.00     0.167 HD
ATOM     52  C   UNL A   1      41.396  28.321  28.667  1.00  0.00     0.037 A 
ATOM     53  C   UNL A   1      39.446  31.676  34.417  1.00  0.00     0.037 A 
ATOM     54  C   UNL A   1      42.334  28.249  29.760  1.00  0.00     0.049 A 
ATOM     55  C   UNL A   1      40.723  30.880  34.377  1.00  0.00     0.074 A 
ATOM     56  C   UNL A   1      43.573  27.630  29.786  1.00  0.00     0.029 A 
ATOM     57  N   UNL A   1      42.141  28.803  31.014  1.00  0.00    -0.354 N 
ATOM     58  N   UNL A   1      41.255  30.221  33.377  1.00  0.00    -0.248 NA
ATOM     59  C   UNL A   1      41.513  30.816  35.619  1.00  0.00     0.031 C 
ATOM     60  C   UNL A   1      44.102  27.754  31.073  1.00  0.00     0.029 A 
ATOM     61  C   UNL A   1      43.224  28.510  31.831  1.00  0.00     0.049 A 
ATOM     62  H   UNL A   1      41.353  29.326  31.287  1.00  0.00     0.167 HD
ATOM     63  C   UNL A   1      42.448  29.694  33.856  1.00  0.00     0.074 A 
ATOM     64  C   UNL A   1      42.571  30.114  35.234  1.00  0.00     0.031 C 
ATOM     65  C   UNL A   1      43.358  28.931  33.203  1.00  0.00     0.037 A 
BRANCH  52  66
ATOM     66  C   UNL A   1      41.766  27.604  27.397  1.00  0.00     0.057 A 
ATOM     67  C   UNL A   1      41.531  26.228  27.260  1.00  0.00     0.134 A 
ATOM     68  C   UNL A   1      42.439  28.250  26.354  1.00  0.00     0.134 A 
ATOM     69  F   UNL A   1      40.904  25.544  28.230  1.00  0.00    -0.206 F 
ATOM     70  C   UNL A   1      41.967  25.520  26.139  1.00  0.00     0.040 A 
ATOM     71  C   UNL A   1      42.853  27.558  25.214  1.00  0.00     0.040 A 
ATOM     72  F   UNL A   1      42.693  29.566  26.418  1.00  0.00    -0.206 F 
ATOM     73  C   UNL A   1      42.627  26.187  25.109  1.00  0.00     0.006 A 
ENDBRANCH  52  66
BRANCH  53  74
ATOM     74  C   UNL A   1      39.043  32.386  35.660  1.00  0.00     0.057 A 
ATOM     75  C   UNL A   1      39.397  33.721  35.892  1.00  0.00     0.134 A 
ATOM     76  C   UNL A   1      38.299  31.737  36.654  1.00  0.00     0.134 A 
ATOM     77  F   UNL A   1      40.111  34.400  34.982  1.00  0.00    -0.206 F 
ATOM     78  C   UNL A   1      39.048  34.378  37.073  1.00  0.00     0.040 A 
ATOM     79  C   UNL A   1      37.920  32.389  37.828  1.00  0.00     0.040 A 
ATOM     80  F   UNL A   1      37.906  30.467  36.480  1.00  0.00    -0.206 F 
ATOM     81  C   UNL A   1      38.303  33.711  38.044  1.00  0.00     0.006 A 
ENDBRANCH  53  74
BRANCH  65  82
ATOM     82  C   UNL A   1      44.598  28.510  33.944  1.00  0.00     0.057 A 
ATOM     83  C   UNL A   1      44.618  27.318  34.681  1.00  0.00     0.134 A 
ATOM     84  C   UNL A   1      45.736  29.324  34.007  1.00  0.00     0.134 A 
ATOM     85  F   UNL A   1      43.558  26.495  34.675  1.00  0.00    -0.206 F 
ATOM     86  C   UNL A   1      45.715  26.961  35.468  1.00  0.00     0.040 A 
ATOM     87  C   UNL A   1      46.851  28.964  34.768  1.00  0.00     0.040 A 
ATOM     88  F   UNL A   1      45.789  30.474  33.319  1.00  0.00    -0.206 F 
ATOM     89  C   UNL A   1      46.837  27.785  35.511  1.00  0.00     0.006 A 
ENDBRANCH  65  82
ENDBRANCH  39  40
ENDBRANCH  31  34
ENDBRANCH  29  30
ENDBRANCH  28  29
ENDBRANCH  27  28
ENDBRANCH   1  27
TORSDOF 15
ENDMDL
MODEL 3
REMARK VINA RESULT:     -11.8      3.206      8.522
REMARK SMILES O=C(CNC(=O)CN1C(=O)S/C(=C\c2cccc(F)c2)C1=O)NCCCCNC(=O)c1ccc(-c2c3nc(c(-c4c(F)cccc4F)c4ccc([nH]4)c(-c4c(F)cccc4F)c4nc(c(-c5c(F)cccc5F)c5ccc2[nH]5)C=C4)C=C3)cc1
REMARK SMILES IDX 24 1 23 2 1 3 2 4 3 6 4 7 5 8 6 10 7 11 8 12 9 13 21 14
REMARK SMILES IDX 10 15 11 16 12 17 22 18 13 19 14 20 15 21 20 22 16 23 18 24
REMARK SMILES IDX 17 25 19 26 25 27 26 28 27 29 28 30 29 31 30 33 31 34 32 35
REMARK SMILES IDX 84 36 33 37 83 38 34 39 35 40 36 41 77 42 37 43 82 44 76 45
REMARK SMILES IDX 78 46 38 47 81 48 75 49 74 50 39 52 65 53 48 54 64 55 49 56
REMARK SMILES IDX 52 57 63 58 79 59 50 60 51 61 62 63 80 64 53 65 40 66 41 67
REMARK SMILES IDX 46 68 42 69 43 70 45 71 47 72 44 73 66 74 67 75 72 76 68 77
REMARK SMILES IDX 69 78 71 79 73 80 70 81 54 82 55 83 60 84 56 85 57 86 59 87
REMARK SMILES IDX 61 88 58 89
REMARK H PARENT 23 5 4 9 28 32 78 51 52 62
REMARK Flexibility Score: inf
ROOT
ATOM      1  C   UNL A   1      35.791  20.865  25.187  1.00  0.00     0.116 C 
ENDROOT
BRANCH   1   2
ATOM      2  N   UNL A   1      34.540  21.593  25.080  1.00  0.00    -0.355 N 
ATOM      3  O   UNL A   1      33.196  19.917  25.886  1.00  0.00    -0.273 OA
ATOM      4  C   UNL A   1      33.323  21.055  25.442  1.00  0.00     0.239 C 
ATOM      5  H   UNL A   1      34.561  22.515  24.733  1.00  0.00     0.163 HD
BRANCH   4   6
ATOM      6  C   UNL A   1      32.113  21.938  25.113  1.00  0.00     0.216 C 
BRANCH   6   7
ATOM      7  N   UNL A   1      31.963  23.049  26.043  1.00  0.00    -0.345 N 
ATOM      8  C   UNL A   1      31.918  24.388  25.817  1.00  0.00     0.240 C 
ATOM      9  H   UNL A   1      31.882  22.787  26.989  1.00  0.00     0.164 HD
ATOM     10  O   UNL A   1      31.538  25.097  26.753  1.00  0.00    -0.273 OA
BRANCH   8  11
ATOM     11  C   UNL A   1      32.190  24.992  24.439  1.00  0.00     0.229 C 
BRANCH  11  12
ATOM     12  N   UNL A   1      31.715  26.351  24.222  1.00  0.00    -0.259 N 
ATOM     13  C   UNL A   1      32.586  27.405  24.203  1.00  0.00     0.294 C 
ATOM     14  C   UNL A   1      30.446  26.604  23.757  1.00  0.00     0.268 C 
ATOM     15  O   UNL A   1      33.787  27.367  24.438  1.00  0.00    -0.261 OA
ATOM     16  S   UNL A   1      31.758  28.879  23.729  1.00  0.00    -0.022 SA
ATOM     17  C   UNL A   1      30.293  28.048  23.403  1.00  0.00     0.083 C 
ATOM     18  O   UNL A   1      29.534  25.792  23.693  1.00  0.00    -0.268 OA
ATOM     19  C   UNL A   1      29.132  28.553  22.958  1.00  0.00     0.029 C 
BRANCH  19  20
ATOM     20  C   UNL A   1      28.815  29.963  22.684  1.00  0.00    -0.021 A 
ATOM     21  C   UNL A   1      29.012  30.958  23.643  1.00  0.00     0.008 A 
ATOM     22  C   UNL A   1      28.359  30.347  21.419  1.00  0.00     0.047 A 
ATOM     23  C   UNL A   1      28.747  32.301  23.337  1.00  0.00     0.004 A 
ATOM     24  C   UNL A   1      28.078  31.674  21.126  1.00  0.00     0.123 A 
ATOM     25  C   UNL A   1      28.272  32.660  22.076  1.00  0.00     0.039 A 
ATOM     26  F   UNL A   1      27.631  31.998  19.905  1.00  0.00    -0.207 F 
ENDBRANCH  19  20
ENDBRANCH  11  12
ENDBRANCH   8  11
ENDBRANCH   6   7
ENDBRANCH   4   6
ENDBRANCH   1   2
BRANCH   1  27
ATOM     27  C   UNL A   1      36.964  21.650  24.602  1.00  0.00     0.023 C 
BRANCH  27  28
ATOM     28  C   UNL A   1      38.329  21.168  25.086  1.00  0.00     0.023 C 
BRANCH  28  29
ATOM     29  C   UNL A   1      38.402  19.771  25.717  1.00  0.00     0.116 C 
BRANCH  29  30
ATOM     30  N   UNL A   1      39.700  19.125  25.584  1.00  0.00    -0.352 N 
ATOM     31  C   UNL A   1      40.982  19.491  25.938  1.00  0.00     0.251 C 
ATOM     32  H   UNL A   1      39.652  18.242  25.151  1.00  0.00     0.163 HD
ATOM     33  O   UNL A   1      41.889  18.704  25.663  1.00  0.00    -0.269 OA
BRANCH  31  34
ATOM     34  C   UNL A   1      41.348  20.792  26.578  1.00  0.00     0.039 A 
ATOM     35  C   UNL A   1      41.920  21.782  25.759  1.00  0.00     0.014 A 
ATOM     36  C   UNL A   1      41.224  21.061  27.941  1.00  0.00     0.014 A 
ATOM     37  C   UNL A   1      42.315  23.024  26.282  1.00  0.00     0.010 A 
ATOM     38  C   UNL A   1      41.564  22.329  28.455  1.00  0.00     0.010 A 
ATOM     39  C   UNL A   1      42.121  23.328  27.637  1.00  0.00    -0.014 A 
BRANCH  39  40
ATOM     40  C   UNL A   1      42.506  24.660  28.206  1.00  0.00     0.031 A 
ATOM     41  C   UNL A   1      41.474  25.746  28.402  1.00  0.00     0.074 A 
ATOM     42  C   UNL A   1      43.788  24.929  28.530  1.00  0.00     0.049 A 
ATOM     43  N   UNL A   1      41.638  26.984  28.804  1.00  0.00    -0.248 NA
ATOM     44  C   UNL A   1      40.079  25.398  28.098  1.00  0.00     0.031 C 
ATOM     45  C   UNL A   1      44.901  23.990  28.418  1.00  0.00     0.029 A 
ATOM     46  N   UNL A   1      44.376  26.079  29.012  1.00  0.00    -0.354 N 
ATOM     47  C   UNL A   1      40.375  27.563  28.790  1.00  0.00     0.074 A 
ATOM     48  C   UNL A   1      39.460  26.553  28.299  1.00  0.00     0.031 C 
ATOM     49  C   UNL A   1      46.031  24.592  28.823  1.00  0.00     0.029 A 
ATOM     50  C   UNL A   1      45.736  25.977  29.186  1.00  0.00     0.049 A 
ATOM     51  H   UNL A   1      43.869  26.899  29.212  1.00  0.00     0.167 HD
ATOM     52  C   UNL A   1      40.002  28.810  29.166  1.00  0.00     0.037 A 
ATOM     53  C   UNL A   1      46.653  26.885  29.580  1.00  0.00     0.037 A 
ATOM     54  C   UNL A   1      40.895  29.819  29.679  1.00  0.00     0.049 A 
ATOM     55  C   UNL A   1      46.225  28.285  29.936  1.00  0.00     0.074 A 
ATOM     56  C   UNL A   1      40.583  31.093  30.126  1.00  0.00     0.029 A 
ATOM     57  N   UNL A   1      42.266  29.678  29.811  1.00  0.00    -0.354 N 
ATOM     58  N   UNL A   1      45.022  28.802  29.948  1.00  0.00    -0.248 NA
ATOM     59  C   UNL A   1      47.284  29.228  30.336  1.00  0.00     0.031 C 
ATOM     60  C   UNL A   1      41.771  31.745  30.467  1.00  0.00     0.029 A 
ATOM     61  C   UNL A   1      42.817  30.854  30.299  1.00  0.00     0.049 A 
ATOM     62  H   UNL A   1      42.776  28.865  29.590  1.00  0.00     0.167 HD
ATOM     63  C   UNL A   1      45.172  30.114  30.384  1.00  0.00     0.074 A 
ATOM     64  C   UNL A   1      46.582  30.315  30.635  1.00  0.00     0.031 C 
ATOM     65  C   UNL A   1      44.219  31.061  30.559  1.00  0.00     0.037 A 
BRANCH  52  66
ATOM     66  C   UNL A   1      38.548  29.177  29.048  1.00  0.00     0.057 A 
ATOM     67  C   UNL A   1      38.032  29.669  27.840  1.00  0.00     0.134 A 
ATOM     68  C   UNL A   1      37.684  29.137  30.149  1.00  0.00     0.134 A 
ATOM     69  F   UNL A   1      38.809  29.750  26.750  1.00  0.00    -0.206 F 
ATOM     70  C   UNL A   1      36.715  30.122  27.738  1.00  0.00     0.040 A 
ATOM     71  C   UNL A   1      36.357  29.559  30.052  1.00  0.00     0.040 A 
ATOM     72  F   UNL A   1      38.112  28.674  31.333  1.00  0.00    -0.206 F 
ATOM     73  C   UNL A   1      35.872  30.064  28.846  1.00  0.00     0.006 A 
ENDBRANCH  52  66
BRANCH  53  74
ATOM     74  C   UNL A   1      48.085  26.493  29.672  1.00  0.00     0.057 A 
ATOM     75  C   UNL A   1      48.974  26.702  28.610  1.00  0.00     0.134 A 
ATOM     76  C   UNL A   1      48.595  25.888  30.828  1.00  0.00     0.134 A 
ATOM     77  F   UNL A   1      48.550  27.274  27.474  1.00  0.00    -0.206 F 
ATOM     78  C   UNL A   1      50.310  26.304  28.684  1.00  0.00     0.040 A 
ATOM     79  C   UNL A   1      49.935  25.510  30.926  1.00  0.00     0.040 A 
ATOM     80  F   UNL A   1      47.801  25.686  31.889  1.00  0.00    -0.206 F 
ATOM     81  C   UNL A   1      50.794  25.709  29.848  1.00  0.00     0.006 A 
ENDBRANCH  53  74
BRANCH  65  82
ATOM     82  C   UNL A   1      44.642  32.408  31.077  1.00  0.00     0.057 A 
ATOM     83  C   UNL A   1      44.670  32.666  32.455  1.00  0.00     0.134 A 
ATOM     84  C   UNL A   1      44.931  33.476  30.219  1.00  0.00     0.134 A 
ATOM     85  F   UNL A   1      44.393  31.693  33.337  1.00  0.00    -0.206 F 
ATOM     86  C   UNL A   1      44.949  33.939  32.958  1.00  0.00     0.040 A 
ATOM     87  C   UNL A   1      45.240  34.746  30.710  1.00  0.00     0.040 A 
ATOM     88  F   UNL A   1      44.932  33.298  28.889  1.00  0.00    -0.206 F 
ATOM     89  C   UNL A   1      45.237  34.983  32.083  1.00  0.00     0.006 A 
ENDBRANCH  65  82
ENDBRANCH  39  40
ENDBRANCH  31  34
ENDBRANCH  29  30
ENDBRANCH  28  29
ENDBRANCH  27  28
ENDBRANCH   1  27
TORSDOF 15
ENDMDL
