MODEL 1
REMARK VINA RESULT:     -10.9      0.000      0.000
REMARK SMILES C[C@@H](CC[NH+](C)C)NC(=O)Cn1cccc1C(=O)NCCCCNC(=O)c1ccc(-c2c3nc(c(-c4c(F)cccc4F)c4ccc([nH]4)c(-c4c(F)cccc4F)c4nc(c(-c5c(F)cccc5F)c5ccc2[nH]5)C=C4)C=C3)cc1
REMARK SMILES IDX 17 1 18 2 19 3 16 5 12 6 13 7 14 8 15 9 11 10 9 11 8 12
REMARK SMILES IDX 10 14 2 15 1 16 3 17 4 18 5 19 6 20 7 21 20 23 21 24 22 25
REMARK SMILES IDX 23 26 24 27 25 28 26 30 27 31 28 32 80 33 29 34 79 35 30 36
REMARK SMILES IDX 31 37 32 38 73 39 33 40 78 41 72 42 74 43 34 44 77 45 71 46
REMARK SMILES IDX 70 47 35 49 61 50 44 51 60 52 45 53 48 54 59 55 75 56 46 57
REMARK SMILES IDX 47 58 58 60 76 61 49 62 36 63 37 64 42 65 38 66 39 67 41 68
REMARK SMILES IDX 43 69 40 70 62 71 63 72 68 73 64 74 65 75 67 76 69 77 66 78
REMARK SMILES IDX 50 79 51 80 56 81 52 82 53 83 55 84 57 85 54 86
REMARK H PARENT 19 4 8 13 5 22 24 29 74 48 48 59
REMARK Flexibility Score: inf
ROOT
ATOM      1  C   UNL A   1      32.080  28.604  23.978  1.00  0.00     0.267 C 
ATOM      2  O   UNL A   1      32.904  28.421  23.075  1.00  0.00    -0.268 OA
ATOM      3  N   UNL A   1      32.356  29.703  24.743  1.00  0.00    -0.351 N 
ATOM      4  H   UNL A   1      33.096  30.236  24.373  1.00  0.00     0.163 HD
ENDROOT
BRANCH   1   5
ATOM      5  C   UNL A   1      30.934  27.713  24.120  1.00  0.00     0.107 A 
ATOM      6  N   UNL A   1      30.609  26.701  25.004  1.00  0.00    -0.334 N 
ATOM      7  C   UNL A   1      29.480  26.040  24.546  1.00  0.00     0.087 A 
ATOM      8  C   UNL A   1      28.866  26.841  23.623  1.00  0.00     0.020 A 
ATOM      9  C   UNL A   1      29.754  27.906  23.387  1.00  0.00     0.033 A 
BRANCH   6  10
ATOM     10  C   UNL A   1      31.248  26.279  26.235  1.00  0.00     0.222 C 
BRANCH  10  11
ATOM     11  C   UNL A   1      31.695  24.838  26.376  1.00  0.00     0.240 C 
ATOM     12  N   UNL A   1      32.605  24.136  25.668  1.00  0.00    -0.352 N 
ATOM     13  H   UNL A   1      32.717  23.239  26.056  1.00  0.00     0.163 HD
ATOM     14  O   UNL A   1      31.101  24.140  27.218  1.00  0.00    -0.273 OA
BRANCH  12  15
ATOM     15  C   UNL A   1      33.479  24.293  24.500  1.00  0.00     0.084 C 
ATOM     16  C   UNL A   1      34.257  25.603  24.625  1.00  0.00     0.031 C 
BRANCH  15  17
ATOM     17  C   UNL A   1      34.420  23.090  24.222  1.00  0.00     0.086 C 
BRANCH  17  18
ATOM     18  C   UNL A   1      35.771  23.293  23.496  1.00  0.00     0.263 C 
BRANCH  18  19
ATOM     19  N   UNL A   1      36.994  22.805  24.163  1.00  0.00    -0.340 N 
ATOM     20  C   UNL A   1      37.309  23.671  25.305  1.00  0.00     0.332 C 
ATOM     21  C   UNL A   1      36.897  21.429  24.620  1.00  0.00     0.332 C 
ATOM     22  H   UNL A   1      37.735  22.834  23.463  1.00  0.00     0.347 HD
ENDBRANCH  18  19
ENDBRANCH  17  18
ENDBRANCH  15  17
ENDBRANCH  12  15
ENDBRANCH  10  11
ENDBRANCH   6  10
ENDBRANCH   1   5
BRANCH   3  23
ATOM     23  C   UNL A   1      31.827  30.272  25.962  1.00  0.00     0.116 C 
BRANCH  23  24
ATOM     24  C   UNL A   1      32.753  30.038  27.158  1.00  0.00     0.023 C 
BRANCH  24  25
ATOM     25  C   UNL A   1      33.554  28.719  27.111  1.00  0.00     0.023 C 
BRANCH  25  26
ATOM     26  C   UNL A   1      35.082  28.873  27.004  1.00  0.00     0.116 C 
BRANCH  26  27
ATOM     27  N   UNL A   1      35.487  30.239  27.284  1.00  0.00    -0.352 N 
ATOM     28  C   UNL A   1      36.576  30.730  27.955  1.00  0.00     0.251 C 
ATOM     29  H   UNL A   1      34.878  30.927  26.931  1.00  0.00     0.163 HD
ATOM     30  O   UNL A   1      36.543  31.889  28.348  1.00  0.00    -0.269 OA
BRANCH  28  31
ATOM     31  C   UNL A   1      37.792  29.922  28.200  1.00  0.00     0.039 A 
ATOM     32  C   UNL A   1      38.703  29.788  27.142  1.00  0.00     0.014 A 
ATOM     33  C   UNL A   1      37.977  29.187  29.376  1.00  0.00     0.014 A 
ATOM     34  C   UNL A   1      39.805  28.948  27.268  1.00  0.00     0.010 A 
ATOM     35  C   UNL A   1      39.081  28.346  29.506  1.00  0.00     0.010 A 
ATOM     36  C   UNL A   1      40.002  28.239  28.458  1.00  0.00    -0.014 A 
BRANCH  36  37
ATOM     37  C   UNL A   1      41.301  27.555  28.662  1.00  0.00     0.031 A 
ATOM     38  C   UNL A   1      41.193  26.054  28.288  1.00  0.00     0.074 A 
ATOM     39  C   UNL A   1      42.333  28.314  29.153  1.00  0.00     0.049 A 
ATOM     40  N   UNL A   1      41.893  25.035  28.681  1.00  0.00    -0.248 NA
ATOM     41  C   UNL A   1      40.107  25.607  27.368  1.00  0.00     0.031 C 
ATOM     42  C   UNL A   1      42.262  29.775  29.389  1.00  0.00     0.029 A 
ATOM     43  N   UNL A   1      43.630  28.046  29.556  1.00  0.00    -0.354 N 
ATOM     44  C   UNL A   1      41.504  23.910  27.908  1.00  0.00     0.074 A 
ATOM     45  C   UNL A   1      40.330  24.302  27.195  1.00  0.00     0.031 C 
ATOM     46  C   UNL A   1      43.395  30.233  29.967  1.00  0.00     0.029 A 
ATOM     47  C   UNL A   1      44.325  29.138  30.159  1.00  0.00     0.049 A 
ATOM     48  H   UNL A   1      44.046  27.163  29.433  1.00  0.00     0.167 HD
ATOM     49  C   UNL A   1      42.276  22.785  27.804  1.00  0.00     0.037 A 
ATOM     50  C   UNL A   1      45.537  29.149  30.808  1.00  0.00     0.037 A 
ATOM     51  C   UNL A   1      43.405  22.916  28.656  1.00  0.00     0.049 A 
ATOM     52  C   UNL A   1      46.101  27.820  30.564  1.00  0.00     0.074 A 
ATOM     53  C   UNL A   1      43.527  22.920  30.019  1.00  0.00     0.029 A 
ATOM     54  N   UNL A   1      44.531  23.458  28.089  1.00  0.00    -0.354 N 
ATOM     55  N   UNL A   1      46.605  27.437  29.431  1.00  0.00    -0.248 NA
ATOM     56  C   UNL A   1      46.029  26.812  31.628  1.00  0.00     0.031 C 
ATOM     57  C   UNL A   1      44.479  23.932  30.237  1.00  0.00     0.029 A 
ATOM     58  C   UNL A   1      45.088  24.285  29.026  1.00  0.00     0.049 A 
ATOM     59  H   UNL A   1      44.872  23.285  27.182  1.00  0.00     0.167 HD
ATOM     60  C   UNL A   1      46.551  26.073  29.549  1.00  0.00     0.074 A 
ATOM     61  C   UNL A   1      46.540  25.777  30.966  1.00  0.00     0.031 C 
ATOM     62  C   UNL A   1      45.941  25.354  28.571  1.00  0.00     0.037 A 
BRANCH  49  63
ATOM     63  C   UNL A   1      42.321  21.640  26.822  1.00  0.00     0.057 A 
ATOM     64  C   UNL A   1      41.744  20.406  27.221  1.00  0.00     0.134 A 
ATOM     65  C   UNL A   1      43.218  21.567  25.754  1.00  0.00     0.134 A 
ATOM     66  F   UNL A   1      40.811  20.357  28.186  1.00  0.00    -0.206 F 
ATOM     67  C   UNL A   1      42.174  19.174  26.725  1.00  0.00     0.040 A 
ATOM     68  C   UNL A   1      43.616  20.336  25.209  1.00  0.00     0.040 A 
ATOM     69  F   UNL A   1      43.812  22.663  25.264  1.00  0.00    -0.206 F 
ATOM     70  C   UNL A   1      43.139  19.136  25.732  1.00  0.00     0.006 A 
ENDBRANCH  49  63
BRANCH  50  71
ATOM     71  C   UNL A   1      46.378  30.051  31.693  1.00  0.00     0.057 A 
ATOM     72  C   UNL A   1      47.692  30.460  31.457  1.00  0.00     0.134 A 
ATOM     73  C   UNL A   1      45.805  30.644  32.859  1.00  0.00     0.134 A 
ATOM     74  F   UNL A   1      48.428  29.905  30.488  1.00  0.00    -0.206 F 
ATOM     75  C   UNL A   1      48.324  31.461  32.230  1.00  0.00     0.040 A 
ATOM     76  C   UNL A   1      46.396  31.672  33.600  1.00  0.00     0.040 A 
ATOM     77  F   UNL A   1      44.619  30.256  33.350  1.00  0.00    -0.206 F 
ATOM     78  C   UNL A   1      47.661  32.104  33.273  1.00  0.00     0.006 A 
ENDBRANCH  50  71
BRANCH  62  79
ATOM     79  C   UNL A   1      45.917  26.034  27.210  1.00  0.00     0.057 A 
ATOM     80  C   UNL A   1      47.122  26.329  26.554  1.00  0.00     0.134 A 
ATOM     81  C   UNL A   1      44.762  26.530  26.583  1.00  0.00     0.134 A 
ATOM     82  F   UNL A   1      48.284  25.872  27.046  1.00  0.00    -0.206 F 
ATOM     83  C   UNL A   1      47.177  27.106  25.387  1.00  0.00     0.040 A 
ATOM     84  C   UNL A   1      44.796  27.303  25.412  1.00  0.00     0.040 A 
ATOM     85  F   UNL A   1      43.552  26.288  27.083  1.00  0.00    -0.206 F 
ATOM     86  C   UNL A   1      46.011  27.606  24.816  1.00  0.00     0.006 A 
ENDBRANCH  62  79
ENDBRANCH  36  37
ENDBRANCH  28  31
ENDBRANCH  26  27
ENDBRANCH  25  26
ENDBRANCH  24  25
ENDBRANCH  23  24
ENDBRANCH   3  23
TORSDOF 17
ENDMDL
MODEL 2
REMARK VINA RESULT:     -10.7      1.830      2.325
REMARK SMILES C[C@@H](CC[NH+](C)C)NC(=O)Cn1cccc1C(=O)NCCCCNC(=O)c1ccc(-c2c3nc(c(-c4c(F)cccc4F)c4ccc([nH]4)c(-c4c(F)cccc4F)c4nc(c(-c5c(F)cccc5F)c5ccc2[nH]5)C=C4)C=C3)cc1
REMARK SMILES IDX 17 1 18 2 19 3 16 5 12 6 13 7 14 8 15 9 11 10 9 11 8 12
REMARK SMILES IDX 10 14 2 15 1 16 3 17 4 18 5 19 6 20 7 21 20 23 21 24 22 25
REMARK SMILES IDX 23 26 24 27 25 28 26 30 27 31 28 32 80 33 29 34 79 35 30 36
REMARK SMILES IDX 31 37 32 38 73 39 33 40 78 41 72 42 74 43 34 44 77 45 71 46
REMARK SMILES IDX 70 47 35 49 61 50 44 51 60 52 45 53 48 54 59 55 75 56 46 57
REMARK SMILES IDX 47 58 58 60 76 61 49 62 36 63 37 64 42 65 38 66 39 67 41 68
REMARK SMILES IDX 43 69 40 70 62 71 63 72 68 73 64 74 65 75 67 76 69 77 66 78
REMARK SMILES IDX 50 79 51 80 56 81 52 82 53 83 55 84 57 85 54 86
REMARK H PARENT 19 4 8 13 5 22 24 29 74 48 48 59
REMARK Flexibility Score: inf
ROOT
ATOM      1  C   UNL A   1      31.935  28.627  23.930  1.00  0.00     0.267 C 
ATOM      2  O   UNL A   1      32.726  28.470  22.994  1.00  0.00    -0.268 OA
ATOM      3  N   UNL A   1      32.164  29.772  24.641  1.00  0.00    -0.351 N 
ATOM      4  H   UNL A   1      32.844  30.343  24.216  1.00  0.00     0.163 HD
ENDROOT
BRANCH   1   5
ATOM      5  C   UNL A   1      30.867  27.661  24.162  1.00  0.00     0.107 A 
ATOM      6  N   UNL A   1      30.704  26.600  25.034  1.00  0.00    -0.334 N 
ATOM      7  C   UNL A   1      29.572  25.886  24.677  1.00  0.00     0.087 A 
ATOM      8  C   UNL A   1      28.811  26.677  23.861  1.00  0.00     0.020 A 
ATOM      9  C   UNL A   1      29.603  27.804  23.573  1.00  0.00     0.033 A 
BRANCH   6  10
ATOM     10  C   UNL A   1      31.502  26.177  26.167  1.00  0.00     0.222 C 
BRANCH  10  11
ATOM     11  C   UNL A   1      31.837  24.708  26.325  1.00  0.00     0.240 C 
ATOM     12  N   UNL A   1      32.614  23.906  25.566  1.00  0.00    -0.352 N 
ATOM     13  H   UNL A   1      32.686  23.016  25.977  1.00  0.00     0.163 HD
ATOM     14  O   UNL A   1      31.268  24.092  27.245  1.00  0.00    -0.273 OA
BRANCH  12  15
ATOM     15  C   UNL A   1      33.384  23.948  24.318  1.00  0.00     0.084 C 
ATOM     16  C   UNL A   1      34.091  25.299  24.207  1.00  0.00     0.031 C 
BRANCH  15  17
ATOM     17  C   UNL A   1      34.371  22.766  24.119  1.00  0.00     0.086 C 
BRANCH  17  18
ATOM     18  C   UNL A   1      35.775  23.000  23.513  1.00  0.00     0.263 C 
BRANCH  18  19
ATOM     19  N   UNL A   1      36.947  22.577  24.303  1.00  0.00    -0.340 N 
ATOM     20  C   UNL A   1      37.176  23.533  25.393  1.00  0.00     0.332 C 
ATOM     21  C   UNL A   1      36.822  21.240  24.859  1.00  0.00     0.332 C 
ATOM     22  H   UNL A   1      37.737  22.558  23.658  1.00  0.00     0.347 HD
ENDBRANCH  18  19
ENDBRANCH  17  18
ENDBRANCH  15  17
ENDBRANCH  12  15
ENDBRANCH  10  11
ENDBRANCH   6  10
ENDBRANCH   1   5
BRANCH   3  23
ATOM     23  C   UNL A   1      31.652  30.349  25.864  1.00  0.00     0.116 C 
BRANCH  23  24
ATOM     24  C   UNL A   1      32.696  30.348  26.983  1.00  0.00     0.023 C 
BRANCH  24  25
ATOM     25  C   UNL A   1      33.552  29.066  27.072  1.00  0.00     0.023 C 
BRANCH  25  26
ATOM     26  C   UNL A   1      35.067  29.264  26.886  1.00  0.00     0.116 C 
BRANCH  26  27
ATOM     27  N   UNL A   1      35.483  30.571  27.364  1.00  0.00    -0.352 N 
ATOM     28  C   UNL A   1      36.470  30.930  28.245  1.00  0.00     0.251 C 
ATOM     29  H   UNL A   1      34.970  31.325  26.993  1.00  0.00     0.163 HD
ATOM     30  O   UNL A   1      36.426  32.046  28.745  1.00  0.00    -0.269 OA
BRANCH  28  31
ATOM     31  C   UNL A   1      37.592  30.030  28.594  1.00  0.00     0.039 A 
ATOM     32  C   UNL A   1      38.765  30.136  27.832  1.00  0.00     0.014 A 
ATOM     33  C   UNL A   1      37.464  29.004  29.536  1.00  0.00     0.014 A 
ATOM     34  C   UNL A   1      39.813  29.242  28.030  1.00  0.00     0.010 A 
ATOM     35  C   UNL A   1      38.512  28.108  29.739  1.00  0.00     0.010 A 
ATOM     36  C   UNL A   1      39.691  28.237  28.997  1.00  0.00    -0.014 A 
BRANCH  36  37
ATOM     37  C   UNL A   1      40.902  27.463  29.362  1.00  0.00     0.031 A 
ATOM     38  C   UNL A   1      41.096  26.264  28.399  1.00  0.00     0.074 A 
ATOM     39  C   UNL A   1      41.605  27.893  30.459  1.00  0.00     0.049 A 
ATOM     40  N   UNL A   1      41.719  25.139  28.569  1.00  0.00    -0.248 NA
ATOM     41  C   UNL A   1      40.458  26.300  27.051  1.00  0.00     0.031 C 
ATOM     42  C   UNL A   1      41.298  29.123  31.225  1.00  0.00     0.029 A 
ATOM     43  N   UNL A   1      42.699  27.414  31.160  1.00  0.00    -0.354 N 
ATOM     44  C   UNL A   1      41.752  24.462  27.322  1.00  0.00     0.074 A 
ATOM     45  C   UNL A   1      40.868  25.177  26.457  1.00  0.00     0.031 C 
ATOM     46  C   UNL A   1      42.098  29.237  32.309  1.00  0.00     0.029 A 
ATOM     47  C   UNL A   1      43.014  28.116  32.364  1.00  0.00     0.049 A 
ATOM     48  H   UNL A   1      43.225  26.642  30.850  1.00  0.00     0.167 HD
ATOM     49  C   UNL A   1      42.628  23.444  27.058  1.00  0.00     0.037 A 
ATOM     50  C   UNL A   1      43.912  27.791  33.353  1.00  0.00     0.037 A 
ATOM     51  C   UNL A   1      43.364  23.149  28.238  1.00  0.00     0.049 A 
ATOM     52  C   UNL A   1      44.666  26.658  32.814  1.00  0.00     0.074 A 
ATOM     53  C   UNL A   1      42.997  22.576  29.425  1.00  0.00     0.029 A 
ATOM     54  N   UNL A   1      44.551  23.818  28.394  1.00  0.00    -0.354 N 
ATOM     55  N   UNL A   1      45.575  26.759  31.893  1.00  0.00    -0.248 NA
ATOM     56  C   UNL A   1      44.334  25.304  33.269  1.00  0.00     0.031 C 
ATOM     57  C   UNL A   1      43.696  23.354  30.367  1.00  0.00     0.029 A 
ATOM     58  C   UNL A   1      44.650  24.148  29.718  1.00  0.00     0.049 A 
ATOM     59  H   UNL A   1      45.206  24.023  27.688  1.00  0.00     0.167 HD
ATOM     60  C   UNL A   1      45.632  25.475  31.417  1.00  0.00     0.074 A 
ATOM     61  C   UNL A   1      45.154  24.615  32.480  1.00  0.00     0.031 C 
ATOM     62  C   UNL A   1      45.487  25.263  30.083  1.00  0.00     0.037 A 
BRANCH  49  63
ATOM     63  C   UNL A   1      43.141  22.815  25.787  1.00  0.00     0.057 A 
ATOM     64  C   UNL A   1      43.259  21.400  25.754  1.00  0.00     0.134 A 
ATOM     65  C   UNL A   1      43.877  23.502  24.821  1.00  0.00     0.134 A 
ATOM     66  F   UNL A   1      42.542  20.624  26.584  1.00  0.00    -0.206 F 
ATOM     67  C   UNL A   1      44.188  20.737  24.949  1.00  0.00     0.040 A 
ATOM     68  C   UNL A   1      44.773  22.840  23.967  1.00  0.00     0.040 A 
ATOM     69  F   UNL A   1      43.832  24.837  24.727  1.00  0.00    -0.206 F 
ATOM     70  C   UNL A   1      44.972  21.464  24.069  1.00  0.00     0.006 A 
ENDBRANCH  49  63
BRANCH  50  71
ATOM     71  C   UNL A   1      44.283  28.195  34.768  1.00  0.00     0.057 A 
ATOM     72  C   UNL A   1      43.908  27.546  35.945  1.00  0.00     0.134 A 
ATOM     73  C   UNL A   1      45.171  29.292  34.989  1.00  0.00     0.134 A 
ATOM     74  F   UNL A   1      42.980  26.584  35.941  1.00  0.00    -0.206 F 
ATOM     75  C   UNL A   1      44.467  27.873  37.202  1.00  0.00     0.040 A 
ATOM     76  C   UNL A   1      45.772  29.593  36.215  1.00  0.00     0.040 A 
ATOM     77  F   UNL A   1      45.514  30.143  34.012  1.00  0.00    -0.206 F 
ATOM     78  C   UNL A   1      45.436  28.864  37.333  1.00  0.00     0.006 A 
ENDBRANCH  50  71
BRANCH  62  79
ATOM     79  C   UNL A   1      45.869  26.450  29.211  1.00  0.00     0.057 A 
ATOM     80  C   UNL A   1      47.181  26.946  29.242  1.00  0.00     0.134 A 
ATOM     81  C   UNL A   1      44.966  27.205  28.446  1.00  0.00     0.134 A 
ATOM     82  F   UNL A   1      48.136  26.282  29.913  1.00  0.00    -0.206 F 
ATOM     83  C   UNL A   1      47.554  28.137  28.600  1.00  0.00     0.040 A 
ATOM     84  C   UNL A   1      45.321  28.395  27.791  1.00  0.00     0.040 A 
ATOM     85  F   UNL A   1      43.699  26.822  28.303  1.00  0.00    -0.206 F 
ATOM     86  C   UNL A   1      46.621  28.873  27.880  1.00  0.00     0.006 A 
ENDBRANCH  62  79
ENDBRANCH  36  37
ENDBRANCH  28  31
ENDBRANCH  26  27
ENDBRANCH  25  26
ENDBRANCH  24  25
ENDBRANCH  23  24
ENDBRANCH   3  23
TORSDOF 17
ENDMDL
MODEL 3
REMARK VINA RESULT:     -10.7      2.021      3.560
REMARK SMILES C[C@@H](CC[NH+](C)C)NC(=O)Cn1cccc1C(=O)NCCCCNC(=O)c1ccc(-c2c3nc(c(-c4c(F)cccc4F)c4ccc([nH]4)c(-c4c(F)cccc4F)c4nc(c(-c5c(F)cccc5F)c5ccc2[nH]5)C=C4)C=C3)cc1
REMARK SMILES IDX 17 1 18 2 19 3 16 5 12 6 13 7 14 8 15 9 11 10 9 11 8 12
REMARK SMILES IDX 10 14 2 15 1 16 3 17 4 18 5 19 6 20 7 21 20 23 21 24 22 25
REMARK SMILES IDX 23 26 24 27 25 28 26 30 27 31 28 32 80 33 29 34 79 35 30 36
REMARK SMILES IDX 31 37 32 38 73 39 33 40 78 41 72 42 74 43 34 44 77 45 71 46
REMARK SMILES IDX 70 47 35 49 61 50 44 51 60 52 45 53 48 54 59 55 75 56 46 57
REMARK SMILES IDX 47 58 58 60 76 61 49 62 36 63 37 64 42 65 38 66 39 67 41 68
REMARK SMILES IDX 43 69 40 70 62 71 63 72 68 73 64 74 65 75 67 76 69 77 66 78
REMARK SMILES IDX 50 79 51 80 56 81 52 82 53 83 55 84 57 85 54 86
REMARK H PARENT 19 4 8 13 5 22 24 29 74 48 48 59
REMARK Flexibility Score: inf
ROOT
ATOM      1  C   UNL A   1      33.912  24.672  23.988  1.00  0.00     0.267 C 
ATOM      2  O   UNL A   1      34.053  24.816  22.769  1.00  0.00    -0.268 OA
ATOM      3  N   UNL A   1      33.971  25.851  24.678  1.00  0.00    -0.351 N 
ATOM      4  H   UNL A   1      33.995  26.632  24.079  1.00  0.00     0.163 HD
ENDROOT
BRANCH   1   5
ATOM      5  C   UNL A   1      33.671  23.349  24.551  1.00  0.00     0.107 A 
ATOM      6  N   UNL A   1      33.077  22.894  25.715  1.00  0.00    -0.334 N 
ATOM      7  C   UNL A   1      33.310  21.534  25.843  1.00  0.00     0.087 A 
ATOM      8  C   UNL A   1      33.689  21.051  24.621  1.00  0.00     0.020 A 
ATOM      9  C   UNL A   1      33.874  22.181  23.803  1.00  0.00     0.033 A 
BRANCH   6  10
ATOM     10  C   UNL A   1      32.318  23.599  26.727  1.00  0.00     0.222 C 
BRANCH  10  11
ATOM     11  C   UNL A   1      30.826  23.785  26.533  1.00  0.00     0.240 C 
ATOM     12  N   UNL A   1      30.151  24.482  25.595  1.00  0.00    -0.352 N 
ATOM     13  H   UNL A   1      29.183  24.345  25.703  1.00  0.00     0.163 HD
ATOM     14  O   UNL A   1      30.077  23.292  27.395  1.00  0.00    -0.273 OA
BRANCH  12  15
ATOM     15  C   UNL A   1      30.410  25.381  24.465  1.00  0.00     0.084 C 
ATOM     16  C   UNL A   1      30.429  24.571  23.169  1.00  0.00     0.031 C 
BRANCH  15  17
ATOM     17  C   UNL A   1      29.454  26.600  24.367  1.00  0.00     0.086 C 
BRANCH  17  18
ATOM     18  C   UNL A   1      29.478  27.527  23.128  1.00  0.00     0.263 C 
BRANCH  18  19
ATOM     19  N   UNL A   1      29.890  28.930  23.323  1.00  0.00    -0.340 N 
ATOM     20  C   UNL A   1      31.288  28.974  23.766  1.00  0.00     0.332 C 
ATOM     21  C   UNL A   1      29.740  29.751  22.132  1.00  0.00     0.332 C 
ATOM     22  H   UNL A   1      29.266  29.318  24.031  1.00  0.00     0.347 HD
ENDBRANCH  18  19
ENDBRANCH  17  18
ENDBRANCH  15  17
ENDBRANCH  12  15
ENDBRANCH  10  11
ENDBRANCH   6  10
ENDBRANCH   1   5
BRANCH   3  23
ATOM     23  C   UNL A   1      34.009  26.231  26.073  1.00  0.00     0.116 C 
BRANCH  23  24
ATOM     24  C   UNL A   1      32.922  27.251  26.423  1.00  0.00     0.023 C 
BRANCH  24  25
ATOM     25  C   UNL A   1      33.440  28.557  27.064  1.00  0.00     0.023 C 
BRANCH  25  26
ATOM     26  C   UNL A   1      34.906  28.912  26.759  1.00  0.00     0.116 C 
BRANCH  26  27
ATOM     27  N   UNL A   1      35.227  30.247  27.234  1.00  0.00    -0.352 N 
ATOM     28  C   UNL A   1      36.181  30.676  28.118  1.00  0.00     0.251 C 
ATOM     29  H   UNL A   1      34.665  30.961  26.857  1.00  0.00     0.163 HD
ATOM     30  O   UNL A   1      36.057  31.789  28.614  1.00  0.00    -0.269 OA
BRANCH  28  31
ATOM     31  C   UNL A   1      37.362  29.858  28.477  1.00  0.00     0.039 A 
ATOM     32  C   UNL A   1      38.453  29.878  27.595  1.00  0.00     0.014 A 
ATOM     33  C   UNL A   1      37.359  28.975  29.561  1.00  0.00     0.014 A 
ATOM     34  C   UNL A   1      39.545  29.044  27.812  1.00  0.00     0.010 A 
ATOM     35  C   UNL A   1      38.452  28.138  29.782  1.00  0.00     0.010 A 
ATOM     36  C   UNL A   1      39.550  28.184  28.917  1.00  0.00    -0.014 A 
BRANCH  36  37
ATOM     37  C   UNL A   1      40.815  27.495  29.265  1.00  0.00     0.031 A 
ATOM     38  C   UNL A   1      41.035  26.260  28.354  1.00  0.00     0.074 A 
ATOM     39  C   UNL A   1      41.539  28.016  30.307  1.00  0.00     0.049 A 
ATOM     40  N   UNL A   1      41.725  25.180  28.550  1.00  0.00    -0.248 NA
ATOM     41  C   UNL A   1      40.340  26.194  27.035  1.00  0.00     0.031 C 
ATOM     42  C   UNL A   1      41.197  29.266  31.026  1.00  0.00     0.029 A 
ATOM     43  N   UNL A   1      42.686  27.632  30.982  1.00  0.00    -0.354 N 
ATOM     44  C   UNL A   1      41.743  24.443  27.337  1.00  0.00     0.074 A 
ATOM     45  C   UNL A   1      40.786  25.065  26.478  1.00  0.00     0.031 C 
ATOM     46  C   UNL A   1      42.034  29.477  32.066  1.00  0.00     0.029 A 
ATOM     47  C   UNL A   1      43.012  28.410  32.134  1.00  0.00     0.049 A 
ATOM     48  H   UNL A   1      43.240  26.874  30.686  1.00  0.00     0.167 HD
ATOM     49  C   UNL A   1      42.662  23.461  27.084  1.00  0.00     0.037 A 
ATOM     50  C   UNL A   1      43.967  28.184  33.098  1.00  0.00     0.037 A 
ATOM     51  C   UNL A   1      43.462  23.265  28.243  1.00  0.00     0.049 A 
ATOM     52  C   UNL A   1      44.759  27.066  32.582  1.00  0.00     0.074 A 
ATOM     53  C   UNL A   1      43.177  22.735  29.472  1.00  0.00     0.029 A 
ATOM     54  N   UNL A   1      44.616  24.003  28.313  1.00  0.00    -0.354 N 
ATOM     55  N   UNL A   1      45.621  27.167  31.617  1.00  0.00    -0.248 NA
ATOM     56  C   UNL A   1      44.521  25.721  33.115  1.00  0.00     0.031 C 
ATOM     57  C   UNL A   1      43.870  23.595  30.343  1.00  0.00     0.029 A 
ATOM     58  C   UNL A   1      44.751  24.404  29.614  1.00  0.00     0.049 A 
ATOM     59  H   UNL A   1      45.229  24.206  27.570  1.00  0.00     0.167 HD
ATOM     60  C   UNL A   1      45.729  25.866  31.201  1.00  0.00     0.074 A 
ATOM     61  C   UNL A   1      45.344  25.037  32.325  1.00  0.00     0.031 C 
ATOM     62  C   UNL A   1      45.540  25.579  29.888  1.00  0.00     0.037 A 
BRANCH  49  63
ATOM     63  C   UNL A   1      43.155  22.795  25.823  1.00  0.00     0.057 A 
ATOM     64  C   UNL A   1      43.327  21.386  25.847  1.00  0.00     0.134 A 
ATOM     65  C   UNL A   1      43.831  23.467  24.803  1.00  0.00     0.134 A 
ATOM     66  F   UNL A   1      42.669  20.622  26.734  1.00  0.00    -0.206 F 
ATOM     67  C   UNL A   1      44.253  20.723  25.038  1.00  0.00     0.040 A 
ATOM     68  C   UNL A   1      44.722  22.801  23.947  1.00  0.00     0.040 A 
ATOM     69  F   UNL A   1      43.731  24.794  24.654  1.00  0.00    -0.206 F 
ATOM     70  C   UNL A   1      44.978  21.440  24.100  1.00  0.00     0.006 A 
ENDBRANCH  49  63
BRANCH  50  71
ATOM     71  C   UNL A   1      44.374  28.678  34.474  1.00  0.00     0.057 A 
ATOM     72  C   UNL A   1      45.656  29.054  34.877  1.00  0.00     0.134 A 
ATOM     73  C   UNL A   1      43.384  28.883  35.483  1.00  0.00     0.134 A 
ATOM     74  F   UNL A   1      46.725  28.809  34.112  1.00  0.00    -0.206 F 
ATOM     75  C   UNL A   1      45.905  29.693  36.113  1.00  0.00     0.040 A 
ATOM     76  C   UNL A   1      43.604  29.561  36.686  1.00  0.00     0.040 A 
ATOM     77  F   UNL A   1      42.128  28.433  35.353  1.00  0.00    -0.206 F 
ATOM     78  C   UNL A   1      44.873  29.992  37.000  1.00  0.00     0.006 A 
ENDBRANCH  50  71
BRANCH  62  79
ATOM     79  C   UNL A   1      45.820  26.739  28.943  1.00  0.00     0.057 A 
ATOM     80  C   UNL A   1      47.102  27.308  28.895  1.00  0.00     0.134 A 
ATOM     81  C   UNL A   1      44.846  27.402  28.179  1.00  0.00     0.134 A 
ATOM     82  F   UNL A   1      48.118  26.735  29.559  1.00  0.00    -0.206 F 
ATOM     83  C   UNL A   1      47.381  28.484  28.181  1.00  0.00     0.040 A 
ATOM     84  C   UNL A   1      45.108  28.574  27.451  1.00  0.00     0.040 A 
ATOM     85  F   UNL A   1      43.599  26.942  28.107  1.00  0.00    -0.206 F 
ATOM     86  C   UNL A   1      46.379  29.128  27.463  1.00  0.00     0.006 A 
ENDBRANCH  62  79
ENDBRANCH  36  37
ENDBRANCH  28  31
ENDBRANCH  26  27
ENDBRANCH  25  26
ENDBRANCH  24  25
ENDBRANCH  23  24
ENDBRANCH   3  23
TORSDOF 17
ENDMDL
