MODEL 1
REMARK VINA RESULT:     -11.3      0.000      0.000
REMARK SMILES CSc1ncc(Cl)c(C(=O)Nc2ccsc2C(=O)NCCCCNC(=O)c2ccc(-c3c4nc(c(-c5c(F)cccc5F)c5ccc([nH]5)c(-c5c(F)cccc5F)c5nc(c(-c6c(F)cccc6F)c6ccc3[nH]6)C=C5)C=C4)cc2)n1
REMARK SMILES IDX 21 1 20 2 19 3 17 4 18 5 16 7 12 8 13 9 14 10 15 11 11 12
REMARK SMILES IDX 9 13 10 14 8 16 3 17 4 18 81 19 5 20 6 21 7 22 2 23 1 24
REMARK SMILES IDX 22 25 23 26 24 27 25 28 26 30 27 31 28 32 80 33 29 34 79 35
REMARK SMILES IDX 30 36 31 37 32 38 73 39 33 40 78 41 72 42 74 43 34 44 77 45
REMARK SMILES IDX 71 46 70 47 35 49 61 50 44 51 60 52 45 53 48 54 59 55 75 56
REMARK SMILES IDX 46 57 47 58 58 60 76 61 49 62 36 63 37 64 42 65 38 66 39 67
REMARK SMILES IDX 41 68 43 69 40 70 62 71 63 72 68 73 64 74 65 75 67 76 69 77
REMARK SMILES IDX 66 78 50 79 51 80 56 81 52 82 53 83 55 84 57 85 54 86
REMARK H PARENT 19 6 11 15 24 29 74 48 48 59
REMARK Flexibility Score: inf
ROOT
ATOM      1  C   UNL A   1      35.870  21.264  25.181  1.00  0.00     0.023 C 
ENDROOT
BRANCH   1   2
ATOM      2  C   UNL A   1      35.631  22.535  24.378  1.00  0.00     0.116 C 
BRANCH   2   3
ATOM      3  N   UNL A   1      35.388  23.757  25.101  1.00  0.00    -0.351 N 
ATOM      4  C   UNL A   1      34.297  24.611  25.119  1.00  0.00     0.263 C 
ATOM      5  O   UNL A   1      34.419  25.537  25.929  1.00  0.00    -0.268 OA
ATOM      6  H   UNL A   1      36.129  24.034  25.688  1.00  0.00     0.163 HD
BRANCH   4   7
ATOM      7  C   UNL A   1      33.120  24.488  24.235  1.00  0.00     0.115 A 
ATOM      8  C   UNL A   1      32.656  25.122  23.082  1.00  0.00     0.065 A 
ATOM      9  C   UNL A   1      31.351  24.694  22.684  1.00  0.00     0.038 A 
ATOM     10  C   UNL A   1      30.843  23.728  23.513  1.00  0.00     0.068 A 
ATOM     11  S   UNL A   1      31.930  23.325  24.758  1.00  0.00    -0.137 S 
BRANCH   8  12
ATOM     12  N   UNL A   1      33.380  26.047  22.368  1.00  0.00    -0.319 N 
ATOM     13  C   UNL A   1      33.304  27.425  22.376  1.00  0.00     0.276 C 
ATOM     14  O   UNL A   1      34.173  28.016  21.722  1.00  0.00    -0.267 OA
ATOM     15  H   UNL A   1      34.055  25.669  21.759  1.00  0.00     0.170 HD
BRANCH  13  16
ATOM     16  C   UNL A   1      32.330  28.252  23.167  1.00  0.00     0.151 A 
ATOM     17  C   UNL A   1      30.352  29.423  22.921  1.00  0.00     0.188 A 
ATOM     18  N   UNL A   1      30.365  29.855  24.186  1.00  0.00    -0.230 NA
ATOM     19  N   UNL A   1      31.257  28.592  22.400  1.00  0.00    -0.216 NA
ATOM     20  C   UNL A   1      31.444  29.516  24.915  1.00  0.00     0.137 A 
ATOM     21  C   UNL A   1      32.508  28.779  24.435  1.00  0.00     0.090 A 
ATOM     22  Cl  UNL A   1      33.935  28.817  25.385  1.00  0.00    -0.080 Cl
BRANCH  17  23
ATOM     23  S   UNL A   1      29.216  30.204  21.815  1.00  0.00    -0.090 SA
ATOM     24  C   UNL A   1      27.829  30.351  22.975  1.00  0.00     0.094 C 
ENDBRANCH  17  23
ENDBRANCH  13  16
ENDBRANCH   8  12
ENDBRANCH   4   7
ENDBRANCH   2   3
ENDBRANCH   1   2
BRANCH   1  25
ATOM     25  C   UNL A   1      37.095  20.439  24.818  1.00  0.00     0.023 C 
BRANCH  25  26
ATOM     26  C   UNL A   1      38.390  20.787  25.541  1.00  0.00     0.116 C 
BRANCH  26  27
ATOM     27  N   UNL A   1      39.395  19.732  25.526  1.00  0.00    -0.352 N 
ATOM     28  C   UNL A   1      40.704  19.736  25.954  1.00  0.00     0.251 C 
ATOM     29  H   UNL A   1      39.089  18.877  25.146  1.00  0.00     0.163 HD
ATOM     30  O   UNL A   1      41.402  18.737  25.799  1.00  0.00    -0.269 OA
BRANCH  28  31
ATOM     31  C   UNL A   1      41.303  20.952  26.548  1.00  0.00     0.039 A 
ATOM     32  C   UNL A   1      41.940  21.866  25.702  1.00  0.00     0.014 A 
ATOM     33  C   UNL A   1      41.221  21.215  27.915  1.00  0.00     0.014 A 
ATOM     34  C   UNL A   1      42.387  23.089  26.210  1.00  0.00     0.010 A 
ATOM     35  C   UNL A   1      41.570  22.472  28.399  1.00  0.00     0.010 A 
ATOM     36  C   UNL A   1      42.148  23.428  27.551  1.00  0.00    -0.014 A 
BRANCH  36  37
ATOM     37  C   UNL A   1      42.465  24.782  28.075  1.00  0.00     0.031 A 
ATOM     38  C   UNL A   1      43.857  25.116  28.537  1.00  0.00     0.074 A 
ATOM     39  C   UNL A   1      41.477  25.687  28.224  1.00  0.00     0.049 A 
ATOM     40  N   UNL A   1      44.303  26.215  29.093  1.00  0.00    -0.248 NA
ATOM     41  C   UNL A   1      44.873  24.063  28.387  1.00  0.00     0.031 C 
ATOM     42  C   UNL A   1      40.069  25.467  27.886  1.00  0.00     0.029 A 
ATOM     43  N   UNL A   1      41.502  26.970  28.713  1.00  0.00    -0.354 N 
ATOM     44  C   UNL A   1      45.641  25.975  29.382  1.00  0.00     0.074 A 
ATOM     45  C   UNL A   1      45.917  24.609  28.992  1.00  0.00     0.031 C 
ATOM     46  C   UNL A   1      39.372  26.583  28.155  1.00  0.00     0.029 A 
ATOM     47  C   UNL A   1      40.273  27.584  28.718  1.00  0.00     0.049 A 
ATOM     48  H   UNL A   1      42.325  27.409  29.031  1.00  0.00     0.167 HD
ATOM     49  C   UNL A   1      46.562  26.821  29.903  1.00  0.00     0.037 A 
ATOM     50  C   UNL A   1      39.908  28.810  29.135  1.00  0.00     0.037 A 
ATOM     51  C   UNL A   1      46.292  28.189  30.261  1.00  0.00     0.049 A 
ATOM     52  C   UNL A   1      40.949  29.743  29.684  1.00  0.00     0.074 A 
ATOM     53  C   UNL A   1      47.179  29.153  30.708  1.00  0.00     0.029 A 
ATOM     54  N   UNL A   1      45.041  28.785  30.217  1.00  0.00    -0.354 N 
ATOM     55  N   UNL A   1      42.231  29.534  29.866  1.00  0.00    -0.248 NA
ATOM     56  C   UNL A   1      40.497  31.084  30.079  1.00  0.00     0.031 C 
ATOM     57  C   UNL A   1      46.454  30.319  30.982  1.00  0.00     0.029 A 
ATOM     58  C   UNL A   1      45.125  30.096  30.658  1.00  0.00     0.049 A 
ATOM     59  H   UNL A   1      44.214  28.342  29.917  1.00  0.00     0.167 HD
ATOM     60  C   UNL A   1      42.741  30.719  30.378  1.00  0.00     0.074 A 
ATOM     61  C   UNL A   1      41.633  31.649  30.461  1.00  0.00     0.031 C 
ATOM     62  C   UNL A   1      44.014  31.010  30.744  1.00  0.00     0.037 A 
BRANCH  49  63
ATOM     63  C   UNL A   1      47.947  26.281  30.117  1.00  0.00     0.057 A 
ATOM     64  C   UNL A   1      48.904  26.265  29.093  1.00  0.00     0.134 A 
ATOM     65  C   UNL A   1      48.332  25.778  31.366  1.00  0.00     0.134 A 
ATOM     66  F   UNL A   1      48.599  26.722  27.869  1.00  0.00    -0.206 F 
ATOM     67  C   UNL A   1      50.179  25.731  29.292  1.00  0.00     0.040 A 
ATOM     68  C   UNL A   1      49.613  25.270  31.586  1.00  0.00     0.040 A 
ATOM     69  F   UNL A   1      47.469  25.770  32.394  1.00  0.00    -0.206 F 
ATOM     70  C   UNL A   1      50.537  25.236  30.544  1.00  0.00     0.006 A 
ENDBRANCH  49  63
BRANCH  50  71
ATOM     71  C   UNL A   1      38.490  29.233  29.017  1.00  0.00     0.057 A 
ATOM     72  C   UNL A   1      37.636  29.213  30.126  1.00  0.00     0.134 A 
ATOM     73  C   UNL A   1      37.962  29.692  27.804  1.00  0.00     0.134 A 
ATOM     74  F   UNL A   1      38.079  28.767  31.310  1.00  0.00    -0.206 F 
ATOM     75  C   UNL A   1      36.306  29.624  30.031  1.00  0.00     0.040 A 
ATOM     76  C   UNL A   1      36.640  30.128  27.701  1.00  0.00     0.040 A 
ATOM     77  F   UNL A   1      38.732  29.745  26.708  1.00  0.00    -0.206 F 
ATOM     78  C   UNL A   1      35.806  30.090  28.817  1.00  0.00     0.006 A 
ENDBRANCH  50  71
BRANCH  62  79
ATOM     79  C   UNL A   1      44.282  32.397  31.251  1.00  0.00     0.057 A 
ATOM     80  C   UNL A   1      44.497  33.474  30.382  1.00  0.00     0.134 A 
ATOM     81  C   UNL A   1      44.285  32.664  32.626  1.00  0.00     0.134 A 
ATOM     82  F   UNL A   1      44.520  33.281  29.054  1.00  0.00    -0.206 F 
ATOM     83  C   UNL A   1      44.727  34.764  30.862  1.00  0.00     0.040 A 
ATOM     84  C   UNL A   1      44.488  33.955  33.117  1.00  0.00     0.040 A 
ATOM     85  F   UNL A   1      44.078  31.680  33.513  1.00  0.00    -0.206 F 
ATOM     86  C   UNL A   1      44.716  35.009  32.234  1.00  0.00     0.006 A 
ENDBRANCH  62  79
ENDBRANCH  36  37
ENDBRANCH  28  31
ENDBRANCH  26  27
ENDBRANCH  25  26
ENDBRANCH   1  25
TORSDOF 14
ENDMDL
MODEL 2
REMARK VINA RESULT:     -11.2      0.601      6.241
REMARK SMILES CSc1ncc(Cl)c(C(=O)Nc2ccsc2C(=O)NCCCCNC(=O)c2ccc(-c3c4nc(c(-c5c(F)cccc5F)c5ccc([nH]5)c(-c5c(F)cccc5F)c5nc(c(-c6c(F)cccc6F)c6ccc3[nH]6)C=C5)C=C4)cc2)n1
REMARK SMILES IDX 21 1 20 2 19 3 17 4 18 5 16 7 12 8 13 9 14 10 15 11 11 12
REMARK SMILES IDX 9 13 10 14 8 16 3 17 4 18 81 19 5 20 6 21 7 22 2 23 1 24
REMARK SMILES IDX 22 25 23 26 24 27 25 28 26 30 27 31 28 32 80 33 29 34 79 35
REMARK SMILES IDX 30 36 31 37 32 38 73 39 33 40 78 41 72 42 74 43 34 44 77 45
REMARK SMILES IDX 71 46 70 47 35 49 61 50 44 51 60 52 45 53 48 54 59 55 75 56
REMARK SMILES IDX 46 57 47 58 58 60 76 61 49 62 36 63 37 64 42 65 38 66 39 67
REMARK SMILES IDX 41 68 43 69 40 70 62 71 63 72 68 73 64 74 65 75 67 76 69 77
REMARK SMILES IDX 66 78 50 79 51 80 56 81 52 82 53 83 55 84 57 85 54 86
REMARK H PARENT 19 6 11 15 24 29 74 48 48 59
REMARK Flexibility Score: inf
ROOT
ATOM      1  C   UNL A   1      37.022  21.886  23.949  1.00  0.00     0.023 C 
ENDROOT
BRANCH   1   2
ATOM      2  C   UNL A   1      35.608  22.439  24.060  1.00  0.00     0.116 C 
BRANCH   2   3
ATOM      3  N   UNL A   1      35.399  23.599  24.888  1.00  0.00    -0.351 N 
ATOM      4  C   UNL A   1      34.308  24.443  25.024  1.00  0.00     0.263 C 
ATOM      5  O   UNL A   1      34.467  25.304  25.897  1.00  0.00    -0.268 OA
ATOM      6  H   UNL A   1      36.166  23.833  25.459  1.00  0.00     0.163 HD
BRANCH   4   7
ATOM      7  C   UNL A   1      33.090  24.383  24.190  1.00  0.00     0.115 A 
ATOM      8  C   UNL A   1      32.600  25.063  23.075  1.00  0.00     0.065 A 
ATOM      9  C   UNL A   1      31.264  24.690  22.724  1.00  0.00     0.038 A 
ATOM     10  C   UNL A   1      30.758  23.722  23.551  1.00  0.00     0.068 A 
ATOM     11  S   UNL A   1      31.883  23.250  24.737  1.00  0.00    -0.137 S 
BRANCH   8  12
ATOM     12  N   UNL A   1      33.325  25.980  22.352  1.00  0.00    -0.319 N 
ATOM     13  C   UNL A   1      33.273  27.359  22.369  1.00  0.00     0.276 C 
ATOM     14  O   UNL A   1      34.138  27.940  21.702  1.00  0.00    -0.267 OA
ATOM     15  H   UNL A   1      33.981  25.595  21.727  1.00  0.00     0.170 HD
BRANCH  13  16
ATOM     16  C   UNL A   1      32.328  28.197  23.186  1.00  0.00     0.151 A 
ATOM     17  C   UNL A   1      30.378  29.422  22.982  1.00  0.00     0.188 A 
ATOM     18  N   UNL A   1      30.417  29.832  24.254  1.00  0.00    -0.230 NA
ATOM     19  N   UNL A   1      31.256  28.577  22.436  1.00  0.00    -0.216 NA
ATOM     20  C   UNL A   1      31.494  29.453  24.965  1.00  0.00     0.137 A 
ATOM     21  C   UNL A   1      32.533  28.697  24.461  1.00  0.00     0.090 A 
ATOM     22  Cl  UNL A   1      33.971  28.683  25.394  1.00  0.00    -0.080 Cl
BRANCH  17  23
ATOM     23  S   UNL A   1      29.251  30.251  21.903  1.00  0.00    -0.090 SA
ATOM     24  C   UNL A   1      27.719  29.689  22.694  1.00  0.00     0.094 C 
ENDBRANCH  17  23
ENDBRANCH  13  16
ENDBRANCH   8  12
ENDBRANCH   4   7
ENDBRANCH   2   3
ENDBRANCH   1   2
BRANCH   1  25
ATOM     25  C   UNL A   1      37.384  20.727  24.865  1.00  0.00     0.023 C 
BRANCH  25  26
ATOM     26  C   UNL A   1      38.607  20.917  25.755  1.00  0.00     0.116 C 
BRANCH  26  27
ATOM     27  N   UNL A   1      39.580  19.835  25.687  1.00  0.00    -0.352 N 
ATOM     28  C   UNL A   1      40.904  19.798  26.059  1.00  0.00     0.251 C 
ATOM     29  H   UNL A   1      39.233  18.993  25.312  1.00  0.00     0.163 HD
ATOM     30  O   UNL A   1      41.567  18.781  25.866  1.00  0.00    -0.269 OA
BRANCH  28  31
ATOM     31  C   UNL A   1      41.562  20.990  26.639  1.00  0.00     0.039 A 
ATOM     32  C   UNL A   1      42.128  21.931  25.772  1.00  0.00     0.014 A 
ATOM     33  C   UNL A   1      41.603  21.205  28.016  1.00  0.00     0.014 A 
ATOM     34  C   UNL A   1      42.627  23.133  26.280  1.00  0.00     0.010 A 
ATOM     35  C   UNL A   1      42.002  22.444  28.511  1.00  0.00     0.010 A 
ATOM     36  C   UNL A   1      42.509  23.427  27.647  1.00  0.00    -0.014 A 
BRANCH  36  37
ATOM     37  C   UNL A   1      42.882  24.760  28.188  1.00  0.00     0.031 A 
ATOM     38  C   UNL A   1      41.832  25.814  28.415  1.00  0.00     0.074 A 
ATOM     39  C   UNL A   1      44.181  25.058  28.388  1.00  0.00     0.049 A 
ATOM     40  N   UNL A   1      41.977  27.054  28.807  1.00  0.00    -0.248 NA
ATOM     41  C   UNL A   1      40.441  25.431  28.131  1.00  0.00     0.031 C 
ATOM     42  C   UNL A   1      45.306  24.155  28.135  1.00  0.00     0.029 A 
ATOM     43  N   UNL A   1      44.779  26.211  28.834  1.00  0.00    -0.354 N 
ATOM     44  C   UNL A   1      40.702  27.606  28.789  1.00  0.00     0.074 A 
ATOM     45  C   UNL A   1      39.807  26.582  28.296  1.00  0.00     0.031 C 
ATOM     46  C   UNL A   1      46.452  24.778  28.453  1.00  0.00     0.029 A 
ATOM     47  C   UNL A   1      46.149  26.136  28.896  1.00  0.00     0.049 A 
ATOM     48  H   UNL A   1      44.271  27.017  29.087  1.00  0.00     0.167 HD
ATOM     49  C   UNL A   1      40.308  28.845  29.171  1.00  0.00     0.037 A 
ATOM     50  C   UNL A   1      47.062  27.055  29.260  1.00  0.00     0.037 A 
ATOM     51  C   UNL A   1      41.196  29.851  29.692  1.00  0.00     0.049 A 
ATOM     52  C   UNL A   1      46.602  28.414  29.706  1.00  0.00     0.074 A 
ATOM     53  C   UNL A   1      40.880  31.102  30.193  1.00  0.00     0.029 A 
ATOM     54  N   UNL A   1      42.574  29.723  29.773  1.00  0.00    -0.354 N 
ATOM     55  N   UNL A   1      45.382  28.892  29.773  1.00  0.00    -0.248 NA
ATOM     56  C   UNL A   1      47.642  29.359  30.135  1.00  0.00     0.031 C 
ATOM     57  C   UNL A   1      42.073  31.751  30.531  1.00  0.00     0.029 A 
ATOM     58  C   UNL A   1      43.128  30.885  30.288  1.00  0.00     0.049 A 
ATOM     59  H   UNL A   1      43.084  28.925  29.504  1.00  0.00     0.167 HD
ATOM     60  C   UNL A   1      45.507  30.183  30.267  1.00  0.00     0.074 A 
ATOM     61  C   UNL A   1      46.919  30.408  30.500  1.00  0.00     0.031 C 
ATOM     62  C   UNL A   1      44.536  31.100  30.508  1.00  0.00     0.037 A 
BRANCH  49  63
ATOM     63  C   UNL A   1      38.849  29.174  29.034  1.00  0.00     0.057 A 
ATOM     64  C   UNL A   1      37.965  29.093  30.119  1.00  0.00     0.134 A 
ATOM     65  C   UNL A   1      38.322  29.585  27.803  1.00  0.00     0.134 A 
ATOM     66  F   UNL A   1      38.401  28.697  31.324  1.00  0.00    -0.206 F 
ATOM     67  C   UNL A   1      36.603  29.369  29.975  1.00  0.00     0.040 A 
ATOM     68  C   UNL A   1      36.969  29.893  27.654  1.00  0.00     0.040 A 
ATOM     69  F   UNL A   1      39.113  29.692  26.724  1.00  0.00    -0.206 F 
ATOM     70  C   UNL A   1      36.104  29.776  28.739  1.00  0.00     0.006 A 
ENDBRANCH  49  63
BRANCH  50  71
ATOM     71  C   UNL A   1      48.504  26.705  29.244  1.00  0.00     0.057 A 
ATOM     72  C   UNL A   1      49.308  27.006  28.140  1.00  0.00     0.134 A 
ATOM     73  C   UNL A   1      49.117  26.085  30.340  1.00  0.00     0.134 A 
ATOM     74  F   UNL A   1      48.773  27.583  27.054  1.00  0.00    -0.206 F 
ATOM     75  C   UNL A   1      50.669  26.696  28.120  1.00  0.00     0.040 A 
ATOM     76  C   UNL A   1      50.482  25.791  30.343  1.00  0.00     0.040 A 
ATOM     77  F   UNL A   1      48.402  25.780  31.433  1.00  0.00    -0.206 F 
ATOM     78  C   UNL A   1      51.261  26.093  29.228  1.00  0.00     0.006 A 
ENDBRANCH  50  71
BRANCH  62  79
ATOM     79  C   UNL A   1      44.966  32.423  31.069  1.00  0.00     0.057 A 
ATOM     80  C   UNL A   1      45.262  33.515  30.242  1.00  0.00     0.134 A 
ATOM     81  C   UNL A   1      45.048  32.619  32.453  1.00  0.00     0.134 A 
ATOM     82  F   UNL A   1      45.216  33.389  28.907  1.00  0.00    -0.206 F 
ATOM     83  C   UNL A   1      45.644  34.749  30.772  1.00  0.00     0.040 A 
ATOM     84  C   UNL A   1      45.404  33.855  32.995  1.00  0.00     0.040 A 
ATOM     85  F   UNL A   1      44.771  31.618  33.301  1.00  0.00    -0.206 F 
ATOM     86  C   UNL A   1      45.708  34.924  32.154  1.00  0.00     0.006 A 
ENDBRANCH  62  79
ENDBRANCH  36  37
ENDBRANCH  28  31
ENDBRANCH  26  27
ENDBRANCH  25  26
ENDBRANCH   1  25
TORSDOF 14
ENDMDL
MODEL 3
REMARK VINA RESULT:     -11.2      3.913      9.212
REMARK SMILES CSc1ncc(Cl)c(C(=O)Nc2ccsc2C(=O)NCCCCNC(=O)c2ccc(-c3c4nc(c(-c5c(F)cccc5F)c5ccc([nH]5)c(-c5c(F)cccc5F)c5nc(c(-c6c(F)cccc6F)c6ccc3[nH]6)C=C5)C=C4)cc2)n1
REMARK SMILES IDX 21 1 20 2 19 3 17 4 18 5 16 7 12 8 13 9 14 10 15 11 11 12
REMARK SMILES IDX 9 13 10 14 8 16 3 17 4 18 81 19 5 20 6 21 7 22 2 23 1 24
REMARK SMILES IDX 22 25 23 26 24 27 25 28 26 30 27 31 28 32 80 33 29 34 79 35
REMARK SMILES IDX 30 36 31 37 32 38 73 39 33 40 78 41 72 42 74 43 34 44 77 45
REMARK SMILES IDX 71 46 70 47 35 49 61 50 44 51 60 52 45 53 48 54 59 55 75 56
REMARK SMILES IDX 46 57 47 58 58 60 76 61 49 62 36 63 37 64 42 65 38 66 39 67
REMARK SMILES IDX 41 68 43 69 40 70 62 71 63 72 68 73 64 74 65 75 67 76 69 77
REMARK SMILES IDX 66 78 50 79 51 80 56 81 52 82 53 83 55 84 57 85 54 86
REMARK H PARENT 19 6 11 15 24 29 74 48 48 59
REMARK Flexibility Score: inf
ROOT
ATOM      1  C   UNL A   1      31.538  30.502  26.471  1.00  0.00     0.023 C 
ENDROOT
BRANCH   1   2
ATOM      2  C   UNL A   1      32.857  29.864  26.058  1.00  0.00     0.116 C 
BRANCH   2   3
ATOM      3  N   UNL A   1      33.108  29.681  24.652  1.00  0.00    -0.351 N 
ATOM      4  C   UNL A   1      32.433  28.948  23.688  1.00  0.00     0.263 C 
ATOM      5  O   UNL A   1      32.906  29.086  22.553  1.00  0.00    -0.268 OA
ATOM      6  H   UNL A   1      33.898  30.162  24.315  1.00  0.00     0.163 HD
BRANCH   4   7
ATOM      7  C   UNL A   1      31.300  28.041  23.963  1.00  0.00     0.115 A 
ATOM      8  C   UNL A   1      31.099  26.879  24.708  1.00  0.00     0.065 A 
ATOM      9  C   UNL A   1      29.800  26.307  24.529  1.00  0.00     0.038 A 
ATOM     10  C   UNL A   1      29.019  27.041  23.675  1.00  0.00     0.068 A 
ATOM     11  S   UNL A   1      29.833  28.420  23.099  1.00  0.00    -0.137 S 
BRANCH   8  12
ATOM     12  N   UNL A   1      32.033  26.340  25.561  1.00  0.00    -0.319 N 
ATOM     13  C   UNL A   1      32.783  25.188  25.435  1.00  0.00     0.276 C 
ATOM     14  O   UNL A   1      33.648  25.011  26.302  1.00  0.00    -0.267 OA
ATOM     15  H   UNL A   1      32.191  26.853  26.386  1.00  0.00     0.170 HD
BRANCH  13  16
ATOM     16  C   UNL A   1      32.698  24.198  24.306  1.00  0.00     0.151 A 
ATOM     17  C   UNL A   1      32.462  21.931  23.919  1.00  0.00     0.188 A 
ATOM     18  N   UNL A   1      32.582  22.071  22.595  1.00  0.00    -0.230 NA
ATOM     19  N   UNL A   1      32.453  22.946  24.786  1.00  0.00    -0.216 NA
ATOM     20  C   UNL A   1      32.838  23.315  22.153  1.00  0.00     0.137 A 
ATOM     21  C   UNL A   1      32.991  24.416  22.971  1.00  0.00     0.090 A 
ATOM     22  Cl  UNL A   1      33.712  25.794  22.247  1.00  0.00    -0.080 Cl
BRANCH  17  23
ATOM     23  S   UNL A   1      32.581  20.292  24.570  1.00  0.00    -0.090 SA
ATOM     24  C   UNL A   1      33.483  20.712  26.087  1.00  0.00     0.094 C 
ENDBRANCH  17  23
ENDBRANCH  13  16
ENDBRANCH   8  12
ENDBRANCH   4   7
ENDBRANCH   2   3
ENDBRANCH   1   2
BRANCH   1  25
ATOM     25  C   UNL A   1      31.485  32.022  26.501  1.00  0.00     0.023 C 
BRANCH  25  26
ATOM     26  C   UNL A   1      32.611  32.729  27.245  1.00  0.00     0.116 C 
BRANCH  26  27
ATOM     27  N   UNL A   1      32.308  34.096  27.645  1.00  0.00    -0.352 N 
ATOM     28  C   UNL A   1      32.956  34.936  28.524  1.00  0.00     0.251 C 
ATOM     29  H   UNL A   1      31.509  34.482  27.219  1.00  0.00     0.163 HD
ATOM     30  O   UNL A   1      32.495  36.051  28.757  1.00  0.00    -0.269 OA
BRANCH  28  31
ATOM     31  C   UNL A   1      34.173  34.492  29.239  1.00  0.00     0.039 A 
ATOM     32  C   UNL A   1      34.033  33.915  30.505  1.00  0.00     0.014 A 
ATOM     33  C   UNL A   1      35.440  34.611  28.669  1.00  0.00     0.014 A 
ATOM     34  C   UNL A   1      35.144  33.355  31.142  1.00  0.00     0.010 A 
ATOM     35  C   UNL A   1      36.525  33.964  29.254  1.00  0.00     0.010 A 
ATOM     36  C   UNL A   1      36.387  33.319  30.492  1.00  0.00    -0.014 A 
BRANCH  36  37
ATOM     37  C   UNL A   1      37.544  32.589  31.075  1.00  0.00     0.031 A 
ATOM     38  C   UNL A   1      38.181  33.061  32.352  1.00  0.00     0.074 A 
ATOM     39  C   UNL A   1      38.082  31.551  30.403  1.00  0.00     0.049 A 
ATOM     40  N   UNL A   1      39.241  32.600  32.968  1.00  0.00    -0.248 NA
ATOM     41  C   UNL A   1      37.567  34.228  33.004  1.00  0.00     0.031 C 
ATOM     42  C   UNL A   1      37.609  31.038  29.116  1.00  0.00     0.029 A 
ATOM     43  N   UNL A   1      39.158  30.751  30.702  1.00  0.00    -0.354 N 
ATOM     44  C   UNL A   1      39.435  33.435  34.062  1.00  0.00     0.074 A 
ATOM     45  C   UNL A   1      38.418  34.462  33.992  1.00  0.00     0.031 C 
ATOM     46  C   UNL A   1      38.373  29.996  28.749  1.00  0.00     0.029 A 
ATOM     47  C   UNL A   1      39.412  29.791  29.754  1.00  0.00     0.049 A 
ATOM     48  H   UNL A   1      39.696  30.856  31.521  1.00  0.00     0.167 HD
ATOM     49  C   UNL A   1      40.360  33.343  35.047  1.00  0.00     0.037 A 
ATOM     50  C   UNL A   1      40.376  28.854  29.692  1.00  0.00     0.037 A 
ATOM     51  C   UNL A   1      41.350  32.301  35.130  1.00  0.00     0.049 A 
ATOM     52  C   UNL A   1      41.376  28.750  30.808  1.00  0.00     0.074 A 
ATOM     53  C   UNL A   1      42.271  32.067  36.137  1.00  0.00     0.029 A 
ATOM     54  N   UNL A   1      41.553  31.324  34.167  1.00  0.00    -0.354 N 
ATOM     55  N   UNL A   1      41.491  29.490  31.885  1.00  0.00    -0.248 NA
ATOM     56  C   UNL A   1      42.375  27.678  30.706  1.00  0.00     0.031 C 
ATOM     57  C   UNL A   1      43.063  30.977  35.760  1.00  0.00     0.029 A 
ATOM     58  C   UNL A   1      42.604  30.502  34.542  1.00  0.00     0.049 A 
ATOM     59  H   UNL A   1      41.028  31.229  33.340  1.00  0.00     0.167 HD
ATOM     60  C   UNL A   1      42.560  28.963  32.596  1.00  0.00     0.074 A 
ATOM     61  C   UNL A   1      43.049  27.830  31.838  1.00  0.00     0.031 C 
ATOM     62  C   UNL A   1      43.087  29.381  33.774  1.00  0.00     0.037 A 
BRANCH  49  63
ATOM     63  C   UNL A   1      40.339  34.403  36.110  1.00  0.00     0.057 A 
ATOM     64  C   UNL A   1      41.129  35.557  36.024  1.00  0.00     0.134 A 
ATOM     65  C   UNL A   1      39.512  34.271  37.233  1.00  0.00     0.134 A 
ATOM     66  F   UNL A   1      41.952  35.742  34.980  1.00  0.00    -0.206 F 
ATOM     67  C   UNL A   1      41.128  36.521  37.033  1.00  0.00     0.040 A 
ATOM     68  C   UNL A   1      39.480  35.243  38.234  1.00  0.00     0.040 A 
ATOM     69  F   UNL A   1      38.724  33.195  37.377  1.00  0.00    -0.206 F 
ATOM     70  C   UNL A   1      40.297  36.367  38.141  1.00  0.00     0.006 A 
ENDBRANCH  49  63
BRANCH  50  71
ATOM     71  C   UNL A   1      40.419  27.919  28.540  1.00  0.00     0.057 A 
ATOM     72  C   UNL A   1      41.143  28.230  27.384  1.00  0.00     0.134 A 
ATOM     73  C   UNL A   1      39.760  26.684  28.576  1.00  0.00     0.134 A 
ATOM     74  F   UNL A   1      41.781  29.406  27.284  1.00  0.00    -0.206 F 
ATOM     75  C   UNL A   1      41.205  27.352  26.301  1.00  0.00     0.040 A 
ATOM     76  C   UNL A   1      39.831  25.786  27.509  1.00  0.00     0.040 A 
ATOM     77  F   UNL A   1      39.057  26.323  29.659  1.00  0.00    -0.206 F 
ATOM     78  C   UNL A   1      40.553  26.122  26.365  1.00  0.00     0.006 A 
ENDBRANCH  50  71
BRANCH  62  79
ATOM     79  C   UNL A   1      44.243  28.599  34.324  1.00  0.00     0.057 A 
ATOM     80  C   UNL A   1      45.571  28.957  34.060  1.00  0.00     0.134 A 
ATOM     81  C   UNL A   1      44.024  27.496  35.160  1.00  0.00     0.134 A 
ATOM     82  F   UNL A   1      45.848  29.995  33.256  1.00  0.00    -0.206 F 
ATOM     83  C   UNL A   1      46.641  28.234  34.591  1.00  0.00     0.040 A 
ATOM     84  C   UNL A   1      45.086  26.781  35.717  1.00  0.00     0.040 A 
ATOM     85  F   UNL A   1      42.778  27.103  35.459  1.00  0.00    -0.206 F 
ATOM     86  C   UNL A   1      46.400  27.147  35.429  1.00  0.00     0.006 A 
ENDBRANCH  62  79
ENDBRANCH  36  37
ENDBRANCH  28  31
ENDBRANCH  26  27
ENDBRANCH  25  26
ENDBRANCH   1  25
TORSDOF 14
ENDMDL
