MODEL 1
REMARK VINA RESULT:     -12.0      0.000      0.000
REMARK SMILES O=C(NCCCCNC(=O)c1cc(-c2ccsc2)nc2ccccc12)c1ccc(-c2c3nc(c(-c4c(F)cccc4F)c4ccc([nH]4)c(-c4c(F)cccc4F)c4nc(c(-c5c(F)cccc5F)c5ccc2[nH]5)C=C4)C=C3)cc1
REMARK SMILES IDX 5 1 4 2 3 3 1 4 2 5 26 7 27 8 79 9 28 10 78 11 29 12 30 13
REMARK SMILES IDX 31 14 72 15 32 16 77 17 71 18 73 19 33 20 76 21 70 22 69 23
REMARK SMILES IDX 34 25 60 26 43 27 59 28 44 29 47 30 58 31 74 32 45 33 46 34
REMARK SMILES IDX 57 36 75 37 48 38 35 39 36 40 41 41 37 42 38 43 40 44 42 45
REMARK SMILES IDX 39 46 61 47 62 48 67 49 63 50 64 51 66 52 68 53 65 54 49 55
REMARK SMILES IDX 50 56 55 57 51 58 52 59 54 60 56 61 53 62 6 63 7 64 8 65
REMARK SMILES IDX 9 66 10 68 11 69 12 70 25 71 13 72 20 73 24 74 19 75 21 76
REMARK SMILES IDX 23 77 22 78 14 79 15 80 18 81 16 82 17 83
REMARK H PARENT 3 6 73 24 47 35 8 67
REMARK Flexibility Score: inf
ROOT
ATOM      1  C   UNL A   1      37.793  20.053  24.719  1.00  0.00     0.023 C 
ENDROOT
BRANCH   1   2
ATOM      2  C   UNL A   1      38.886  20.339  25.740  1.00  0.00     0.116 C 
BRANCH   2   3
ATOM      3  N   UNL A   1      39.966  19.364  25.719  1.00  0.00    -0.352 N 
ATOM      4  O   UNL A   1      42.092  18.608  25.847  1.00  0.00    -0.269 OA
ATOM      5  C   UNL A   1      41.295  19.521  26.043  1.00  0.00     0.251 C 
ATOM      6  H   UNL A   1      39.710  18.459  25.429  1.00  0.00     0.163 HD
BRANCH   5   7
ATOM      7  C   UNL A   1      41.770  20.807  26.601  1.00  0.00     0.039 A 
ATOM      8  C   UNL A   1      41.838  20.999  27.980  1.00  0.00     0.014 A 
ATOM      9  C   UNL A   1      42.136  21.842  25.732  1.00  0.00     0.014 A 
ATOM     10  C   UNL A   1      42.084  22.269  28.485  1.00  0.00     0.010 A 
ATOM     11  C   UNL A   1      42.487  23.094  26.249  1.00  0.00     0.010 A 
ATOM     12  C   UNL A   1      42.423  23.332  27.628  1.00  0.00    -0.014 A 
BRANCH  12  13
ATOM     13  C   UNL A   1      42.750  24.651  28.231  1.00  0.00     0.031 A 
ATOM     14  C   UNL A   1      44.167  25.057  28.527  1.00  0.00     0.074 A 
ATOM     15  C   UNL A   1      41.744  25.524  28.434  1.00  0.00     0.049 A 
ATOM     16  N   UNL A   1      44.618  26.209  28.958  1.00  0.00    -0.248 NA
ATOM     17  C   UNL A   1      45.215  24.045  28.323  1.00  0.00     0.031 C 
ATOM     18  C   UNL A   1      40.324  25.235  28.212  1.00  0.00     0.029 A 
ATOM     19  N   UNL A   1      41.756  26.836  28.831  1.00  0.00    -0.354 N 
ATOM     20  C   UNL A   1      45.993  26.059  29.088  1.00  0.00     0.074 A 
ATOM     21  C   UNL A   1      46.302  24.694  28.717  1.00  0.00     0.031 C 
ATOM     22  C   UNL A   1      39.611  26.354  28.404  1.00  0.00     0.029 A 
ATOM     23  C   UNL A   1      40.513  27.421  28.819  1.00  0.00     0.049 A 
ATOM     24  H   UNL A   1      42.576  27.312  29.098  1.00  0.00     0.167 HD
ATOM     25  C   UNL A   1      46.913  26.978  29.471  1.00  0.00     0.037 A 
ATOM     26  C   UNL A   1      40.136  28.679  29.114  1.00  0.00     0.037 A 
ATOM     27  C   UNL A   1      46.605  28.340  29.828  1.00  0.00     0.049 A 
ATOM     28  C   UNL A   1      41.178  29.678  29.515  1.00  0.00     0.074 A 
ATOM     29  C   UNL A   1      47.469  29.347  30.224  1.00  0.00     0.029 A 
ATOM     30  N   UNL A   1      45.331  28.889  29.827  1.00  0.00    -0.354 N 
ATOM     31  N   UNL A   1      42.474  29.520  29.617  1.00  0.00    -0.248 NA
ATOM     32  C   UNL A   1      40.704  31.029  29.843  1.00  0.00     0.031 C 
ATOM     33  C   UNL A   1      46.716  30.496  30.491  1.00  0.00     0.029 A 
ATOM     34  C   UNL A   1      45.387  30.217  30.223  1.00  0.00     0.049 A 
ATOM     35  H   UNL A   1      44.509  28.407  29.580  1.00  0.00     0.167 HD
ATOM     36  C   UNL A   1      42.972  30.749  30.027  1.00  0.00     0.074 A 
ATOM     37  C   UNL A   1      41.842  31.651  30.114  1.00  0.00     0.031 C 
ATOM     38  C   UNL A   1      44.250  31.095  30.317  1.00  0.00     0.037 A 
BRANCH  25  39
ATOM     39  C   UNL A   1      48.349  26.545  29.531  1.00  0.00     0.057 A 
ATOM     40  C   UNL A   1      49.232  26.777  28.468  1.00  0.00     0.134 A 
ATOM     41  C   UNL A   1      48.870  25.947  30.685  1.00  0.00     0.134 A 
ATOM     42  F   UNL A   1      48.794  27.336  27.330  1.00  0.00    -0.206 F 
ATOM     43  C   UNL A   1      50.580  26.419  28.549  1.00  0.00     0.040 A 
ATOM     44  C   UNL A   1      50.220  25.604  30.784  1.00  0.00     0.040 A 
ATOM     45  F   UNL A   1      48.080  25.703  31.742  1.00  0.00    -0.206 F 
ATOM     46  C   UNL A   1      51.079  25.838  29.712  1.00  0.00     0.006 A 
ENDBRANCH  25  39
BRANCH  26  47
ATOM     47  C   UNL A   1      38.702  29.052  29.040  1.00  0.00     0.057 A 
ATOM     48  C   UNL A   1      37.876  28.995  30.167  1.00  0.00     0.134 A 
ATOM     49  C   UNL A   1      38.130  29.490  27.839  1.00  0.00     0.134 A 
ATOM     50  F   UNL A   1      38.363  28.569  31.341  1.00  0.00    -0.206 F 
ATOM     51  C   UNL A   1      36.527  29.348  30.100  1.00  0.00     0.040 A 
ATOM     52  C   UNL A   1      36.791  29.872  27.765  1.00  0.00     0.040 A 
ATOM     53  F   UNL A   1      38.874  29.576  26.726  1.00  0.00    -0.206 F 
ATOM     54  C   UNL A   1      35.983  29.795  28.897  1.00  0.00     0.006 A 
ENDBRANCH  26  47
BRANCH  38  55
ATOM     55  C   UNL A   1      44.478  32.509  30.757  1.00  0.00     0.057 A 
ATOM     56  C   UNL A   1      44.647  33.546  29.830  1.00  0.00     0.134 A 
ATOM     57  C   UNL A   1      44.530  32.839  32.116  1.00  0.00     0.134 A 
ATOM     58  F   UNL A   1      44.624  33.291  28.513  1.00  0.00    -0.206 F 
ATOM     59  C   UNL A   1      44.892  34.857  30.240  1.00  0.00     0.040 A 
ATOM     60  C   UNL A   1      44.752  34.150  32.539  1.00  0.00     0.040 A 
ATOM     61  F   UNL A   1      44.370  31.892  33.053  1.00  0.00    -0.206 F 
ATOM     62  C   UNL A   1      44.941  35.162  31.598  1.00  0.00     0.006 A 
ENDBRANCH  38  55
ENDBRANCH  12  13
ENDBRANCH   5   7
ENDBRANCH   2   3
ENDBRANCH   1   2
BRANCH   1  63
ATOM     63  C   UNL A   1      36.415  20.617  25.052  1.00  0.00     0.023 C 
BRANCH  63  64
ATOM     64  C   UNL A   1      36.409  21.905  25.868  1.00  0.00     0.116 C 
BRANCH  64  65
ATOM     65  N   UNL A   1      35.440  21.907  26.953  1.00  0.00    -0.352 N 
ATOM     66  C   UNL A   1      34.148  22.375  26.941  1.00  0.00     0.252 C 
ATOM     67  H   UNL A   1      35.750  21.523  27.805  1.00  0.00     0.163 HD
ATOM     68  O   UNL A   1      33.446  22.306  27.943  1.00  0.00    -0.269 OA
BRANCH  66  69
ATOM     69  C   UNL A   1      33.630  23.031  25.727  1.00  0.00     0.051 A 
ATOM     70  C   UNL A   1      33.781  24.413  25.673  1.00  0.00     0.043 A 
ATOM     71  C   UNL A   1      33.061  22.308  24.657  1.00  0.00     0.013 A 
ATOM     72  C   UNL A   1      33.402  25.046  24.508  1.00  0.00     0.073 A 
ATOM     73  C   UNL A   1      32.768  23.052  23.499  1.00  0.00     0.072 A 
ATOM     74  C   UNL A   1      32.788  20.917  24.673  1.00  0.00     0.011 A 
ATOM     75  N   UNL A   1      32.922  24.385  23.430  1.00  0.00    -0.248 NA
ATOM     76  C   UNL A   1      32.312  22.375  22.376  1.00  0.00     0.029 A 
ATOM     77  C   UNL A   1      32.321  20.264  23.536  1.00  0.00     0.001 A 
ATOM     78  C   UNL A   1      32.102  20.993  22.376  1.00  0.00     0.002 A 
BRANCH  72  79
ATOM     79  C   UNL A   1      33.468  26.492  24.379  1.00  0.00     0.011 A 
ATOM     80  C   UNL A   1      33.565  27.435  25.452  1.00  0.00     0.022 A 
ATOM     81  C   UNL A   1      33.426  27.129  23.153  1.00  0.00     0.075 A 
ATOM     82  C   UNL A   1      33.628  28.737  25.004  1.00  0.00     0.065 A 
ATOM     83  S   UNL A   1      33.536  28.833  23.299  1.00  0.00    -0.152 S 
ENDBRANCH  72  79
ENDBRANCH  66  69
ENDBRANCH  64  65
ENDBRANCH  63  64
ENDBRANCH   1  63
TORSDOF 12
ENDMDL
MODEL 2
REMARK VINA RESULT:     -12.0      1.172      1.856
REMARK SMILES O=C(NCCCCNC(=O)c1cc(-c2ccsc2)nc2ccccc12)c1ccc(-c2c3nc(c(-c4c(F)cccc4F)c4ccc([nH]4)c(-c4c(F)cccc4F)c4nc(c(-c5c(F)cccc5F)c5ccc2[nH]5)C=C4)C=C3)cc1
REMARK SMILES IDX 5 1 4 2 3 3 1 4 2 5 26 7 27 8 79 9 28 10 78 11 29 12 30 13
REMARK SMILES IDX 31 14 72 15 32 16 77 17 71 18 73 19 33 20 76 21 70 22 69 23
REMARK SMILES IDX 34 25 60 26 43 27 59 28 44 29 47 30 58 31 74 32 45 33 46 34
REMARK SMILES IDX 57 36 75 37 48 38 35 39 36 40 41 41 37 42 38 43 40 44 42 45
REMARK SMILES IDX 39 46 61 47 62 48 67 49 63 50 64 51 66 52 68 53 65 54 49 55
REMARK SMILES IDX 50 56 55 57 51 58 52 59 54 60 56 61 53 62 6 63 7 64 8 65
REMARK SMILES IDX 9 66 10 68 11 69 12 70 25 71 13 72 20 73 24 74 19 75 21 76
REMARK SMILES IDX 23 77 22 78 14 79 15 80 18 81 16 82 17 83
REMARK H PARENT 3 6 73 24 47 35 8 67
REMARK Flexibility Score: inf
ROOT
ATOM      1  C   UNL A   1      37.933  19.952  24.676  1.00  0.00     0.023 C 
ENDROOT
BRANCH   1   2
ATOM      2  C   UNL A   1      38.990  20.148  25.754  1.00  0.00     0.116 C 
BRANCH   2   3
ATOM      3  N   UNL A   1      40.016  19.115  25.751  1.00  0.00    -0.352 N 
ATOM      4  O   UNL A   1      42.104  18.254  25.807  1.00  0.00    -0.269 OA
ATOM      5  C   UNL A   1      41.370  19.225  25.970  1.00  0.00     0.251 C 
ATOM      6  H   UNL A   1      39.694  18.203  25.565  1.00  0.00     0.163 HD
BRANCH   5   7
ATOM      7  C   UNL A   1      41.949  20.527  26.371  1.00  0.00     0.039 A 
ATOM      8  C   UNL A   1      42.158  20.824  27.717  1.00  0.00     0.014 A 
ATOM      9  C   UNL A   1      42.269  21.471  25.389  1.00  0.00     0.014 A 
ATOM     10  C   UNL A   1      42.502  22.116  28.090  1.00  0.00     0.010 A 
ATOM     11  C   UNL A   1      42.719  22.742  25.765  1.00  0.00     0.010 A 
ATOM     12  C   UNL A   1      42.799  23.090  27.120  1.00  0.00    -0.014 A 
BRANCH  12  13
ATOM     13  C   UNL A   1      43.235  24.436  27.578  1.00  0.00     0.031 A 
ATOM     14  C   UNL A   1      44.668  24.880  27.475  1.00  0.00     0.074 A 
ATOM     15  C   UNL A   1      42.294  25.294  28.017  1.00  0.00     0.049 A 
ATOM     16  N   UNL A   1      45.183  26.056  27.739  1.00  0.00    -0.248 NA
ATOM     17  C   UNL A   1      45.653  23.884  27.029  1.00  0.00     0.031 C 
ATOM     18  C   UNL A   1      40.875  24.969  28.188  1.00  0.00     0.029 A 
ATOM     19  N   UNL A   1      42.373  26.619  28.361  1.00  0.00    -0.354 N 
ATOM     20  C   UNL A   1      46.548  25.939  27.504  1.00  0.00     0.074 A 
ATOM     21  C   UNL A   1      46.787  24.569  27.101  1.00  0.00     0.031 C 
ATOM     22  C   UNL A   1      40.207  26.079  28.531  1.00  0.00     0.029 A 
ATOM     23  C   UNL A   1      41.155  27.178  28.663  1.00  0.00     0.049 A 
ATOM     24  H   UNL A   1      43.220  27.121  28.386  1.00  0.00     0.167 HD
ATOM     25  C   UNL A   1      47.509  26.889  27.604  1.00  0.00     0.037 A 
ATOM     26  C   UNL A   1      40.833  28.436  29.013  1.00  0.00     0.037 A 
ATOM     27  C   UNL A   1      47.267  28.256  27.992  1.00  0.00     0.049 A 
ATOM     28  C   UNL A   1      41.914  29.470  29.095  1.00  0.00     0.074 A 
ATOM     29  C   UNL A   1      48.176  29.294  28.117  1.00  0.00     0.029 A 
ATOM     30  N   UNL A   1      46.023  28.778  28.314  1.00  0.00    -0.354 N 
ATOM     31  N   UNL A   1      43.196  29.343  28.854  1.00  0.00    -0.248 NA
ATOM     32  C   UNL A   1      41.506  30.821  29.500  1.00  0.00     0.031 C 
ATOM     33  C   UNL A   1      47.487  30.435  28.542  1.00  0.00     0.029 A 
ATOM     34  C   UNL A   1      46.143  30.120  28.645  1.00  0.00     0.049 A 
ATOM     35  H   UNL A   1      45.179  28.271  28.308  1.00  0.00     0.167 HD
ATOM     36  C   UNL A   1      43.749  30.594  29.082  1.00  0.00     0.074 A 
ATOM     37  C   UNL A   1      42.657  31.476  29.442  1.00  0.00     0.031 C 
ATOM     38  C   UNL A   1      45.047  30.977  29.013  1.00  0.00     0.037 A 
BRANCH  25  39
ATOM     39  C   UNL A   1      48.922  26.488  27.291  1.00  0.00     0.057 A 
ATOM     40  C   UNL A   1      49.784  26.000  28.281  1.00  0.00     0.134 A 
ATOM     41  C   UNL A   1      49.404  26.530  25.977  1.00  0.00     0.134 A 
ATOM     42  F   UNL A   1      49.387  25.944  29.562  1.00  0.00    -0.206 F 
ATOM     43  C   UNL A   1      51.080  25.578  27.976  1.00  0.00     0.040 A 
ATOM     44  C   UNL A   1      50.691  26.092  25.657  1.00  0.00     0.040 A 
ATOM     45  F   UNL A   1      48.628  26.980  24.980  1.00  0.00    -0.206 F 
ATOM     46  C   UNL A   1      51.533  25.616  26.659  1.00  0.00     0.006 A 
ENDBRANCH  25  39
BRANCH  26  47
ATOM     47  C   UNL A   1      39.421  28.777  29.312  1.00  0.00     0.057 A 
ATOM     48  C   UNL A   1      38.893  28.631  30.599  1.00  0.00     0.134 A 
ATOM     49  C   UNL A   1      38.570  29.273  28.317  1.00  0.00     0.134 A 
ATOM     50  F   UNL A   1      39.656  28.147  31.590  1.00  0.00    -0.206 F 
ATOM     51  C   UNL A   1      37.565  28.953  30.883  1.00  0.00     0.040 A 
ATOM     52  C   UNL A   1      37.249  29.625  28.593  1.00  0.00     0.040 A 
ATOM     53  F   UNL A   1      39.021  29.445  27.065  1.00  0.00    -0.206 F 
ATOM     54  C   UNL A   1      36.742  29.459  29.879  1.00  0.00     0.006 A 
ENDBRANCH  26  47
BRANCH  38  55
ATOM     55  C   UNL A   1      45.342  32.410  29.338  1.00  0.00     0.057 A 
ATOM     56  C   UNL A   1      45.664  32.814  30.640  1.00  0.00     0.134 A 
ATOM     57  C   UNL A   1      45.304  33.394  28.343  1.00  0.00     0.134 A 
ATOM     58  F   UNL A   1      45.701  31.921  31.640  1.00  0.00    -0.206 F 
ATOM     59  C   UNL A   1      45.907  34.153  30.948  1.00  0.00     0.040 A 
ATOM     60  C   UNL A   1      45.567  34.733  28.634  1.00  0.00     0.040 A 
ATOM     61  F   UNL A   1      45.007  33.070  27.075  1.00  0.00    -0.206 F 
ATOM     62  C   UNL A   1      45.862  35.117  29.942  1.00  0.00     0.006 A 
ENDBRANCH  38  55
ENDBRANCH  12  13
ENDBRANCH   5   7
ENDBRANCH   2   3
ENDBRANCH   1   2
BRANCH   1  63
ATOM     63  C   UNL A   1      36.544  20.491  25.008  1.00  0.00     0.023 C 
BRANCH  63  64
ATOM     64  C   UNL A   1      36.514  21.821  25.752  1.00  0.00     0.116 C 
BRANCH  64  65
ATOM     65  N   UNL A   1      35.560  21.857  26.849  1.00  0.00    -0.352 N 
ATOM     66  C   UNL A   1      34.261  22.305  26.834  1.00  0.00     0.252 C 
ATOM     67  H   UNL A   1      35.887  21.516  27.713  1.00  0.00     0.163 HD
ATOM     68  O   UNL A   1      33.573  22.270  27.849  1.00  0.00    -0.269 OA
BRANCH  66  69
ATOM     69  C   UNL A   1      33.716  22.898  25.601  1.00  0.00     0.051 A 
ATOM     70  C   UNL A   1      33.852  24.277  25.478  1.00  0.00     0.043 A 
ATOM     71  C   UNL A   1      33.137  22.120  24.575  1.00  0.00     0.013 A 
ATOM     72  C   UNL A   1      33.447  24.851  24.292  1.00  0.00     0.073 A 
ATOM     73  C   UNL A   1      32.817  22.806  23.389  1.00  0.00     0.072 A 
ATOM     74  C   UNL A   1      32.878  20.729  24.661  1.00  0.00     0.011 A 
ATOM     75  N   UNL A   1      32.957  24.135  23.255  1.00  0.00    -0.248 NA
ATOM     76  C   UNL A   1      32.349  22.072  22.306  1.00  0.00     0.029 A 
ATOM     77  C   UNL A   1      32.399  20.019  23.564  1.00  0.00     0.001 A 
ATOM     78  C   UNL A   1      32.153  20.690  22.375  1.00  0.00     0.002 A 
BRANCH  72  79
ATOM     79  C   UNL A   1      33.497  26.290  24.094  1.00  0.00     0.011 A 
ATOM     80  C   UNL A   1      33.613  27.283  25.118  1.00  0.00     0.022 A 
ATOM     81  C   UNL A   1      33.418  26.869  22.841  1.00  0.00     0.075 A 
ATOM     82  C   UNL A   1      33.653  28.562  24.609  1.00  0.00     0.065 A 
ATOM     83  S   UNL A   1      33.516  28.578  22.905  1.00  0.00    -0.152 S 
ENDBRANCH  72  79
ENDBRANCH  66  69
ENDBRANCH  64  65
ENDBRANCH  63  64
ENDBRANCH   1  63
TORSDOF 12
ENDMDL
MODEL 3
REMARK VINA RESULT:     -11.9      4.646      9.435
REMARK SMILES O=C(NCCCCNC(=O)c1cc(-c2ccsc2)nc2ccccc12)c1ccc(-c2c3nc(c(-c4c(F)cccc4F)c4ccc([nH]4)c(-c4c(F)cccc4F)c4nc(c(-c5c(F)cccc5F)c5ccc2[nH]5)C=C4)C=C3)cc1
REMARK SMILES IDX 5 1 4 2 3 3 1 4 2 5 26 7 27 8 79 9 28 10 78 11 29 12 30 13
REMARK SMILES IDX 31 14 72 15 32 16 77 17 71 18 73 19 33 20 76 21 70 22 69 23
REMARK SMILES IDX 34 25 60 26 43 27 59 28 44 29 47 30 58 31 74 32 45 33 46 34
REMARK SMILES IDX 57 36 75 37 48 38 35 39 36 40 41 41 37 42 38 43 40 44 42 45
REMARK SMILES IDX 39 46 61 47 62 48 67 49 63 50 64 51 66 52 68 53 65 54 49 55
REMARK SMILES IDX 50 56 55 57 51 58 52 59 54 60 56 61 53 62 6 63 7 64 8 65
REMARK SMILES IDX 9 66 10 68 11 69 12 70 25 71 13 72 20 73 24 74 19 75 21 76
REMARK SMILES IDX 23 77 22 78 14 79 15 80 18 81 16 82 17 83
REMARK H PARENT 3 6 73 24 47 35 8 67
REMARK Flexibility Score: inf
ROOT
ATOM      1  C   UNL A   1      31.403  31.920  26.498  1.00  0.00     0.023 C 
ENDROOT
BRANCH   1   2
ATOM      2  C   UNL A   1      32.548  32.577  27.256  1.00  0.00     0.116 C 
BRANCH   2   3
ATOM      3  N   UNL A   1      32.288  33.966  27.604  1.00  0.00    -0.352 N 
ATOM      4  O   UNL A   1      32.505  35.901  28.751  1.00  0.00    -0.269 OA
ATOM      5  C   UNL A   1      32.944  34.783  28.497  1.00  0.00     0.251 C 
ATOM      6  H   UNL A   1      31.531  34.383  27.132  1.00  0.00     0.163 HD
BRANCH   5   7
ATOM      7  C   UNL A   1      34.166  34.299  29.178  1.00  0.00     0.039 A 
ATOM      8  C   UNL A   1      35.426  34.559  28.641  1.00  0.00     0.014 A 
ATOM      9  C   UNL A   1      34.048  33.560  30.360  1.00  0.00     0.014 A 
ATOM     10  C   UNL A   1      36.542  33.927  29.172  1.00  0.00     0.010 A 
ATOM     11  C   UNL A   1      35.190  33.011  30.955  1.00  0.00     0.010 A 
ATOM     12  C   UNL A   1      36.443  33.153  30.343  1.00  0.00    -0.014 A 
BRANCH  12  13
ATOM     13  C   UNL A   1      37.684  32.562  30.908  1.00  0.00     0.031 A 
ATOM     14  C   UNL A   1      38.266  33.039  32.211  1.00  0.00     0.074 A 
ATOM     15  C   UNL A   1      38.242  31.518  30.265  1.00  0.00     0.049 A 
ATOM     16  N   UNL A   1      39.283  32.556  32.880  1.00  0.00    -0.248 NA
ATOM     17  C   UNL A   1      37.636  34.208  32.842  1.00  0.00     0.031 C 
ATOM     18  C   UNL A   1      37.785  30.983  28.979  1.00  0.00     0.029 A 
ATOM     19  N   UNL A   1      39.281  30.696  30.614  1.00  0.00    -0.354 N 
ATOM     20  C   UNL A   1      39.424  33.366  34.001  1.00  0.00     0.074 A 
ATOM     21  C   UNL A   1      38.404  34.389  33.909  1.00  0.00     0.031 C 
ATOM     22  C   UNL A   1      38.489  29.882  28.684  1.00  0.00     0.029 A 
ATOM     23  C   UNL A   1      39.485  29.666  29.727  1.00  0.00     0.049 A 
ATOM     24  H   UNL A   1      39.827  30.829  31.423  1.00  0.00     0.167 HD
ATOM     25  C   UNL A   1      40.314  33.258  35.017  1.00  0.00     0.037 A 
ATOM     26  C   UNL A   1      40.377  28.659  29.745  1.00  0.00     0.037 A 
ATOM     27  C   UNL A   1      41.320  32.230  35.114  1.00  0.00     0.049 A 
ATOM     28  C   UNL A   1      41.335  28.554  30.892  1.00  0.00     0.074 A 
ATOM     29  C   UNL A   1      42.264  32.035  36.109  1.00  0.00     0.029 A 
ATOM     30  N   UNL A   1      41.510  31.220  34.183  1.00  0.00    -0.354 N 
ATOM     31  N   UNL A   1      41.442  29.321  31.949  1.00  0.00    -0.248 NA
ATOM     32  C   UNL A   1      42.298  27.446  30.848  1.00  0.00     0.031 C 
ATOM     33  C   UNL A   1      43.044  30.925  35.766  1.00  0.00     0.029 A 
ATOM     34  C   UNL A   1      42.561  30.405  34.577  1.00  0.00     0.049 A 
ATOM     35  H   UNL A   1      40.978  31.099  33.365  1.00  0.00     0.167 HD
ATOM     36  C   UNL A   1      42.486  28.793  32.694  1.00  0.00     0.074 A 
ATOM     37  C   UNL A   1      42.953  27.617  31.988  1.00  0.00     0.031 C 
ATOM     38  C   UNL A   1      43.020  29.247  33.854  1.00  0.00     0.037 A 
BRANCH  25  39
ATOM     39  C   UNL A   1      40.247  34.281  36.115  1.00  0.00     0.057 A 
ATOM     40  C   UNL A   1      40.966  35.481  36.046  1.00  0.00     0.134 A 
ATOM     41  C   UNL A   1      39.408  34.093  37.219  1.00  0.00     0.134 A 
ATOM     42  F   UNL A   1      41.797  35.718  35.019  1.00  0.00    -0.206 F 
ATOM     43  C   UNL A   1      40.860  36.453  37.043  1.00  0.00     0.040 A 
ATOM     44  C   UNL A   1      39.278  35.066  38.212  1.00  0.00     0.040 A 
ATOM     45  F   UNL A   1      38.686  32.969  37.343  1.00  0.00    -0.206 F 
ATOM     46  C   UNL A   1      40.008  36.250  38.126  1.00  0.00     0.006 A 
ENDBRANCH  25  39
BRANCH  26  47
ATOM     47  C   UNL A   1      40.399  27.677  28.634  1.00  0.00     0.057 A 
ATOM     48  C   UNL A   1      39.651  26.496  28.691  1.00  0.00     0.134 A 
ATOM     49  C   UNL A   1      41.158  27.908  27.480  1.00  0.00     0.134 A 
ATOM     50  F   UNL A   1      38.917  26.214  29.776  1.00  0.00    -0.206 F 
ATOM     51  C   UNL A   1      39.669  25.572  27.645  1.00  0.00     0.040 A 
ATOM     52  C   UNL A   1      41.163  27.005  26.416  1.00  0.00     0.040 A 
ATOM     53  F   UNL A   1      41.887  29.027  27.362  1.00  0.00    -0.206 F 
ATOM     54  C   UNL A   1      40.421  25.830  26.501  1.00  0.00     0.006 A 
ENDBRANCH  26  47
BRANCH  38  55
ATOM     55  C   UNL A   1      44.167  28.465  34.417  1.00  0.00     0.057 A 
ATOM     56  C   UNL A   1      45.494  28.780  34.097  1.00  0.00     0.134 A 
ATOM     57  C   UNL A   1      43.945  27.389  35.284  1.00  0.00     0.134 A 
ATOM     58  F   UNL A   1      45.771  29.790  33.259  1.00  0.00    -0.206 F 
ATOM     59  C   UNL A   1      46.561  28.031  34.596  1.00  0.00     0.040 A 
ATOM     60  C   UNL A   1      45.005  26.646  35.807  1.00  0.00     0.040 A 
ATOM     61  F   UNL A   1      42.698  27.041  35.633  1.00  0.00    -0.206 F 
ATOM     62  C   UNL A   1      46.317  26.962  35.456  1.00  0.00     0.006 A 
ENDBRANCH  38  55
ENDBRANCH  12  13
ENDBRANCH   5   7
ENDBRANCH   2   3
ENDBRANCH   1   2
BRANCH   1  63
ATOM     63  C   UNL A   1      31.497  30.404  26.344  1.00  0.00     0.023 C 
BRANCH  63  64
ATOM     64  C   UNL A   1      32.907  29.825  26.380  1.00  0.00     0.116 C 
BRANCH  64  65
ATOM     65  N   UNL A   1      33.552  29.771  25.077  1.00  0.00    -0.352 N 
ATOM     66  C   UNL A   1      33.429  28.807  24.105  1.00  0.00     0.252 C 
ATOM     67  H   UNL A   1      34.153  30.521  24.864  1.00  0.00     0.163 HD
ATOM     68  O   UNL A   1      34.041  28.901  23.047  1.00  0.00    -0.269 OA
BRANCH  66  69
ATOM     69  C   UNL A   1      32.606  27.613  24.372  1.00  0.00     0.051 A 
ATOM     70  C   UNL A   1      33.240  26.579  25.054  1.00  0.00     0.043 A 
ATOM     71  C   UNL A   1      31.244  27.533  24.010  1.00  0.00     0.013 A 
ATOM     72  C   UNL A   1      32.472  25.492  25.411  1.00  0.00     0.073 A 
ATOM     73  C   UNL A   1      30.548  26.404  24.480  1.00  0.00     0.072 A 
ATOM     74  C   UNL A   1      30.553  28.499  23.236  1.00  0.00     0.011 A 
ATOM     75  N   UNL A   1      31.147  25.406  25.151  1.00  0.00    -0.248 NA
ATOM     76  C   UNL A   1      29.181  26.328  24.251  1.00  0.00     0.029 A 
ATOM     77  C   UNL A   1      29.184  28.393  23.013  1.00  0.00     0.001 A 
ATOM     78  C   UNL A   1      28.491  27.313  23.540  1.00  0.00     0.002 A 
BRANCH  72  79
ATOM     79  C   UNL A   1      33.057  24.339  26.073  1.00  0.00     0.011 A 
ATOM     80  C   UNL A   1      34.421  23.914  25.987  1.00  0.00     0.022 A 
ATOM     81  C   UNL A   1      32.318  23.490  26.876  1.00  0.00     0.075 A 
ATOM     82  C   UNL A   1      34.673  22.792  26.746  1.00  0.00     0.065 A 
ATOM     83  S   UNL A   1      33.266  22.226  27.537  1.00  0.00    -0.152 S 
ENDBRANCH  72  79
ENDBRANCH  66  69
ENDBRANCH  64  65
ENDBRANCH  63  64
ENDBRANCH   1  63
TORSDOF 12
ENDMDL
