MODEL 1
REMARK VINA RESULT:     -12.6      0.000      0.000
REMARK SMILES Cc1cc2c(=O)c3ccccc3oc2c(C(=O)NCCCCNC(=O)c2ccc(-c3c4nc(c(-c5c(F)cccc5F)c5ccc([nH]5)c(-c5c(F)cccc5F)c5nc(c(-c6c(F)cccc6F)c6ccc3[nH]6)C=C5)C=C4)cc2)c1C
REMARK SMILES IDX 21 1 20 2 19 3 18 4 16 5 17 6 15 8 1 9 2 10 3 11 80 12 4 13
REMARK SMILES IDX 81 14 5 15 14 16 6 17 7 18 13 19 8 20 12 21 9 22 11 23 10 24
REMARK SMILES IDX 22 25 23 26 24 27 25 29 26 30 27 31 79 32 28 33 78 34 29 35
REMARK SMILES IDX 30 36 31 37 72 38 32 39 77 40 71 41 73 42 33 43 76 44 70 45
REMARK SMILES IDX 69 46 34 48 60 49 43 50 59 51 44 52 47 53 58 54 74 55 45 56
REMARK SMILES IDX 46 57 57 59 75 60 48 61 35 62 36 63 41 64 37 65 38 66 40 67
REMARK SMILES IDX 42 68 39 69 61 70 62 71 67 72 63 73 64 74 66 75 68 76 65 77
REMARK SMILES IDX 49 78 50 79 55 80 51 81 52 82 54 83 56 84 53 85
REMARK H PARENT 18 7 23 28 73 47 47 58
REMARK Flexibility Score: inf
ROOT
ATOM      1  C   UNL A   1      37.646  21.706  24.900  1.00  0.00     0.023 C 
ENDROOT
BRANCH   1   2
ATOM      2  C   UNL A   1      37.160  23.148  24.802  1.00  0.00     0.023 C 
BRANCH   2   3
ATOM      3  C   UNL A   1      36.801  23.832  26.132  1.00  0.00     0.116 C 
BRANCH   3   4
ATOM      4  N   UNL A   1      35.766  23.077  26.812  1.00  0.00    -0.352 N 
ATOM      5  C   UNL A   1      34.457  22.719  26.631  1.00  0.00     0.255 C 
ATOM      6  O   UNL A   1      33.954  22.292  27.680  1.00  0.00    -0.269 OA
ATOM      7  H   UNL A   1      36.108  22.714  27.661  1.00  0.00     0.163 HD
BRANCH   5   8
ATOM      8  C   UNL A   1      33.578  22.761  25.391  1.00  0.00     0.086 A 
ATOM      9  C   UNL A   1      32.059  20.839  22.366  1.00  0.00     0.044 C 
ATOM     10  C   UNL A   1      32.547  21.929  23.294  1.00  0.00    -0.046 A 
ATOM     11  C   UNL A   1      32.319  23.240  22.881  1.00  0.00     0.019 A 
ATOM     12  C   UNL A   1      33.203  21.675  24.539  1.00  0.00    -0.032 A 
ATOM     13  C   UNL A   1      32.682  24.302  23.695  1.00  0.00     0.066 A 
ATOM     14  C   UNL A   1      33.487  20.245  24.868  1.00  0.00     0.045 C 
ATOM     15  C   UNL A   1      32.492  25.673  23.194  1.00  0.00     0.200 A 
ATOM     16  C   UNL A   1      33.258  24.084  24.948  1.00  0.00     0.151 A 
ATOM     17  O   UNL A   1      32.012  25.894  22.089  1.00  0.00    -0.288 OA
ATOM     18  C   UNL A   1      32.929  26.762  24.066  1.00  0.00     0.065 A 
ATOM     19  O   UNL A   1      33.507  25.150  25.798  1.00  0.00    -0.455 OA
ATOM     20  C   UNL A   1      32.864  28.093  23.640  1.00  0.00     0.016 A 
ATOM     21  C   UNL A   1      33.408  26.435  25.327  1.00  0.00     0.138 A 
ATOM     22  C   UNL A   1      33.277  29.108  24.500  1.00  0.00     0.001 A 
ATOM     23  C   UNL A   1      33.815  27.455  26.187  1.00  0.00     0.048 A 
ATOM     24  C   UNL A   1      33.748  28.789  25.775  1.00  0.00     0.004 A 
ENDBRANCH   5   8
ENDBRANCH   3   4
ENDBRANCH   2   3
ENDBRANCH   1   2
BRANCH   1  25
ATOM     25  C   UNL A   1      38.857  21.515  25.795  1.00  0.00     0.116 C 
BRANCH  25  26
ATOM     26  N   UNL A   1      39.522  20.225  25.645  1.00  0.00    -0.352 N 
ATOM     27  C   UNL A   1      40.818  19.908  26.000  1.00  0.00     0.251 C 
ATOM     28  H   UNL A   1      38.987  19.502  25.246  1.00  0.00     0.163 HD
ATOM     29  O   UNL A   1      41.287  18.800  25.794  1.00  0.00    -0.269 OA
BRANCH  27  30
ATOM     30  C   UNL A   1      41.644  20.988  26.574  1.00  0.00     0.039 A 
ATOM     31  C   UNL A   1      41.731  21.120  27.960  1.00  0.00     0.014 A 
ATOM     32  C   UNL A   1      42.140  21.978  25.724  1.00  0.00     0.014 A 
ATOM     33  C   UNL A   1      42.115  22.340  28.497  1.00  0.00     0.010 A 
ATOM     34  C   UNL A   1      42.609  23.172  26.273  1.00  0.00     0.010 A 
ATOM     35  C   UNL A   1      42.525  23.391  27.657  1.00  0.00    -0.014 A 
BRANCH  35  36
ATOM     36  C   UNL A   1      42.787  24.729  28.245  1.00  0.00     0.031 A 
ATOM     37  C   UNL A   1      44.195  25.163  28.568  1.00  0.00     0.074 A 
ATOM     38  C   UNL A   1      41.765  25.589  28.406  1.00  0.00     0.049 A 
ATOM     39  N   UNL A   1      44.612  26.292  29.085  1.00  0.00    -0.248 NA
ATOM     40  C   UNL A   1      45.274  24.206  28.276  1.00  0.00     0.031 C 
ATOM     41  C   UNL A   1      40.364  25.300  28.095  1.00  0.00     0.029 A 
ATOM     42  N   UNL A   1      41.751  26.889  28.836  1.00  0.00    -0.354 N 
ATOM     43  C   UNL A   1      45.991  26.168  29.211  1.00  0.00     0.074 A 
ATOM     44  C   UNL A   1      46.341  24.851  28.730  1.00  0.00     0.031 C 
ATOM     45  C   UNL A   1      39.636  26.410  28.285  1.00  0.00     0.029 A 
ATOM     46  C   UNL A   1      40.507  27.465  28.790  1.00  0.00     0.049 A 
ATOM     47  H   UNL A   1      42.557  27.364  29.146  1.00  0.00     0.167 HD
ATOM     48  C   UNL A   1      46.882  27.073  29.681  1.00  0.00     0.037 A 
ATOM     49  C   UNL A   1      40.108  28.703  29.132  1.00  0.00     0.037 A 
ATOM     50  C   UNL A   1      46.541  28.400  30.123  1.00  0.00     0.049 A 
ATOM     51  C   UNL A   1      41.111  29.674  29.677  1.00  0.00     0.074 A 
ATOM     52  C   UNL A   1      47.377  29.395  30.601  1.00  0.00     0.029 A 
ATOM     53  N   UNL A   1      45.257  28.921  30.129  1.00  0.00    -0.354 N 
ATOM     54  N   UNL A   1      42.405  29.528  29.826  1.00  0.00    -0.248 NA
ATOM     55  C   UNL A   1      40.593  30.974  30.123  1.00  0.00     0.031 C 
ATOM     56  C   UNL A   1      46.594  30.511  30.920  1.00  0.00     0.029 A 
ATOM     57  C   UNL A   1      45.275  30.218  30.614  1.00  0.00     0.049 A 
ATOM     58  H   UNL A   1      44.450  28.440  29.832  1.00  0.00     0.167 HD
ATOM     59  C   UNL A   1      42.857  30.716  30.383  1.00  0.00     0.074 A 
ATOM     60  C   UNL A   1      41.702  31.580  30.522  1.00  0.00     0.031 C 
ATOM     61  C   UNL A   1      44.113  31.057  30.756  1.00  0.00     0.037 A 
BRANCH  48  62
ATOM     62  C   UNL A   1      48.320  26.649  29.759  1.00  0.00     0.057 A 
ATOM     63  C   UNL A   1      49.207  26.948  28.717  1.00  0.00     0.134 A 
ATOM     64  C   UNL A   1      48.819  25.919  30.845  1.00  0.00     0.134 A 
ATOM     65  F   UNL A   1      48.792  27.641  27.646  1.00  0.00    -0.206 F 
ATOM     66  C   UNL A   1      50.539  26.534  28.751  1.00  0.00     0.040 A 
ATOM     67  C   UNL A   1      50.154  25.516  30.899  1.00  0.00     0.040 A 
ATOM     68  F   UNL A   1      48.024  25.615  31.881  1.00  0.00    -0.206 F 
ATOM     69  C   UNL A   1      51.018  25.818  29.847  1.00  0.00     0.006 A 
ENDBRANCH  48  62
BRANCH  49  70
ATOM     70  C   UNL A   1      38.685  29.083  28.978  1.00  0.00     0.057 A 
ATOM     71  C   UNL A   1      38.180  29.538  27.755  1.00  0.00     0.134 A 
ATOM     72  C   UNL A   1      37.802  29.017  30.061  1.00  0.00     0.134 A 
ATOM     73  F   UNL A   1      38.982  29.626  26.683  1.00  0.00    -0.206 F 
ATOM     74  C   UNL A   1      36.849  29.930  27.616  1.00  0.00     0.040 A 
ATOM     75  C   UNL A   1      36.463  29.385  29.932  1.00  0.00     0.040 A 
ATOM     76  F   UNL A   1      38.228  28.573  31.252  1.00  0.00    -0.206 F 
ATOM     77  C   UNL A   1      35.985  29.850  28.707  1.00  0.00     0.006 A 
ENDBRANCH  49  70
BRANCH  61  78
ATOM     78  C   UNL A   1      44.292  32.422  31.344  1.00  0.00     0.057 A 
ATOM     79  C   UNL A   1      44.549  33.527  30.525  1.00  0.00     0.134 A 
ATOM     80  C   UNL A   1      44.209  32.637  32.725  1.00  0.00     0.134 A 
ATOM     81  F   UNL A   1      44.642  33.383  29.195  1.00  0.00    -0.206 F 
ATOM     82  C   UNL A   1      44.714  34.805  31.062  1.00  0.00     0.040 A 
ATOM     83  C   UNL A   1      44.354  33.912  33.271  1.00  0.00     0.040 A 
ATOM     84  F   UNL A   1      43.947  31.618  33.557  1.00  0.00    -0.206 F 
ATOM     85  C   UNL A   1      44.610  35.001  32.438  1.00  0.00     0.006 A 
ENDBRANCH  61  78
ENDBRANCH  35  36
ENDBRANCH  27  30
ENDBRANCH  25  26
ENDBRANCH   1  25
TORSDOF 11
ENDMDL
MODEL 2
REMARK VINA RESULT:     -12.5      0.280      6.096
REMARK SMILES Cc1cc2c(=O)c3ccccc3oc2c(C(=O)NCCCCNC(=O)c2ccc(-c3c4nc(c(-c5c(F)cccc5F)c5ccc([nH]5)c(-c5c(F)cccc5F)c5nc(c(-c6c(F)cccc6F)c6ccc3[nH]6)C=C5)C=C4)cc2)c1C
REMARK SMILES IDX 21 1 20 2 19 3 18 4 16 5 17 6 15 8 1 9 2 10 3 11 80 12 4 13
REMARK SMILES IDX 81 14 5 15 14 16 6 17 7 18 13 19 8 20 12 21 9 22 11 23 10 24
REMARK SMILES IDX 22 25 23 26 24 27 25 29 26 30 27 31 79 32 28 33 78 34 29 35
REMARK SMILES IDX 30 36 31 37 72 38 32 39 77 40 71 41 73 42 33 43 76 44 70 45
REMARK SMILES IDX 69 46 34 48 60 49 43 50 59 51 44 52 47 53 58 54 74 55 45 56
REMARK SMILES IDX 46 57 57 59 75 60 48 61 35 62 36 63 41 64 37 65 38 66 40 67
REMARK SMILES IDX 42 68 39 69 61 70 62 71 67 72 63 73 64 74 66 75 68 76 65 77
REMARK SMILES IDX 49 78 50 79 55 80 51 81 52 82 54 83 56 84 53 85
REMARK H PARENT 18 7 23 28 73 47 47 58
REMARK Flexibility Score: inf
ROOT
ATOM      1  C   UNL A   1      37.621  21.853  24.928  1.00  0.00     0.023 C 
ENDROOT
BRANCH   1   2
ATOM      2  C   UNL A   1      37.129  23.294  24.856  1.00  0.00     0.023 C 
BRANCH   2   3
ATOM      3  C   UNL A   1      36.694  23.926  26.190  1.00  0.00     0.116 C 
BRANCH   3   4
ATOM      4  N   UNL A   1      35.670  23.110  26.813  1.00  0.00    -0.352 N 
ATOM      5  C   UNL A   1      34.376  22.722  26.588  1.00  0.00     0.255 C 
ATOM      6  O   UNL A   1      33.867  22.232  27.606  1.00  0.00    -0.269 OA
ATOM      7  H   UNL A   1      36.006  22.718  27.651  1.00  0.00     0.163 HD
BRANCH   5   8
ATOM      8  C   UNL A   1      33.521  22.794  25.334  1.00  0.00     0.086 A 
ATOM      9  C   UNL A   1      32.038  20.942  22.248  1.00  0.00     0.044 C 
ATOM     10  C   UNL A   1      32.521  22.010  23.204  1.00  0.00    -0.046 A 
ATOM     11  C   UNL A   1      32.313  23.330  22.810  1.00  0.00     0.019 A 
ATOM     12  C   UNL A   1      33.150  21.727  24.455  1.00  0.00    -0.032 A 
ATOM     13  C   UNL A   1      32.672  24.374  23.648  1.00  0.00     0.066 A 
ATOM     14  C   UNL A   1      33.414  20.289  24.764  1.00  0.00     0.045 C 
ATOM     15  C   UNL A   1      32.504  25.756  23.169  1.00  0.00     0.200 A 
ATOM     16  C   UNL A   1      33.223  24.129  24.908  1.00  0.00     0.151 A 
ATOM     17  O   UNL A   1      32.047  26.001  22.059  1.00  0.00    -0.288 OA
ATOM     18  C   UNL A   1      32.937  26.824  24.067  1.00  0.00     0.065 A 
ATOM     19  O   UNL A   1      33.466  25.177  25.781  1.00  0.00    -0.455 OA
ATOM     20  C   UNL A   1      32.893  28.163  23.664  1.00  0.00     0.016 A 
ATOM     21  C   UNL A   1      33.389  26.470  25.331  1.00  0.00     0.138 A 
ATOM     22  C   UNL A   1      33.300  29.159  24.549  1.00  0.00     0.001 A 
ATOM     23  C   UNL A   1      33.790  27.471  26.216  1.00  0.00     0.048 A 
ATOM     24  C   UNL A   1      33.745  28.813  25.826  1.00  0.00     0.004 A 
ENDBRANCH   5   8
ENDBRANCH   3   4
ENDBRANCH   2   3
ENDBRANCH   1   2
BRANCH   1  25
ATOM     25  C   UNL A   1      38.853  21.656  25.794  1.00  0.00     0.116 C 
BRANCH  25  26
ATOM     26  N   UNL A   1      39.464  20.336  25.685  1.00  0.00    -0.352 N 
ATOM     27  C   UNL A   1      40.752  19.981  26.036  1.00  0.00     0.251 C 
ATOM     28  H   UNL A   1      38.897  19.620  25.319  1.00  0.00     0.163 HD
ATOM     29  O   UNL A   1      41.174  18.848  25.867  1.00  0.00    -0.269 OA
BRANCH  27  30
ATOM     30  C   UNL A   1      41.627  21.048  26.560  1.00  0.00     0.039 A 
ATOM     31  C   UNL A   1      41.693  21.264  27.937  1.00  0.00     0.014 A 
ATOM     32  C   UNL A   1      42.196  21.951  25.661  1.00  0.00     0.014 A 
ATOM     33  C   UNL A   1      42.136  22.493  28.404  1.00  0.00     0.010 A 
ATOM     34  C   UNL A   1      42.723  23.150  26.144  1.00  0.00     0.010 A 
ATOM     35  C   UNL A   1      42.623  23.462  27.509  1.00  0.00    -0.014 A 
BRANCH  35  36
ATOM     36  C   UNL A   1      42.951  24.818  28.017  1.00  0.00     0.031 A 
ATOM     37  C   UNL A   1      41.859  25.825  28.277  1.00  0.00     0.074 A 
ATOM     38  C   UNL A   1      44.225  25.113  28.331  1.00  0.00     0.049 A 
ATOM     39  N   UNL A   1      41.958  27.054  28.719  1.00  0.00    -0.248 NA
ATOM     40  C   UNL A   1      40.477  25.401  28.002  1.00  0.00     0.031 C 
ATOM     41  C   UNL A   1      45.366  24.210  28.161  1.00  0.00     0.029 A 
ATOM     42  N   UNL A   1      44.770  26.239  28.889  1.00  0.00    -0.354 N 
ATOM     43  C   UNL A   1      40.663  27.558  28.743  1.00  0.00     0.074 A 
ATOM     44  C   UNL A   1      39.794  26.509  28.258  1.00  0.00     0.031 C 
ATOM     45  C   UNL A   1      46.463  24.793  28.664  1.00  0.00     0.029 A 
ATOM     46  C   UNL A   1      46.117  26.131  29.130  1.00  0.00     0.049 A 
ATOM     47  H   UNL A   1      44.246  27.046  29.099  1.00  0.00     0.167 HD
ATOM     48  C   UNL A   1      40.238  28.782  29.137  1.00  0.00     0.037 A 
ATOM     49  C   UNL A   1      46.981  27.017  29.655  1.00  0.00     0.037 A 
ATOM     50  C   UNL A   1      41.095  29.815  29.657  1.00  0.00     0.049 A 
ATOM     51  C   UNL A   1      46.488  28.375  30.055  1.00  0.00     0.074 A 
ATOM     52  C   UNL A   1      40.755  31.083  30.098  1.00  0.00     0.029 A 
ATOM     53  N   UNL A   1      42.467  29.691  29.818  1.00  0.00    -0.354 N 
ATOM     54  N   UNL A   1      45.266  28.849  30.035  1.00  0.00    -0.248 NA
ATOM     55  C   UNL A   1      47.500  29.328  30.529  1.00  0.00     0.031 C 
ATOM     56  C   UNL A   1      41.926  31.736  30.502  1.00  0.00     0.029 A 
ATOM     57  C   UNL A   1      42.990  30.864  30.339  1.00  0.00     0.049 A 
ATOM     58  H   UNL A   1      42.992  28.889  29.594  1.00  0.00     0.167 HD
ATOM     59  C   UNL A   1      45.361  30.156  30.492  1.00  0.00     0.074 A 
ATOM     60  C   UNL A   1      46.756  30.390  30.806  1.00  0.00     0.031 C 
ATOM     61  C   UNL A   1      44.382  31.081  30.631  1.00  0.00     0.037 A 
BRANCH  48  62
ATOM     62  C   UNL A   1      38.773  29.081  29.003  1.00  0.00     0.057 A 
ATOM     63  C   UNL A   1      38.245  29.511  27.778  1.00  0.00     0.134 A 
ATOM     64  C   UNL A   1      37.893  28.976  30.087  1.00  0.00     0.134 A 
ATOM     65  F   UNL A   1      39.035  29.636  26.702  1.00  0.00    -0.206 F 
ATOM     66  C   UNL A   1      36.893  29.829  27.638  1.00  0.00     0.040 A 
ATOM     67  C   UNL A   1      36.536  29.273  29.954  1.00  0.00     0.040 A 
ATOM     68  F   UNL A   1      38.334  28.555  31.281  1.00  0.00    -0.206 F 
ATOM     69  C   UNL A   1      36.033  29.707  28.728  1.00  0.00     0.006 A 
ENDBRANCH  48  62
BRANCH  49  70
ATOM     70  C   UNL A   1      48.405  26.645  29.817  1.00  0.00     0.057 A 
ATOM     71  C   UNL A   1      49.354  26.951  28.835  1.00  0.00     0.134 A 
ATOM     72  C   UNL A   1      48.844  25.958  30.953  1.00  0.00     0.134 A 
ATOM     73  F   UNL A   1      48.990  27.605  27.723  1.00  0.00    -0.206 F 
ATOM     74  C   UNL A   1      50.689  26.572  28.970  1.00  0.00     0.040 A 
ATOM     75  C   UNL A   1      50.180  25.591  31.111  1.00  0.00     0.040 A 
ATOM     76  F   UNL A   1      47.981  25.654  31.933  1.00  0.00    -0.206 F 
ATOM     77  C   UNL A   1      51.106  25.892  30.113  1.00  0.00     0.006 A 
ENDBRANCH  49  70
BRANCH  61  78
ATOM     78  C   UNL A   1      44.797  32.424  31.146  1.00  0.00     0.057 A 
ATOM     79  C   UNL A   1      45.161  33.449  30.264  1.00  0.00     0.134 A 
ATOM     80  C   UNL A   1      44.834  32.699  32.518  1.00  0.00     0.134 A 
ATOM     81  F   UNL A   1      45.147  33.244  28.939  1.00  0.00    -0.206 F 
ATOM     82  C   UNL A   1      45.546  34.706  30.732  1.00  0.00     0.040 A 
ATOM     83  C   UNL A   1      45.200  33.958  32.997  1.00  0.00     0.040 A 
ATOM     84  F   UNL A   1      44.479  31.762  33.409  1.00  0.00    -0.206 F 
ATOM     85  C   UNL A   1      45.560  34.965  32.102  1.00  0.00     0.006 A 
ENDBRANCH  61  78
ENDBRANCH  35  36
ENDBRANCH  27  30
ENDBRANCH  25  26
ENDBRANCH   1  25
TORSDOF 11
ENDMDL
MODEL 3
REMARK VINA RESULT:     -12.4      0.304      1.333
REMARK SMILES Cc1cc2c(=O)c3ccccc3oc2c(C(=O)NCCCCNC(=O)c2ccc(-c3c4nc(c(-c5c(F)cccc5F)c5ccc([nH]5)c(-c5c(F)cccc5F)c5nc(c(-c6c(F)cccc6F)c6ccc3[nH]6)C=C5)C=C4)cc2)c1C
REMARK SMILES IDX 21 1 20 2 19 3 18 4 16 5 17 6 15 8 1 9 2 10 3 11 80 12 4 13
REMARK SMILES IDX 81 14 5 15 14 16 6 17 7 18 13 19 8 20 12 21 9 22 11 23 10 24
REMARK SMILES IDX 22 25 23 26 24 27 25 29 26 30 27 31 79 32 28 33 78 34 29 35
REMARK SMILES IDX 30 36 31 37 72 38 32 39 77 40 71 41 73 42 33 43 76 44 70 45
REMARK SMILES IDX 69 46 34 48 60 49 43 50 59 51 44 52 47 53 58 54 74 55 45 56
REMARK SMILES IDX 46 57 57 59 75 60 48 61 35 62 36 63 41 64 37 65 38 66 40 67
REMARK SMILES IDX 42 68 39 69 61 70 62 71 67 72 63 73 64 74 66 75 68 76 65 77
REMARK SMILES IDX 49 78 50 79 55 80 51 81 52 82 54 83 56 84 53 85
REMARK H PARENT 18 7 23 28 73 47 47 58
REMARK Flexibility Score: inf
ROOT
ATOM      1  C   UNL A   1      37.780  21.461  25.151  1.00  0.00     0.023 C 
ENDROOT
BRANCH   1   2
ATOM      2  C   UNL A   1      37.332  22.885  24.841  1.00  0.00     0.023 C 
BRANCH   2   3
ATOM      3  C   UNL A   1      36.946  23.750  26.054  1.00  0.00     0.116 C 
BRANCH   3   4
ATOM      4  N   UNL A   1      35.873  23.114  26.793  1.00  0.00    -0.352 N 
ATOM      5  C   UNL A   1      34.537  22.849  26.656  1.00  0.00     0.255 C 
ATOM      6  O   UNL A   1      34.027  22.518  27.735  1.00  0.00    -0.269 OA
ATOM      7  H   UNL A   1      36.205  22.771  27.653  1.00  0.00     0.163 HD
BRANCH   5   8
ATOM      8  C   UNL A   1      33.635  22.892  25.432  1.00  0.00     0.086 A 
ATOM      9  C   UNL A   1      32.103  20.989  22.403  1.00  0.00     0.044 C 
ATOM     10  C   UNL A   1      32.585  22.073  23.340  1.00  0.00    -0.046 A 
ATOM     11  C   UNL A   1      32.323  23.386  22.953  1.00  0.00     0.019 A 
ATOM     12  C   UNL A   1      33.267  21.813  24.569  1.00  0.00    -0.032 A 
ATOM     13  C   UNL A   1      32.679  24.442  23.777  1.00  0.00     0.066 A 
ATOM     14  C   UNL A   1      33.586  20.384  24.869  1.00  0.00     0.045 C 
ATOM     15  C   UNL A   1      32.452  25.817  23.302  1.00  0.00     0.200 A 
ATOM     16  C   UNL A   1      33.281  24.216  25.017  1.00  0.00     0.151 A 
ATOM     17  O   UNL A   1      31.948  26.045  22.210  1.00  0.00    -0.288 OA
ATOM     18  C   UNL A   1      32.882  26.900  24.184  1.00  0.00     0.065 A 
ATOM     19  O   UNL A   1      33.523  25.273  25.880  1.00  0.00    -0.455 OA
ATOM     20  C   UNL A   1      32.783  28.236  23.782  1.00  0.00     0.016 A 
ATOM     21  C   UNL A   1      33.389  26.562  25.431  1.00  0.00     0.138 A 
ATOM     22  C   UNL A   1      33.190  29.246  24.651  1.00  0.00     0.001 A 
ATOM     23  C   UNL A   1      33.791  27.577  26.301  1.00  0.00     0.048 A 
ATOM     24  C   UNL A   1      33.690  28.916  25.912  1.00  0.00     0.004 A 
ENDBRANCH   5   8
ENDBRANCH   3   4
ENDBRANCH   2   3
ENDBRANCH   1   2
BRANCH   1  25
ATOM     25  C   UNL A   1      39.113  21.369  25.872  1.00  0.00     0.116 C 
BRANCH  25  26
ATOM     26  N   UNL A   1      39.805  20.096  25.701  1.00  0.00    -0.352 N 
ATOM     27  C   UNL A   1      41.111  19.803  26.044  1.00  0.00     0.251 C 
ATOM     28  H   UNL A   1      39.284  19.366  25.296  1.00  0.00     0.163 HD
ATOM     29  O   UNL A   1      41.602  18.708  25.821  1.00  0.00    -0.269 OA
BRANCH  27  30
ATOM     30  C   UNL A   1      41.917  20.894  26.627  1.00  0.00     0.039 A 
ATOM     31  C   UNL A   1      41.895  21.098  28.007  1.00  0.00     0.014 A 
ATOM     32  C   UNL A   1      42.505  21.825  25.770  1.00  0.00     0.014 A 
ATOM     33  C   UNL A   1      42.266  22.338  28.508  1.00  0.00     0.010 A 
ATOM     34  C   UNL A   1      42.961  23.036  26.292  1.00  0.00     0.010 A 
ATOM     35  C   UNL A   1      42.771  23.331  27.651  1.00  0.00    -0.014 A 
BRANCH  35  36
ATOM     36  C   UNL A   1      43.021  24.693  28.188  1.00  0.00     0.031 A 
ATOM     37  C   UNL A   1      44.426  25.165  28.460  1.00  0.00     0.074 A 
ATOM     38  C   UNL A   1      41.986  25.538  28.347  1.00  0.00     0.049 A 
ATOM     39  N   UNL A   1      44.833  26.319  28.928  1.00  0.00    -0.248 NA
ATOM     40  C   UNL A   1      45.518  24.221  28.172  1.00  0.00     0.031 C 
ATOM     41  C   UNL A   1      40.583  25.211  28.083  1.00  0.00     0.029 A 
ATOM     42  N   UNL A   1      41.956  26.851  28.735  1.00  0.00    -0.354 N 
ATOM     43  C   UNL A   1      46.217  26.227  29.023  1.00  0.00     0.074 A 
ATOM     44  C   UNL A   1      46.582  24.901  28.576  1.00  0.00     0.031 C 
ATOM     45  C   UNL A   1      39.838  26.313  28.254  1.00  0.00     0.029 A 
ATOM     46  C   UNL A   1      40.699  27.401  28.703  1.00  0.00     0.049 A 
ATOM     47  H   UNL A   1      42.759  27.352  29.008  1.00  0.00     0.167 HD
ATOM     48  C   UNL A   1      47.102  27.164  29.439  1.00  0.00     0.037 A 
ATOM     49  C   UNL A   1      40.284  28.641  29.014  1.00  0.00     0.037 A 
ATOM     50  C   UNL A   1      46.745  28.497  29.847  1.00  0.00     0.049 A 
ATOM     51  C   UNL A   1      41.280  29.650  29.501  1.00  0.00     0.074 A 
ATOM     52  C   UNL A   1      47.572  29.524  30.270  1.00  0.00     0.029 A 
ATOM     53  N   UNL A   1      45.451  28.994  29.869  1.00  0.00    -0.354 N 
ATOM     54  N   UNL A   1      42.580  29.534  29.621  1.00  0.00    -0.248 NA
ATOM     55  C   UNL A   1      40.747  30.953  29.917  1.00  0.00     0.031 C 
ATOM     56  C   UNL A   1      46.775  30.634  30.573  1.00  0.00     0.029 A 
ATOM     57  C   UNL A   1      45.454  30.306  30.311  1.00  0.00     0.049 A 
ATOM     58  H   UNL A   1      44.647  28.487  29.609  1.00  0.00     0.167 HD
ATOM     59  C   UNL A   1      43.022  30.748  30.127  1.00  0.00     0.074 A 
ATOM     60  C   UNL A   1      41.853  31.594  30.267  1.00  0.00     0.031 C 
ATOM     61  C   UNL A   1      44.280  31.126  30.455  1.00  0.00     0.037 A 
BRANCH  48  62
ATOM     62  C   UNL A   1      48.549  26.771  29.494  1.00  0.00     0.057 A 
ATOM     63  C   UNL A   1      49.372  26.929  28.372  1.00  0.00     0.134 A 
ATOM     64  C   UNL A   1      49.121  26.208  30.642  1.00  0.00     0.134 A 
ATOM     65  F   UNL A   1      48.885  27.459  27.239  1.00  0.00    -0.206 F 
ATOM     66  C   UNL A   1      50.712  26.538  28.387  1.00  0.00     0.040 A 
ATOM     67  C   UNL A   1      50.465  25.831  30.676  1.00  0.00     0.040 A 
ATOM     68  F   UNL A   1      48.390  26.046  31.755  1.00  0.00    -0.206 F 
ATOM     69  C   UNL A   1      51.263  25.990  29.544  1.00  0.00     0.006 A 
ENDBRANCH  48  62
BRANCH  49  70
ATOM     70  C   UNL A   1      38.849  28.988  28.885  1.00  0.00     0.057 A 
ATOM     71  C   UNL A   1      37.961  28.822  29.953  1.00  0.00     0.134 A 
ATOM     72  C   UNL A   1      38.334  29.477  27.681  1.00  0.00     0.134 A 
ATOM     73  F   UNL A   1      38.399  28.352  31.130  1.00  0.00    -0.206 F 
ATOM     74  C   UNL A   1      36.604  29.115  29.824  1.00  0.00     0.040 A 
ATOM     75  C   UNL A   1      36.983  29.795  27.543  1.00  0.00     0.040 A 
ATOM     76  F   UNL A   1      39.143  29.672  26.630  1.00  0.00    -0.206 F 
ATOM     77  C   UNL A   1      36.112  29.607  28.616  1.00  0.00     0.006 A 
ENDBRANCH  49  70
BRANCH  61  78
ATOM     78  C   UNL A   1      44.445  32.513  30.994  1.00  0.00     0.057 A 
ATOM     79  C   UNL A   1      44.397  32.758  32.371  1.00  0.00     0.134 A 
ATOM     80  C   UNL A   1      44.652  33.605  30.142  1.00  0.00     0.134 A 
ATOM     81  F   UNL A   1      44.200  31.752  33.236  1.00  0.00    -0.206 F 
ATOM     82  C   UNL A   1      44.554  34.046  32.885  1.00  0.00     0.040 A 
ATOM     83  C   UNL A   1      44.828  34.895  30.646  1.00  0.00     0.040 A 
ATOM     84  F   UNL A   1      44.724  33.429  28.815  1.00  0.00    -0.206 F 
ATOM     85  C   UNL A   1      44.776  35.118  32.021  1.00  0.00     0.006 A 
ENDBRANCH  61  78
ENDBRANCH  35  36
ENDBRANCH  27  30
ENDBRANCH  25  26
ENDBRANCH   1  25
TORSDOF 11
ENDMDL
