MODEL 1
REMARK VINA RESULT:     -12.4      0.000      0.000
REMARK SMILES O=C(NCCCCNC(=O)c1ccc(C[N@H+]2CC[N@H+]3CCCC[C@@H]3C2)c(F)c1)c1ccc(-c2c3nc(c(-c4c(F)cccc4F)c4ccc([nH]4)c(-c4c(F)cccc4F)c4nc(c(-c5c(F)cccc5F)c5ccc2[nH]5)C=C4)C=C3)cc1
REMARK SMILES IDX 5 1 4 2 3 3 1 4 2 5 29 7 30 8 82 9 31 10 81 11 32 12 33 13
REMARK SMILES IDX 34 14 75 15 35 16 80 17 74 18 76 19 36 20 79 21 73 22 72 23
REMARK SMILES IDX 37 25 63 26 46 27 62 28 47 29 50 30 61 31 77 32 48 33 49 34
REMARK SMILES IDX 60 36 78 37 51 38 38 39 39 40 44 41 40 42 41 43 43 44 45 45
REMARK SMILES IDX 42 46 64 47 65 48 70 49 66 50 67 51 69 52 71 53 68 54 52 55
REMARK SMILES IDX 53 56 58 57 54 58 55 59 57 60 59 61 56 62 6 63 7 64 8 65
REMARK SMILES IDX 9 66 10 68 11 69 12 70 28 71 13 72 26 73 14 74 27 75 15 76
REMARK SMILES IDX 16 77 17 78 25 79 18 81 24 82 19 83 23 84 20 85 22 87 21 88
REMARK H PARENT 3 6 76 24 50 35 8 67 16 80 19 86
REMARK Flexibility Score: inf
ROOT
ATOM      1  C   UNL A   1      37.741  21.148  24.894  1.00  0.00     0.023 C 
ENDROOT
BRANCH   1   2
ATOM      2  C   UNL A   1      38.849  21.012  25.935  1.00  0.00     0.116 C 
BRANCH   2   3
ATOM      3  N   UNL A   1      39.787  19.923  25.689  1.00  0.00    -0.352 N 
ATOM      4  O   UNL A   1      41.777  18.854  25.660  1.00  0.00    -0.269 OA
ATOM      5  C   UNL A   1      41.139  19.848  25.962  1.00  0.00     0.251 C 
ATOM      6  H   UNL A   1      39.399  19.123  25.265  1.00  0.00     0.163 HD
BRANCH   5   7
ATOM      7  C   UNL A   1      41.819  21.018  26.564  1.00  0.00     0.039 A 
ATOM      8  C   UNL A   1      41.907  21.153  27.947  1.00  0.00     0.014 A 
ATOM      9  C   UNL A   1      42.285  22.036  25.724  1.00  0.00     0.014 A 
ATOM     10  C   UNL A   1      42.236  22.388  28.488  1.00  0.00     0.010 A 
ATOM     11  C   UNL A   1      42.717  23.244  26.278  1.00  0.00     0.010 A 
ATOM     12  C   UNL A   1      42.625  23.456  27.660  1.00  0.00    -0.014 A 
BRANCH  12  13
ATOM     13  C   UNL A   1      42.898  24.780  28.277  1.00  0.00     0.031 A 
ATOM     14  C   UNL A   1      44.307  25.222  28.576  1.00  0.00     0.074 A 
ATOM     15  C   UNL A   1      41.870  25.625  28.482  1.00  0.00     0.049 A 
ATOM     16  N   UNL A   1      44.726  26.370  29.048  1.00  0.00    -0.248 NA
ATOM     17  C   UNL A   1      45.387  24.256  28.318  1.00  0.00     0.031 C 
ATOM     18  C   UNL A   1      40.463  25.311  28.226  1.00  0.00     0.029 A 
ATOM     19  N   UNL A   1      41.850  26.928  28.907  1.00  0.00    -0.354 N 
ATOM     20  C   UNL A   1      46.106  26.256  29.166  1.00  0.00     0.074 A 
ATOM     21  C   UNL A   1      46.455  24.919  28.738  1.00  0.00     0.031 C 
ATOM     22  C   UNL A   1      39.726  26.412  28.426  1.00  0.00     0.029 A 
ATOM     23  C   UNL A   1      40.597  27.489  28.884  1.00  0.00     0.049 A 
ATOM     24  H   UNL A   1      42.655  27.414  29.199  1.00  0.00     0.167 HD
ATOM     25  C   UNL A   1      47.000  27.183  29.586  1.00  0.00     0.037 A 
ATOM     26  C   UNL A   1      40.190  28.733  29.197  1.00  0.00     0.037 A 
ATOM     27  C   UNL A   1      46.654  28.524  29.983  1.00  0.00     0.049 A 
ATOM     28  C   UNL A   1      41.198  29.743  29.653  1.00  0.00     0.074 A 
ATOM     29  C   UNL A   1      47.491  29.538  30.415  1.00  0.00     0.029 A 
ATOM     30  N   UNL A   1      45.366  29.040  29.985  1.00  0.00    -0.354 N 
ATOM     31  N   UNL A   1      42.497  29.612  29.772  1.00  0.00    -0.248 NA
ATOM     32  C   UNL A   1      40.688  31.068  30.024  1.00  0.00     0.031 C 
ATOM     33  C   UNL A   1      46.707  30.659  30.708  1.00  0.00     0.029 A 
ATOM     34  C   UNL A   1      45.386  30.355  30.420  1.00  0.00     0.049 A 
ATOM     35  H   UNL A   1      44.559  28.545  29.717  1.00  0.00     0.167 HD
ATOM     36  C   UNL A   1      42.961  30.837  30.228  1.00  0.00     0.074 A 
ATOM     37  C   UNL A   1      41.806  31.706  30.341  1.00  0.00     0.031 C 
ATOM     38  C   UNL A   1      44.229  31.205  30.530  1.00  0.00     0.037 A 
BRANCH  25  39
ATOM     39  C   UNL A   1      48.445  26.783  29.649  1.00  0.00     0.057 A 
ATOM     40  C   UNL A   1      49.285  26.968  28.543  1.00  0.00     0.134 A 
ATOM     41  C   UNL A   1      48.991  26.159  30.777  1.00  0.00     0.134 A 
ATOM     42  F   UNL A   1      48.823  27.554  27.428  1.00  0.00    -0.206 F 
ATOM     43  C   UNL A   1      50.614  26.538  28.553  1.00  0.00     0.040 A 
ATOM     44  C   UNL A   1      50.325  25.744  30.808  1.00  0.00     0.040 A 
ATOM     45  F   UNL A   1      48.244  25.962  31.873  1.00  0.00    -0.206 F 
ATOM     46  C   UNL A   1      51.137  25.926  29.690  1.00  0.00     0.006 A 
ENDBRANCH  25  39
BRANCH  26  47
ATOM     47  C   UNL A   1      38.753  29.077  29.066  1.00  0.00     0.057 A 
ATOM     48  C   UNL A   1      38.221  29.529  27.852  1.00  0.00     0.134 A 
ATOM     49  C   UNL A   1      37.896  29.023  30.169  1.00  0.00     0.134 A 
ATOM     50  F   UNL A   1      38.999  29.613  26.763  1.00  0.00    -0.206 F 
ATOM     51  C   UNL A   1      36.894  29.940  27.746  1.00  0.00     0.040 A 
ATOM     52  C   UNL A   1      36.558  29.409  30.072  1.00  0.00     0.040 A 
ATOM     53  F   UNL A   1      38.347  28.587  31.355  1.00  0.00    -0.206 F 
ATOM     54  C   UNL A   1      36.057  29.879  28.859  1.00  0.00     0.006 A 
ENDBRANCH  26  47
BRANCH  38  55
ATOM     55  C   UNL A   1      44.439  32.611  31.004  1.00  0.00     0.057 A 
ATOM     56  C   UNL A   1      44.709  33.639  30.093  1.00  0.00     0.134 A 
ATOM     57  C   UNL A   1      44.424  32.936  32.365  1.00  0.00     0.134 A 
ATOM     58  F   UNL A   1      44.745  33.389  28.775  1.00  0.00    -0.206 F 
ATOM     59  C   UNL A   1      44.963  34.942  30.520  1.00  0.00     0.040 A 
ATOM     60  C   UNL A   1      44.656  34.241  32.804  1.00  0.00     0.040 A 
ATOM     61  F   UNL A   1      44.160  31.996  33.286  1.00  0.00    -0.206 F 
ATOM     62  C   UNL A   1      44.933  35.246  31.880  1.00  0.00     0.006 A 
ENDBRANCH  38  55
ENDBRANCH  12  13
ENDBRANCH   5   7
ENDBRANCH   2   3
ENDBRANCH   1   2
BRANCH   1  63
ATOM     63  C   UNL A   1      36.648  20.087  24.956  1.00  0.00     0.023 C 
BRANCH  63  64
ATOM     64  C   UNL A   1      35.219  20.617  25.081  1.00  0.00     0.116 C 
BRANCH  64  65
ATOM     65  N   UNL A   1      34.239  19.546  25.148  1.00  0.00    -0.352 N 
ATOM     66  C   UNL A   1      32.881  19.612  24.948  1.00  0.00     0.251 C 
ATOM     67  H   UNL A   1      34.596  18.654  25.366  1.00  0.00     0.163 HD
ATOM     68  O   UNL A   1      32.165  18.632  25.121  1.00  0.00    -0.269 OA
BRANCH  66  69
ATOM     69  C   UNL A   1      32.277  20.890  24.536  1.00  0.00     0.042 A 
ATOM     70  C   UNL A   1      32.265  21.259  23.186  1.00  0.00     0.014 A 
ATOM     71  C   UNL A   1      31.728  21.723  25.507  1.00  0.00     0.053 A 
ATOM     72  C   UNL A   1      31.766  22.514  22.821  1.00  0.00     0.013 A 
ATOM     73  C   UNL A   1      31.254  22.975  25.130  1.00  0.00     0.132 A 
ATOM     74  C   UNL A   1      31.310  23.414  23.801  1.00  0.00     0.042 A 
ATOM     75  F   UNL A   1      30.777  23.790  26.081  1.00  0.00    -0.206 F 
BRANCH  74  76
ATOM     76  C   UNL A   1      30.916  24.827  23.438  1.00  0.00     0.302 C 
BRANCH  76  77
ATOM     77  N   UNL A   1      31.979  25.787  23.109  1.00  0.00    -0.322 N 
ATOM     78  C   UNL A   1      31.559  27.005  22.401  1.00  0.00     0.324 C 
ATOM     79  C   UNL A   1      32.929  26.108  24.182  1.00  0.00     0.328 C 
ATOM     80  H   UNL A   1      32.497  25.225  22.434  1.00  0.00     0.348 HD
ATOM     81  C   UNL A   1      31.214  28.228  23.284  1.00  0.00     0.324 C 
ATOM     82  C   UNL A   1      32.480  27.266  25.108  1.00  0.00     0.239 C 
ATOM     83  N   UNL A   1      32.197  28.507  24.356  1.00  0.00    -0.323 N 
ATOM     84  C   UNL A   1      33.518  27.522  26.207  1.00  0.00     0.071 C 
ATOM     85  C   UNL A   1      31.671  29.545  25.251  1.00  0.00     0.262 C 
ATOM     86  H   UNL A   1      33.069  28.843  23.943  1.00  0.00     0.348 HD
ATOM     87  C   UNL A   1      32.973  28.552  27.191  1.00  0.00     0.012 C 
ATOM     88  C   UNL A   1      32.580  29.825  26.451  1.00  0.00     0.062 C 
ENDBRANCH  76  77
ENDBRANCH  74  76
ENDBRANCH  66  69
ENDBRANCH  64  65
ENDBRANCH  63  64
ENDBRANCH   1  63
TORSDOF 13
ENDMDL
MODEL 2
REMARK VINA RESULT:     -12.3      3.909      7.802
REMARK SMILES O=C(NCCCCNC(=O)c1ccc(C[N@H+]2CC[N@H+]3CCCC[C@@H]3C2)c(F)c1)c1ccc(-c2c3nc(c(-c4c(F)cccc4F)c4ccc([nH]4)c(-c4c(F)cccc4F)c4nc(c(-c5c(F)cccc5F)c5ccc2[nH]5)C=C4)C=C3)cc1
REMARK SMILES IDX 5 1 4 2 3 3 1 4 2 5 29 7 30 8 82 9 31 10 81 11 32 12 33 13
REMARK SMILES IDX 34 14 75 15 35 16 80 17 74 18 76 19 36 20 79 21 73 22 72 23
REMARK SMILES IDX 37 25 63 26 46 27 62 28 47 29 50 30 61 31 77 32 48 33 49 34
REMARK SMILES IDX 60 36 78 37 51 38 38 39 39 40 44 41 40 42 41 43 43 44 45 45
REMARK SMILES IDX 42 46 64 47 65 48 70 49 66 50 67 51 69 52 71 53 68 54 52 55
REMARK SMILES IDX 53 56 58 57 54 58 55 59 57 60 59 61 56 62 6 63 7 64 8 65
REMARK SMILES IDX 9 66 10 68 11 69 12 70 28 71 13 72 26 73 14 74 27 75 15 76
REMARK SMILES IDX 16 77 17 78 25 79 18 81 24 82 19 83 23 84 20 85 22 87 21 88
REMARK H PARENT 3 6 76 24 50 35 8 67 16 80 19 86
REMARK Flexibility Score: inf
ROOT
ATOM      1  C   UNL A   1      37.158  23.372  24.819  1.00  0.00     0.023 C 
ENDROOT
BRANCH   1   2
ATOM      2  C   UNL A   1      37.945  23.625  26.102  1.00  0.00     0.116 C 
BRANCH   2   3
ATOM      3  N   UNL A   1      39.386  23.442  25.980  1.00  0.00    -0.352 N 
ATOM      4  O   UNL A   1      41.577  23.906  26.276  1.00  0.00    -0.269 OA
ATOM      5  C   UNL A   1      40.416  24.198  26.505  1.00  0.00     0.251 C 
ATOM      6  H   UNL A   1      39.666  22.664  25.445  1.00  0.00     0.163 HD
BRANCH   5   7
ATOM      7  C   UNL A   1      40.093  25.411  27.291  1.00  0.00     0.039 A 
ATOM      8  C   UNL A   1      40.617  26.649  26.931  1.00  0.00     0.014 A 
ATOM      9  C   UNL A   1      39.333  25.278  28.459  1.00  0.00     0.014 A 
ATOM     10  C   UNL A   1      40.586  27.692  27.848  1.00  0.00     0.010 A 
ATOM     11  C   UNL A   1      39.213  26.363  29.332  1.00  0.00     0.010 A 
ATOM     12  C   UNL A   1      39.902  27.555  29.069  1.00  0.00    -0.014 A 
BRANCH  12  13
ATOM     13  C   UNL A   1      39.955  28.670  30.050  1.00  0.00     0.031 A 
ATOM     14  C   UNL A   1      38.931  29.775  30.028  1.00  0.00     0.074 A 
ATOM     15  C   UNL A   1      40.883  28.632  31.026  1.00  0.00     0.049 A 
ATOM     16  N   UNL A   1      38.792  30.783  30.852  1.00  0.00    -0.248 NA
ATOM     17  C   UNL A   1      37.938  29.752  28.942  1.00  0.00     0.031 C 
ATOM     18  C   UNL A   1      41.923  27.609  31.154  1.00  0.00     0.029 A 
ATOM     19  N   UNL A   1      41.074  29.441  32.115  1.00  0.00    -0.354 N 
ATOM     20  C   UNL A   1      37.718  31.524  30.374  1.00  0.00     0.074 A 
ATOM     21  C   UNL A   1      37.253  30.864  29.173  1.00  0.00     0.031 C 
ATOM     22  C   UNL A   1      42.594  27.809  32.297  1.00  0.00     0.029 A 
ATOM     23  C   UNL A   1      42.075  29.007  32.948  1.00  0.00     0.049 A 
ATOM     24  H   UNL A   1      40.545  30.255  32.283  1.00  0.00     0.167 HD
ATOM     25  C   UNL A   1      37.166  32.647  30.892  1.00  0.00     0.037 A 
ATOM     26  C   UNL A   1      42.528  29.513  34.110  1.00  0.00     0.037 A 
ATOM     27  C   UNL A   1      37.610  33.287  32.104  1.00  0.00     0.049 A 
ATOM     28  C   UNL A   1      41.896  30.753  34.666  1.00  0.00     0.074 A 
ATOM     29  C   UNL A   1      37.108  34.424  32.713  1.00  0.00     0.029 A 
ATOM     30  N   UNL A   1      38.655  32.837  32.897  1.00  0.00    -0.354 N 
ATOM     31  N   UNL A   1      40.891  31.447  34.192  1.00  0.00    -0.248 NA
ATOM     32  C   UNL A   1      42.464  31.284  35.911  1.00  0.00     0.031 C 
ATOM     33  C   UNL A   1      37.868  34.680  33.858  1.00  0.00     0.029 A 
ATOM     34  C   UNL A   1      38.819  33.680  33.984  1.00  0.00     0.049 A 
ATOM     35  H   UNL A   1      39.200  32.038  32.714  1.00  0.00     0.167 HD
ATOM     36  C   UNL A   1      40.702  32.495  35.081  1.00  0.00     0.074 A 
ATOM     37  C   UNL A   1      41.682  32.331  36.136  1.00  0.00     0.031 C 
ATOM     38  C   UNL A   1      39.800  33.505  35.023  1.00  0.00     0.037 A 
BRANCH  25  39
ATOM     39  C   UNL A   1      36.020  33.271  30.149  1.00  0.00     0.057 A 
ATOM     40  C   UNL A   1      36.251  34.075  29.025  1.00  0.00     0.134 A 
ATOM     41  C   UNL A   1      34.695  33.129  30.579  1.00  0.00     0.134 A 
ATOM     42  F   UNL A   1      37.498  34.257  28.564  1.00  0.00    -0.206 F 
ATOM     43  C   UNL A   1      35.207  34.723  28.362  1.00  0.00     0.040 A 
ATOM     44  C   UNL A   1      33.640  33.755  29.911  1.00  0.00     0.040 A 
ATOM     45  F   UNL A   1      34.403  32.364  31.642  1.00  0.00    -0.206 F 
ATOM     46  C   UNL A   1      33.896  34.561  28.804  1.00  0.00     0.006 A 
ENDBRANCH  25  39
BRANCH  26  47
ATOM     47  C   UNL A   1      43.631  28.821  34.819  1.00  0.00     0.057 A 
ATOM     48  C   UNL A   1      44.971  29.053  34.482  1.00  0.00     0.134 A 
ATOM     49  C   UNL A   1      43.367  27.865  35.804  1.00  0.00     0.134 A 
ATOM     50  F   UNL A   1      45.284  29.950  33.536  1.00  0.00    -0.206 F 
ATOM     51  C   UNL A   1      46.008  28.340  35.081  1.00  0.00     0.040 A 
ATOM     52  C   UNL A   1      44.397  27.161  36.430  1.00  0.00     0.040 A 
ATOM     53  F   UNL A   1      42.104  27.610  36.176  1.00  0.00    -0.206 F 
ATOM     54  C   UNL A   1      45.721  27.390  36.061  1.00  0.00     0.006 A 
ENDBRANCH  26  47
BRANCH  38  55
ATOM     55  C   UNL A   1      39.823  34.507  36.137  1.00  0.00     0.057 A 
ATOM     56  C   UNL A   1      40.569  35.686  36.022  1.00  0.00     0.134 A 
ATOM     57  C   UNL A   1      39.149  34.279  37.343  1.00  0.00     0.134 A 
ATOM     58  F   UNL A   1      41.244  35.957  34.894  1.00  0.00    -0.206 F 
ATOM     59  C   UNL A   1      40.649  36.602  37.070  1.00  0.00     0.040 A 
ATOM     60  C   UNL A   1      39.204  35.198  38.391  1.00  0.00     0.040 A 
ATOM     61  F   UNL A   1      38.408  33.172  37.509  1.00  0.00    -0.206 F 
ATOM     62  C   UNL A   1      39.961  36.361  38.258  1.00  0.00     0.006 A 
ENDBRANCH  38  55
ENDBRANCH  12  13
ENDBRANCH   5   7
ENDBRANCH   2   3
ENDBRANCH   1   2
BRANCH   1  63
ATOM     63  C   UNL A   1      37.026  21.909  24.407  1.00  0.00     0.023 C 
BRANCH  63  64
ATOM     64  C   UNL A   1      36.562  20.953  25.507  1.00  0.00     0.116 C 
BRANCH  64  65
ATOM     65  N   UNL A   1      35.660  19.932  25.001  1.00  0.00    -0.352 N 
ATOM     66  C   UNL A   1      34.309  20.023  24.765  1.00  0.00     0.251 C 
ATOM     67  H   UNL A   1      36.071  19.059  24.802  1.00  0.00     0.163 HD
ATOM     68  O   UNL A   1      33.659  19.045  24.413  1.00  0.00    -0.269 OA
BRANCH  66  69
ATOM     69  C   UNL A   1      33.632  21.316  24.956  1.00  0.00     0.042 A 
ATOM     70  C   UNL A   1      33.354  22.134  23.855  1.00  0.00     0.014 A 
ATOM     71  C   UNL A   1      33.281  21.712  26.244  1.00  0.00     0.053 A 
ATOM     72  C   UNL A   1      32.788  23.396  24.061  1.00  0.00     0.013 A 
ATOM     73  C   UNL A   1      32.737  22.978  26.434  1.00  0.00     0.132 A 
ATOM     74  C   UNL A   1      32.530  23.859  25.365  1.00  0.00     0.042 A 
ATOM     75  F   UNL A   1      32.453  23.369  27.684  1.00  0.00    -0.206 F 
BRANCH  74  76
ATOM     76  C   UNL A   1      32.068  25.276  25.612  1.00  0.00     0.302 C 
BRANCH  76  77
ATOM     77  N   UNL A   1      32.647  26.353  24.795  1.00  0.00    -0.322 N 
ATOM     78  C   UNL A   1      31.693  27.273  24.162  1.00  0.00     0.324 C 
ATOM     79  C   UNL A   1      33.772  27.089  25.384  1.00  0.00     0.328 C 
ATOM     80  H   UNL A   1      33.044  25.787  24.045  1.00  0.00     0.348 HD
ATOM     81  C   UNL A   1      31.337  28.550  24.961  1.00  0.00     0.324 C 
ATOM     82  C   UNL A   1      33.356  28.291  26.269  1.00  0.00     0.239 C 
ATOM     83  N   UNL A   1      32.504  29.255  25.541  1.00  0.00    -0.323 N 
ATOM     84  C   UNL A   1      34.587  28.991  26.856  1.00  0.00     0.071 C 
ATOM     85  C   UNL A   1      32.041  30.318  26.441  1.00  0.00     0.262 C 
ATOM     86  H   UNL A   1      33.056  29.677  24.793  1.00  0.00     0.348 HD
ATOM     87  C   UNL A   1      34.140  30.061  27.846  1.00  0.00     0.012 C 
ATOM     88  C   UNL A   1      33.183  31.035  27.167  1.00  0.00     0.062 C 
ENDBRANCH  76  77
ENDBRANCH  74  76
ENDBRANCH  66  69
ENDBRANCH  64  65
ENDBRANCH  63  64
ENDBRANCH   1  63
TORSDOF 13
ENDMDL
MODEL 3
REMARK VINA RESULT:     -12.3      0.404      6.134
REMARK SMILES O=C(NCCCCNC(=O)c1ccc(C[N@H+]2CC[N@H+]3CCCC[C@@H]3C2)c(F)c1)c1ccc(-c2c3nc(c(-c4c(F)cccc4F)c4ccc([nH]4)c(-c4c(F)cccc4F)c4nc(c(-c5c(F)cccc5F)c5ccc2[nH]5)C=C4)C=C3)cc1
REMARK SMILES IDX 5 1 4 2 3 3 1 4 2 5 29 7 30 8 82 9 31 10 81 11 32 12 33 13
REMARK SMILES IDX 34 14 75 15 35 16 80 17 74 18 76 19 36 20 79 21 73 22 72 23
REMARK SMILES IDX 37 25 63 26 46 27 62 28 47 29 50 30 61 31 77 32 48 33 49 34
REMARK SMILES IDX 60 36 78 37 51 38 38 39 39 40 44 41 40 42 41 43 43 44 45 45
REMARK SMILES IDX 42 46 64 47 65 48 70 49 66 50 67 51 69 52 71 53 68 54 52 55
REMARK SMILES IDX 53 56 58 57 54 58 55 59 57 60 59 61 56 62 6 63 7 64 8 65
REMARK SMILES IDX 9 66 10 68 11 69 12 70 28 71 13 72 26 73 14 74 27 75 15 76
REMARK SMILES IDX 16 77 17 78 25 79 18 81 24 82 19 83 23 84 20 85 22 87 21 88
REMARK H PARENT 3 6 76 24 50 35 8 67 16 80 19 86
REMARK Flexibility Score: inf
ROOT
ATOM      1  C   UNL A   1      37.696  21.157  24.845  1.00  0.00     0.023 C 
ENDROOT
BRANCH   1   2
ATOM      2  C   UNL A   1      38.798  21.073  25.897  1.00  0.00     0.116 C 
BRANCH   2   3
ATOM      3  N   UNL A   1      39.701  19.938  25.747  1.00  0.00    -0.352 N 
ATOM      4  O   UNL A   1      41.653  18.804  25.828  1.00  0.00    -0.269 OA
ATOM      5  C   UNL A   1      41.045  19.838  26.046  1.00  0.00     0.251 C 
ATOM      6  H   UNL A   1      39.292  19.122  25.377  1.00  0.00     0.163 HD
BRANCH   5   7
ATOM      7  C   UNL A   1      41.758  21.026  26.571  1.00  0.00     0.039 A 
ATOM      8  C   UNL A   1      41.816  21.271  27.940  1.00  0.00     0.014 A 
ATOM      9  C   UNL A   1      42.286  21.953  25.665  1.00  0.00     0.014 A 
ATOM     10  C   UNL A   1      42.181  22.532  28.390  1.00  0.00     0.010 A 
ATOM     11  C   UNL A   1      42.754  23.185  26.132  1.00  0.00     0.010 A 
ATOM     12  C   UNL A   1      42.635  23.513  27.489  1.00  0.00    -0.014 A 
BRANCH  12  13
ATOM     13  C   UNL A   1      42.946  24.871  28.005  1.00  0.00     0.031 A 
ATOM     14  C   UNL A   1      41.852  25.873  28.266  1.00  0.00     0.074 A 
ATOM     15  C   UNL A   1      44.220  25.167  28.327  1.00  0.00     0.049 A 
ATOM     16  N   UNL A   1      41.942  27.075  28.778  1.00  0.00    -0.248 NA
ATOM     17  C   UNL A   1      40.480  25.484  27.902  1.00  0.00     0.031 C 
ATOM     18  C   UNL A   1      45.364  24.276  28.125  1.00  0.00     0.029 A 
ATOM     19  N   UNL A   1      44.760  26.273  28.930  1.00  0.00    -0.354 N 
ATOM     20  C   UNL A   1      40.652  27.592  28.776  1.00  0.00     0.074 A 
ATOM     21  C   UNL A   1      39.796  26.583  28.191  1.00  0.00     0.031 C 
ATOM     22  C   UNL A   1      46.456  24.837  28.663  1.00  0.00     0.029 A 
ATOM     23  C   UNL A   1      46.102  26.152  29.189  1.00  0.00     0.049 A 
ATOM     24  H   UNL A   1      44.236  27.076  29.155  1.00  0.00     0.167 HD
ATOM     25  C   UNL A   1      40.220  28.793  29.228  1.00  0.00     0.037 A 
ATOM     26  C   UNL A   1      46.959  27.002  29.785  1.00  0.00     0.037 A 
ATOM     27  C   UNL A   1      41.068  29.785  29.839  1.00  0.00     0.049 A 
ATOM     28  C   UNL A   1      46.455  28.322  30.283  1.00  0.00     0.074 A 
ATOM     29  C   UNL A   1      40.720  31.029  30.335  1.00  0.00     0.029 A 
ATOM     30  N   UNL A   1      42.432  29.639  30.045  1.00  0.00    -0.354 N 
ATOM     31  N   UNL A   1      45.235  28.799  30.259  1.00  0.00    -0.248 NA
ATOM     32  C   UNL A   1      47.446  29.225  30.881  1.00  0.00     0.031 C 
ATOM     33  C   UNL A   1      41.878  31.649  30.816  1.00  0.00     0.029 A 
ATOM     34  C   UNL A   1      42.941  30.775  30.654  1.00  0.00     0.049 A 
ATOM     35  H   UNL A   1      42.960  28.846  29.796  1.00  0.00     0.167 HD
ATOM     36  C   UNL A   1      45.307  30.055  30.842  1.00  0.00     0.074 A 
ATOM     37  C   UNL A   1      46.689  30.257  31.231  1.00  0.00     0.031 C 
ATOM     38  C   UNL A   1      44.318  30.961  31.032  1.00  0.00     0.037 A 
BRANCH  25  39
ATOM     39  C   UNL A   1      38.762  29.115  29.074  1.00  0.00     0.057 A 
ATOM     40  C   UNL A   1      38.252  29.547  27.843  1.00  0.00     0.134 A 
ATOM     41  C   UNL A   1      37.875  29.061  30.157  1.00  0.00     0.134 A 
ATOM     42  F   UNL A   1      39.051  29.628  26.767  1.00  0.00    -0.206 F 
ATOM     43  C   UNL A   1      36.915  29.920  27.694  1.00  0.00     0.040 A 
ATOM     44  C   UNL A   1      36.530  29.411  30.016  1.00  0.00     0.040 A 
ATOM     45  F   UNL A   1      38.295  28.645  31.360  1.00  0.00    -0.206 F 
ATOM     46  C   UNL A   1      36.049  29.850  28.784  1.00  0.00     0.006 A 
ENDBRANCH  25  39
BRANCH  26  47
ATOM     47  C   UNL A   1      48.377  26.602  29.949  1.00  0.00     0.057 A 
ATOM     48  C   UNL A   1      48.805  25.882  31.072  1.00  0.00     0.134 A 
ATOM     49  C   UNL A   1      49.347  26.987  29.019  1.00  0.00     0.134 A 
ATOM     50  F   UNL A   1      47.921  25.496  32.004  1.00  0.00    -0.206 F 
ATOM     51  C   UNL A   1      50.150  25.582  31.277  1.00  0.00     0.040 A 
ATOM     52  C   UNL A   1      50.695  26.671  29.198  1.00  0.00     0.040 A 
ATOM     53  F   UNL A   1      48.994  27.667  27.918  1.00  0.00    -0.206 F 
ATOM     54  C   UNL A   1      51.101  25.976  30.337  1.00  0.00     0.006 A 
ENDBRANCH  26  47
BRANCH  38  55
ATOM     55  C   UNL A   1      44.690  32.251  31.698  1.00  0.00     0.057 A 
ATOM     56  C   UNL A   1      45.129  33.344  30.943  1.00  0.00     0.134 A 
ATOM     57  C   UNL A   1      44.663  32.391  33.091  1.00  0.00     0.134 A 
ATOM     58  F   UNL A   1      45.185  33.269  29.604  1.00  0.00    -0.206 F 
ATOM     59  C   UNL A   1      45.534  34.533  31.550  1.00  0.00     0.040 A 
ATOM     60  C   UNL A   1      45.045  33.582  33.709  1.00  0.00     0.040 A 
ATOM     61  F   UNL A   1      44.240  31.382  33.868  1.00  0.00    -0.206 F 
ATOM     62  C   UNL A   1      45.489  34.655  32.938  1.00  0.00     0.006 A 
ENDBRANCH  38  55
ENDBRANCH  12  13
ENDBRANCH   5   7
ENDBRANCH   2   3
ENDBRANCH   1   2
BRANCH   1  63
ATOM     63  C   UNL A   1      36.592  20.111  24.965  1.00  0.00     0.023 C 
BRANCH  63  64
ATOM     64  C   UNL A   1      35.170  20.663  25.075  1.00  0.00     0.116 C 
BRANCH  64  65
ATOM     65  N   UNL A   1      34.177  19.606  25.180  1.00  0.00    -0.352 N 
ATOM     66  C   UNL A   1      32.818  19.685  24.996  1.00  0.00     0.251 C 
ATOM     67  H   UNL A   1      34.526  18.715  25.415  1.00  0.00     0.163 HD
ATOM     68  O   UNL A   1      32.092  18.719  25.201  1.00  0.00    -0.269 OA
BRANCH  66  69
ATOM     69  C   UNL A   1      32.225  20.961  24.561  1.00  0.00     0.042 A 
ATOM     70  C   UNL A   1      32.279  21.339  23.215  1.00  0.00     0.014 A 
ATOM     71  C   UNL A   1      31.620  21.783  25.508  1.00  0.00     0.053 A 
ATOM     72  C   UNL A   1      31.789  22.591  22.832  1.00  0.00     0.013 A 
ATOM     73  C   UNL A   1      31.154  23.033  25.114  1.00  0.00     0.132 A 
ATOM     74  C   UNL A   1      31.275  23.482  23.793  1.00  0.00     0.042 A 
ATOM     75  F   UNL A   1      30.623  23.838  26.045  1.00  0.00    -0.206 F 
BRANCH  74  76
ATOM     76  C   UNL A   1      30.888  24.893  23.419  1.00  0.00     0.302 C 
BRANCH  76  77
ATOM     77  N   UNL A   1      31.958  25.858  23.125  1.00  0.00    -0.322 N 
ATOM     78  C   UNL A   1      31.551  27.091  22.437  1.00  0.00     0.324 C 
ATOM     79  C   UNL A   1      32.893  26.153  24.217  1.00  0.00     0.328 C 
ATOM     80  H   UNL A   1      32.484  25.308  22.446  1.00  0.00     0.348 HD
ATOM     81  C   UNL A   1      31.196  28.296  23.340  1.00  0.00     0.324 C 
ATOM     82  C   UNL A   1      32.434  27.293  25.160  1.00  0.00     0.239 C 
ATOM     83  N   UNL A   1      32.165  28.550  24.431  1.00  0.00    -0.323 N 
ATOM     84  C   UNL A   1      33.457  27.524  26.279  1.00  0.00     0.071 C 
ATOM     85  C   UNL A   1      31.628  29.570  25.340  1.00  0.00     0.262 C 
ATOM     86  H   UNL A   1      33.043  28.892  24.037  1.00  0.00     0.348 HD
ATOM     87  C   UNL A   1      32.901  28.534  27.277  1.00  0.00     0.012 C 
ATOM     88  C   UNL A   1      32.521  29.824  26.558  1.00  0.00     0.062 C 
ENDBRANCH  76  77
ENDBRANCH  74  76
ENDBRANCH  66  69
ENDBRANCH  64  65
ENDBRANCH  63  64
ENDBRANCH   1  63
TORSDOF 13
ENDMDL
