MODEL 1
REMARK VINA RESULT:     -12.4      0.000      0.000
REMARK SMILES COC(=O)c1ccc2c(c1)=N[C@H](c1cn(CCC(=O)NCCCCNC(=O)c3ccc(-c4c5nc(c(-c6c(F)cccc6F)c6ccc([nH]6)c(-c6c(F)cccc6F)c6nc(c(-c7c(F)cccc7F)c7ccc4[nH]7)C=C6)C=C5)cc3)c3ccccc13)N=2
REMARK SMILES IDX 21 1 20 2 18 3 19 4 17 6 16 7 15 8 13 9 14 10 87 11 82 12
REMARK SMILES IDX 86 13 83 14 85 15 84 16 12 17 5 18 6 19 10 20 7 21 9 22 8 23
REMARK SMILES IDX 11 24 88 25 3 26 4 27 2 28 1 29 22 30 23 31 24 32 25 33
REMARK SMILES IDX 26 34 27 36 28 37 29 38 81 39 30 40 80 41 31 42 32 43 33 44
REMARK SMILES IDX 74 45 34 46 79 47 73 48 75 49 35 50 78 51 72 52 71 53 36 55
REMARK SMILES IDX 62 56 45 57 61 58 46 59 49 60 60 61 76 62 47 63 48 64 59 66
REMARK SMILES IDX 77 67 50 68 37 69 38 70 43 71 39 72 40 73 42 74 44 75 41 76
REMARK SMILES IDX 63 77 64 78 69 79 65 80 66 81 68 82 70 83 67 84 51 85 52 86
REMARK SMILES IDX 57 87 53 88 54 89 56 90 58 91 55 92
REMARK H PARENT 20 5 25 35 75 54 49 65
REMARK Flexibility Score: inf
ROOT
ATOM      1  C   UNL A   1      39.974  21.296  26.189  1.00  0.00     0.116 C 
ENDROOT
BRANCH   1   2
ATOM      2  N   UNL A   1      39.255  22.556  26.318  1.00  0.00    -0.356 N 
ATOM      3  C   UNL A   1      38.021  22.974  25.899  1.00  0.00     0.221 C 
ATOM      4  O   UNL A   1      37.638  24.079  26.298  1.00  0.00    -0.275 OA
ATOM      5  H   UNL A   1      39.759  23.248  26.803  1.00  0.00     0.163 HD
BRANCH   3   6
ATOM      6  C   UNL A   1      37.098  22.121  25.042  1.00  0.00     0.122 C 
BRANCH   6   7
ATOM      7  C   UNL A   1      35.611  22.193  25.481  1.00  0.00     0.132 C 
BRANCH   7   8
ATOM      8  N   UNL A   1      34.719  22.932  24.568  1.00  0.00    -0.347 N 
ATOM      9  C   UNL A   1      34.196  25.070  24.590  1.00  0.00     0.024 A 
ATOM     10  C   UNL A   1      35.115  24.153  24.069  1.00  0.00     0.094 A 
ATOM     11  C   UNL A   1      33.419  24.290  25.552  1.00  0.00     0.007 A 
ATOM     12  C   UNL A   1      33.368  23.114  24.807  1.00  0.00     0.048 A 
ATOM     13  C   UNL A   1      32.300  24.477  26.371  1.00  0.00     0.011 A 
ATOM     14  C   UNL A   1      32.153  22.825  24.156  1.00  0.00     0.027 A 
ATOM     15  C   UNL A   1      31.055  24.068  25.924  1.00  0.00     0.001 A 
ATOM     16  C   UNL A   1      30.987  23.382  24.722  1.00  0.00     0.002 A 
BRANCH   9  17
ATOM     17  C   UNL A   1      34.073  26.466  24.053  1.00  0.00     0.255 C 
ATOM     18  C   UNL A   1      30.131  28.502  23.273  1.00  0.00     0.062 A 
ATOM     19  C   UNL A   1      30.681  29.403  24.275  1.00  0.00     0.018 A 
ATOM     20  C   UNL A   1      30.848  27.488  22.760  1.00  0.00     0.046 A 
ATOM     21  C   UNL A   1      31.838  29.169  24.911  1.00  0.00     0.031 A 
ATOM     22  C   UNL A   1      32.173  27.239  23.331  1.00  0.00     0.087 A 
ATOM     23  C   UNL A   1      32.607  27.986  24.525  1.00  0.00     0.086 A 
ATOM     24  N   UNL A   1      33.066  26.402  22.946  1.00  0.00    -0.252 NA
ATOM     25  N   UNL A   1      33.681  27.504  25.041  1.00  0.00    -0.252 NA
BRANCH  18  26
ATOM     26  C   UNL A   1      28.723  28.609  22.783  1.00  0.00     0.337 C 
ATOM     27  O   UNL A   1      27.773  28.100  23.344  1.00  0.00    -0.246 OA
BRANCH  26  28
ATOM     28  O   UNL A   1      28.667  29.350  21.644  1.00  0.00    -0.465 OA
ATOM     29  C   UNL A   1      28.114  30.653  21.842  1.00  0.00     0.282 C 
ENDBRANCH  26  28
ENDBRANCH  18  26
ENDBRANCH   9  17
ENDBRANCH   7   8
ENDBRANCH   6   7
ENDBRANCH   3   6
ENDBRANCH   1   2
BRANCH   1  30
ATOM     30  C   UNL A   1      40.900  20.884  27.354  1.00  0.00     0.023 C 
BRANCH  30  31
ATOM     31  C   UNL A   1      42.102  19.943  27.116  1.00  0.00     0.023 C 
BRANCH  31  32
ATOM     32  C   UNL A   1      42.181  19.275  25.745  1.00  0.00     0.116 C 
BRANCH  32  33
ATOM     33  N   UNL A   1      43.415  19.577  25.047  1.00  0.00    -0.352 N 
ATOM     34  C   UNL A   1      44.285  20.619  24.948  1.00  0.00     0.251 C 
ATOM     35  H   UNL A   1      43.703  18.819  24.490  1.00  0.00     0.163 HD
ATOM     36  O   UNL A   1      45.266  20.414  24.224  1.00  0.00    -0.269 OA
BRANCH  34  37
ATOM     37  C   UNL A   1      44.186  21.962  25.584  1.00  0.00     0.039 A 
ATOM     38  C   UNL A   1      44.861  22.395  26.721  1.00  0.00     0.014 A 
ATOM     39  C   UNL A   1      43.166  22.789  25.054  1.00  0.00     0.014 A 
ATOM     40  C   UNL A   1      44.466  23.595  27.341  1.00  0.00     0.010 A 
ATOM     41  C   UNL A   1      42.766  23.971  25.673  1.00  0.00     0.010 A 
ATOM     42  C   UNL A   1      43.391  24.367  26.844  1.00  0.00    -0.014 A 
BRANCH  42  43
ATOM     43  C   UNL A   1      43.117  25.699  27.417  1.00  0.00     0.031 A 
ATOM     44  C   UNL A   1      44.139  26.689  26.982  1.00  0.00     0.074 A 
ATOM     45  C   UNL A   1      42.022  26.099  28.114  1.00  0.00     0.049 A 
ATOM     46  N   UNL A   1      45.077  27.197  27.706  1.00  0.00    -0.248 NA
ATOM     47  C   UNL A   1      44.259  27.006  25.548  1.00  0.00     0.031 C 
ATOM     48  C   UNL A   1      40.798  25.332  28.363  1.00  0.00     0.029 A 
ATOM     49  N   UNL A   1      41.728  27.311  28.702  1.00  0.00    -0.354 N 
ATOM     50  C   UNL A   1      45.738  28.105  26.881  1.00  0.00     0.074 A 
ATOM     51  C   UNL A   1      45.339  27.791  25.538  1.00  0.00     0.031 C 
ATOM     52  C   UNL A   1      39.830  26.145  28.850  1.00  0.00     0.029 A 
ATOM     53  C   UNL A   1      40.391  27.465  29.089  1.00  0.00     0.049 A 
ATOM     54  H   UNL A   1      42.405  28.013  28.840  1.00  0.00     0.167 HD
ATOM     55  C   UNL A   1      46.265  29.237  27.424  1.00  0.00     0.037 A 
ATOM     56  C   UNL A   1      39.781  28.580  29.578  1.00  0.00     0.037 A 
ATOM     57  C   UNL A   1      46.344  29.110  28.859  1.00  0.00     0.049 A 
ATOM     58  C   UNL A   1      40.829  29.452  30.142  1.00  0.00     0.074 A 
ATOM     59  C   UNL A   1      47.122  28.459  29.790  1.00  0.00     0.029 A 
ATOM     60  N   UNL A   1      45.178  29.460  29.478  1.00  0.00    -0.354 N 
ATOM     61  N   UNL A   1      41.479  29.171  31.233  1.00  0.00    -0.248 NA
ATOM     62  C   UNL A   1      41.401  30.514  29.320  1.00  0.00     0.031 C 
ATOM     63  C   UNL A   1      46.323  28.345  30.970  1.00  0.00     0.029 A 
ATOM     64  C   UNL A   1      45.101  28.973  30.748  1.00  0.00     0.049 A 
ATOM     65  H   UNL A   1      44.474  30.003  29.054  1.00  0.00     0.167 HD
ATOM     66  C   UNL A   1      42.743  29.664  30.997  1.00  0.00     0.074 A 
ATOM     67  C   UNL A   1      42.589  30.633  29.918  1.00  0.00     0.031 C 
ATOM     68  C   UNL A   1      43.837  28.982  31.439  1.00  0.00     0.037 A 
BRANCH  55  69
ATOM     69  C   UNL A   1      46.122  30.625  26.811  1.00  0.00     0.057 A 
ATOM     70  C   UNL A   1      44.895  31.279  26.578  1.00  0.00     0.134 A 
ATOM     71  C   UNL A   1      47.249  31.474  26.816  1.00  0.00     0.134 A 
ATOM     72  F   UNL A   1      43.722  30.639  26.577  1.00  0.00    -0.206 F 
ATOM     73  C   UNL A   1      44.787  32.666  26.435  1.00  0.00     0.040 A 
ATOM     74  C   UNL A   1      47.147  32.868  26.715  1.00  0.00     0.040 A 
ATOM     75  F   UNL A   1      48.481  30.981  27.020  1.00  0.00    -0.206 F 
ATOM     76  C   UNL A   1      45.909  33.470  26.540  1.00  0.00     0.006 A 
ENDBRANCH  55  69
BRANCH  56  77
ATOM     77  C   UNL A   1      38.377  29.067  29.510  1.00  0.00     0.057 A 
ATOM     78  C   UNL A   1      37.901  29.722  28.365  1.00  0.00     0.134 A 
ATOM     79  C   UNL A   1      37.579  29.196  30.664  1.00  0.00     0.134 A 
ATOM     80  F   UNL A   1      38.608  29.709  27.227  1.00  0.00    -0.206 F 
ATOM     81  C   UNL A   1      36.733  30.499  28.376  1.00  0.00     0.040 A 
ATOM     82  C   UNL A   1      36.407  29.970  30.687  1.00  0.00     0.040 A 
ATOM     83  F   UNL A   1      37.953  28.633  31.821  1.00  0.00    -0.206 F 
ATOM     84  C   UNL A   1      35.992  30.640  29.544  1.00  0.00     0.006 A 
ENDBRANCH  56  77
BRANCH  68  85
ATOM     85  C   UNL A   1      43.657  28.090  32.621  1.00  0.00     0.057 A 
ATOM     86  C   UNL A   1      43.543  28.699  33.876  1.00  0.00     0.134 A 
ATOM     87  C   UNL A   1      43.638  26.690  32.580  1.00  0.00     0.134 A 
ATOM     88  F   UNL A   1      43.585  30.037  33.984  1.00  0.00    -0.206 F 
ATOM     89  C   UNL A   1      43.409  27.954  35.045  1.00  0.00     0.040 A 
ATOM     90  C   UNL A   1      43.472  25.932  33.743  1.00  0.00     0.040 A 
ATOM     91  F   UNL A   1      43.806  26.025  31.429  1.00  0.00    -0.206 F 
ATOM     92  C   UNL A   1      43.362  26.564  34.979  1.00  0.00     0.006 A 
ENDBRANCH  68  85
ENDBRANCH  42  43
ENDBRANCH  34  37
ENDBRANCH  32  33
ENDBRANCH  31  32
ENDBRANCH  30  31
ENDBRANCH   1  30
TORSDOF 16
ENDMDL
MODEL 2
REMARK VINA RESULT:     -12.1      2.281      7.975
REMARK SMILES COC(=O)c1ccc2c(c1)=N[C@H](c1cn(CCC(=O)NCCCCNC(=O)c3ccc(-c4c5nc(c(-c6c(F)cccc6F)c6ccc([nH]6)c(-c6c(F)cccc6F)c6nc(c(-c7c(F)cccc7F)c7ccc4[nH]7)C=C6)C=C5)cc3)c3ccccc13)N=2
REMARK SMILES IDX 21 1 20 2 18 3 19 4 17 6 16 7 15 8 13 9 14 10 87 11 82 12
REMARK SMILES IDX 86 13 83 14 85 15 84 16 12 17 5 18 6 19 10 20 7 21 9 22 8 23
REMARK SMILES IDX 11 24 88 25 3 26 4 27 2 28 1 29 22 30 23 31 24 32 25 33
REMARK SMILES IDX 26 34 27 36 28 37 29 38 81 39 30 40 80 41 31 42 32 43 33 44
REMARK SMILES IDX 74 45 34 46 79 47 73 48 75 49 35 50 78 51 72 52 71 53 36 55
REMARK SMILES IDX 62 56 45 57 61 58 46 59 49 60 60 61 76 62 47 63 48 64 59 66
REMARK SMILES IDX 77 67 50 68 37 69 38 70 43 71 39 72 40 73 42 74 44 75 41 76
REMARK SMILES IDX 63 77 64 78 69 79 65 80 66 81 68 82 70 83 67 84 51 85 52 86
REMARK SMILES IDX 57 87 53 88 54 89 56 90 58 91 55 92
REMARK H PARENT 20 5 25 35 75 54 49 65
REMARK Flexibility Score: inf
ROOT
ATOM      1  C   UNL A   1      31.421  29.383  25.132  1.00  0.00     0.116 C 
ENDROOT
BRANCH   1   2
ATOM      2  N   UNL A   1      31.036  29.442  23.728  1.00  0.00    -0.356 N 
ATOM      3  C   UNL A   1      30.130  28.743  22.978  1.00  0.00     0.221 C 
ATOM      4  O   UNL A   1      29.934  29.137  21.823  1.00  0.00    -0.275 OA
ATOM      5  H   UNL A   1      31.528  30.122  23.214  1.00  0.00     0.163 HD
BRANCH   3   6
ATOM      6  C   UNL A   1      29.323  27.574  23.522  1.00  0.00     0.122 C 
BRANCH   6   7
ATOM      7  C   UNL A   1      29.814  26.195  23.004  1.00  0.00     0.132 C 
BRANCH   7   8
ATOM      8  N   UNL A   1      31.138  25.772  23.495  1.00  0.00    -0.347 N 
ATOM      9  C   UNL A   1      32.111  23.806  23.306  1.00  0.00     0.024 A 
ATOM     10  C   UNL A   1      31.970  25.045  22.671  1.00  0.00     0.094 A 
ATOM     11  C   UNL A   1      31.145  23.854  24.401  1.00  0.00     0.007 A 
ATOM     12  C   UNL A   1      31.341  25.192  24.735  1.00  0.00     0.048 A 
ATOM     13  C   UNL A   1      30.779  23.057  25.493  1.00  0.00     0.011 A 
ATOM     14  C   UNL A   1      32.102  25.456  25.890  1.00  0.00     0.027 A 
ATOM     15  C   UNL A   1      31.321  23.324  26.739  1.00  0.00     0.001 A 
ATOM     16  C   UNL A   1      32.120  24.447  26.877  1.00  0.00     0.002 A 
BRANCH   9  17
ATOM     17  C   UNL A   1      33.176  22.825  22.909  1.00  0.00     0.255 C 
ATOM     18  C   UNL A   1      37.052  22.313  25.146  1.00  0.00     0.062 A 
ATOM     19  C   UNL A   1      36.495  20.977  25.305  1.00  0.00     0.018 A 
ATOM     20  C   UNL A   1      36.463  23.239  24.371  1.00  0.00     0.046 A 
ATOM     21  C   UNL A   1      35.268  20.642  24.881  1.00  0.00     0.031 A 
ATOM     22  C   UNL A   1      35.167  22.902  23.780  1.00  0.00     0.087 A 
ATOM     23  C   UNL A   1      34.489  21.653  24.167  1.00  0.00     0.086 A 
ATOM     24  N   UNL A   1      34.471  23.578  22.941  1.00  0.00    -0.252 NA
ATOM     25  N   UNL A   1      33.274  21.606  23.751  1.00  0.00    -0.252 NA
BRANCH  18  26
ATOM     26  C   UNL A   1      38.283  22.761  25.867  1.00  0.00     0.337 C 
ATOM     27  O   UNL A   1      38.416  23.866  26.351  1.00  0.00    -0.246 OA
BRANCH  26  28
ATOM     28  O   UNL A   1      39.207  21.763  25.902  1.00  0.00    -0.465 OA
ATOM     29  C   UNL A   1      40.086  21.844  27.025  1.00  0.00     0.282 C 
ENDBRANCH  26  28
ENDBRANCH  18  26
ENDBRANCH   9  17
ENDBRANCH   7   8
ENDBRANCH   6   7
ENDBRANCH   3   6
ENDBRANCH   1   2
BRANCH   1  30
ATOM     30  C   UNL A   1      32.880  29.744  25.483  1.00  0.00     0.023 C 
BRANCH  30  31
ATOM     31  C   UNL A   1      33.978  28.657  25.524  1.00  0.00     0.023 C 
BRANCH  31  32
ATOM     32  C   UNL A   1      34.431  28.202  26.910  1.00  0.00     0.116 C 
BRANCH  32  33
ATOM     33  N   UNL A   1      34.770  29.312  27.778  1.00  0.00    -0.352 N 
ATOM     34  C   UNL A   1      35.877  29.800  28.402  1.00  0.00     0.251 C 
ATOM     35  H   UNL A   1      33.980  29.866  27.970  1.00  0.00     0.163 HD
ATOM     36  O   UNL A   1      35.697  30.839  29.048  1.00  0.00    -0.269 OA
BRANCH  34  37
ATOM     37  C   UNL A   1      37.251  29.228  28.413  1.00  0.00     0.039 A 
ATOM     38  C   UNL A   1      37.809  28.421  29.400  1.00  0.00     0.014 A 
ATOM     39  C   UNL A   1      38.099  29.717  27.390  1.00  0.00     0.014 A 
ATOM     40  C   UNL A   1      39.195  28.177  29.389  1.00  0.00     0.010 A 
ATOM     41  C   UNL A   1      39.472  29.486  27.383  1.00  0.00     0.010 A 
ATOM     42  C   UNL A   1      40.038  28.741  28.405  1.00  0.00    -0.014 A 
BRANCH  42  43
ATOM     43  C   UNL A   1      41.452  28.327  28.325  1.00  0.00     0.031 A 
ATOM     44  C   UNL A   1      41.600  27.080  27.528  1.00  0.00     0.074 A 
ATOM     45  C   UNL A   1      42.547  29.011  28.745  1.00  0.00     0.049 A 
ATOM     46  N   UNL A   1      41.872  25.903  27.980  1.00  0.00    -0.248 NA
ATOM     47  C   UNL A   1      41.219  27.095  26.105  1.00  0.00     0.031 C 
ATOM     48  C   UNL A   1      42.593  30.378  29.272  1.00  0.00     0.029 A 
ATOM     49  N   UNL A   1      43.881  28.662  28.731  1.00  0.00    -0.354 N 
ATOM     50  C   UNL A   1      41.961  25.081  26.858  1.00  0.00     0.074 A 
ATOM     51  C   UNL A   1      41.350  25.806  25.780  1.00  0.00     0.031 C 
ATOM     52  C   UNL A   1      43.875  30.814  29.325  1.00  0.00     0.029 A 
ATOM     53  C   UNL A   1      44.766  29.721  28.974  1.00  0.00     0.049 A 
ATOM     54  H   UNL A   1      44.188  27.742  28.565  1.00  0.00     0.167 HD
ATOM     55  C   UNL A   1      42.841  24.042  26.861  1.00  0.00     0.037 A 
ATOM     56  C   UNL A   1      46.126  29.712  28.906  1.00  0.00     0.037 A 
ATOM     57  C   UNL A   1      43.283  23.770  28.208  1.00  0.00     0.049 A 
ATOM     58  C   UNL A   1      46.572  28.313  29.056  1.00  0.00     0.074 A 
ATOM     59  C   UNL A   1      42.790  23.184  29.352  1.00  0.00     0.029 A 
ATOM     60  N   UNL A   1      44.340  24.553  28.577  1.00  0.00    -0.354 N 
ATOM     61  N   UNL A   1      46.494  27.658  30.178  1.00  0.00    -0.248 NA
ATOM     62  C   UNL A   1      46.825  27.506  27.868  1.00  0.00     0.031 C 
ATOM     63  C   UNL A   1      43.537  23.734  30.439  1.00  0.00     0.029 A 
ATOM     64  C   UNL A   1      44.500  24.599  29.929  1.00  0.00     0.049 A 
ATOM     65  H   UNL A   1      44.919  25.029  27.938  1.00  0.00     0.167 HD
ATOM     66  C   UNL A   1      46.218  26.367  29.784  1.00  0.00     0.074 A 
ATOM     67  C   UNL A   1      46.623  26.292  28.384  1.00  0.00     0.031 C 
ATOM     68  C   UNL A   1      45.358  25.599  30.511  1.00  0.00     0.037 A 
BRANCH  55  69
ATOM     69  C   UNL A   1      43.761  23.698  25.697  1.00  0.00     0.057 A 
ATOM     70  C   UNL A   1      44.775  24.541  25.197  1.00  0.00     0.134 A 
ATOM     71  C   UNL A   1      43.888  22.343  25.327  1.00  0.00     0.134 A 
ATOM     72  F   UNL A   1      44.835  25.846  25.477  1.00  0.00    -0.206 F 
ATOM     73  C   UNL A   1      45.860  24.068  24.453  1.00  0.00     0.040 A 
ATOM     74  C   UNL A   1      44.993  21.852  24.618  1.00  0.00     0.040 A 
ATOM     75  F   UNL A   1      42.988  21.432  25.730  1.00  0.00    -0.206 F 
ATOM     76  C   UNL A   1      45.993  22.714  24.193  1.00  0.00     0.006 A 
ENDBRANCH  55  69
BRANCH  56  77
ATOM     77  C   UNL A   1      47.122  30.772  28.592  1.00  0.00     0.057 A 
ATOM     78  C   UNL A   1      47.595  31.629  29.595  1.00  0.00     0.134 A 
ATOM     79  C   UNL A   1      47.380  31.179  27.268  1.00  0.00     0.134 A 
ATOM     80  F   UNL A   1      47.358  31.366  30.887  1.00  0.00    -0.206 F 
ATOM     81  C   UNL A   1      48.240  32.841  29.304  1.00  0.00     0.040 A 
ATOM     82  C   UNL A   1      48.025  32.388  26.964  1.00  0.00     0.040 A 
ATOM     83  F   UNL A   1      46.948  30.448  26.230  1.00  0.00    -0.206 F 
ATOM     84  C   UNL A   1      48.440  33.233  27.985  1.00  0.00     0.006 A 
ENDBRANCH  56  77
BRANCH  68  85
ATOM     85  C   UNL A   1      45.209  25.923  31.959  1.00  0.00     0.057 A 
ATOM     86  C   UNL A   1      44.092  26.674  32.341  1.00  0.00     0.134 A 
ATOM     87  C   UNL A   1      46.123  25.572  32.962  1.00  0.00     0.134 A 
ATOM     88  F   UNL A   1      43.196  27.066  31.421  1.00  0.00    -0.206 F 
ATOM     89  C   UNL A   1      43.882  27.059  33.662  1.00  0.00     0.040 A 
ATOM     90  C   UNL A   1      45.907  25.926  34.297  1.00  0.00     0.040 A 
ATOM     91  F   UNL A   1      47.252  24.909  32.675  1.00  0.00    -0.206 F 
ATOM     92  C   UNL A   1      44.786  26.675  34.648  1.00  0.00     0.006 A 
ENDBRANCH  68  85
ENDBRANCH  42  43
ENDBRANCH  34  37
ENDBRANCH  32  33
ENDBRANCH  31  32
ENDBRANCH  30  31
ENDBRANCH   1  30
TORSDOF 16
ENDMDL
MODEL 3
REMARK VINA RESULT:     -11.6      1.619      2.178
REMARK SMILES COC(=O)c1ccc2c(c1)=N[C@H](c1cn(CCC(=O)NCCCCNC(=O)c3ccc(-c4c5nc(c(-c6c(F)cccc6F)c6ccc([nH]6)c(-c6c(F)cccc6F)c6nc(c(-c7c(F)cccc7F)c7ccc4[nH]7)C=C6)C=C5)cc3)c3ccccc13)N=2
REMARK SMILES IDX 21 1 20 2 18 3 19 4 17 6 16 7 15 8 13 9 14 10 87 11 82 12
REMARK SMILES IDX 86 13 83 14 85 15 84 16 12 17 5 18 6 19 10 20 7 21 9 22 8 23
REMARK SMILES IDX 11 24 88 25 3 26 4 27 2 28 1 29 22 30 23 31 24 32 25 33
REMARK SMILES IDX 26 34 27 36 28 37 29 38 81 39 30 40 80 41 31 42 32 43 33 44
REMARK SMILES IDX 74 45 34 46 79 47 73 48 75 49 35 50 78 51 72 52 71 53 36 55
REMARK SMILES IDX 62 56 45 57 61 58 46 59 49 60 60 61 76 62 47 63 48 64 59 66
REMARK SMILES IDX 77 67 50 68 37 69 38 70 43 71 39 72 40 73 42 74 44 75 41 76
REMARK SMILES IDX 63 77 64 78 69 79 65 80 66 81 68 82 70 83 67 84 51 85 52 86
REMARK SMILES IDX 57 87 53 88 54 89 56 90 58 91 55 92
REMARK H PARENT 20 5 25 35 75 54 49 65
REMARK Flexibility Score: inf
ROOT
ATOM      1  C   UNL A   1      40.526  21.661  27.618  1.00  0.00     0.116 C 
ENDROOT
BRANCH   1   2
ATOM      2  N   UNL A   1      39.815  22.829  27.115  1.00  0.00    -0.356 N 
ATOM      3  C   UNL A   1      38.699  22.979  26.339  1.00  0.00     0.221 C 
ATOM      4  O   UNL A   1      38.259  24.127  26.205  1.00  0.00    -0.275 OA
ATOM      5  H   UNL A   1      40.219  23.684  27.389  1.00  0.00     0.163 HD
BRANCH   3   6
ATOM      6  C   UNL A   1      37.957  21.810  25.709  1.00  0.00     0.122 C 
BRANCH   6   7
ATOM      7  C   UNL A   1      37.408  22.123  24.290  1.00  0.00     0.132 C 
BRANCH   7   8
ATOM      8  N   UNL A   1      35.942  22.056  24.152  1.00  0.00    -0.347 N 
ATOM      9  C   UNL A   1      34.465  23.672  24.386  1.00  0.00     0.024 A 
ATOM     10  C   UNL A   1      35.279  23.034  23.443  1.00  0.00     0.094 A 
ATOM     11  C   UNL A   1      34.890  23.108  25.665  1.00  0.00     0.007 A 
ATOM     12  C   UNL A   1      35.089  21.805  25.213  1.00  0.00     0.048 A 
ATOM     13  C   UNL A   1      34.496  23.175  27.007  1.00  0.00     0.011 A 
ATOM     14  C   UNL A   1      34.102  20.857  25.546  1.00  0.00     0.027 A 
ATOM     15  C   UNL A   1      33.663  22.194  27.519  1.00  0.00     0.001 A 
ATOM     16  C   UNL A   1      33.344  21.118  26.707  1.00  0.00     0.002 A 
BRANCH   9  17
ATOM     17  C   UNL A   1      33.350  24.591  23.981  1.00  0.00     0.255 C 
ATOM     18  C   UNL A   1      32.979  28.845  25.417  1.00  0.00     0.062 A 
ATOM     19  C   UNL A   1      33.103  29.077  23.985  1.00  0.00     0.018 A 
ATOM     20  C   UNL A   1      32.874  27.607  25.930  1.00  0.00     0.046 A 
ATOM     21  C   UNL A   1      33.339  28.094  23.104  1.00  0.00     0.031 A 
ATOM     22  C   UNL A   1      33.011  26.479  25.006  1.00  0.00     0.087 A 
ATOM     23  C   UNL A   1      33.405  26.722  23.607  1.00  0.00     0.086 A 
ATOM     24  N   UNL A   1      32.853  25.228  25.244  1.00  0.00    -0.252 NA
ATOM     25  N   UNL A   1      33.705  25.637  22.988  1.00  0.00    -0.252 NA
BRANCH  18  26
ATOM     26  C   UNL A   1      33.009  29.957  26.416  1.00  0.00     0.337 C 
ATOM     27  O   UNL A   1      34.030  30.483  26.809  1.00  0.00    -0.246 OA
BRANCH  26  28
ATOM     28  O   UNL A   1      31.747  30.285  26.804  1.00  0.00    -0.465 OA
ATOM     29  C   UNL A   1      31.372  31.616  26.445  1.00  0.00     0.282 C 
ENDBRANCH  26  28
ENDBRANCH  18  26
ENDBRANCH   9  17
ENDBRANCH   7   8
ENDBRANCH   6   7
ENDBRANCH   3   6
ENDBRANCH   1   2
BRANCH   1  30
ATOM     30  C   UNL A   1      40.982  20.609  26.584  1.00  0.00     0.023 C 
BRANCH  30  31
ATOM     31  C   UNL A   1      42.307  19.835  26.773  1.00  0.00     0.023 C 
BRANCH  31  32
ATOM     32  C   UNL A   1      42.764  18.976  25.595  1.00  0.00     0.116 C 
BRANCH  32  33
ATOM     33  N   UNL A   1      43.919  19.529  24.917  1.00  0.00    -0.352 N 
ATOM     34  C   UNL A   1      44.542  20.735  24.810  1.00  0.00     0.251 C 
ATOM     35  H   UNL A   1      44.382  18.842  24.386  1.00  0.00     0.163 HD
ATOM     36  O   UNL A   1      45.563  20.737  24.114  1.00  0.00    -0.269 OA
BRANCH  34  37
ATOM     37  C   UNL A   1      44.132  22.035  25.409  1.00  0.00     0.039 A 
ATOM     38  C   UNL A   1      43.195  22.929  24.897  1.00  0.00     0.014 A 
ATOM     39  C   UNL A   1      44.918  22.447  26.512  1.00  0.00     0.014 A 
ATOM     40  C   UNL A   1      43.110  24.224  25.441  1.00  0.00     0.010 A 
ATOM     41  C   UNL A   1      44.842  23.732  27.045  1.00  0.00     0.010 A 
ATOM     42  C   UNL A   1      43.960  24.644  26.489  1.00  0.00    -0.014 A 
BRANCH  42  43
ATOM     43  C   UNL A   1      43.727  25.945  27.146  1.00  0.00     0.031 A 
ATOM     44  C   UNL A   1      44.771  26.933  26.762  1.00  0.00     0.074 A 
ATOM     45  C   UNL A   1      42.650  26.329  27.879  1.00  0.00     0.049 A 
ATOM     46  N   UNL A   1      45.729  27.371  27.506  1.00  0.00    -0.248 NA
ATOM     47  C   UNL A   1      44.886  27.335  25.349  1.00  0.00     0.031 C 
ATOM     48  C   UNL A   1      41.408  25.581  28.093  1.00  0.00     0.029 A 
ATOM     49  N   UNL A   1      42.394  27.510  28.543  1.00  0.00    -0.354 N 
ATOM     50  C   UNL A   1      46.406  28.311  26.732  1.00  0.00     0.074 A 
ATOM     51  C   UNL A   1      45.987  28.091  25.376  1.00  0.00     0.031 C 
ATOM     52  C   UNL A   1      40.467  26.387  28.640  1.00  0.00     0.029 A 
ATOM     53  C   UNL A   1      41.065  27.675  28.954  1.00  0.00     0.049 A 
ATOM     54  H   UNL A   1      43.090  28.184  28.717  1.00  0.00     0.167 HD
ATOM     55  C   UNL A   1      46.968  29.393  27.337  1.00  0.00     0.037 A 
ATOM     56  C   UNL A   1      40.489  28.773  29.518  1.00  0.00     0.037 A 
ATOM     57  C   UNL A   1      47.058  29.175  28.761  1.00  0.00     0.049 A 
ATOM     58  C   UNL A   1      41.566  29.581  30.122  1.00  0.00     0.074 A 
ATOM     59  C   UNL A   1      47.826  28.448  29.642  1.00  0.00     0.029 A 
ATOM     60  N   UNL A   1      45.907  29.517  29.413  1.00  0.00    -0.354 N 
ATOM     61  N   UNL A   1      42.218  29.216  31.187  1.00  0.00    -0.248 NA
ATOM     62  C   UNL A   1      42.158  30.676  29.362  1.00  0.00     0.031 C 
ATOM     63  C   UNL A   1      47.035  28.282  30.821  1.00  0.00     0.029 A 
ATOM     64  C   UNL A   1      45.829  28.954  30.651  1.00  0.00     0.049 A 
ATOM     65  H   UNL A   1      45.213  30.102  29.031  1.00  0.00     0.167 HD
ATOM     66  C   UNL A   1      43.493  29.689  30.968  1.00  0.00     0.074 A 
ATOM     67  C   UNL A   1      43.354  30.727  29.952  1.00  0.00     0.031 C 
ATOM     68  C   UNL A   1      44.572  28.953  31.356  1.00  0.00     0.037 A 
BRANCH  55  69
ATOM     69  C   UNL A   1      46.857  30.819  26.812  1.00  0.00     0.057 A 
ATOM     70  C   UNL A   1      45.645  31.509  26.609  1.00  0.00     0.134 A 
ATOM     71  C   UNL A   1      47.999  31.645  26.884  1.00  0.00     0.134 A 
ATOM     72  F   UNL A   1      44.461  30.892  26.553  1.00  0.00    -0.206 F 
ATOM     73  C   UNL A   1      45.562  32.904  26.553  1.00  0.00     0.040 A 
ATOM     74  C   UNL A   1      47.922  33.045  26.871  1.00  0.00     0.040 A 
ATOM     75  F   UNL A   1      49.219  31.118  27.070  1.00  0.00    -0.206 F 
ATOM     76  C   UNL A   1      46.697  33.679  26.722  1.00  0.00     0.006 A 
ENDBRANCH  55  69
BRANCH  56  77
ATOM     77  C   UNL A   1      39.098  29.299  29.495  1.00  0.00     0.057 A 
ATOM     78  C   UNL A   1      38.283  29.219  30.634  1.00  0.00     0.134 A 
ATOM     79  C   UNL A   1      38.433  29.587  28.287  1.00  0.00     0.134 A 
ATOM     80  F   UNL A   1      38.805  28.898  31.825  1.00  0.00    -0.206 F 
ATOM     81  C   UNL A   1      36.890  29.365  30.571  1.00  0.00     0.040 A 
ATOM     82  C   UNL A   1      37.039  29.736  28.211  1.00  0.00     0.040 A 
ATOM     83  F   UNL A   1      39.111  29.660  27.133  1.00  0.00    -0.206 F 
ATOM     84  C   UNL A   1      36.261  29.606  29.354  1.00  0.00     0.006 A 
ENDBRANCH  56  77
BRANCH  68  85
ATOM     85  C   UNL A   1      44.379  27.995  32.483  1.00  0.00     0.057 A 
ATOM     86  C   UNL A   1      44.609  28.470  33.779  1.00  0.00     0.134 A 
ATOM     87  C   UNL A   1      44.029  26.646  32.343  1.00  0.00     0.134 A 
ATOM     88  F   UNL A   1      44.976  29.746  33.975  1.00  0.00    -0.206 F 
ATOM     89  C   UNL A   1      44.492  27.646  34.894  1.00  0.00     0.040 A 
ATOM     90  C   UNL A   1      43.878  25.816  33.458  1.00  0.00     0.040 A 
ATOM     91  F   UNL A   1      43.854  26.093  31.134  1.00  0.00    -0.206 F 
ATOM     92  C   UNL A   1      44.115  26.315  34.737  1.00  0.00     0.006 A 
ENDBRANCH  68  85
ENDBRANCH  42  43
ENDBRANCH  34  37
ENDBRANCH  32  33
ENDBRANCH  31  32
ENDBRANCH  30  31
ENDBRANCH   1  30
TORSDOF 16
ENDMDL
