MODEL 1
REMARK VINA RESULT:     -12.4      0.000      0.000
REMARK SMILES Cc1cc2nc(C(F)(F)F)c(=O)n([C@H](C)C(=O)NCCCCNC(=O)c3ccc(-c4c5nc(c(-c6c(F)cccc6F)c6ccc([nH]6)c(-c6c(F)cccc6F)c6nc(c(-c7c(F)cccc7F)c7ccc4[nH]7)C=C6)C=C5)cc3)c2cc1C
REMARK SMILES IDX 20 1 19 2 18 3 16 4 17 5 14 7 15 8 13 9 1 10 2 11 3 12 82 13
REMARK SMILES IDX 4 14 81 15 83 16 5 17 80 18 6 19 11 20 12 21 7 22 8 23 9 24
REMARK SMILES IDX 10 25 21 26 22 27 23 28 24 29 25 31 26 32 27 33 79 34 28 35
REMARK SMILES IDX 78 36 29 37 30 38 31 39 72 40 32 41 77 42 71 43 73 44 33 45
REMARK SMILES IDX 76 46 70 47 69 48 34 50 60 51 43 52 59 53 44 54 47 55 58 56
REMARK SMILES IDX 74 57 45 58 46 59 57 61 75 62 48 63 35 64 36 65 41 66 37 67
REMARK SMILES IDX 38 68 40 69 42 70 39 71 61 72 62 73 67 74 63 75 64 76 66 77
REMARK SMILES IDX 68 78 65 79 49 80 50 81 55 82 51 83 52 84 54 85 56 86 53 87
REMARK H PARENT 18 6 23 30 73 49 47 60
REMARK Flexibility Score: inf
ROOT
ATOM      1  C   UNL A   1      31.334  27.497  26.182  1.00  0.00     0.023 C 
ENDROOT
BRANCH   1   2
ATOM      2  C   UNL A   1      31.060  26.080  25.697  1.00  0.00     0.116 C 
BRANCH   2   3
ATOM      3  N   UNL A   1      31.404  25.105  26.714  1.00  0.00    -0.354 N 
ATOM      4  C   UNL A   1      32.291  24.070  26.651  1.00  0.00     0.242 C 
ATOM      5  O   UNL A   1      32.405  23.354  27.649  1.00  0.00    -0.273 OA
ATOM      6  H   UNL A   1      30.931  25.204  27.572  1.00  0.00     0.163 HD
BRANCH   4   7
ATOM      7  C   UNL A   1      33.058  23.753  25.352  1.00  0.00     0.177 C 
ATOM      8  C   UNL A   1      33.930  25.013  25.112  1.00  0.00     0.042 C 
BRANCH   7   9
ATOM      9  N   UNL A   1      33.807  22.467  25.237  1.00  0.00    -0.293 N 
ATOM     10  C   UNL A   1      39.514  21.821  25.943  1.00  0.00     0.044 C 
ATOM     11  C   UNL A   1      38.032  22.030  25.794  1.00  0.00    -0.046 A 
ATOM     12  C   UNL A   1      37.234  20.986  25.312  1.00  0.00     0.034 A 
ATOM     13  C   UNL A   1      37.409  23.221  26.186  1.00  0.00    -0.046 A 
ATOM     14  C   UNL A   1      35.847  21.125  25.169  1.00  0.00     0.088 A 
ATOM     15  C   UNL A   1      36.006  23.328  26.096  1.00  0.00     0.032 A 
ATOM     16  C   UNL A   1      38.197  24.391  26.713  1.00  0.00     0.044 C 
ATOM     17  N   UNL A   1      35.153  20.004  24.704  1.00  0.00    -0.236 NA
ATOM     18  C   UNL A   1      35.215  22.331  25.508  1.00  0.00     0.071 A 
ATOM     19  C   UNL A   1      33.852  20.052  24.651  1.00  0.00     0.210 A 
ATOM     20  C   UNL A   1      33.071  21.295  25.000  1.00  0.00     0.282 A 
ATOM     21  O   UNL A   1      31.850  21.232  25.041  1.00  0.00    -0.267 OA
BRANCH  19  22
ATOM     22  C   UNL A   1      33.055  18.838  24.235  1.00  0.00     0.438 C 
ATOM     23  F   UNL A   1      32.244  19.119  23.171  1.00  0.00    -0.164 F 
ATOM     24  F   UNL A   1      33.871  17.827  23.816  1.00  0.00    -0.164 F 
ATOM     25  F   UNL A   1      32.236  18.295  25.172  1.00  0.00    -0.164 F 
ENDBRANCH  19  22
ENDBRANCH   7   9
ENDBRANCH   4   7
ENDBRANCH   2   3
ENDBRANCH   1   2
BRANCH   1  26
ATOM     26  C   UNL A   1      31.600  28.493  25.056  1.00  0.00     0.023 C 
BRANCH  26  27
ATOM     27  C   UNL A   1      32.737  29.469  25.333  1.00  0.00     0.116 C 
BRANCH  27  28
ATOM     28  N   UNL A   1      32.280  30.709  25.947  1.00  0.00    -0.352 N 
ATOM     29  C   UNL A   1      32.866  31.435  26.959  1.00  0.00     0.251 C 
ATOM     30  H   UNL A   1      31.440  31.079  25.590  1.00  0.00     0.163 HD
ATOM     31  O   UNL A   1      32.281  32.377  27.480  1.00  0.00    -0.269 OA
BRANCH  29  32
ATOM     32  C   UNL A   1      34.202  31.028  27.437  1.00  0.00     0.039 A 
ATOM     33  C   UNL A   1      34.444  29.692  27.762  1.00  0.00     0.014 A 
ATOM     34  C   UNL A   1      35.180  32.000  27.657  1.00  0.00     0.014 A 
ATOM     35  C   UNL A   1      35.575  29.365  28.498  1.00  0.00     0.010 A 
ATOM     36  C   UNL A   1      36.367  31.646  28.302  1.00  0.00     0.010 A 
ATOM     37  C   UNL A   1      36.548  30.339  28.784  1.00  0.00    -0.014 A 
BRANCH  37  38
ATOM     38  C   UNL A   1      37.732  29.969  29.604  1.00  0.00     0.031 A 
ATOM     39  C   UNL A   1      38.807  29.070  29.046  1.00  0.00     0.074 A 
ATOM     40  C   UNL A   1      37.870  30.500  30.835  1.00  0.00     0.049 A 
ATOM     41  N   UNL A   1      39.900  28.638  29.624  1.00  0.00    -0.248 NA
ATOM     42  C   UNL A   1      38.638  28.595  27.663  1.00  0.00     0.031 C 
ATOM     43  C   UNL A   1      36.916  31.409  31.473  1.00  0.00     0.029 A 
ATOM     44  N   UNL A   1      38.877  30.377  31.758  1.00  0.00    -0.354 N 
ATOM     45  C   UNL A   1      40.539  27.837  28.685  1.00  0.00     0.074 A 
ATOM     46  C   UNL A   1      39.697  27.810  27.510  1.00  0.00     0.031 C 
ATOM     47  C   UNL A   1      37.408  31.805  32.656  1.00  0.00     0.029 A 
ATOM     48  C   UNL A   1      38.671  31.118  32.896  1.00  0.00     0.049 A 
ATOM     49  H   UNL A   1      39.671  29.811  31.619  1.00  0.00     0.167 HD
ATOM     50  C   UNL A   1      41.730  27.199  28.787  1.00  0.00     0.037 A 
ATOM     51  C   UNL A   1      39.405  31.219  34.020  1.00  0.00     0.037 A 
ATOM     52  C   UNL A   1      42.577  27.243  29.951  1.00  0.00     0.049 A 
ATOM     53  C   UNL A   1      40.677  30.429  34.135  1.00  0.00     0.074 A 
ATOM     54  C   UNL A   1      43.801  26.626  30.146  1.00  0.00     0.029 A 
ATOM     55  N   UNL A   1      42.296  27.950  31.110  1.00  0.00    -0.354 N 
ATOM     56  N   UNL A   1      41.263  29.672  33.240  1.00  0.00    -0.248 NA
ATOM     57  C   UNL A   1      41.384  30.499  35.421  1.00  0.00     0.031 C 
ATOM     58  C   UNL A   1      44.238  26.922  31.439  1.00  0.00     0.029 A 
ATOM     59  C   UNL A   1      43.315  27.768  32.031  1.00  0.00     0.049 A 
ATOM     60  H   UNL A   1      41.492  28.499  31.257  1.00  0.00     0.167 HD
ATOM     61  C   UNL A   1      42.419  29.196  33.845  1.00  0.00     0.074 A 
ATOM     62  C   UNL A   1      42.462  29.768  35.174  1.00  0.00     0.031 C 
ATOM     63  C   UNL A   1      43.356  28.357  33.345  1.00  0.00     0.037 A 
BRANCH  50  64
ATOM     64  C   UNL A   1      42.211  26.399  27.610  1.00  0.00     0.057 A 
ATOM     65  C   UNL A   1      43.079  26.945  26.656  1.00  0.00     0.134 A 
ATOM     66  C   UNL A   1      41.892  25.039  27.489  1.00  0.00     0.134 A 
ATOM     67  F   UNL A   1      43.416  28.242  26.708  1.00  0.00    -0.206 F 
ATOM     68  C   UNL A   1      43.612  26.168  25.626  1.00  0.00     0.040 A 
ATOM     69  C   UNL A   1      42.437  24.247  26.478  1.00  0.00     0.040 A 
ATOM     70  F   UNL A   1      41.072  24.450  28.375  1.00  0.00    -0.206 F 
ATOM     71  C   UNL A   1      43.302  24.811  25.543  1.00  0.00     0.006 A 
ENDBRANCH  50  64
BRANCH  51  72
ATOM     72  C   UNL A   1      38.951  32.094  35.131  1.00  0.00     0.057 A 
ATOM     73  C   UNL A   1      39.242  33.463  35.136  1.00  0.00     0.134 A 
ATOM     74  C   UNL A   1      38.229  31.586  36.219  1.00  0.00     0.134 A 
ATOM     75  F   UNL A   1      39.946  34.007  34.132  1.00  0.00    -0.206 F 
ATOM     76  C   UNL A   1      38.850  34.291  36.189  1.00  0.00     0.040 A 
ATOM     77  C   UNL A   1      37.802  32.408  37.262  1.00  0.00     0.040 A 
ATOM     78  F   UNL A   1      37.912  30.284  36.273  1.00  0.00    -0.206 F 
ATOM     79  C   UNL A   1      38.122  33.763  37.254  1.00  0.00     0.006 A 
ENDBRANCH  51  72
BRANCH  63  80
ATOM     80  C   UNL A   1      44.530  28.026  34.219  1.00  0.00     0.057 A 
ATOM     81  C   UNL A   1      45.678  28.828  34.247  1.00  0.00     0.134 A 
ATOM     82  C   UNL A   1      44.485  26.929  35.090  1.00  0.00     0.134 A 
ATOM     83  F   UNL A   1      45.788  29.886  33.429  1.00  0.00    -0.206 F 
ATOM     84  C   UNL A   1      46.745  28.543  35.100  1.00  0.00     0.040 A 
ATOM     85  C   UNL A   1      45.534  26.651  35.968  1.00  0.00     0.040 A 
ATOM     86  F   UNL A   1      43.411  26.127  35.120  1.00  0.00    -0.206 F 
ATOM     87  C   UNL A   1      46.669  27.458  35.971  1.00  0.00     0.006 A 
ENDBRANCH  63  80
ENDBRANCH  37  38
ENDBRANCH  29  32
ENDBRANCH  27  28
ENDBRANCH  26  27
ENDBRANCH   1  26
TORSDOF 13
ENDMDL
MODEL 2
REMARK VINA RESULT:     -12.3      3.356      7.200
REMARK SMILES Cc1cc2nc(C(F)(F)F)c(=O)n([C@H](C)C(=O)NCCCCNC(=O)c3ccc(-c4c5nc(c(-c6c(F)cccc6F)c6ccc([nH]6)c(-c6c(F)cccc6F)c6nc(c(-c7c(F)cccc7F)c7ccc4[nH]7)C=C6)C=C5)cc3)c2cc1C
REMARK SMILES IDX 20 1 19 2 18 3 16 4 17 5 14 7 15 8 13 9 1 10 2 11 3 12 82 13
REMARK SMILES IDX 4 14 81 15 83 16 5 17 80 18 6 19 11 20 12 21 7 22 8 23 9 24
REMARK SMILES IDX 10 25 21 26 22 27 23 28 24 29 25 31 26 32 27 33 79 34 28 35
REMARK SMILES IDX 78 36 29 37 30 38 31 39 72 40 32 41 77 42 71 43 73 44 33 45
REMARK SMILES IDX 76 46 70 47 69 48 34 50 60 51 43 52 59 53 44 54 47 55 58 56
REMARK SMILES IDX 74 57 45 58 46 59 57 61 75 62 48 63 35 64 36 65 41 66 37 67
REMARK SMILES IDX 38 68 40 69 42 70 39 71 61 72 62 73 67 74 63 75 64 76 66 77
REMARK SMILES IDX 68 78 65 79 49 80 50 81 55 82 51 83 52 84 54 85 56 86 53 87
REMARK H PARENT 18 6 23 30 73 49 47 60
REMARK Flexibility Score: inf
ROOT
ATOM      1  C   UNL A   1      33.651  27.331  25.035  1.00  0.00     0.023 C 
ENDROOT
BRANCH   1   2
ATOM      2  C   UNL A   1      32.458  26.429  25.322  1.00  0.00     0.116 C 
BRANCH   2   3
ATOM      3  N   UNL A   1      32.232  25.501  24.231  1.00  0.00    -0.354 N 
ATOM      4  C   UNL A   1      32.365  24.144  24.212  1.00  0.00     0.242 C 
ATOM      5  O   UNL A   1      32.131  23.561  23.149  1.00  0.00    -0.273 OA
ATOM      6  H   UNL A   1      31.942  25.909  23.383  1.00  0.00     0.163 HD
BRANCH   4   7
ATOM      7  C   UNL A   1      32.872  23.372  25.447  1.00  0.00     0.177 C 
ATOM      8  C   UNL A   1      31.656  22.512  25.880  1.00  0.00     0.042 C 
BRANCH   7   9
ATOM      9  N   UNL A   1      34.153  22.612  25.362  1.00  0.00    -0.293 N 
ATOM     10  C   UNL A   1      34.652  16.993  24.073  1.00  0.00     0.044 C 
ATOM     11  C   UNL A   1      34.478  18.455  24.377  1.00  0.00    -0.046 A 
ATOM     12  C   UNL A   1      35.575  19.201  24.823  1.00  0.00     0.034 A 
ATOM     13  C   UNL A   1      33.262  19.116  24.166  1.00  0.00    -0.046 A 
ATOM     14  C   UNL A   1      35.469  20.570  25.106  1.00  0.00     0.088 A 
ATOM     15  C   UNL A   1      33.183  20.505  24.396  1.00  0.00     0.032 A 
ATOM     16  C   UNL A   1      32.035  18.385  23.690  1.00  0.00     0.044 C 
ATOM     17  N   UNL A   1      36.639  21.214  25.518  1.00  0.00    -0.236 NA
ATOM     18  C   UNL A   1      34.243  21.235  24.950  1.00  0.00     0.071 A 
ATOM     19  C   UNL A   1      36.614  22.504  25.695  1.00  0.00     0.210 A 
ATOM     20  C   UNL A   1      35.352  23.318  25.546  1.00  0.00     0.282 A 
ATOM     21  O   UNL A   1      35.427  24.538  25.612  1.00  0.00    -0.267 OA
BRANCH  19  22
ATOM     22  C   UNL A   1      37.873  23.255  26.058  1.00  0.00     0.438 C 
ATOM     23  F   UNL A   1      38.938  22.408  26.178  1.00  0.00    -0.164 F 
ATOM     24  F   UNL A   1      38.220  24.144  25.082  1.00  0.00    -0.164 F 
ATOM     25  F   UNL A   1      37.849  23.962  27.217  1.00  0.00    -0.164 F 
ENDBRANCH  19  22
ENDBRANCH   7   9
ENDBRANCH   4   7
ENDBRANCH   2   3
ENDBRANCH   1   2
BRANCH   1  26
ATOM     26  C   UNL A   1      33.538  28.720  25.660  1.00  0.00     0.023 C 
BRANCH  26  27
ATOM     27  C   UNL A   1      33.636  28.737  27.180  1.00  0.00     0.116 C 
BRANCH  27  28
ATOM     28  N   UNL A   1      33.680  30.087  27.728  1.00  0.00    -0.352 N 
ATOM     29  C   UNL A   1      34.723  30.724  28.361  1.00  0.00     0.251 C 
ATOM     30  H   UNL A   1      32.854  30.613  27.632  1.00  0.00     0.163 HD
ATOM     31  O   UNL A   1      34.559  31.807  28.910  1.00  0.00    -0.269 OA
BRANCH  29  32
ATOM     32  C   UNL A   1      36.037  30.055  28.405  1.00  0.00     0.039 A 
ATOM     33  C   UNL A   1      36.426  29.365  29.555  1.00  0.00     0.014 A 
ATOM     34  C   UNL A   1      36.921  30.204  27.334  1.00  0.00     0.014 A 
ATOM     35  C   UNL A   1      37.759  29.012  29.718  1.00  0.00     0.010 A 
ATOM     36  C   UNL A   1      38.236  29.749  27.460  1.00  0.00     0.010 A 
ATOM     37  C   UNL A   1      38.682  29.205  28.676  1.00  0.00    -0.014 A 
BRANCH  37  38
ATOM     38  C   UNL A   1      40.111  28.850  28.891  1.00  0.00     0.031 A 
ATOM     39  C   UNL A   1      41.035  29.786  29.628  1.00  0.00     0.074 A 
ATOM     40  C   UNL A   1      40.558  27.648  28.479  1.00  0.00     0.049 A 
ATOM     41  N   UNL A   1      42.309  29.642  29.896  1.00  0.00    -0.248 NA
ATOM     42  C   UNL A   1      40.461  31.045  30.130  1.00  0.00     0.031 C 
ATOM     43  C   UNL A   1      39.752  26.641  27.785  1.00  0.00     0.029 A 
ATOM     44  N   UNL A   1      41.788  27.056  28.606  1.00  0.00    -0.354 N 
ATOM     45  C   UNL A   1      42.688  30.788  30.585  1.00  0.00     0.074 A 
ATOM     46  C   UNL A   1      41.522  31.639  30.663  1.00  0.00     0.031 C 
ATOM     47  C   UNL A   1      40.490  25.537  27.598  1.00  0.00     0.029 A 
ATOM     48  C   UNL A   1      41.842  25.786  28.085  1.00  0.00     0.049 A 
ATOM     49  H   UNL A   1      42.560  27.499  29.029  1.00  0.00     0.167 HD
ATOM     50  C   UNL A   1      43.895  31.094  31.121  1.00  0.00     0.037 A 
ATOM     51  C   UNL A   1      42.869  24.921  27.989  1.00  0.00     0.037 A 
ATOM     52  C   UNL A   1      45.050  30.237  31.059  1.00  0.00     0.049 A 
ATOM     53  C   UNL A   1      44.217  25.328  28.515  1.00  0.00     0.074 A 
ATOM     54  C   UNL A   1      46.317  30.464  31.572  1.00  0.00     0.029 A 
ATOM     55  N   UNL A   1      45.081  28.987  30.459  1.00  0.00    -0.354 N 
ATOM     56  N   UNL A   1      44.559  26.418  29.157  1.00  0.00    -0.248 NA
ATOM     57  C   UNL A   1      45.324  24.387  28.293  1.00  0.00     0.031 C 
ATOM     58  C   UNL A   1      47.124  29.372  31.242  1.00  0.00     0.029 A 
ATOM     59  C   UNL A   1      46.348  28.441  30.573  1.00  0.00     0.049 A 
ATOM     60  H   UNL A   1      44.314  28.553  30.018  1.00  0.00     0.167 HD
ATOM     61  C   UNL A   1      45.912  26.283  29.437  1.00  0.00     0.074 A 
ATOM     62  C   UNL A   1      46.322  24.997  28.915  1.00  0.00     0.031 C 
ATOM     63  C   UNL A   1      46.740  27.151  30.066  1.00  0.00     0.037 A 
BRANCH  50  64
ATOM     64  C   UNL A   1      44.043  32.407  31.836  1.00  0.00     0.057 A 
ATOM     65  C   UNL A   1      44.387  33.580  31.152  1.00  0.00     0.134 A 
ATOM     66  C   UNL A   1      43.730  32.521  33.197  1.00  0.00     0.134 A 
ATOM     67  F   UNL A   1      44.708  33.538  29.850  1.00  0.00    -0.206 F 
ATOM     68  C   UNL A   1      44.416  34.818  31.796  1.00  0.00     0.040 A 
ATOM     69  C   UNL A   1      43.731  33.756  33.846  1.00  0.00     0.040 A 
ATOM     70  F   UNL A   1      43.383  31.438  33.910  1.00  0.00    -0.206 F 
ATOM     71  C   UNL A   1      44.073  34.910  33.145  1.00  0.00     0.006 A 
ENDBRANCH  50  64
BRANCH  51  72
ATOM     72  C   UNL A   1      42.669  23.591  27.361  1.00  0.00     0.057 A 
ATOM     73  C   UNL A   1      42.310  22.477  28.129  1.00  0.00     0.134 A 
ATOM     74  C   UNL A   1      42.843  23.394  25.984  1.00  0.00     0.134 A 
ATOM     75  F   UNL A   1      42.146  22.597  29.455  1.00  0.00    -0.206 F 
ATOM     76  C   UNL A   1      42.150  21.215  27.558  1.00  0.00     0.040 A 
ATOM     77  C   UNL A   1      42.653  22.144  25.394  1.00  0.00     0.040 A 
ATOM     78  F   UNL A   1      43.181  24.420  25.191  1.00  0.00    -0.206 F 
ATOM     79  C   UNL A   1      42.316  21.047  26.183  1.00  0.00     0.006 A 
ENDBRANCH  51  72
BRANCH  63  80
ATOM     80  C   UNL A   1      48.168  26.732  30.258  1.00  0.00     0.057 A 
ATOM     81  C   UNL A   1      48.570  25.962  31.357  1.00  0.00     0.134 A 
ATOM     82  C   UNL A   1      49.141  27.049  29.300  1.00  0.00     0.134 A 
ATOM     83  F   UNL A   1      47.689  25.635  32.316  1.00  0.00    -0.206 F 
ATOM     84  C   UNL A   1      49.889  25.534  31.503  1.00  0.00     0.040 A 
ATOM     85  C   UNL A   1      50.457  26.602  29.421  1.00  0.00     0.040 A 
ATOM     86  F   UNL A   1      48.821  27.775  28.219  1.00  0.00    -0.206 F 
ATOM     87  C   UNL A   1      50.834  25.845  30.527  1.00  0.00     0.006 A 
ENDBRANCH  63  80
ENDBRANCH  37  38
ENDBRANCH  29  32
ENDBRANCH  27  28
ENDBRANCH  26  27
ENDBRANCH   1  26
TORSDOF 13
ENDMDL
MODEL 3
REMARK VINA RESULT:     -12.3      0.242      6.094
REMARK SMILES Cc1cc2nc(C(F)(F)F)c(=O)n([C@H](C)C(=O)NCCCCNC(=O)c3ccc(-c4c5nc(c(-c6c(F)cccc6F)c6ccc([nH]6)c(-c6c(F)cccc6F)c6nc(c(-c7c(F)cccc7F)c7ccc4[nH]7)C=C6)C=C5)cc3)c2cc1C
REMARK SMILES IDX 20 1 19 2 18 3 16 4 17 5 14 7 15 8 13 9 1 10 2 11 3 12 82 13
REMARK SMILES IDX 4 14 81 15 83 16 5 17 80 18 6 19 11 20 12 21 7 22 8 23 9 24
REMARK SMILES IDX 10 25 21 26 22 27 23 28 24 29 25 31 26 32 27 33 79 34 28 35
REMARK SMILES IDX 78 36 29 37 30 38 31 39 72 40 32 41 77 42 71 43 73 44 33 45
REMARK SMILES IDX 76 46 70 47 69 48 34 50 60 51 43 52 59 53 44 54 47 55 58 56
REMARK SMILES IDX 74 57 45 58 46 59 57 61 75 62 48 63 35 64 36 65 41 66 37 67
REMARK SMILES IDX 38 68 40 69 42 70 39 71 61 72 62 73 67 74 63 75 64 76 66 77
REMARK SMILES IDX 68 78 65 79 49 80 50 81 55 82 51 83 52 84 54 85 56 86 53 87
REMARK H PARENT 18 6 23 30 73 49 47 60
REMARK Flexibility Score: inf
ROOT
ATOM      1  C   UNL A   1      31.547  27.397  26.528  1.00  0.00     0.023 C 
ENDROOT
BRANCH   1   2
ATOM      2  C   UNL A   1      31.195  26.034  25.946  1.00  0.00     0.116 C 
BRANCH   2   3
ATOM      3  N   UNL A   1      31.460  24.975  26.901  1.00  0.00    -0.354 N 
ATOM      4  C   UNL A   1      32.251  23.872  26.767  1.00  0.00     0.242 C 
ATOM      5  O   UNL A   1      32.310  23.091  27.721  1.00  0.00    -0.273 OA
ATOM      6  H   UNL A   1      31.005  25.065  27.769  1.00  0.00     0.163 HD
BRANCH   4   7
ATOM      7  C   UNL A   1      32.977  23.565  25.442  1.00  0.00     0.177 C 
ATOM      8  C   UNL A   1      33.828  24.834  25.175  1.00  0.00     0.042 C 
BRANCH   7   9
ATOM      9  N   UNL A   1      33.733  22.286  25.298  1.00  0.00    -0.293 N 
ATOM     10  C   UNL A   1      39.466  21.691  25.817  1.00  0.00     0.044 C 
ATOM     11  C   UNL A   1      37.978  21.887  25.717  1.00  0.00    -0.046 A 
ATOM     12  C   UNL A   1      37.175  20.837  25.257  1.00  0.00     0.034 A 
ATOM     13  C   UNL A   1      37.358  23.070  26.132  1.00  0.00    -0.046 A 
ATOM     14  C   UNL A   1      35.782  20.963  25.160  1.00  0.00     0.088 A 
ATOM     15  C   UNL A   1      35.951  23.165  26.088  1.00  0.00     0.032 A 
ATOM     16  C   UNL A   1      38.151  24.246  26.638  1.00  0.00     0.044 C 
ATOM     17  N   UNL A   1      35.084  19.838  24.714  1.00  0.00    -0.236 NA
ATOM     18  C   UNL A   1      35.151  22.162  25.523  1.00  0.00     0.071 A 
ATOM     19  C   UNL A   1      33.781  19.873  24.703  1.00  0.00     0.210 A 
ATOM     20  C   UNL A   1      33.001  21.108  25.081  1.00  0.00     0.282 A 
ATOM     21  O   UNL A   1      31.782  21.034  25.161  1.00  0.00    -0.267 OA
BRANCH  19  22
ATOM     22  C   UNL A   1      32.982  18.654  24.309  1.00  0.00     0.438 C 
ATOM     23  F   UNL A   1      32.156  18.922  23.254  1.00  0.00    -0.164 F 
ATOM     24  F   UNL A   1      33.796  17.642  23.887  1.00  0.00    -0.164 F 
ATOM     25  F   UNL A   1      32.179  18.116  25.262  1.00  0.00    -0.164 F 
ENDBRANCH  19  22
ENDBRANCH   7   9
ENDBRANCH   4   7
ENDBRANCH   2   3
ENDBRANCH   1   2
BRANCH   1  26
ATOM     26  C   UNL A   1      31.503  28.532  25.508  1.00  0.00     0.023 C 
BRANCH  26  27
ATOM     27  C   UNL A   1      32.659  29.518  25.612  1.00  0.00     0.116 C 
BRANCH  27  28
ATOM     28  N   UNL A   1      32.258  30.803  26.171  1.00  0.00    -0.352 N 
ATOM     29  C   UNL A   1      32.914  31.578  27.101  1.00  0.00     0.251 C 
ATOM     30  H   UNL A   1      31.406  31.166  25.839  1.00  0.00     0.163 HD
ATOM     31  O   UNL A   1      32.375  32.562  27.593  1.00  0.00    -0.269 OA
BRANCH  29  32
ATOM     32  C   UNL A   1      34.268  31.175  27.528  1.00  0.00     0.039 A 
ATOM     33  C   UNL A   1      34.513  29.850  27.895  1.00  0.00     0.014 A 
ATOM     34  C   UNL A   1      35.264  32.144  27.660  1.00  0.00     0.014 A 
ATOM     35  C   UNL A   1      35.677  29.540  28.586  1.00  0.00     0.010 A 
ATOM     36  C   UNL A   1      36.479  31.803  28.259  1.00  0.00     0.010 A 
ATOM     37  C   UNL A   1      36.671  30.514  28.783  1.00  0.00    -0.014 A 
BRANCH  37  38
ATOM     38  C   UNL A   1      37.891  30.163  29.558  1.00  0.00     0.031 A 
ATOM     39  C   UNL A   1      38.096  30.692  30.956  1.00  0.00     0.074 A 
ATOM     40  C   UNL A   1      38.786  29.309  29.024  1.00  0.00     0.049 A 
ATOM     41  N   UNL A   1      39.104  30.496  31.770  1.00  0.00    -0.248 NA
ATOM     42  C   UNL A   1      37.038  31.549  31.514  1.00  0.00     0.031 C 
ATOM     43  C   UNL A   1      38.683  28.703  27.694  1.00  0.00     0.029 A 
ATOM     44  N   UNL A   1      39.942  28.780  29.539  1.00  0.00    -0.354 N 
ATOM     45  C   UNL A   1      38.807  31.209  32.925  1.00  0.00     0.074 A 
ATOM     46  C   UNL A   1      37.543  31.875  32.697  1.00  0.00     0.031 C 
ATOM     47  C   UNL A   1      39.699  27.844  27.521  1.00  0.00     0.029 A 
ATOM     48  C   UNL A   1      40.568  27.899  28.691  1.00  0.00     0.049 A 
ATOM     49  H   UNL A   1      40.290  29.011  30.431  1.00  0.00     0.167 HD
ATOM     50  C   UNL A   1      39.515  31.285  34.078  1.00  0.00     0.037 A 
ATOM     51  C   UNL A   1      41.724  27.223  28.827  1.00  0.00     0.037 A 
ATOM     52  C   UNL A   1      40.763  30.606  34.311  1.00  0.00     0.049 A 
ATOM     53  C   UNL A   1      42.528  27.399  30.084  1.00  0.00     0.074 A 
ATOM     54  C   UNL A   1      41.553  30.626  35.447  1.00  0.00     0.029 A 
ATOM     55  N   UNL A   1      41.398  29.778  33.397  1.00  0.00    -0.354 N 
ATOM     56  N   UNL A   1      42.236  28.083  31.163  1.00  0.00    -0.248 NA
ATOM     57  C   UNL A   1      43.829  26.718  30.136  1.00  0.00     0.031 C 
ATOM     58  C   UNL A   1      42.687  29.848  35.205  1.00  0.00     0.029 A 
ATOM     59  C   UNL A   1      42.579  29.298  33.939  1.00  0.00     0.049 A 
ATOM     60  H   UNL A   1      41.059  29.564  32.498  1.00  0.00     0.167 HD
ATOM     61  C   UNL A   1      43.302  27.894  32.031  1.00  0.00     0.074 A 
ATOM     62  C   UNL A   1      44.237  27.014  31.362  1.00  0.00     0.031 C 
ATOM     63  C   UNL A   1      43.492  28.408  33.269  1.00  0.00     0.037 A 
BRANCH  50  64
ATOM     64  C   UNL A   1      38.963  32.124  35.196  1.00  0.00     0.057 A 
ATOM     65  C   UNL A   1      38.261  31.553  36.265  1.00  0.00     0.134 A 
ATOM     66  C   UNL A   1      39.232  33.499  35.261  1.00  0.00     0.134 A 
ATOM     67  F   UNL A   1      37.963  30.245  36.260  1.00  0.00    -0.206 F 
ATOM     68  C   UNL A   1      37.847  32.317  37.357  1.00  0.00     0.040 A 
ATOM     69  C   UNL A   1      38.844  34.268  36.359  1.00  0.00     0.040 A 
ATOM     70  F   UNL A   1      39.907  34.108  34.274  1.00  0.00    -0.206 F 
ATOM     71  C   UNL A   1      38.150  33.677  37.412  1.00  0.00     0.006 A 
ENDBRANCH  50  64
BRANCH  51  72
ATOM     72  C   UNL A   1      42.197  26.327  27.742  1.00  0.00     0.057 A 
ATOM     73  C   UNL A   1      43.012  26.809  26.712  1.00  0.00     0.134 A 
ATOM     74  C   UNL A   1      41.840  24.972  27.699  1.00  0.00     0.134 A 
ATOM     75  F   UNL A   1      43.374  28.101  26.687  1.00  0.00    -0.206 F 
ATOM     76  C   UNL A   1      43.438  25.986  25.669  1.00  0.00     0.040 A 
ATOM     77  C   UNL A   1      42.286  24.130  26.681  1.00  0.00     0.040 A 
ATOM     78  F   UNL A   1      41.066  24.445  28.659  1.00  0.00    -0.206 F 
ATOM     79  C   UNL A   1      43.079  24.639  25.655  1.00  0.00     0.006 A 
ENDBRANCH  51  72
BRANCH  63  80
ATOM     80  C   UNL A   1      44.739  28.012  34.003  1.00  0.00     0.057 A 
ATOM     81  C   UNL A   1      45.907  28.784  33.945  1.00  0.00     0.134 A 
ATOM     82  C   UNL A   1      44.754  26.879  34.829  1.00  0.00     0.134 A 
ATOM     83  F   UNL A   1      45.963  29.873  33.163  1.00  0.00    -0.206 F 
ATOM     84  C   UNL A   1      47.047  28.436  34.669  1.00  0.00     0.040 A 
ATOM     85  C   UNL A   1      45.878  26.538  35.581  1.00  0.00     0.040 A 
ATOM     86  F   UNL A   1      43.666  26.102  34.937  1.00  0.00    -0.206 F 
ATOM     87  C   UNL A   1      47.030  27.316  35.499  1.00  0.00     0.006 A 
ENDBRANCH  63  80
ENDBRANCH  37  38
ENDBRANCH  29  32
ENDBRANCH  27  28
ENDBRANCH  26  27
ENDBRANCH   1  26
TORSDOF 13
ENDMDL
