MODEL 1
REMARK VINA RESULT:     -10.8      0.000      0.000
REMARK SMILES C[C@H](CC(=O)NCCCCNC(=O)c1ccc(-c2c3nc(c(-c4c(F)cccc4F)c4ccc([nH]4)c(-c4c(F)cccc4F)c4nc(c(-c5c(F)cccc5F)c5ccc2[nH]5)C=C4)C=C3)cc1)[NH2+][C@H](C)c1ccccc1
REMARK SMILES IDX 7 1 6 2 4 3 5 4 3 6 2 7 1 8 68 9 69 12 70 13 71 14 72 15
REMARK SMILES IDX 76 16 73 17 75 18 74 19 8 20 9 21 10 22 11 23 12 24 13 26
REMARK SMILES IDX 14 27 15 28 67 29 16 30 66 31 17 32 18 33 19 34 60 35 20 36
REMARK SMILES IDX 65 37 59 38 61 39 21 40 64 41 58 42 57 43 22 45 48 46 31 47
REMARK SMILES IDX 47 48 32 49 35 50 46 51 62 52 33 53 34 54 45 56 63 57 36 58
REMARK SMILES IDX 23 59 24 60 29 61 25 62 26 63 28 64 30 65 27 66 49 67 50 68
REMARK SMILES IDX 55 69 51 70 52 71 54 72 56 73 53 74 37 75 38 76 43 77 39 78
REMARK SMILES IDX 40 79 42 80 44 81 41 82
REMARK H PARENT 6 5 68 10 68 11 11 25 61 44 35 55
REMARK Flexibility Score: inf
ROOT
ATOM      1  C   UNL A   1      33.952  29.025  26.317  1.00  0.00     0.116 C 
ENDROOT
BRANCH   1   2
ATOM      2  N   UNL A   1      33.903  29.379  24.916  1.00  0.00    -0.356 N 
ATOM      3  C   UNL A   1      33.575  28.623  23.830  1.00  0.00     0.225 C 
ATOM      4  O   UNL A   1      33.654  29.159  22.722  1.00  0.00    -0.275 OA
ATOM      5  H   UNL A   1      34.145  30.311  24.714  1.00  0.00     0.163 HD
BRANCH   3   6
ATOM      6  C   UNL A   1      33.103  27.182  23.975  1.00  0.00     0.164 C 
BRANCH   6   7
ATOM      7  C   UNL A   1      32.558  26.575  22.656  1.00  0.00     0.189 C 
ATOM      8  C   UNL A   1      32.601  25.049  22.706  1.00  0.00     0.075 C 
BRANCH   7   9
ATOM      9  N   UNL A   1      31.201  27.072  22.385  1.00  0.00    -0.338 N 
ATOM     10  H   UNL A   1      30.745  26.357  21.818  1.00  0.00     0.347 HD
ATOM     11  H   UNL A   1      31.392  27.989  21.980  1.00  0.00     0.347 HD
BRANCH   9  12
ATOM     12  C   UNL A   1      30.246  27.412  23.462  1.00  0.00     0.210 C 
ATOM     13  C   UNL A   1      29.409  26.222  23.971  1.00  0.00     0.081 C 
BRANCH  12  14
ATOM     14  C   UNL A   1      29.420  28.694  23.379  1.00  0.00     0.009 A 
ATOM     15  C   UNL A   1      28.096  28.782  22.932  1.00  0.00     0.010 A 
ATOM     16  C   UNL A   1      30.015  29.890  23.832  1.00  0.00     0.010 A 
ATOM     17  C   UNL A   1      27.410  30.002  22.894  1.00  0.00     0.001 A 
ATOM     18  C   UNL A   1      29.329  31.109  23.812  1.00  0.00     0.001 A 
ATOM     19  C   UNL A   1      28.026  31.166  23.332  1.00  0.00     0.000 A 
ENDBRANCH  12  14
ENDBRANCH   9  12
ENDBRANCH   7   9
ENDBRANCH   6   7
ENDBRANCH   3   6
ENDBRANCH   1   2
BRANCH   1  20
ATOM     20  C   UNL A   1      32.619  29.336  27.005  1.00  0.00     0.023 C 
BRANCH  20  21
ATOM     21  C   UNL A   1      32.194  30.800  26.925  1.00  0.00     0.023 C 
BRANCH  21  22
ATOM     22  C   UNL A   1      33.236  31.787  27.442  1.00  0.00     0.116 C 
BRANCH  22  23
ATOM     23  N   UNL A   1      32.741  33.151  27.588  1.00  0.00    -0.352 N 
ATOM     24  C   UNL A   1      33.227  34.155  28.398  1.00  0.00     0.251 C 
ATOM     25  H   UNL A   1      31.961  33.385  27.036  1.00  0.00     0.163 HD
ATOM     26  O   UNL A   1      32.671  35.239  28.460  1.00  0.00    -0.269 OA
BRANCH  24  27
ATOM     27  C   UNL A   1      34.407  33.866  29.239  1.00  0.00     0.039 A 
ATOM     28  C   UNL A   1      34.232  33.100  30.394  1.00  0.00     0.014 A 
ATOM     29  C   UNL A   1      35.682  34.250  28.819  1.00  0.00     0.014 A 
ATOM     30  C   UNL A   1      35.354  32.623  31.072  1.00  0.00     0.010 A 
ATOM     31  C   UNL A   1      36.797  33.715  29.453  1.00  0.00     0.010 A 
ATOM     32  C   UNL A   1      36.640  32.876  30.568  1.00  0.00    -0.014 A 
BRANCH  32  33
ATOM     33  C   UNL A   1      37.837  32.222  31.149  1.00  0.00     0.031 A 
ATOM     34  C   UNL A   1      38.530  31.119  30.406  1.00  0.00     0.074 A 
ATOM     35  C   UNL A   1      38.231  32.558  32.393  1.00  0.00     0.049 A 
ATOM     36  N   UNL A   1      39.521  30.360  30.795  1.00  0.00    -0.248 NA
ATOM     37  C   UNL A   1      38.024  30.810  29.060  1.00  0.00     0.031 C 
ATOM     38  C   UNL A   1      37.600  33.575  33.237  1.00  0.00     0.029 A 
ATOM     39  N   UNL A   1      39.248  32.067  33.172  1.00  0.00    -0.354 N 
ATOM     40  C   UNL A   1      39.749  29.476  29.750  1.00  0.00     0.074 A 
ATOM     41  C   UNL A   1      38.762  29.760  28.730  1.00  0.00     0.031 C 
ATOM     42  C   UNL A   1      38.254  33.643  34.408  1.00  0.00     0.029 A 
ATOM     43  C   UNL A   1      39.324  32.651  34.413  1.00  0.00     0.049 A 
ATOM     44  H   UNL A   1      39.866  31.362  32.869  1.00  0.00     0.167 HD
ATOM     45  C   UNL A   1      40.708  28.527  29.642  1.00  0.00     0.037 A 
ATOM     46  C   UNL A   1      40.153  32.405  35.443  1.00  0.00     0.037 A 
ATOM     47  C   UNL A   1      41.703  28.264  30.648  1.00  0.00     0.049 A 
ATOM     48  C   UNL A   1      41.201  31.338  35.303  1.00  0.00     0.074 A 
ATOM     49  C   UNL A   1      42.766  27.379  30.599  1.00  0.00     0.029 A 
ATOM     50  N   UNL A   1      41.752  28.882  31.889  1.00  0.00    -0.354 N 
ATOM     51  N   UNL A   1      41.454  30.560  34.279  1.00  0.00    -0.248 NA
ATOM     52  C   UNL A   1      42.076  31.113  36.462  1.00  0.00     0.031 C 
ATOM     53  C   UNL A   1      43.435  27.433  31.826  1.00  0.00     0.029 A 
ATOM     54  C   UNL A   1      42.811  28.377  32.626  1.00  0.00     0.049 A 
ATOM     55  H   UNL A   1      41.128  29.577  32.200  1.00  0.00     0.167 HD
ATOM     56  C   UNL A   1      42.523  29.763  34.662  1.00  0.00     0.074 A 
ATOM     57  C   UNL A   1      42.885  30.165  36.007  1.00  0.00     0.031 C 
ATOM     58  C   UNL A   1      43.150  28.784  33.965  1.00  0.00     0.037 A 
BRANCH  45  59
ATOM     59  C   UNL A   1      40.731  27.709  28.386  1.00  0.00     0.057 A 
ATOM     60  C   UNL A   1      41.466  28.107  27.262  1.00  0.00     0.134 A 
ATOM     61  C   UNL A   1      40.035  26.497  28.308  1.00  0.00     0.134 A 
ATOM     62  F   UNL A   1      42.142  29.266  27.267  1.00  0.00    -0.206 F 
ATOM     63  C   UNL A   1      41.490  27.340  26.097  1.00  0.00     0.040 A 
ATOM     64  C   UNL A   1      40.071  25.709  27.157  1.00  0.00     0.040 A 
ATOM     65  F   UNL A   1      39.314  26.057  29.351  1.00  0.00    -0.206 F 
ATOM     66  C   UNL A   1      40.796  26.132  26.045  1.00  0.00     0.006 A 
ENDBRANCH  45  59
BRANCH  46  67
ATOM     67  C   UNL A   1      40.034  33.191  36.697  1.00  0.00     0.057 A 
ATOM     68  C   UNL A   1      39.122  32.822  37.692  1.00  0.00     0.134 A 
ATOM     69  C   UNL A   1      40.822  34.323  36.929  1.00  0.00     0.134 A 
ATOM     70  F   UNL A   1      38.326  31.757  37.516  1.00  0.00    -0.206 F 
ATOM     71  C   UNL A   1      38.985  33.561  38.868  1.00  0.00     0.040 A 
ATOM     72  C   UNL A   1      40.712  35.059  38.110  1.00  0.00     0.040 A 
ATOM     73  F   UNL A   1      41.719  34.724  36.016  1.00  0.00    -0.206 F 
ATOM     74  C   UNL A   1      39.786  34.681  39.081  1.00  0.00     0.006 A 
ENDBRANCH  46  67
BRANCH  58  75
ATOM     75  C   UNL A   1      44.291  28.088  34.642  1.00  0.00     0.057 A 
ATOM     76  C   UNL A   1      45.597  28.590  34.578  1.00  0.00     0.134 A 
ATOM     77  C   UNL A   1      44.077  26.927  35.394  1.00  0.00     0.134 A 
ATOM     78  F   UNL A   1      45.868  29.692  33.862  1.00  0.00    -0.206 F 
ATOM     79  C   UNL A   1      46.655  27.951  35.227  1.00  0.00     0.040 A 
ATOM     80  C   UNL A   1      45.122  26.291  36.064  1.00  0.00     0.040 A 
ATOM     81  F   UNL A   1      42.849  26.400  35.497  1.00  0.00    -0.206 F 
ATOM     82  C   UNL A   1      46.417  26.801  35.978  1.00  0.00     0.006 A 
ENDBRANCH  58  75
ENDBRANCH  32  33
ENDBRANCH  24  27
ENDBRANCH  22  23
ENDBRANCH  21  22
ENDBRANCH  20  21
ENDBRANCH   1  20
TORSDOF 15
ENDMDL
MODEL 2
REMARK VINA RESULT:     -10.6      1.738      3.677
REMARK SMILES C[C@H](CC(=O)NCCCCNC(=O)c1ccc(-c2c3nc(c(-c4c(F)cccc4F)c4ccc([nH]4)c(-c4c(F)cccc4F)c4nc(c(-c5c(F)cccc5F)c5ccc2[nH]5)C=C4)C=C3)cc1)[NH2+][C@H](C)c1ccccc1
REMARK SMILES IDX 7 1 6 2 4 3 5 4 3 6 2 7 1 8 68 9 69 12 70 13 71 14 72 15
REMARK SMILES IDX 76 16 73 17 75 18 74 19 8 20 9 21 10 22 11 23 12 24 13 26
REMARK SMILES IDX 14 27 15 28 67 29 16 30 66 31 17 32 18 33 19 34 60 35 20 36
REMARK SMILES IDX 65 37 59 38 61 39 21 40 64 41 58 42 57 43 22 45 48 46 31 47
REMARK SMILES IDX 47 48 32 49 35 50 46 51 62 52 33 53 34 54 45 56 63 57 36 58
REMARK SMILES IDX 23 59 24 60 29 61 25 62 26 63 28 64 30 65 27 66 49 67 50 68
REMARK SMILES IDX 55 69 51 70 52 71 54 72 56 73 53 74 37 75 38 76 43 77 39 78
REMARK SMILES IDX 40 79 42 80 44 81 41 82
REMARK H PARENT 6 5 68 10 68 11 11 25 61 44 35 55
REMARK Flexibility Score: inf
ROOT
ATOM      1  C   UNL A   1      31.415  29.362  25.012  1.00  0.00     0.116 C 
ENDROOT
BRANCH   1   2
ATOM      2  N   UNL A   1      32.529  29.338  24.089  1.00  0.00    -0.356 N 
ATOM      3  C   UNL A   1      32.769  28.522  23.024  1.00  0.00     0.225 C 
ATOM      4  O   UNL A   1      33.830  28.684  22.415  1.00  0.00    -0.275 OA
ATOM      5  H   UNL A   1      33.222  30.017  24.256  1.00  0.00     0.163 HD
BRANCH   3   6
ATOM      6  C   UNL A   1      31.761  27.470  22.582  1.00  0.00     0.164 C 
BRANCH   6   7
ATOM      7  C   UNL A   1      32.365  26.046  22.467  1.00  0.00     0.189 C 
ATOM      8  C   UNL A   1      32.527  25.646  21.002  1.00  0.00     0.075 C 
BRANCH   7   9
ATOM      9  N   UNL A   1      33.639  25.969  23.197  1.00  0.00    -0.338 N 
ATOM     10  H   UNL A   1      33.842  26.918  23.514  1.00  0.00     0.347 HD
ATOM     11  H   UNL A   1      34.248  25.529  22.507  1.00  0.00     0.347 HD
BRANCH   9  12
ATOM     12  C   UNL A   1      33.833  25.094  24.373  1.00  0.00     0.210 C 
ATOM     13  C   UNL A   1      33.574  25.780  25.728  1.00  0.00     0.081 C 
BRANCH  12  14
ATOM     14  C   UNL A   1      35.029  24.146  24.434  1.00  0.00     0.009 A 
ATOM     15  C   UNL A   1      35.502  23.363  23.374  1.00  0.00     0.010 A 
ATOM     16  C   UNL A   1      35.755  24.080  25.642  1.00  0.00     0.010 A 
ATOM     17  C   UNL A   1      36.614  22.522  23.517  1.00  0.00     0.001 A 
ATOM     18  C   UNL A   1      36.875  23.255  25.785  1.00  0.00     0.001 A 
ATOM     19  C   UNL A   1      37.299  22.466  24.722  1.00  0.00     0.000 A 
ENDBRANCH  12  14
ENDBRANCH   9  12
ENDBRANCH   7   9
ENDBRANCH   6   7
ENDBRANCH   3   6
ENDBRANCH   1   2
BRANCH   1  20
ATOM     20  C   UNL A   1      31.463  30.616  25.891  1.00  0.00     0.023 C 
BRANCH  20  21
ATOM     21  C   UNL A   1      32.389  30.505  27.099  1.00  0.00     0.023 C 
BRANCH  21  22
ATOM     22  C   UNL A   1      33.381  31.656  27.240  1.00  0.00     0.116 C 
BRANCH  22  23
ATOM     23  N   UNL A   1      32.759  32.946  27.510  1.00  0.00    -0.352 N 
ATOM     24  C   UNL A   1      33.205  33.953  28.339  1.00  0.00     0.251 C 
ATOM     25  H   UNL A   1      31.913  33.122  27.039  1.00  0.00     0.163 HD
ATOM     26  O   UNL A   1      32.545  34.964  28.514  1.00  0.00    -0.269 OA
BRANCH  24  27
ATOM     27  C   UNL A   1      34.477  33.753  29.062  1.00  0.00     0.039 A 
ATOM     28  C   UNL A   1      34.465  33.005  30.242  1.00  0.00     0.014 A 
ATOM     29  C   UNL A   1      35.679  34.200  28.509  1.00  0.00     0.014 A 
ATOM     30  C   UNL A   1      35.675  32.610  30.811  1.00  0.00     0.010 A 
ATOM     31  C   UNL A   1      36.881  33.746  29.037  1.00  0.00     0.010 A 
ATOM     32  C   UNL A   1      36.887  32.925  30.176  1.00  0.00    -0.014 A 
BRANCH  32  33
ATOM     33  C   UNL A   1      38.173  32.355  30.645  1.00  0.00     0.031 A 
ATOM     34  C   UNL A   1      38.697  31.083  30.048  1.00  0.00     0.074 A 
ATOM     35  C   UNL A   1      38.810  32.935  31.681  1.00  0.00     0.049 A 
ATOM     36  N   UNL A   1      39.742  30.379  30.397  1.00  0.00    -0.248 NA
ATOM     37  C   UNL A   1      37.930  30.513  28.930  1.00  0.00     0.031 C 
ATOM     38  C   UNL A   1      38.366  34.141  32.382  1.00  0.00     0.029 A 
ATOM     39  N   UNL A   1      39.961  32.576  32.337  1.00  0.00    -0.354 N 
ATOM     40  C   UNL A   1      39.752  29.277  29.552  1.00  0.00     0.074 A 
ATOM     41  C   UNL A   1      38.582  29.381  28.707  1.00  0.00     0.031 C 
ATOM     42  C   UNL A   1      39.242  34.431  33.358  1.00  0.00     0.029 A 
ATOM     43  C   UNL A   1      40.286  33.412  33.377  1.00  0.00     0.049 A 
ATOM     44  H   UNL A   1      40.501  31.792  32.086  1.00  0.00     0.167 HD
ATOM     45  C   UNL A   1      40.665  28.281  29.475  1.00  0.00     0.037 A 
ATOM     46  C   UNL A   1      41.304  33.356  34.255  1.00  0.00     0.037 A 
ATOM     47  C   UNL A   1      41.839  28.196  30.302  1.00  0.00     0.049 A 
ATOM     48  C   UNL A   1      42.297  32.234  34.156  1.00  0.00     0.074 A 
ATOM     49  C   UNL A   1      42.866  27.269  30.247  1.00  0.00     0.029 A 
ATOM     50  N   UNL A   1      42.140  29.066  31.339  1.00  0.00    -0.354 N 
ATOM     51  N   UNL A   1      42.335  31.239  33.303  1.00  0.00    -0.248 NA
ATOM     52  C   UNL A   1      43.385  32.223  35.144  1.00  0.00     0.031 C 
ATOM     53  C   UNL A   1      43.768  27.556  31.277  1.00  0.00     0.029 A 
ATOM     54  C   UNL A   1      43.322  28.683  31.950  1.00  0.00     0.049 A 
ATOM     55  H   UNL A   1      41.594  29.842  31.601  1.00  0.00     0.167 HD
ATOM     56  C   UNL A   1      43.456  30.493  33.640  1.00  0.00     0.074 A 
ATOM     57  C   UNL A   1      44.082  31.160  34.764  1.00  0.00     0.031 C 
ATOM     58  C   UNL A   1      43.925  29.355  33.072  1.00  0.00     0.037 A 
BRANCH  45  59
ATOM     59  C   UNL A   1      40.430  27.209  28.455  1.00  0.00     0.057 A 
ATOM     60  C   UNL A   1      39.570  26.133  28.703  1.00  0.00     0.134 A 
ATOM     61  C   UNL A   1      41.047  27.268  27.200  1.00  0.00     0.134 A 
ATOM     62  F   UNL A   1      38.959  26.010  29.892  1.00  0.00    -0.206 F 
ATOM     63  C   UNL A   1      39.348  25.140  27.748  1.00  0.00     0.040 A 
ATOM     64  C   UNL A   1      40.815  26.294  26.228  1.00  0.00     0.040 A 
ATOM     65  F   UNL A   1      41.881  28.274  26.896  1.00  0.00    -0.206 F 
ATOM     66  C   UNL A   1      39.967  25.223  26.503  1.00  0.00     0.006 A 
ENDBRANCH  45  59
BRANCH  46  67
ATOM     67  C   UNL A   1      41.443  34.402  35.299  1.00  0.00     0.057 A 
ATOM     68  C   UNL A   1      42.196  35.557  35.063  1.00  0.00     0.134 A 
ATOM     69  C   UNL A   1      40.832  34.272  36.551  1.00  0.00     0.134 A 
ATOM     70  F   UNL A   1      42.821  35.727  33.889  1.00  0.00    -0.206 F 
ATOM     71  C   UNL A   1      42.350  36.541  36.041  1.00  0.00     0.040 A 
ATOM     72  C   UNL A   1      40.959  35.258  37.531  1.00  0.00     0.040 A 
ATOM     73  F   UNL A   1      40.092  33.191  36.836  1.00  0.00    -0.206 F 
ATOM     74  C   UNL A   1      41.726  36.394  37.278  1.00  0.00     0.006 A 
ENDBRANCH  46  67
BRANCH  58  75
ATOM     75  C   UNL A   1      45.175  28.768  33.653  1.00  0.00     0.057 A 
ATOM     76  C   UNL A   1      45.128  27.777  34.641  1.00  0.00     0.134 A 
ATOM     77  C   UNL A   1      46.436  29.170  33.195  1.00  0.00     0.134 A 
ATOM     78  F   UNL A   1      43.951  27.360  35.131  1.00  0.00    -0.206 F 
ATOM     79  C   UNL A   1      46.294  27.217  35.166  1.00  0.00     0.040 A 
ATOM     80  C   UNL A   1      47.607  28.603  33.695  1.00  0.00     0.040 A 
ATOM     81  F   UNL A   1      46.546  30.112  32.246  1.00  0.00    -0.206 F 
ATOM     82  C   UNL A   1      47.539  27.626  34.687  1.00  0.00     0.006 A 
ENDBRANCH  58  75
ENDBRANCH  32  33
ENDBRANCH  24  27
ENDBRANCH  22  23
ENDBRANCH  21  22
ENDBRANCH  20  21
ENDBRANCH   1  20
TORSDOF 15
ENDMDL
MODEL 3
REMARK VINA RESULT:     -10.6      4.301      9.806
REMARK SMILES C[C@H](CC(=O)NCCCCNC(=O)c1ccc(-c2c3nc(c(-c4c(F)cccc4F)c4ccc([nH]4)c(-c4c(F)cccc4F)c4nc(c(-c5c(F)cccc5F)c5ccc2[nH]5)C=C4)C=C3)cc1)[NH2+][C@H](C)c1ccccc1
REMARK SMILES IDX 7 1 6 2 4 3 5 4 3 6 2 7 1 8 68 9 69 12 70 13 71 14 72 15
REMARK SMILES IDX 76 16 73 17 75 18 74 19 8 20 9 21 10 22 11 23 12 24 13 26
REMARK SMILES IDX 14 27 15 28 67 29 16 30 66 31 17 32 18 33 19 34 60 35 20 36
REMARK SMILES IDX 65 37 59 38 61 39 21 40 64 41 58 42 57 43 22 45 48 46 31 47
REMARK SMILES IDX 47 48 32 49 35 50 46 51 62 52 33 53 34 54 45 56 63 57 36 58
REMARK SMILES IDX 23 59 24 60 29 61 25 62 26 63 28 64 30 65 27 66 49 67 50 68
REMARK SMILES IDX 55 69 51 70 52 71 54 72 56 73 53 74 37 75 38 76 43 77 39 78
REMARK SMILES IDX 40 79 42 80 44 81 41 82
REMARK H PARENT 6 5 68 10 68 11 11 25 61 44 35 55
REMARK Flexibility Score: inf
ROOT
ATOM      1  C   UNL A   1      33.489  35.544  29.860  1.00  0.00     0.116 C 
ENDROOT
BRANCH   1   2
ATOM      2  N   UNL A   1      33.196  34.610  30.925  1.00  0.00    -0.356 N 
ATOM      3  C   UNL A   1      33.706  34.529  32.187  1.00  0.00     0.225 C 
ATOM      4  O   UNL A   1      33.315  33.600  32.897  1.00  0.00    -0.275 OA
ATOM      5  H   UNL A   1      32.525  33.925  30.704  1.00  0.00     0.163 HD
BRANCH   3   6
ATOM      6  C   UNL A   1      34.697  35.559  32.714  1.00  0.00     0.164 C 
BRANCH   6   7
ATOM      7  C   UNL A   1      36.145  35.015  32.837  1.00  0.00     0.189 C 
ATOM      8  C   UNL A   1      36.383  34.425  34.225  1.00  0.00     0.075 C 
BRANCH   7   9
ATOM      9  N   UNL A   1      36.416  34.035  31.774  1.00  0.00    -0.338 N 
ATOM     10  H   UNL A   1      35.884  34.345  30.961  1.00  0.00     0.347 HD
ATOM     11  H   UNL A   1      36.169  33.157  32.232  1.00  0.00     0.347 HD
BRANCH   9  12
ATOM     12  C   UNL A   1      37.781  33.747  31.286  1.00  0.00     0.210 C 
ATOM     13  C   UNL A   1      37.834  33.061  29.907  1.00  0.00     0.081 C 
BRANCH  12  14
ATOM     14  C   UNL A   1      38.835  33.187  32.240  1.00  0.00     0.009 A 
ATOM     15  C   UNL A   1      39.943  33.889  32.732  1.00  0.00     0.010 A 
ATOM     16  C   UNL A   1      38.662  31.869  32.710  1.00  0.00     0.010 A 
ATOM     17  C   UNL A   1      40.859  33.298  33.611  1.00  0.00     0.001 A 
ATOM     18  C   UNL A   1      39.566  31.279  33.601  1.00  0.00     0.001 A 
ATOM     19  C   UNL A   1      40.673  31.994  34.044  1.00  0.00     0.000 A 
ENDBRANCH  12  14
ENDBRANCH   9  12
ENDBRANCH   7   9
ENDBRANCH   6   7
ENDBRANCH   3   6
ENDBRANCH   1   2
BRANCH   1  20
ATOM     20  C   UNL A   1      34.209  34.844  28.703  1.00  0.00     0.023 C 
BRANCH  20  21
ATOM     21  C   UNL A   1      33.653  33.465  28.355  1.00  0.00     0.023 C 
BRANCH  21  22
ATOM     22  C   UNL A   1      34.643  32.321  28.545  1.00  0.00     0.116 C 
BRANCH  22  23
ATOM     23  N   UNL A   1      34.131  31.019  28.132  1.00  0.00    -0.352 N 
ATOM     24  C   UNL A   1      34.815  29.827  28.024  1.00  0.00     0.251 C 
ATOM     25  H   UNL A   1      33.175  30.987  27.903  1.00  0.00     0.163 HD
ATOM     26  O   UNL A   1      34.265  28.821  27.606  1.00  0.00    -0.269 OA
BRANCH  24  27
ATOM     27  C   UNL A   1      36.251  29.810  28.368  1.00  0.00     0.039 A 
ATOM     28  C   UNL A   1      36.626  29.407  29.652  1.00  0.00     0.014 A 
ATOM     29  C   UNL A   1      37.213  30.077  27.391  1.00  0.00     0.014 A 
ATOM     30  C   UNL A   1      37.971  29.162  29.924  1.00  0.00     0.010 A 
ATOM     31  C   UNL A   1      38.543  29.764  27.643  1.00  0.00     0.010 A 
ATOM     32  C   UNL A   1      38.928  29.279  28.903  1.00  0.00    -0.014 A 
BRANCH  32  33
ATOM     33  C   UNL A   1      40.329  28.838  29.106  1.00  0.00     0.031 A 
ATOM     34  C   UNL A   1      41.349  29.793  29.653  1.00  0.00     0.074 A 
ATOM     35  C   UNL A   1      40.697  27.607  28.699  1.00  0.00     0.049 A 
ATOM     36  N   UNL A   1      42.636  29.625  29.803  1.00  0.00    -0.248 NA
ATOM     37  C   UNL A   1      40.860  31.119  30.060  1.00  0.00     0.031 C 
ATOM     38  C   UNL A   1      39.808  26.611  28.098  1.00  0.00     0.029 A 
ATOM     39  N   UNL A   1      41.922  26.990  28.714  1.00  0.00    -0.354 N 
ATOM     40  C   UNL A   1      43.115  30.826  30.307  1.00  0.00     0.074 A 
ATOM     41  C   UNL A   1      41.988  31.730  30.393  1.00  0.00     0.031 C 
ATOM     42  C   UNL A   1      40.513  25.504  27.817  1.00  0.00     0.029 A 
ATOM     43  C   UNL A   1      41.908  25.725  28.181  1.00  0.00     0.049 A 
ATOM     44  H   UNL A   1      42.735  27.416  29.072  1.00  0.00     0.167 HD
ATOM     45  C   UNL A   1      44.377  31.140  30.684  1.00  0.00     0.037 A 
ATOM     46  C   UNL A   1      42.910  24.845  27.996  1.00  0.00     0.037 A 
ATOM     47  C   UNL A   1      45.489  30.231  30.619  1.00  0.00     0.049 A 
ATOM     48  C   UNL A   1      44.303  25.222  28.411  1.00  0.00     0.074 A 
ATOM     49  C   UNL A   1      46.790  30.427  31.052  1.00  0.00     0.029 A 
ATOM     50  N   UNL A   1      45.435  28.953  30.082  1.00  0.00    -0.354 N 
ATOM     51  N   UNL A   1      44.728  26.335  28.957  1.00  0.00    -0.248 NA
ATOM     52  C   UNL A   1      45.356  24.223  28.181  1.00  0.00     0.031 C 
ATOM     53  C   UNL A   1      47.531  29.283  30.740  1.00  0.00     0.029 A 
ATOM     54  C   UNL A   1      46.684  28.360  30.147  1.00  0.00     0.049 A 
ATOM     55  H   UNL A   1      44.627  28.530  29.711  1.00  0.00     0.167 HD
ATOM     56  C   UNL A   1      46.092  26.168  29.149  1.00  0.00     0.074 A 
ATOM     57  C   UNL A   1      46.421  24.837  28.679  1.00  0.00     0.031 C 
ATOM     58  C   UNL A   1      46.994  27.037  29.666  1.00  0.00     0.037 A 
BRANCH  45  59
ATOM     59  C   UNL A   1      44.616  32.524  31.207  1.00  0.00     0.057 A 
ATOM     60  C   UNL A   1      44.446  32.838  32.561  1.00  0.00     0.134 A 
ATOM     61  C   UNL A   1      45.048  33.547  30.355  1.00  0.00     0.134 A 
ATOM     62  F   UNL A   1      44.020  31.905  33.427  1.00  0.00    -0.206 F 
ATOM     63  C   UNL A   1      44.677  34.126  33.047  1.00  0.00     0.040 A 
ATOM     64  C   UNL A   1      45.305  34.833  30.832  1.00  0.00     0.040 A 
ATOM     65  F   UNL A   1      45.232  33.313  29.046  1.00  0.00    -0.206 F 
ATOM     66  C   UNL A   1      45.114  35.127  32.181  1.00  0.00     0.006 A 
ENDBRANCH  45  59
BRANCH  46  67
ATOM     67  C   UNL A   1      42.630  23.516  27.397  1.00  0.00     0.057 A 
ATOM     68  C   UNL A   1      42.271  22.428  28.199  1.00  0.00     0.134 A 
ATOM     69  C   UNL A   1      42.717  23.302  26.017  1.00  0.00     0.134 A 
ATOM     70  F   UNL A   1      42.191  22.569  29.530  1.00  0.00    -0.206 F 
ATOM     71  C   UNL A   1      42.022  21.168  27.653  1.00  0.00     0.040 A 
ATOM     72  C   UNL A   1      42.449  22.053  25.454  1.00  0.00     0.040 A 
ATOM     73  F   UNL A   1      43.050  24.307  25.194  1.00  0.00    -0.206 F 
ATOM     74  C   UNL A   1      42.106  20.980  26.275  1.00  0.00     0.006 A 
ENDBRANCH  46  67
BRANCH  58  75
ATOM     75  C   UNL A   1      48.415  26.573  29.756  1.00  0.00     0.057 A 
ATOM     76  C   UNL A   1      49.339  26.840  28.737  1.00  0.00     0.134 A 
ATOM     77  C   UNL A   1      48.875  25.885  30.885  1.00  0.00     0.134 A 
ATOM     78  F   UNL A   1      48.956  27.484  27.624  1.00  0.00    -0.206 F 
ATOM     79  C   UNL A   1      50.668  26.425  28.832  1.00  0.00     0.040 A 
ATOM     80  C   UNL A   1      50.205  25.483  31.002  1.00  0.00     0.040 A 
ATOM     81  F   UNL A   1      48.040  25.603  31.896  1.00  0.00    -0.206 F 
ATOM     82  C   UNL A   1      51.105  25.749  29.971  1.00  0.00     0.006 A 
ENDBRANCH  58  75
ENDBRANCH  32  33
ENDBRANCH  24  27
ENDBRANCH  22  23
ENDBRANCH  21  22
ENDBRANCH  20  21
ENDBRANCH   1  20
TORSDOF 15
ENDMDL
