MODEL 1
REMARK VINA RESULT:     -10.1      0.000      0.000
REMARK SMILES C=CC[N@@H+](CC(=O)NCCCCNC(=O)c1ccc(-c2c3nc(c(-c4c(F)cccc4F)c4ccc([nH]4)c(-c4c(F)cccc4F)c4nc(c(-c5c(F)cccc5F)c5ccc2[nH]5)C=C4)C=C3)cc1)C1CCCCC1
REMARK SMILES IDX 10 1 9 2 8 3 6 4 7 5 5 7 4 8 3 10 2 11 1 12 70 13 71 14
REMARK SMILES IDX 75 15 72 16 74 17 73 18 11 19 12 20 13 21 14 22 15 24 16 25
REMARK SMILES IDX 17 26 69 27 18 28 68 29 19 30 20 31 21 32 62 33 22 34 67 35
REMARK SMILES IDX 61 36 63 37 23 38 66 39 60 40 59 41 24 43 50 44 33 45 49 46
REMARK SMILES IDX 34 47 37 48 48 49 64 50 35 51 36 52 47 54 65 55 38 56 25 57
REMARK SMILES IDX 26 58 31 59 27 60 28 61 30 62 32 63 29 64 51 65 52 66 57 67
REMARK SMILES IDX 53 68 54 69 56 70 58 71 55 72 39 73 40 74 45 75 41 76 42 77
REMARK SMILES IDX 44 78 46 79 43 80
REMARK H PARENT 8 6 4 9 13 23 63 42 37 53
REMARK Flexibility Score: inf
ROOT
ATOM      1  C   UNL A   1      37.249  20.959  24.799  1.00  0.00     0.023 C 
ENDROOT
BRANCH   1   2
ATOM      2  C   UNL A   1      35.755  20.679  24.974  1.00  0.00     0.116 C 
BRANCH   2   3
ATOM      3  N   UNL A   1      35.234  21.242  26.200  1.00  0.00    -0.351 N 
ATOM      4  C   UNL A   1      34.868  22.524  26.496  1.00  0.00     0.275 C 
ATOM      5  O   UNL A   1      34.368  22.716  27.611  1.00  0.00    -0.269 OA
ATOM      6  H   UNL A   1      35.127  20.600  26.938  1.00  0.00     0.163 HD
BRANCH   4   7
ATOM      7  C   UNL A   1      35.015  23.677  25.496  1.00  0.00     0.364 C 
BRANCH   7   8
ATOM      8  N   UNL A   1      33.808  24.083  24.747  1.00  0.00    -0.321 N 
ATOM      9  H   UNL A   1      33.077  23.546  25.212  1.00  0.00     0.349 HD
BRANCH   8  10
ATOM     10  C   UNL A   1      33.765  23.581  23.384  1.00  0.00     0.291 C 
BRANCH  10  11
ATOM     11  C   UNL A   1      32.696  22.591  23.033  1.00  0.00     0.025 C 
ATOM     12  C   UNL A   1      32.357  21.554  23.813  1.00  0.00     0.010 C 
ENDBRANCH  10  11
ENDBRANCH   8  10
BRANCH   8  13
ATOM     13  C   UNL A   1      33.107  25.327  25.091  1.00  0.00     0.184 C 
ATOM     14  C   UNL A   1      31.814  25.028  25.877  1.00  0.00     0.065 C 
ATOM     15  C   UNL A   1      33.933  26.428  25.785  1.00  0.00     0.065 C 
ATOM     16  C   UNL A   1      31.006  26.303  26.124  1.00  0.00     0.006 C 
ATOM     17  C   UNL A   1      33.108  27.681  26.081  1.00  0.00     0.006 C 
ATOM     18  C   UNL A   1      31.837  27.352  26.853  1.00  0.00     0.000 C 
ENDBRANCH   8  13
ENDBRANCH   7   8
ENDBRANCH   4   7
ENDBRANCH   2   3
ENDBRANCH   1   2
BRANCH   1  19
ATOM     19  C   UNL A   1      38.186  19.776  24.971  1.00  0.00     0.023 C 
BRANCH  19  20
ATOM     20  C   UNL A   1      39.268  19.980  26.011  1.00  0.00     0.116 C 
BRANCH  20  21
ATOM     21  N   UNL A   1      40.453  19.159  25.806  1.00  0.00    -0.352 N 
ATOM     22  C   UNL A   1      41.775  19.495  25.996  1.00  0.00     0.251 C 
ATOM     23  H   UNL A   1      40.287  18.241  25.489  1.00  0.00     0.163 HD
ATOM     24  O   UNL A   1      42.665  18.717  25.701  1.00  0.00    -0.269 OA
BRANCH  22  25
ATOM     25  C   UNL A   1      42.093  20.837  26.528  1.00  0.00     0.039 A 
ATOM     26  C   UNL A   1      42.369  21.874  25.636  1.00  0.00     0.014 A 
ATOM     27  C   UNL A   1      42.064  21.075  27.903  1.00  0.00     0.014 A 
ATOM     28  C   UNL A   1      42.565  23.165  26.128  1.00  0.00     0.010 A 
ATOM     29  C   UNL A   1      42.131  22.374  28.378  1.00  0.00     0.010 A 
ATOM     30  C   UNL A   1      42.422  23.427  27.501  1.00  0.00    -0.014 A 
BRANCH  30  31
ATOM     31  C   UNL A   1      42.664  24.776  28.063  1.00  0.00     0.031 A 
ATOM     32  C   UNL A   1      44.059  25.153  28.485  1.00  0.00     0.074 A 
ATOM     33  C   UNL A   1      41.638  25.627  28.250  1.00  0.00     0.049 A 
ATOM     34  N   UNL A   1      44.483  26.245  29.066  1.00  0.00    -0.248 NA
ATOM     35  C   UNL A   1      45.114  24.146  28.270  1.00  0.00     0.031 C 
ATOM     36  C   UNL A   1      40.233  25.348  27.943  1.00  0.00     0.029 A 
ATOM     37  N   UNL A   1      41.622  26.904  28.747  1.00  0.00    -0.354 N 
ATOM     38  C   UNL A   1      45.837  26.040  29.307  1.00  0.00     0.074 A 
ATOM     39  C   UNL A   1      46.147  24.694  28.887  1.00  0.00     0.031 C 
ATOM     40  C   UNL A   1      39.498  26.437  28.223  1.00  0.00     0.029 A 
ATOM     41  C   UNL A   1      40.374  27.477  28.755  1.00  0.00     0.049 A 
ATOM     42  H   UNL A   1      42.430  27.367  29.069  1.00  0.00     0.167 HD
ATOM     43  C   UNL A   1      46.752  26.909  29.795  1.00  0.00     0.037 A 
ATOM     44  C   UNL A   1      39.990  28.708  29.138  1.00  0.00     0.037 A 
ATOM     45  C   UNL A   1      46.447  28.266  30.156  1.00  0.00     0.049 A 
ATOM     46  C   UNL A   1      41.032  29.674  29.632  1.00  0.00     0.074 A 
ATOM     47  C   UNL A   1      47.305  29.254  30.603  1.00  0.00     0.029 A 
ATOM     48  N   UNL A   1      45.180  28.827  30.096  1.00  0.00    -0.354 N 
ATOM     49  N   UNL A   1      42.321  29.491  29.792  1.00  0.00    -0.248 NA
ATOM     50  C   UNL A   1      40.569  31.024  29.980  1.00  0.00     0.031 C 
ATOM     51  C   UNL A   1      46.550  30.408  30.841  1.00  0.00     0.029 A 
ATOM     52  C   UNL A   1      45.231  30.149  30.500  1.00  0.00     0.049 A 
ATOM     53  H   UNL A   1      44.366  28.354  29.809  1.00  0.00     0.167 HD
ATOM     54  C   UNL A   1      42.828  30.710  30.221  1.00  0.00     0.074 A 
ATOM     55  C   UNL A   1      41.708  31.627  30.288  1.00  0.00     0.031 C 
ATOM     56  C   UNL A   1      44.104  31.044  30.534  1.00  0.00     0.037 A 
BRANCH  43  57
ATOM     57  C   UNL A   1      48.162  26.415  29.942  1.00  0.00     0.057 A 
ATOM     58  C   UNL A   1      49.109  26.570  28.919  1.00  0.00     0.134 A 
ATOM     59  C   UNL A   1      48.579  25.777  31.115  1.00  0.00     0.134 A 
ATOM     60  F   UNL A   1      48.770  27.154  27.760  1.00  0.00    -0.206 F 
ATOM     61  C   UNL A   1      50.409  26.077  29.046  1.00  0.00     0.040 A 
ATOM     62  C   UNL A   1      49.886  25.308  31.266  1.00  0.00     0.040 A 
ATOM     63  F   UNL A   1      47.725  25.597  32.134  1.00  0.00    -0.206 F 
ATOM     64  C   UNL A   1      50.803  25.449  30.226  1.00  0.00     0.006 A 
ENDBRANCH  43  57
BRANCH  44  65
ATOM     65  C   UNL A   1      38.567  29.118  29.016  1.00  0.00     0.057 A 
ATOM     66  C   UNL A   1      38.051  29.570  27.796  1.00  0.00     0.134 A 
ATOM     67  C   UNL A   1      37.694  29.076  30.110  1.00  0.00     0.134 A 
ATOM     68  F   UNL A   1      38.842  29.647  26.715  1.00  0.00    -0.206 F 
ATOM     69  C   UNL A   1      36.726  29.991  27.673  1.00  0.00     0.040 A 
ATOM     70  C   UNL A   1      36.360  29.471  29.995  1.00  0.00     0.040 A 
ATOM     71  F   UNL A   1      38.124  28.641  31.304  1.00  0.00    -0.206 F 
ATOM     72  C   UNL A   1      35.876  29.939  28.774  1.00  0.00     0.006 A 
ENDBRANCH  44  65
BRANCH  56  73
ATOM     73  C   UNL A   1      44.364  32.471  30.916  1.00  0.00     0.057 A 
ATOM     74  C   UNL A   1      44.333  32.900  32.248  1.00  0.00     0.134 A 
ATOM     75  C   UNL A   1      44.687  33.419  29.937  1.00  0.00     0.134 A 
ATOM     76  F   UNL A   1      44.021  32.042  33.232  1.00  0.00    -0.206 F 
ATOM     77  C   UNL A   1      44.588  34.228  32.590  1.00  0.00     0.040 A 
ATOM     78  C   UNL A   1      44.970  34.743  30.268  1.00  0.00     0.040 A 
ATOM     79  F   UNL A   1      44.744  33.068  28.642  1.00  0.00    -0.206 F 
ATOM     80  C   UNL A   1      44.913  35.152  31.599  1.00  0.00     0.006 A 
ENDBRANCH  56  73
ENDBRANCH  30  31
ENDBRANCH  22  25
ENDBRANCH  20  21
ENDBRANCH  19  20
ENDBRANCH   1  19
TORSDOF 15
ENDMDL
MODEL 2
REMARK VINA RESULT:      -9.9      4.741      9.544
REMARK SMILES C=CC[N@@H+](CC(=O)NCCCCNC(=O)c1ccc(-c2c3nc(c(-c4c(F)cccc4F)c4ccc([nH]4)c(-c4c(F)cccc4F)c4nc(c(-c5c(F)cccc5F)c5ccc2[nH]5)C=C4)C=C3)cc1)C1CCCCC1
REMARK SMILES IDX 10 1 9 2 8 3 6 4 7 5 5 7 4 8 3 10 2 11 1 12 70 13 71 14
REMARK SMILES IDX 75 15 72 16 74 17 73 18 11 19 12 20 13 21 14 22 15 24 16 25
REMARK SMILES IDX 17 26 69 27 18 28 68 29 19 30 20 31 21 32 62 33 22 34 67 35
REMARK SMILES IDX 61 36 63 37 23 38 66 39 60 40 59 41 24 43 50 44 33 45 49 46
REMARK SMILES IDX 34 47 37 48 48 49 64 50 35 51 36 52 47 54 65 55 38 56 25 57
REMARK SMILES IDX 26 58 31 59 27 60 28 61 30 62 32 63 29 64 51 65 52 66 57 67
REMARK SMILES IDX 53 68 54 69 56 70 58 71 55 72 39 73 40 74 45 75 41 76 42 77
REMARK SMILES IDX 44 78 46 79 43 80
REMARK H PARENT 8 6 4 9 13 23 63 42 37 53
REMARK Flexibility Score: inf
ROOT
ATOM      1  C   UNL A   1      31.457  30.904  25.921  1.00  0.00     0.023 C 
ENDROOT
BRANCH   1   2
ATOM      2  C   UNL A   1      32.548  30.012  26.518  1.00  0.00     0.116 C 
BRANCH   2   3
ATOM      3  N   UNL A   1      33.477  29.542  25.515  1.00  0.00    -0.351 N 
ATOM      4  C   UNL A   1      33.398  28.472  24.672  1.00  0.00     0.275 C 
ATOM      5  O   UNL A   1      34.308  28.348  23.843  1.00  0.00    -0.269 OA
ATOM      6  H   UNL A   1      34.297  30.080  25.426  1.00  0.00     0.163 HD
BRANCH   4   7
ATOM      7  C   UNL A   1      32.226  27.483  24.699  1.00  0.00     0.364 C 
BRANCH   7   8
ATOM      8  N   UNL A   1      31.354  27.432  23.508  1.00  0.00    -0.321 N 
ATOM      9  H   UNL A   1      30.707  26.681  23.747  1.00  0.00     0.349 HD
BRANCH   8  10
ATOM     10  C   UNL A   1      32.014  26.927  22.316  1.00  0.00     0.291 C 
BRANCH  10  11
ATOM     11  C   UNL A   1      31.812  25.486  21.958  1.00  0.00     0.025 C 
ATOM     12  C   UNL A   1      32.176  24.464  22.747  1.00  0.00     0.010 C 
ENDBRANCH  10  11
ENDBRANCH   8  10
BRANCH   8  13
ATOM     13  C   UNL A   1      30.221  28.359  23.380  1.00  0.00     0.184 C 
ATOM     14  C   UNL A   1      30.477  29.388  22.261  1.00  0.00     0.065 C 
ATOM     15  C   UNL A   1      28.818  27.735  23.246  1.00  0.00     0.065 C 
ATOM     16  C   UNL A   1      29.368  30.439  22.208  1.00  0.00     0.006 C 
ATOM     17  C   UNL A   1      27.716  28.789  23.137  1.00  0.00     0.006 C 
ATOM     18  C   UNL A   1      28.001  29.792  22.026  1.00  0.00     0.000 C 
ENDBRANCH   8  13
ENDBRANCH   7   8
ENDBRANCH   4   7
ENDBRANCH   2   3
ENDBRANCH   1   2
BRANCH   1  19
ATOM     19  C   UNL A   1      31.296  32.283  26.536  1.00  0.00     0.023 C 
BRANCH  19  20
ATOM     20  C   UNL A   1      32.531  32.801  27.244  1.00  0.00     0.116 C 
BRANCH  20  21
ATOM     21  N   UNL A   1      32.427  34.185  27.685  1.00  0.00    -0.352 N 
ATOM     22  C   UNL A   1      33.205  34.854  28.604  1.00  0.00     0.251 C 
ATOM     23  H   UNL A   1      31.705  34.712  27.272  1.00  0.00     0.163 HD
ATOM     24  O   UNL A   1      32.941  35.999  28.929  1.00  0.00    -0.269 OA
BRANCH  22  25
ATOM     25  C   UNL A   1      34.345  34.142  29.218  1.00  0.00     0.039 A 
ATOM     26  C   UNL A   1      34.094  33.084  30.093  1.00  0.00     0.014 A 
ATOM     27  C   UNL A   1      35.655  34.488  28.883  1.00  0.00     0.014 A 
ATOM     28  C   UNL A   1      35.164  32.340  30.591  1.00  0.00     0.010 A 
ATOM     29  C   UNL A   1      36.703  33.672  29.275  1.00  0.00     0.010 A 
ATOM     30  C   UNL A   1      36.474  32.615  30.165  1.00  0.00    -0.014 A 
BRANCH  30  31
ATOM     31  C   UNL A   1      37.638  31.874  30.705  1.00  0.00     0.031 A 
ATOM     32  C   UNL A   1      38.110  32.173  32.103  1.00  0.00     0.074 A 
ATOM     33  C   UNL A   1      38.298  30.992  29.932  1.00  0.00     0.049 A 
ATOM     34  N   UNL A   1      39.146  31.700  32.747  1.00  0.00    -0.248 NA
ATOM     35  C   UNL A   1      37.342  33.175  32.864  1.00  0.00     0.031 C 
ATOM     36  C   UNL A   1      37.975  30.669  28.540  1.00  0.00     0.029 A 
ATOM     37  N   UNL A   1      39.384  30.204  30.212  1.00  0.00    -0.354 N 
ATOM     38  C   UNL A   1      39.165  32.368  33.966  1.00  0.00     0.074 A 
ATOM     39  C   UNL A   1      38.091  33.333  33.942  1.00  0.00     0.031 C 
ATOM     40  C   UNL A   1      38.822  29.723  28.101  1.00  0.00     0.029 A 
ATOM     41  C   UNL A   1      39.762  29.394  29.169  1.00  0.00     0.049 A 
ATOM     42  H   UNL A   1      39.850  30.218  31.080  1.00  0.00     0.167 HD
ATOM     43  C   UNL A   1      39.977  32.167  35.029  1.00  0.00     0.037 A 
ATOM     44  C   UNL A   1      40.748  28.483  29.094  1.00  0.00     0.037 A 
ATOM     45  C   UNL A   1      41.005  31.164  35.067  1.00  0.00     0.049 A 
ATOM     46  C   UNL A   1      41.608  28.241  30.305  1.00  0.00     0.074 A 
ATOM     47  C   UNL A   1      41.847  30.828  36.112  1.00  0.00     0.029 A 
ATOM     48  N   UNL A   1      41.319  30.324  34.009  1.00  0.00    -0.354 N 
ATOM     49  N   UNL A   1      41.573  28.831  31.476  1.00  0.00    -0.248 NA
ATOM     50  C   UNL A   1      42.630  27.193  30.190  1.00  0.00     0.031 C 
ATOM     51  C   UNL A   1      42.691  29.802  35.675  1.00  0.00     0.029 A 
ATOM     52  C   UNL A   1      42.344  29.470  34.374  1.00  0.00     0.049 A 
ATOM     53  H   UNL A   1      40.878  30.334  33.129  1.00  0.00     0.167 HD
ATOM     54  C   UNL A   1      42.540  28.201  32.248  1.00  0.00     0.074 A 
ATOM     55  C   UNL A   1      43.137  27.178  31.414  1.00  0.00     0.031 C 
ATOM     56  C   UNL A   1      42.904  28.446  33.531  1.00  0.00     0.037 A 
BRANCH  43  57
ATOM     57  C   UNL A   1      39.762  33.036  36.234  1.00  0.00     0.057 A 
ATOM     58  C   UNL A   1      38.867  32.680  37.253  1.00  0.00     0.134 A 
ATOM     59  C   UNL A   1      40.457  34.242  36.380  1.00  0.00     0.134 A 
ATOM     60  F   UNL A   1      38.153  31.546  37.167  1.00  0.00    -0.206 F 
ATOM     61  C   UNL A   1      38.644  33.509  38.354  1.00  0.00     0.040 A 
ATOM     62  C   UNL A   1      40.266  35.065  37.492  1.00  0.00     0.040 A 
ATOM     63  F   UNL A   1      41.331  34.644  35.444  1.00  0.00    -0.206 F 
ATOM     64  C   UNL A   1      39.351  34.703  38.479  1.00  0.00     0.006 A 
ENDBRANCH  43  57
BRANCH  44  65
ATOM     65  C   UNL A   1      40.940  27.691  27.852  1.00  0.00     0.057 A 
ATOM     66  C   UNL A   1      40.312  26.451  27.685  1.00  0.00     0.134 A 
ATOM     67  C   UNL A   1      41.758  28.145  26.811  1.00  0.00     0.134 A 
ATOM     68  F   UNL A   1      39.527  25.956  28.654  1.00  0.00    -0.206 F 
ATOM     69  C   UNL A   1      40.509  25.679  26.539  1.00  0.00     0.040 A 
ATOM     70  C   UNL A   1      41.945  27.394  25.649  1.00  0.00     0.040 A 
ATOM     71  F   UNL A   1      42.379  29.330  26.904  1.00  0.00    -0.206 F 
ATOM     72  C   UNL A   1      41.325  26.152  25.515  1.00  0.00     0.006 A 
ENDBRANCH  44  65
BRANCH  56  73
ATOM     73  C   UNL A   1      43.953  27.555  34.127  1.00  0.00     0.057 A 
ATOM     74  C   UNL A   1      43.634  26.332  34.729  1.00  0.00     0.134 A 
ATOM     75  C   UNL A   1      45.306  27.912  34.060  1.00  0.00     0.134 A 
ATOM     76  F   UNL A   1      42.355  25.938  34.833  1.00  0.00    -0.206 F 
ATOM     77  C   UNL A   1      44.621  25.509  35.270  1.00  0.00     0.040 A 
ATOM     78  C   UNL A   1      46.304  27.085  34.572  1.00  0.00     0.040 A 
ATOM     79  F   UNL A   1      45.678  29.066  33.484  1.00  0.00    -0.206 F 
ATOM     80  C   UNL A   1      45.961  25.882  35.186  1.00  0.00     0.006 A 
ENDBRANCH  56  73
ENDBRANCH  30  31
ENDBRANCH  22  25
ENDBRANCH  20  21
ENDBRANCH  19  20
ENDBRANCH   1  19
TORSDOF 15
ENDMDL
MODEL 3
REMARK VINA RESULT:      -9.9      3.160      7.998
REMARK SMILES C=CC[N@@H+](CC(=O)NCCCCNC(=O)c1ccc(-c2c3nc(c(-c4c(F)cccc4F)c4ccc([nH]4)c(-c4c(F)cccc4F)c4nc(c(-c5c(F)cccc5F)c5ccc2[nH]5)C=C4)C=C3)cc1)C1CCCCC1
REMARK SMILES IDX 10 1 9 2 8 3 6 4 7 5 5 7 4 8 3 10 2 11 1 12 70 13 71 14
REMARK SMILES IDX 75 15 72 16 74 17 73 18 11 19 12 20 13 21 14 22 15 24 16 25
REMARK SMILES IDX 17 26 69 27 18 28 68 29 19 30 20 31 21 32 62 33 22 34 67 35
REMARK SMILES IDX 61 36 63 37 23 38 66 39 60 40 59 41 24 43 50 44 33 45 49 46
REMARK SMILES IDX 34 47 37 48 48 49 64 50 35 51 36 52 47 54 65 55 38 56 25 57
REMARK SMILES IDX 26 58 31 59 27 60 28 61 30 62 32 63 29 64 51 65 52 66 57 67
REMARK SMILES IDX 53 68 54 69 56 70 58 71 55 72 39 73 40 74 45 75 41 76 42 77
REMARK SMILES IDX 44 78 46 79 43 80
REMARK H PARENT 8 6 4 9 13 23 63 42 37 53
REMARK Flexibility Score: inf
ROOT
ATOM      1  C   UNL A   1      31.879  27.995  26.672  1.00  0.00     0.023 C 
ENDROOT
BRANCH   1   2
ATOM      2  C   UNL A   1      31.013  26.874  26.092  1.00  0.00     0.116 C 
BRANCH   2   3
ATOM      3  N   UNL A   1      31.103  25.658  26.868  1.00  0.00    -0.351 N 
ATOM      4  C   UNL A   1      31.343  24.374  26.471  1.00  0.00     0.275 C 
ATOM      5  O   UNL A   1      31.453  23.526  27.365  1.00  0.00    -0.269 OA
ATOM      6  H   UNL A   1      30.970  25.774  27.837  1.00  0.00     0.163 HD
BRANCH   4   7
ATOM      7  C   UNL A   1      31.520  23.984  24.998  1.00  0.00     0.364 C 
BRANCH   7   8
ATOM      8  N   UNL A   1      32.749  24.441  24.318  1.00  0.00    -0.321 N 
ATOM      9  H   UNL A   1      33.034  25.229  24.898  1.00  0.00     0.349 HD
BRANCH   8  10
ATOM     10  C   UNL A   1      32.511  25.057  23.024  1.00  0.00     0.291 C 
BRANCH  10  11
ATOM     11  C   UNL A   1      32.468  26.554  22.955  1.00  0.00     0.025 C 
ATOM     12  C   UNL A   1      33.370  27.295  22.294  1.00  0.00     0.010 C 
ENDBRANCH  10  11
ENDBRANCH   8  10
BRANCH   8  13
ATOM     13  C   UNL A   1      34.034  23.783  24.591  1.00  0.00     0.184 C 
ATOM     14  C   UNL A   1      34.824  23.559  23.286  1.00  0.00     0.065 C 
ATOM     15  C   UNL A   1      34.928  24.414  25.676  1.00  0.00     0.065 C 
ATOM     16  C   UNL A   1      36.100  22.755  23.540  1.00  0.00     0.006 C 
ATOM     17  C   UNL A   1      36.228  23.640  25.889  1.00  0.00     0.006 C 
ATOM     18  C   UNL A   1      36.982  23.431  24.581  1.00  0.00     0.000 C 
ENDBRANCH   8  13
ENDBRANCH   7   8
ENDBRANCH   4   7
ENDBRANCH   2   3
ENDBRANCH   1   2
BRANCH   1  19
ATOM     19  C   UNL A   1      33.383  27.814  26.564  1.00  0.00     0.023 C 
BRANCH  19  20
ATOM     20  C   UNL A   1      34.120  29.016  26.011  1.00  0.00     0.116 C 
BRANCH  20  21
ATOM     21  N   UNL A   1      33.819  30.266  26.695  1.00  0.00    -0.352 N 
ATOM     22  C   UNL A   1      34.524  30.884  27.704  1.00  0.00     0.251 C 
ATOM     23  H   UNL A   1      33.004  30.731  26.397  1.00  0.00     0.163 HD
ATOM     24  O   UNL A   1      34.097  31.896  28.233  1.00  0.00    -0.269 OA
BRANCH  22  25
ATOM     25  C   UNL A   1      35.790  30.273  28.159  1.00  0.00     0.039 A 
ATOM     26  C   UNL A   1      36.960  30.517  27.438  1.00  0.00     0.014 A 
ATOM     27  C   UNL A   1      35.824  29.509  29.326  1.00  0.00     0.014 A 
ATOM     28  C   UNL A   1      38.175  30.031  27.923  1.00  0.00     0.010 A 
ATOM     29  C   UNL A   1      37.042  29.139  29.872  1.00  0.00     0.010 A 
ATOM     30  C   UNL A   1      38.226  29.360  29.157  1.00  0.00    -0.014 A 
BRANCH  30  31
ATOM     31  C   UNL A   1      39.491  28.795  29.681  1.00  0.00     0.031 A 
ATOM     32  C   UNL A   1      40.112  29.407  30.909  1.00  0.00     0.074 A 
ATOM     33  C   UNL A   1      40.105  27.789  29.030  1.00  0.00     0.049 A 
ATOM     34  N   UNL A   1      41.246  29.121  31.494  1.00  0.00    -0.248 NA
ATOM     35  C   UNL A   1      39.382  30.523  31.537  1.00  0.00     0.031 C 
ATOM     36  C   UNL A   1      39.635  27.161  27.794  1.00  0.00     0.029 A 
ATOM     37  N   UNL A   1      41.265  27.120  29.323  1.00  0.00    -0.354 N 
ATOM     38  C   UNL A   1      41.373  30.038  32.531  1.00  0.00     0.074 A 
ATOM     39  C   UNL A   1      40.247  30.937  32.448  1.00  0.00     0.031 C 
ATOM     40  C   UNL A   1      40.478  26.172  27.455  1.00  0.00     0.029 A 
ATOM     41  C   UNL A   1      41.561  26.116  28.433  1.00  0.00     0.049 A 
ATOM     42  H   UNL A   1      41.832  27.337  30.098  1.00  0.00     0.167 HD
ATOM     43  C   UNL A   1      42.321  30.101  33.495  1.00  0.00     0.037 A 
ATOM     44  C   UNL A   1      42.586  25.245  28.421  1.00  0.00     0.037 A 
ATOM     45  C   UNL A   1      43.406  29.166  33.606  1.00  0.00     0.049 A 
ATOM     46  C   UNL A   1      43.601  25.302  29.530  1.00  0.00     0.074 A 
ATOM     47  C   UNL A   1      44.389  29.095  34.576  1.00  0.00     0.029 A 
ATOM     48  N   UNL A   1      43.640  28.128  32.716  1.00  0.00    -0.354 N 
ATOM     49  N   UNL A   1      43.674  26.131  30.544  1.00  0.00    -0.248 NA
ATOM     50  C   UNL A   1      44.665  24.290  29.504  1.00  0.00     0.031 C 
ATOM     51  C   UNL A   1      45.236  28.028  34.256  1.00  0.00     0.029 A 
ATOM     52  C   UNL A   1      44.753  27.411  33.113  1.00  0.00     0.049 A 
ATOM     53  H   UNL A   1      43.094  27.932  31.921  1.00  0.00     0.167 HD
ATOM     54  C   UNL A   1      44.766  25.717  31.296  1.00  0.00     0.074 A 
ATOM     55  C   UNL A   1      45.319  24.559  30.624  1.00  0.00     0.031 C 
ATOM     56  C   UNL A   1      45.268  26.247  32.438  1.00  0.00     0.037 A 
BRANCH  43  57
ATOM     57  C   UNL A   1      42.202  31.203  34.507  1.00  0.00     0.057 A 
ATOM     58  C   UNL A   1      41.464  31.045  35.689  1.00  0.00     0.134 A 
ATOM     59  C   UNL A   1      42.831  32.436  34.300  1.00  0.00     0.134 A 
ATOM     60  F   UNL A   1      40.819  29.895  35.941  1.00  0.00    -0.206 F 
ATOM     61  C   UNL A   1      41.326  32.085  36.610  1.00  0.00     0.040 A 
ATOM     62  C   UNL A   1      42.727  33.474  35.229  1.00  0.00     0.040 A 
ATOM     63  F   UNL A   1      43.554  32.656  33.192  1.00  0.00    -0.206 F 
ATOM     64  C   UNL A   1      41.965  33.303  36.384  1.00  0.00     0.006 A 
ENDBRANCH  43  57
BRANCH  44  65
ATOM     65  C   UNL A   1      42.674  24.209  27.360  1.00  0.00     0.057 A 
ATOM     66  C   UNL A   1      42.166  22.921  27.568  1.00  0.00     0.134 A 
ATOM     67  C   UNL A   1      43.269  24.475  26.122  1.00  0.00     0.134 A 
ATOM     68  F   UNL A   1      41.596  22.601  28.740  1.00  0.00    -0.206 F 
ATOM     69  C   UNL A   1      42.271  21.927  26.594  1.00  0.00     0.040 A 
ATOM     70  C   UNL A   1      43.359  23.497  25.129  1.00  0.00     0.040 A 
ATOM     71  F   UNL A   1      43.764  25.693  25.855  1.00  0.00    -0.206 F 
ATOM     72  C   UNL A   1      42.866  22.215  25.369  1.00  0.00     0.006 A 
ENDBRANCH  44  65
BRANCH  56  73
ATOM     73  C   UNL A   1      46.436  25.544  33.063  1.00  0.00     0.057 A 
ATOM     74  C   UNL A   1      46.270  24.516  33.998  1.00  0.00     0.134 A 
ATOM     75  C   UNL A   1      47.745  25.877  32.691  1.00  0.00     0.134 A 
ATOM     76  F   UNL A   1      45.042  24.156  34.403  1.00  0.00    -0.206 F 
ATOM     77  C   UNL A   1      47.366  23.863  34.563  1.00  0.00     0.040 A 
ATOM     78  C   UNL A   1      48.847  25.214  33.227  1.00  0.00     0.040 A 
ATOM     79  F   UNL A   1      47.971  26.846  31.790  1.00  0.00    -0.206 F 
ATOM     80  C   UNL A   1      48.659  24.208  34.173  1.00  0.00     0.006 A 
ENDBRANCH  56  73
ENDBRANCH  30  31
ENDBRANCH  22  25
ENDBRANCH  20  21
ENDBRANCH  19  20
ENDBRANCH   1  19
TORSDOF 15
ENDMDL
