MODEL 1
REMARK VINA RESULT:     -11.9      0.000      0.000
REMARK SMILES O=C(NCCCCNC(=O)c1cc(-c2ccc(F)c(C(F)(F)F)c2)cnc1O)c1ccc(-c2c3nc(c(-c4c(F)cccc4F)c4ccc([nH]4)c(-c4c(F)cccc4F)c4nc(c(-c5c(F)cccc5F)c5ccc2[nH]5)C=C4)C=C3)cc1
REMARK SMILES IDX 5 1 4 2 3 3 1 4 2 5 29 7 30 8 82 9 31 10 81 11 32 12 33 13
REMARK SMILES IDX 34 14 75 15 35 16 80 17 74 18 76 19 36 20 79 21 73 22 72 23
REMARK SMILES IDX 37 25 63 26 46 27 62 28 47 29 50 30 61 31 77 32 48 33 49 34
REMARK SMILES IDX 60 36 78 37 51 38 38 39 39 40 44 41 40 42 41 43 43 44 45 45
REMARK SMILES IDX 42 46 64 47 65 48 70 49 66 50 67 51 69 52 71 53 68 54 52 55
REMARK SMILES IDX 53 56 58 57 54 58 55 59 57 60 59 61 56 62 6 63 7 64 8 65
REMARK SMILES IDX 9 66 10 68 11 69 12 70 27 71 13 72 26 73 25 74 28 75 14 77
REMARK SMILES IDX 15 78 24 79 16 80 19 81 17 82 18 83 20 84 21 85 22 86 23 87
REMARK H PARENT 3 6 76 24 50 35 8 67 28 76
REMARK Flexibility Score: inf
ROOT
ATOM      1  C   UNL A   1      37.230  20.707  24.682  1.00  0.00     0.023 C 
ENDROOT
BRANCH   1   2
ATOM      2  C   UNL A   1      38.340  20.917  25.705  1.00  0.00     0.116 C 
BRANCH   2   3
ATOM      3  N   UNL A   1      39.336  19.861  25.669  1.00  0.00    -0.352 N 
ATOM      4  O   UNL A   1      41.390  18.947  25.678  1.00  0.00    -0.269 OA
ATOM      5  C   UNL A   1      40.680  19.913  25.938  1.00  0.00     0.251 C 
ATOM      6  H   UNL A   1      38.995  18.974  25.414  1.00  0.00     0.163 HD
BRANCH   5   7
ATOM      7  C   UNL A   1      41.284  21.125  26.538  1.00  0.00     0.039 A 
ATOM      8  C   UNL A   1      41.264  21.268  27.930  1.00  0.00     0.014 A 
ATOM      9  C   UNL A   1      41.796  22.150  25.740  1.00  0.00     0.014 A 
ATOM     10  C   UNL A   1      41.766  22.431  28.520  1.00  0.00     0.010 A 
ATOM     11  C   UNL A   1      42.369  23.273  26.331  1.00  0.00     0.010 A 
ATOM     12  C   UNL A   1      42.321  23.443  27.724  1.00  0.00    -0.014 A 
BRANCH  12  13
ATOM     13  C   UNL A   1      42.731  24.751  28.297  1.00  0.00     0.031 A 
ATOM     14  C   UNL A   1      41.674  25.806  28.514  1.00  0.00     0.074 A 
ATOM     15  C   UNL A   1      44.020  25.016  28.578  1.00  0.00     0.049 A 
ATOM     16  N   UNL A   1      41.811  27.065  28.842  1.00  0.00    -0.248 NA
ATOM     17  C   UNL A   1      40.276  25.390  28.307  1.00  0.00     0.031 C 
ATOM     18  C   UNL A   1      45.135  24.082  28.429  1.00  0.00     0.029 A 
ATOM     19  N   UNL A   1      44.611  26.170  29.034  1.00  0.00    -0.354 N 
ATOM     20  C   UNL A   1      40.526  27.593  28.847  1.00  0.00     0.074 A 
ATOM     21  C   UNL A   1      39.627  26.534  28.449  1.00  0.00     0.031 C 
ATOM     22  C   UNL A   1      46.275  24.697  28.792  1.00  0.00     0.029 A 
ATOM     23  C   UNL A   1      45.978  26.082  29.148  1.00  0.00     0.049 A 
ATOM     24  H   UNL A   1      44.103  26.984  29.258  1.00  0.00     0.167 HD
ATOM     25  C   UNL A   1      40.127  28.845  29.171  1.00  0.00     0.037 A 
ATOM     26  C   UNL A   1      46.885  27.023  29.474  1.00  0.00     0.037 A 
ATOM     27  C   UNL A   1      41.017  29.884  29.610  1.00  0.00     0.049 A 
ATOM     28  C   UNL A   1      46.416  28.424  29.779  1.00  0.00     0.074 A 
ATOM     29  C   UNL A   1      40.705  31.173  30.008  1.00  0.00     0.029 A 
ATOM     30  N   UNL A   1      42.392  29.751  29.715  1.00  0.00    -0.354 N 
ATOM     31  N   UNL A   1      45.197  28.903  29.811  1.00  0.00    -0.248 NA
ATOM     32  C   UNL A   1      47.454  29.419  30.091  1.00  0.00     0.031 C 
ATOM     33  C   UNL A   1      41.898  31.837  30.302  1.00  0.00     0.029 A 
ATOM     34  C   UNL A   1      42.946  30.943  30.148  1.00  0.00     0.049 A 
ATOM     35  H   UNL A   1      42.898  28.933  29.511  1.00  0.00     0.167 HD
ATOM     36  C   UNL A   1      45.319  30.234  30.194  1.00  0.00     0.074 A 
ATOM     37  C   UNL A   1      46.729  30.487  30.385  1.00  0.00     0.031 C 
ATOM     38  C   UNL A   1      44.350  31.164  30.373  1.00  0.00     0.037 A 
BRANCH  25  39
ATOM     39  C   UNL A   1      38.665  29.167  29.059  1.00  0.00     0.057 A 
ATOM     40  C   UNL A   1      38.126  29.596  27.838  1.00  0.00     0.134 A 
ATOM     41  C   UNL A   1      37.804  29.108  30.161  1.00  0.00     0.134 A 
ATOM     42  F   UNL A   1      38.897  29.680  26.744  1.00  0.00    -0.206 F 
ATOM     43  C   UNL A   1      36.785  29.964  27.723  1.00  0.00     0.040 A 
ATOM     44  C   UNL A   1      36.454  29.445  30.051  1.00  0.00     0.040 A 
ATOM     45  F   UNL A   1      38.255  28.692  31.354  1.00  0.00    -0.206 F 
ATOM     46  C   UNL A   1      35.944  29.885  28.831  1.00  0.00     0.006 A 
ENDBRANCH  25  39
BRANCH  26  47
ATOM     47  C   UNL A   1      48.338  26.705  29.511  1.00  0.00     0.057 A 
ATOM     48  C   UNL A   1      48.938  26.151  30.648  1.00  0.00     0.134 A 
ATOM     49  C   UNL A   1      49.142  26.867  28.375  1.00  0.00     0.134 A 
ATOM     50  F   UNL A   1      48.227  25.974  31.772  1.00  0.00    -0.206 F 
ATOM     51  C   UNL A   1      50.277  25.758  30.651  1.00  0.00     0.040 A 
ATOM     52  C   UNL A   1      50.474  26.448  28.354  1.00  0.00     0.040 A 
ATOM     53  F   UNL A   1      48.623  27.372  27.247  1.00  0.00    -0.206 F 
ATOM     54  C   UNL A   1      51.045  25.889  29.496  1.00  0.00     0.006 A 
ENDBRANCH  26  47
BRANCH  38  55
ATOM     55  C   UNL A   1      44.765  32.515  30.878  1.00  0.00     0.057 A 
ATOM     56  C   UNL A   1      44.817  32.764  32.256  1.00  0.00     0.134 A 
ATOM     57  C   UNL A   1      45.046  33.581  30.016  1.00  0.00     0.134 A 
ATOM     58  F   UNL A   1      44.548  31.789  33.137  1.00  0.00    -0.206 F 
ATOM     59  C   UNL A   1      45.122  34.030  32.758  1.00  0.00     0.040 A 
ATOM     60  C   UNL A   1      45.381  34.844  30.506  1.00  0.00     0.040 A 
ATOM     61  F   UNL A   1      45.024  33.404  28.686  1.00  0.00    -0.206 F 
ATOM     62  C   UNL A   1      45.409  35.073  31.881  1.00  0.00     0.006 A 
ENDBRANCH  38  55
ENDBRANCH  12  13
ENDBRANCH   5   7
ENDBRANCH   2   3
ENDBRANCH   1   2
BRANCH   1  63
ATOM     63  C   UNL A   1      35.807  20.844  25.225  1.00  0.00     0.023 C 
BRANCH  63  64
ATOM     64  C   UNL A   1      35.507  22.159  25.938  1.00  0.00     0.116 C 
BRANCH  64  65
ATOM     65  N   UNL A   1      34.730  21.968  27.157  1.00  0.00    -0.352 N 
ATOM     66  C   UNL A   1      33.437  22.337  27.420  1.00  0.00     0.256 C 
ATOM     67  H   UNL A   1      35.199  21.510  27.891  1.00  0.00     0.163 HD
ATOM     68  O   UNL A   1      32.982  22.249  28.557  1.00  0.00    -0.269 OA
BRANCH  66  69
ATOM     69  C   UNL A   1      32.589  22.840  26.336  1.00  0.00     0.102 A 
ATOM     70  C   UNL A   1      32.404  24.220  26.222  1.00  0.00     0.029 A 
ATOM     71  C   UNL A   1      31.963  22.003  25.421  1.00  0.00     0.223 A 
ATOM     72  C   UNL A   1      31.650  24.735  25.162  1.00  0.00     0.001 A 
ATOM     73  N   UNL A   1      31.252  22.460  24.374  1.00  0.00    -0.221 NA
ATOM     74  C   UNL A   1      31.118  23.804  24.267  1.00  0.00     0.124 A 
BRANCH  71  75
ATOM     75  O   UNL A   1      32.027  20.641  25.483  1.00  0.00    -0.493 OA
ATOM     76  H   UNL A   1      31.949  20.132  24.699  1.00  0.00     0.295 HD
ENDBRANCH  71  75
BRANCH  72  77
ATOM     77  C   UNL A   1      31.432  26.176  25.002  1.00  0.00    -0.016 A 
ATOM     78  C   UNL A   1      30.612  26.667  23.972  1.00  0.00     0.012 A 
ATOM     79  C   UNL A   1      32.030  27.101  25.877  1.00  0.00     0.025 A 
ATOM     80  C   UNL A   1      30.399  28.038  23.821  1.00  0.00     0.040 A 
ATOM     81  C   UNL A   1      31.822  28.484  25.730  1.00  0.00     0.092 A 
ATOM     82  C   UNL A   1      31.005  28.930  24.696  1.00  0.00     0.135 A 
ATOM     83  F   UNL A   1      30.791  30.242  24.531  1.00  0.00    -0.206 F 
BRANCH  81  84
ATOM     84  C   UNL A   1      32.466  29.486  26.640  1.00  0.00     0.419 C 
ATOM     85  F   UNL A   1      33.126  28.907  27.680  1.00  0.00    -0.166 F 
ATOM     86  F   UNL A   1      33.368  30.283  26.006  1.00  0.00    -0.166 F 
ATOM     87  F   UNL A   1      31.565  30.339  27.210  1.00  0.00    -0.166 F 
ENDBRANCH  81  84
ENDBRANCH  72  77
ENDBRANCH  66  69
ENDBRANCH  64  65
ENDBRANCH  63  64
ENDBRANCH   1  63
TORSDOF 14
ENDMDL
MODEL 2
REMARK VINA RESULT:     -11.9      4.210      8.799
REMARK SMILES O=C(NCCCCNC(=O)c1cc(-c2ccc(F)c(C(F)(F)F)c2)cnc1O)c1ccc(-c2c3nc(c(-c4c(F)cccc4F)c4ccc([nH]4)c(-c4c(F)cccc4F)c4nc(c(-c5c(F)cccc5F)c5ccc2[nH]5)C=C4)C=C3)cc1
REMARK SMILES IDX 5 1 4 2 3 3 1 4 2 5 29 7 30 8 82 9 31 10 81 11 32 12 33 13
REMARK SMILES IDX 34 14 75 15 35 16 80 17 74 18 76 19 36 20 79 21 73 22 72 23
REMARK SMILES IDX 37 25 63 26 46 27 62 28 47 29 50 30 61 31 77 32 48 33 49 34
REMARK SMILES IDX 60 36 78 37 51 38 38 39 39 40 44 41 40 42 41 43 43 44 45 45
REMARK SMILES IDX 42 46 64 47 65 48 70 49 66 50 67 51 69 52 71 53 68 54 52 55
REMARK SMILES IDX 53 56 58 57 54 58 55 59 57 60 59 61 56 62 6 63 7 64 8 65
REMARK SMILES IDX 9 66 10 68 11 69 12 70 27 71 13 72 26 73 25 74 28 75 14 77
REMARK SMILES IDX 15 78 24 79 16 80 19 81 17 82 18 83 20 84 21 85 22 86 23 87
REMARK H PARENT 3 6 76 24 50 35 8 67 28 76
REMARK Flexibility Score: inf
ROOT
ATOM      1  C   UNL A   1      33.365  27.776  23.995  1.00  0.00     0.023 C 
ENDROOT
BRANCH   1   2
ATOM      2  C   UNL A   1      33.969  29.030  24.615  1.00  0.00     0.116 C 
BRANCH   2   3
ATOM      3  N   UNL A   1      32.959  29.927  25.149  1.00  0.00    -0.352 N 
ATOM      4  O   UNL A   1      31.875  31.139  26.702  1.00  0.00    -0.269 OA
ATOM      5  C   UNL A   1      32.902  30.559  26.366  1.00  0.00     0.251 C 
ATOM      6  H   UNL A   1      32.203  30.111  24.547  1.00  0.00     0.163 HD
BRANCH   5   7
ATOM      7  C   UNL A   1      34.068  30.547  27.278  1.00  0.00     0.039 A 
ATOM      8  C   UNL A   1      34.704  31.758  27.576  1.00  0.00     0.014 A 
ATOM      9  C   UNL A   1      34.584  29.349  27.778  1.00  0.00     0.014 A 
ATOM     10  C   UNL A   1      35.846  31.769  28.380  1.00  0.00     0.010 A 
ATOM     11  C   UNL A   1      35.674  29.367  28.644  1.00  0.00     0.010 A 
ATOM     12  C   UNL A   1      36.341  30.573  28.920  1.00  0.00    -0.014 A 
BRANCH  12  13
ATOM     13  C   UNL A   1      37.630  30.522  29.655  1.00  0.00     0.031 A 
ATOM     14  C   UNL A   1      38.792  29.794  29.027  1.00  0.00     0.074 A 
ATOM     15  C   UNL A   1      37.757  31.072  30.877  1.00  0.00     0.049 A 
ATOM     16  N   UNL A   1      39.952  29.477  29.542  1.00  0.00    -0.248 NA
ATOM     17  C   UNL A   1      38.609  29.338  27.638  1.00  0.00     0.031 C 
ATOM     18  C   UNL A   1      36.719  31.816  31.590  1.00  0.00     0.029 A 
ATOM     19  N   UNL A   1      38.822  31.070  31.746  1.00  0.00    -0.354 N 
ATOM     20  C   UNL A   1      40.617  28.760  28.555  1.00  0.00     0.074 A 
ATOM     21  C   UNL A   1      39.720  28.651  27.427  1.00  0.00     0.031 C 
ATOM     22  C   UNL A   1      37.199  32.204  32.785  1.00  0.00     0.029 A 
ATOM     23  C   UNL A   1      38.558  31.691  32.944  1.00  0.00     0.049 A 
ATOM     24  H   UNL A   1      39.692  30.663  31.532  1.00  0.00     0.167 HD
ATOM     25  C   UNL A   1      41.871  28.252  28.578  1.00  0.00     0.037 A 
ATOM     26  C   UNL A   1      39.318  31.805  34.050  1.00  0.00     0.037 A 
ATOM     27  C   UNL A   1      42.779  28.401  29.682  1.00  0.00     0.049 A 
ATOM     28  C   UNL A   1      40.692  31.183  34.066  1.00  0.00     0.074 A 
ATOM     29  C   UNL A   1      44.088  27.965  29.785  1.00  0.00     0.029 A 
ATOM     30  N   UNL A   1      42.472  29.040  30.873  1.00  0.00    -0.354 N 
ATOM     31  N   UNL A   1      41.323  30.536  33.116  1.00  0.00    -0.248 NA
ATOM     32  C   UNL A   1      41.462  31.306  35.314  1.00  0.00     0.031 C 
ATOM     33  C   UNL A   1      44.557  28.293  31.059  1.00  0.00     0.029 A 
ATOM     34  C   UNL A   1      43.561  28.988  31.726  1.00  0.00     0.049 A 
ATOM     35  H   UNL A   1      41.610  29.465  31.081  1.00  0.00     0.167 HD
ATOM     36  C   UNL A   1      42.574  30.222  33.633  1.00  0.00     0.074 A 
ATOM     37  C   UNL A   1      42.617  30.750  34.979  1.00  0.00     0.031 C 
ATOM     38  C   UNL A   1      43.599  29.556  33.047  1.00  0.00     0.037 A 
BRANCH  25  39
ATOM     39  C   UNL A   1      42.340  27.483  27.377  1.00  0.00     0.057 A 
ATOM     40  C   UNL A   1      42.698  28.154  26.201  1.00  0.00     0.134 A 
ATOM     41  C   UNL A   1      42.386  26.083  27.363  1.00  0.00     0.134 A 
ATOM     42  F   UNL A   1      42.672  29.494  26.145  1.00  0.00    -0.206 F 
ATOM     43  C   UNL A   1      43.075  27.459  25.051  1.00  0.00     0.040 A 
ATOM     44  C   UNL A   1      42.789  25.378  26.228  1.00  0.00     0.040 A 
ATOM     45  F   UNL A   1      42.068  25.381  28.461  1.00  0.00    -0.206 F 
ATOM     46  C   UNL A   1      43.125  26.067  25.064  1.00  0.00     0.006 A 
ENDBRANCH  25  39
BRANCH  26  47
ATOM     47  C   UNL A   1      38.811  32.510  35.258  1.00  0.00     0.057 A 
ATOM     48  C   UNL A   1      38.195  31.816  36.306  1.00  0.00     0.134 A 
ATOM     49  C   UNL A   1      39.012  33.886  35.429  1.00  0.00     0.134 A 
ATOM     50  F   UNL A   1      37.966  30.498  36.206  1.00  0.00    -0.206 F 
ATOM     51  C   UNL A   1      37.810  32.460  37.484  1.00  0.00     0.040 A 
ATOM     52  C   UNL A   1      38.662  34.536  36.614  1.00  0.00     0.040 A 
ATOM     53  F   UNL A   1      39.617  34.603  34.471  1.00  0.00    -0.206 F 
ATOM     54  C   UNL A   1      38.059  33.821  37.648  1.00  0.00     0.006 A 
ENDBRANCH  26  47
BRANCH  38  55
ATOM     55  C   UNL A   1      44.882  29.433  33.816  1.00  0.00     0.057 A 
ATOM     56  C   UNL A   1      45.875  30.414  33.688  1.00  0.00     0.134 A 
ATOM     57  C   UNL A   1      45.164  28.326  34.624  1.00  0.00     0.134 A 
ATOM     58  F   UNL A   1      45.672  31.494  32.920  1.00  0.00    -0.206 F 
ATOM     59  C   UNL A   1      47.109  30.290  34.327  1.00  0.00     0.040 A 
ATOM     60  C   UNL A   1      46.384  28.206  35.292  1.00  0.00     0.040 A 
ATOM     61  F   UNL A   1      44.251  27.359  34.797  1.00  0.00    -0.206 F 
ATOM     62  C   UNL A   1      47.364  29.185  35.135  1.00  0.00     0.006 A 
ENDBRANCH  38  55
ENDBRANCH  12  13
ENDBRANCH   5   7
ENDBRANCH   2   3
ENDBRANCH   1   2
BRANCH   1  63
ATOM     63  C   UNL A   1      32.430  26.981  24.907  1.00  0.00     0.023 C 
BRANCH  63  64
ATOM     64  C   UNL A   1      33.125  26.125  25.962  1.00  0.00     0.116 C 
BRANCH  64  65
ATOM     65  N   UNL A   1      32.492  24.822  26.128  1.00  0.00    -0.352 N 
ATOM     66  C   UNL A   1      32.853  23.615  25.590  1.00  0.00     0.256 C 
ATOM     67  H   UNL A   1      31.695  24.808  26.706  1.00  0.00     0.163 HD
ATOM     68  O   UNL A   1      32.116  22.639  25.696  1.00  0.00    -0.269 OA
BRANCH  66  69
ATOM     69  C   UNL A   1      34.131  23.486  24.884  1.00  0.00     0.102 A 
ATOM     70  C   UNL A   1      35.299  23.358  25.640  1.00  0.00     0.029 A 
ATOM     71  C   UNL A   1      34.228  23.488  23.498  1.00  0.00     0.223 A 
ATOM     72  C   UNL A   1      36.527  23.172  24.996  1.00  0.00     0.001 A 
ATOM     73  N   UNL A   1      35.385  23.287  22.843  1.00  0.00    -0.221 NA
ATOM     74  C   UNL A   1      36.497  23.130  23.600  1.00  0.00     0.124 A 
BRANCH  71  75
ATOM     75  O   UNL A   1      33.157  23.671  22.671  1.00  0.00    -0.493 OA
ATOM     76  H   UNL A   1      32.363  24.039  23.008  1.00  0.00     0.295 HD
ENDBRANCH  71  75
BRANCH  72  77
ATOM     77  C   UNL A   1      37.777  23.031  25.749  1.00  0.00    -0.016 A 
ATOM     78  C   UNL A   1      38.267  24.091  26.529  1.00  0.00     0.012 A 
ATOM     79  C   UNL A   1      38.512  21.832  25.714  1.00  0.00     0.025 A 
ATOM     80  C   UNL A   1      39.454  23.957  27.251  1.00  0.00     0.040 A 
ATOM     81  C   UNL A   1      39.710  21.691  26.436  1.00  0.00     0.092 A 
ATOM     82  C   UNL A   1      40.163  22.764  27.196  1.00  0.00     0.135 A 
ATOM     83  F   UNL A   1      41.302  22.658  27.893  1.00  0.00    -0.206 F 
BRANCH  81  84
ATOM     84  C   UNL A   1      40.517  20.428  26.397  1.00  0.00     0.419 C 
ATOM     85  F   UNL A   1      39.895  19.424  25.721  1.00  0.00    -0.166 F 
ATOM     86  F   UNL A   1      41.735  20.589  25.812  1.00  0.00    -0.166 F 
ATOM     87  F   UNL A   1      40.774  19.925  27.641  1.00  0.00    -0.166 F 
ENDBRANCH  81  84
ENDBRANCH  72  77
ENDBRANCH  66  69
ENDBRANCH  64  65
ENDBRANCH  63  64
ENDBRANCH   1  63
TORSDOF 14
ENDMDL
MODEL 3
REMARK VINA RESULT:     -11.9      5.069      9.408
REMARK SMILES O=C(NCCCCNC(=O)c1cc(-c2ccc(F)c(C(F)(F)F)c2)cnc1O)c1ccc(-c2c3nc(c(-c4c(F)cccc4F)c4ccc([nH]4)c(-c4c(F)cccc4F)c4nc(c(-c5c(F)cccc5F)c5ccc2[nH]5)C=C4)C=C3)cc1
REMARK SMILES IDX 5 1 4 2 3 3 1 4 2 5 29 7 30 8 82 9 31 10 81 11 32 12 33 13
REMARK SMILES IDX 34 14 75 15 35 16 80 17 74 18 76 19 36 20 79 21 73 22 72 23
REMARK SMILES IDX 37 25 63 26 46 27 62 28 47 29 50 30 61 31 77 32 48 33 49 34
REMARK SMILES IDX 60 36 78 37 51 38 38 39 39 40 44 41 40 42 41 43 43 44 45 45
REMARK SMILES IDX 42 46 64 47 65 48 70 49 66 50 67 51 69 52 71 53 68 54 52 55
REMARK SMILES IDX 53 56 58 57 54 58 55 59 57 60 59 61 56 62 6 63 7 64 8 65
REMARK SMILES IDX 9 66 10 68 11 69 12 70 27 71 13 72 26 73 25 74 28 75 14 77
REMARK SMILES IDX 15 78 24 79 16 80 19 81 17 82 18 83 20 84 21 85 22 86 23 87
REMARK H PARENT 3 6 76 24 50 35 8 67 28 76
REMARK Flexibility Score: inf
ROOT
ATOM      1  C   UNL A   1      31.609  31.227  26.512  1.00  0.00     0.023 C 
ENDROOT
BRANCH   1   2
ATOM      2  C   UNL A   1      32.841  32.012  26.944  1.00  0.00     0.116 C 
BRANCH   2   3
ATOM      3  N   UNL A   1      32.531  33.388  27.291  1.00  0.00    -0.352 N 
ATOM      4  O   UNL A   1      32.536  35.266  28.525  1.00  0.00    -0.269 OA
ATOM      5  C   UNL A   1      33.057  34.184  28.276  1.00  0.00     0.251 C 
ATOM      6  H   UNL A   1      31.839  33.813  26.734  1.00  0.00     0.163 HD
BRANCH   5   7
ATOM      7  C   UNL A   1      34.248  33.751  29.041  1.00  0.00     0.039 A 
ATOM      8  C   UNL A   1      35.500  34.268  28.689  1.00  0.00     0.014 A 
ATOM      9  C   UNL A   1      34.152  32.787  30.047  1.00  0.00     0.014 A 
ATOM     10  C   UNL A   1      36.649  33.828  29.350  1.00  0.00     0.010 A 
ATOM     11  C   UNL A   1      35.285  32.407  30.759  1.00  0.00     0.010 A 
ATOM     12  C   UNL A   1      36.551  32.892  30.390  1.00  0.00    -0.014 A 
BRANCH  12  13
ATOM     13  C   UNL A   1      37.756  32.290  31.016  1.00  0.00     0.031 A 
ATOM     14  C   UNL A   1      38.491  31.205  30.271  1.00  0.00     0.074 A 
ATOM     15  C   UNL A   1      38.165  32.667  32.242  1.00  0.00     0.049 A 
ATOM     16  N   UNL A   1      39.458  30.424  30.679  1.00  0.00    -0.248 NA
ATOM     17  C   UNL A   1      38.058  30.947  28.886  1.00  0.00     0.031 C 
ATOM     18  C   UNL A   1      37.555  33.712  33.062  1.00  0.00     0.029 A 
ATOM     19  N   UNL A   1      39.193  32.190  33.021  1.00  0.00    -0.354 N 
ATOM     20  C   UNL A   1      39.722  29.567  29.617  1.00  0.00     0.074 A 
ATOM     21  C   UNL A   1      38.789  29.892  28.563  1.00  0.00     0.031 C 
ATOM     22  C   UNL A   1      38.221  33.803  34.226  1.00  0.00     0.029 A 
ATOM     23  C   UNL A   1      39.271  32.788  34.256  1.00  0.00     0.049 A 
ATOM     24  H   UNL A   1      39.814  31.487  32.723  1.00  0.00     0.167 HD
ATOM     25  C   UNL A   1      40.669  28.606  29.521  1.00  0.00     0.037 A 
ATOM     26  C   UNL A   1      40.080  32.522  35.301  1.00  0.00     0.037 A 
ATOM     27  C   UNL A   1      41.627  28.314  30.553  1.00  0.00     0.049 A 
ATOM     28  C   UNL A   1      41.091  31.409  35.183  1.00  0.00     0.074 A 
ATOM     29  C   UNL A   1      42.658  27.392  30.533  1.00  0.00     0.029 A 
ATOM     30  N   UNL A   1      41.673  28.945  31.785  1.00  0.00    -0.354 N 
ATOM     31  N   UNL A   1      41.353  30.628  34.164  1.00  0.00    -0.248 NA
ATOM     32  C   UNL A   1      41.921  31.139  36.368  1.00  0.00     0.031 C 
ATOM     33  C   UNL A   1      43.296  27.426  31.776  1.00  0.00     0.029 A 
ATOM     34  C   UNL A   1      42.701  28.415  32.545  1.00  0.00     0.049 A 
ATOM     35  H   UNL A   1      41.065  29.662  32.077  1.00  0.00     0.167 HD
ATOM     36  C   UNL A   1      42.405  29.814  34.567  1.00  0.00     0.074 A 
ATOM     37  C   UNL A   1      42.736  30.195  35.922  1.00  0.00     0.031 C 
ATOM     38  C   UNL A   1      43.042  28.837  33.877  1.00  0.00     0.037 A 
BRANCH  25  39
ATOM     39  C   UNL A   1      40.719  27.792  28.261  1.00  0.00     0.057 A 
ATOM     40  C   UNL A   1      40.045  26.565  28.183  1.00  0.00     0.134 A 
ATOM     41  C   UNL A   1      41.471  28.188  27.148  1.00  0.00     0.134 A 
ATOM     42  F   UNL A   1      39.310  26.124  29.215  1.00  0.00    -0.206 F 
ATOM     43  C   UNL A   1      40.128  25.759  27.047  1.00  0.00     0.040 A 
ATOM     44  C   UNL A   1      41.538  27.404  25.996  1.00  0.00     0.040 A 
ATOM     45  F   UNL A   1      42.129  29.358  27.154  1.00  0.00    -0.206 F 
ATOM     46  C   UNL A   1      40.872  26.180  25.948  1.00  0.00     0.006 A 
ENDBRANCH  25  39
BRANCH  26  47
ATOM     47  C   UNL A   1      39.970  33.292  36.569  1.00  0.00     0.057 A 
ATOM     48  C   UNL A   1      40.734  34.442  36.796  1.00  0.00     0.134 A 
ATOM     49  C   UNL A   1      39.031  32.941  37.547  1.00  0.00     0.134 A 
ATOM     50  F   UNL A   1      41.656  34.832  35.903  1.00  0.00    -0.206 F 
ATOM     51  C   UNL A   1      40.560  35.223  37.940  1.00  0.00     0.040 A 
ATOM     52  C   UNL A   1      38.823  33.730  38.681  1.00  0.00     0.040 A 
ATOM     53  F   UNL A   1      38.252  31.863  37.379  1.00  0.00    -0.206 F 
ATOM     54  C   UNL A   1      39.589  34.877  38.878  1.00  0.00     0.006 A 
ENDBRANCH  26  47
BRANCH  38  55
ATOM     55  C   UNL A   1      44.214  28.169  34.535  1.00  0.00     0.057 A 
ATOM     56  C   UNL A   1      44.023  27.014  35.306  1.00  0.00     0.134 A 
ATOM     57  C   UNL A   1      45.509  28.694  34.466  1.00  0.00     0.134 A 
ATOM     58  F   UNL A   1      42.805  26.465  35.423  1.00  0.00    -0.206 F 
ATOM     59  C   UNL A   1      45.078  26.414  35.995  1.00  0.00     0.040 A 
ATOM     60  C   UNL A   1      46.577  28.086  35.126  1.00  0.00     0.040 A 
ATOM     61  F   UNL A   1      45.760  29.791  33.734  1.00  0.00    -0.206 F 
ATOM     62  C   UNL A   1      46.360  26.948  35.902  1.00  0.00     0.006 A 
ENDBRANCH  38  55
ENDBRANCH  12  13
ENDBRANCH   5   7
ENDBRANCH   2   3
ENDBRANCH   1   2
BRANCH   1  63
ATOM     63  C   UNL A   1      31.823  29.724  26.327  1.00  0.00     0.023 C 
BRANCH  63  64
ATOM     64  C   UNL A   1      31.568  29.200  24.917  1.00  0.00     0.116 C 
BRANCH  64  65
ATOM     65  N   UNL A   1      32.680  29.472  24.012  1.00  0.00    -0.352 N 
ATOM     66  C   UNL A   1      33.369  28.601  23.211  1.00  0.00     0.256 C 
ATOM     67  H   UNL A   1      32.974  30.411  23.973  1.00  0.00     0.163 HD
ATOM     68  O   UNL A   1      34.390  28.962  22.631  1.00  0.00    -0.269 OA
BRANCH  66  69
ATOM     69  C   UNL A   1      32.885  27.228  23.043  1.00  0.00     0.102 A 
ATOM     70  C   UNL A   1      33.636  26.186  23.593  1.00  0.00     0.029 A 
ATOM     71  C   UNL A   1      31.715  26.922  22.359  1.00  0.00     0.223 A 
ATOM     72  C   UNL A   1      33.170  24.870  23.502  1.00  0.00     0.001 A 
ATOM     73  N   UNL A   1      31.221  25.673  22.272  1.00  0.00    -0.221 NA
ATOM     74  C   UNL A   1      31.951  24.686  22.845  1.00  0.00     0.124 A 
BRANCH  71  75
ATOM     75  O   UNL A   1      30.945  27.858  21.731  1.00  0.00    -0.493 OA
ATOM     76  H   UNL A   1      30.539  27.656  20.911  1.00  0.00     0.295 HD
ENDBRANCH  71  75
BRANCH  72  77
ATOM     77  C   UNL A   1      33.923  23.747  24.066  1.00  0.00    -0.016 A 
ATOM     78  C   UNL A   1      35.215  23.937  24.583  1.00  0.00     0.012 A 
ATOM     79  C   UNL A   1      33.371  22.454  24.111  1.00  0.00     0.025 A 
ATOM     80  C   UNL A   1      35.932  22.870  25.126  1.00  0.00     0.040 A 
ATOM     81  C   UNL A   1      34.089  21.373  24.653  1.00  0.00     0.092 A 
ATOM     82  C   UNL A   1      35.366  21.602  25.154  1.00  0.00     0.135 A 
ATOM     83  F   UNL A   1      36.072  20.591  25.674  1.00  0.00    -0.206 F 
BRANCH  81  84
ATOM     84  C   UNL A   1      33.525  19.984  24.692  1.00  0.00     0.419 C 
ATOM     85  F   UNL A   1      33.238  19.566  25.955  1.00  0.00    -0.166 F 
ATOM     86  F   UNL A   1      32.378  19.852  23.972  1.00  0.00    -0.166 F 
ATOM     87  F   UNL A   1      34.382  19.050  24.185  1.00  0.00    -0.166 F 
ENDBRANCH  81  84
ENDBRANCH  72  77
ENDBRANCH  66  69
ENDBRANCH  64  65
ENDBRANCH  63  64
ENDBRANCH   1  63
TORSDOF 14
ENDMDL
