MODEL 1
REMARK VINA RESULT:     -12.4      0.000      0.000
REMARK SMILES O=C(CNC(=O)N1CC(NCCCCNC(=O)c2ccc(-c3c4nc(c(-c5c(F)cccc5F)c5ccc([nH]5)c(-c5c(F)cccc5F)c5nc(c(-c6c(F)cccc6F)c6ccc3[nH]6)C=C5)C=C4)cc2)=[NH+]c2ccccc21)N[C@H](C(=O)[O-])c1ccccc1
REMARK SMILES IDX 11 1 10 2 7 3 8 4 78 5 9 6 73 7 77 8 72 9 74 10 76 11 75 14
REMARK SMILES IDX 5 15 4 16 6 18 3 19 2 20 1 21 79 22 80 24 84 25 85 26 89 27
REMARK SMILES IDX 86 28 88 29 87 30 81 31 82 32 83 33 12 34 13 35 14 36 15 37
REMARK SMILES IDX 16 38 17 40 18 41 19 42 71 43 20 44 70 45 21 46 22 47 23 48
REMARK SMILES IDX 64 49 24 50 69 51 63 52 65 53 25 54 68 55 62 56 61 57 26 59
REMARK SMILES IDX 52 60 35 61 51 62 36 63 39 64 50 65 66 66 37 67 38 68 49 70
REMARK SMILES IDX 67 71 40 72 27 73 28 74 33 75 29 76 30 77 32 78 34 79 31 80
REMARK SMILES IDX 53 81 54 82 59 83 55 84 56 85 58 86 60 87 57 88 41 89 42 90
REMARK SMILES IDX 47 91 43 92 44 93 46 94 48 95 45 96
REMARK H PARENT 10 12 72 13 4 17 79 23 15 39 65 58 39 69
REMARK Flexibility Score: inf
ROOT
ATOM      1  C   UNL A   1      36.363  21.871  25.812  1.00  0.00     0.233 C 
ENDROOT
BRANCH   1   2
ATOM      2  N   UNL A   1      35.976  23.191  25.381  1.00  0.00    -0.277 N 
ATOM      3  N   UNL A   1      32.572  23.911  26.547  1.00  0.00    -0.278 N 
ATOM      4  C   UNL A   1      33.907  23.401  26.831  1.00  0.00     0.255 C 
ATOM      5  C   UNL A   1      32.529  25.309  26.308  1.00  0.00     0.093 A 
ATOM      6  C   UNL A   1      34.896  23.935  25.787  1.00  0.00     0.268 C 
ATOM      7  C   UNL A   1      33.649  25.893  25.681  1.00  0.00     0.148 A 
ATOM      8  C   UNL A   1      31.430  26.099  26.669  1.00  0.00     0.031 A 
ATOM      9  N   UNL A   1      34.766  25.131  25.275  1.00  0.00    -0.241 N 
ATOM     10  C   UNL A   1      33.615  27.253  25.367  1.00  0.00     0.054 A 
ATOM     11  C   UNL A   1      31.421  27.460  26.362  1.00  0.00     0.002 A 
ATOM     12  H   UNL A   1      36.560  23.614  24.711  1.00  0.00     0.304 HD
ATOM     13  H   UNL A   1      35.421  25.485  24.631  1.00  0.00     0.312 HD
ATOM     14  C   UNL A   1      32.506  28.033  25.701  1.00  0.00     0.005 A 
BRANCH   3  15
ATOM     15  C   UNL A   1      31.508  23.057  26.669  1.00  0.00     0.323 C 
ATOM     16  N   UNL A   1      31.251  22.156  25.686  1.00  0.00    -0.329 N 
ATOM     17  H   UNL A   1      30.329  21.815  25.654  1.00  0.00     0.165 HD
ATOM     18  O   UNL A   1      30.821  22.995  27.691  1.00  0.00    -0.248 OA
BRANCH  16  19
ATOM     19  C   UNL A   1      32.152  21.627  24.670  1.00  0.00     0.218 C 
BRANCH  19  20
ATOM     20  C   UNL A   1      31.966  22.387  23.362  1.00  0.00     0.240 C 
ATOM     21  O   UNL A   1      31.779  21.814  22.294  1.00  0.00    -0.273 OA
ATOM     22  N   UNL A   1      32.079  23.756  23.490  1.00  0.00    -0.342 N 
ATOM     23  H   UNL A   1      32.364  24.133  24.354  1.00  0.00     0.164 HD
BRANCH  22  24
ATOM     24  C   UNL A   1      31.786  24.666  22.378  1.00  0.00     0.158 C 
BRANCH  24  25
ATOM     25  C   UNL A   1      30.900  25.852  22.760  1.00  0.00    -0.020 A 
ATOM     26  C   UNL A   1      29.736  25.652  23.531  1.00  0.00     0.006 A 
ATOM     27  C   UNL A   1      31.133  27.153  22.283  1.00  0.00     0.006 A 
ATOM     28  C   UNL A   1      28.878  26.708  23.848  1.00  0.00     0.000 A 
ATOM     29  C   UNL A   1      30.275  28.212  22.598  1.00  0.00     0.000 A 
ATOM     30  C   UNL A   1      29.149  27.991  23.384  1.00  0.00     0.000 A 
ENDBRANCH  24  25
BRANCH  24  31
ATOM     31  C   UNL A   1      33.081  24.956  21.571  1.00  0.00     0.068 C 
ATOM     32  O   UNL A   1      33.196  25.106  20.363  1.00  0.00    -0.548 OA
ATOM     33  O   UNL A   1      34.219  24.865  22.309  1.00  0.00    -0.548 OA
ENDBRANCH  24  31
ENDBRANCH  22  24
ENDBRANCH  19  20
ENDBRANCH  16  19
ENDBRANCH   3  15
ENDBRANCH   1   2
BRANCH   1  34
ATOM     34  C   UNL A   1      36.842  21.030  24.629  1.00  0.00     0.048 C 
BRANCH  34  35
ATOM     35  C   UNL A   1      37.824  19.911  24.990  1.00  0.00     0.025 C 
BRANCH  35  36
ATOM     36  C   UNL A   1      39.068  20.350  25.757  1.00  0.00     0.116 C 
BRANCH  36  37
ATOM     37  N   UNL A   1      40.105  19.332  25.810  1.00  0.00    -0.352 N 
ATOM     38  C   UNL A   1      41.431  19.480  26.150  1.00  0.00     0.251 C 
ATOM     39  H   UNL A   1      39.824  18.419  25.572  1.00  0.00     0.163 HD
ATOM     40  O   UNL A   1      42.210  18.538  26.050  1.00  0.00    -0.269 OA
BRANCH  38  41
ATOM     41  C   UNL A   1      41.919  20.799  26.602  1.00  0.00     0.039 A 
ATOM     42  C   UNL A   1      42.447  21.688  25.661  1.00  0.00     0.014 A 
ATOM     43  C   UNL A   1      41.813  21.171  27.944  1.00  0.00     0.014 A 
ATOM     44  C   UNL A   1      42.794  22.984  26.052  1.00  0.00     0.010 A 
ATOM     45  C   UNL A   1      42.102  22.479  28.318  1.00  0.00     0.010 A 
ATOM     46  C   UNL A   1      42.584  23.401  27.374  1.00  0.00    -0.014 A 
BRANCH  46  47
ATOM     47  C   UNL A   1      42.852  24.792  27.816  1.00  0.00     0.031 A 
ATOM     48  C   UNL A   1      44.239  25.179  28.245  1.00  0.00     0.074 A 
ATOM     49  C   UNL A   1      41.836  25.668  27.945  1.00  0.00     0.049 A 
ATOM     50  N   UNL A   1      44.646  26.262  28.857  1.00  0.00    -0.248 NA
ATOM     51  C   UNL A   1      45.303  24.201  27.976  1.00  0.00     0.031 C 
ATOM     52  C   UNL A   1      40.441  25.410  27.583  1.00  0.00     0.029 A 
ATOM     53  N   UNL A   1      41.817  26.946  28.446  1.00  0.00    -0.354 N 
ATOM     54  C   UNL A   1      46.004  26.079  29.077  1.00  0.00     0.074 A 
ATOM     55  C   UNL A   1      46.346  24.771  28.561  1.00  0.00     0.031 C 
ATOM     56  C   UNL A   1      39.704  26.495  27.874  1.00  0.00     0.029 A 
ATOM     57  C   UNL A   1      40.562  27.504  28.486  1.00  0.00     0.049 A 
ATOM     58  H   UNL A   1      42.627  27.418  28.749  1.00  0.00     0.167 HD
ATOM     59  C   UNL A   1      46.888  26.931  29.646  1.00  0.00     0.037 A 
ATOM     60  C   UNL A   1      40.147  28.685  28.984  1.00  0.00     0.037 A 
ATOM     61  C   UNL A   1      46.552  28.246  30.124  1.00  0.00     0.049 A 
ATOM     62  C   UNL A   1      41.147  29.612  29.618  1.00  0.00     0.074 A 
ATOM     63  C   UNL A   1      47.389  29.204  30.670  1.00  0.00     0.029 A 
ATOM     64  N   UNL A   1      45.277  28.788  30.107  1.00  0.00    -0.354 N 
ATOM     65  N   UNL A   1      42.435  29.443  29.791  1.00  0.00    -0.248 NA
ATOM     66  C   UNL A   1      40.636  30.892  30.130  1.00  0.00     0.031 C 
ATOM     67  C   UNL A   1      46.612  30.316  31.013  1.00  0.00     0.029 A 
ATOM     68  C   UNL A   1      45.301  30.064  30.643  1.00  0.00     0.049 A 
ATOM     69  H   UNL A   1      44.474  28.334  29.765  1.00  0.00     0.167 HD
ATOM     70  C   UNL A   1      42.894  30.605  30.396  1.00  0.00     0.074 A 
ATOM     71  C   UNL A   1      41.747  31.473  30.563  1.00  0.00     0.031 C 
ATOM     72  C   UNL A   1      44.155  30.926  30.775  1.00  0.00     0.037 A 
BRANCH  59  73
ATOM     73  C   UNL A   1      48.307  26.465  29.787  1.00  0.00     0.057 A 
ATOM     74  C   UNL A   1      48.744  25.762  30.917  1.00  0.00     0.134 A 
ATOM     75  C   UNL A   1      49.239  26.695  28.767  1.00  0.00     0.134 A 
ATOM     76  F   UNL A   1      47.904  25.520  31.935  1.00  0.00    -0.206 F 
ATOM     77  C   UNL A   1      50.065  25.326  31.039  1.00  0.00     0.040 A 
ATOM     78  C   UNL A   1      50.555  26.242  28.865  1.00  0.00     0.040 A 
ATOM     79  F   UNL A   1      48.884  27.358  27.656  1.00  0.00    -0.206 F 
ATOM     80  C   UNL A   1      50.973  25.560  30.007  1.00  0.00     0.006 A 
ENDBRANCH  59  73
BRANCH  60  81
ATOM     81  C   UNL A   1      38.714  29.064  28.896  1.00  0.00     0.057 A 
ATOM     82  C   UNL A   1      37.871  28.941  30.006  1.00  0.00     0.134 A 
ATOM     83  C   UNL A   1      38.152  29.547  27.708  1.00  0.00     0.134 A 
ATOM     84  F   UNL A   1      38.347  28.465  31.166  1.00  0.00    -0.206 F 
ATOM     85  C   UNL A   1      36.516  29.272  29.936  1.00  0.00     0.040 A 
ATOM     86  C   UNL A   1      36.805  29.903  27.630  1.00  0.00     0.040 A 
ATOM     87  F   UNL A   1      38.910  29.692  26.611  1.00  0.00    -0.206 F 
ATOM     88  C   UNL A   1      35.981  29.758  28.744  1.00  0.00     0.006 A 
ENDBRANCH  60  81
BRANCH  72  89
ATOM     89  C   UNL A   1      44.381  32.290  31.352  1.00  0.00     0.057 A 
ATOM     90  C   UNL A   1      44.354  32.524  32.732  1.00  0.00     0.134 A 
ATOM     91  C   UNL A   1      44.706  33.366  30.516  1.00  0.00     0.134 A 
ATOM     92  F   UNL A   1      44.037  31.537  33.583  1.00  0.00    -0.206 F 
ATOM     93  C   UNL A   1      44.639  33.784  33.260  1.00  0.00     0.040 A 
ATOM     94  C   UNL A   1      45.012  34.624  31.033  1.00  0.00     0.040 A 
ATOM     95  F   UNL A   1      44.755  33.203  29.184  1.00  0.00    -0.206 F 
ATOM     96  C   UNL A   1      44.980  34.836  32.410  1.00  0.00     0.006 A 
ENDBRANCH  72  89
ENDBRANCH  46  47
ENDBRANCH  38  41
ENDBRANCH  36  37
ENDBRANCH  35  36
ENDBRANCH  34  35
ENDBRANCH   1  34
TORSDOF 16
ENDMDL
MODEL 2
REMARK VINA RESULT:     -12.2      1.471      6.097
REMARK SMILES O=C(CNC(=O)N1CC(NCCCCNC(=O)c2ccc(-c3c4nc(c(-c5c(F)cccc5F)c5ccc([nH]5)c(-c5c(F)cccc5F)c5nc(c(-c6c(F)cccc6F)c6ccc3[nH]6)C=C5)C=C4)cc2)=[NH+]c2ccccc21)N[C@H](C(=O)[O-])c1ccccc1
REMARK SMILES IDX 11 1 10 2 7 3 8 4 78 5 9 6 73 7 77 8 72 9 74 10 76 11 75 14
REMARK SMILES IDX 5 15 4 16 6 18 3 19 2 20 1 21 79 22 80 24 84 25 85 26 89 27
REMARK SMILES IDX 86 28 88 29 87 30 81 31 82 32 83 33 12 34 13 35 14 36 15 37
REMARK SMILES IDX 16 38 17 40 18 41 19 42 71 43 20 44 70 45 21 46 22 47 23 48
REMARK SMILES IDX 64 49 24 50 69 51 63 52 65 53 25 54 68 55 62 56 61 57 26 59
REMARK SMILES IDX 52 60 35 61 51 62 36 63 39 64 50 65 66 66 37 67 38 68 49 70
REMARK SMILES IDX 67 71 40 72 27 73 28 74 33 75 29 76 30 77 32 78 34 79 31 80
REMARK SMILES IDX 53 81 54 82 59 83 55 84 56 85 58 86 60 87 57 88 41 89 42 90
REMARK SMILES IDX 47 91 43 92 44 93 46 94 48 95 45 96
REMARK H PARENT 10 12 72 13 4 17 79 23 15 39 65 58 39 69
REMARK Flexibility Score: inf
ROOT
ATOM      1  C   UNL A   1      36.362  22.038  25.537  1.00  0.00     0.233 C 
ENDROOT
BRANCH   1   2
ATOM      2  N   UNL A   1      35.961  23.365  25.140  1.00  0.00    -0.277 N 
ATOM      3  N   UNL A   1      32.596  24.060  26.428  1.00  0.00    -0.278 N 
ATOM      4  C   UNL A   1      33.940  23.548  26.660  1.00  0.00     0.255 C 
ATOM      5  C   UNL A   1      32.544  25.463  26.214  1.00  0.00     0.093 A 
ATOM      6  C   UNL A   1      34.893  24.100  25.593  1.00  0.00     0.268 C 
ATOM      7  C   UNL A   1      33.642  26.058  25.560  1.00  0.00     0.148 A 
ATOM      8  C   UNL A   1      31.457  26.245  26.623  1.00  0.00     0.031 A 
ATOM      9  N   UNL A   1      34.745  25.304  25.105  1.00  0.00    -0.241 N 
ATOM     10  C   UNL A   1      33.597  27.422  25.269  1.00  0.00     0.054 A 
ATOM     11  C   UNL A   1      31.436  27.611  26.339  1.00  0.00     0.002 A 
ATOM     12  H   UNL A   1      36.522  23.798  24.458  1.00  0.00     0.304 HD
ATOM     13  H   UNL A   1      35.378  25.669  24.446  1.00  0.00     0.312 HD
ATOM     14  C   UNL A   1      32.498  28.196  25.652  1.00  0.00     0.005 A 
BRANCH   3  15
ATOM     15  C   UNL A   1      31.537  23.203  26.572  1.00  0.00     0.323 C 
ATOM     16  N   UNL A   1      31.276  22.287  25.604  1.00  0.00    -0.329 N 
ATOM     17  H   UNL A   1      30.356  21.941  25.585  1.00  0.00     0.165 HD
ATOM     18  O   UNL A   1      30.859  23.153  27.600  1.00  0.00    -0.248 OA
BRANCH  16  19
ATOM     19  C   UNL A   1      32.171  21.748  24.589  1.00  0.00     0.218 C 
BRANCH  19  20
ATOM     20  C   UNL A   1      32.007  22.521  23.286  1.00  0.00     0.240 C 
ATOM     21  O   UNL A   1      31.865  21.958  22.205  1.00  0.00    -0.273 OA
ATOM     22  N   UNL A   1      32.083  23.890  23.434  1.00  0.00    -0.342 N 
ATOM     23  H   UNL A   1      32.333  24.262  24.311  1.00  0.00     0.164 HD
BRANCH  22  24
ATOM     24  C   UNL A   1      31.802  24.808  22.325  1.00  0.00     0.158 C 
BRANCH  24  25
ATOM     25  C   UNL A   1      30.818  25.925  22.675  1.00  0.00    -0.020 A 
ATOM     26  C   UNL A   1      31.068  27.250  22.263  1.00  0.00     0.006 A 
ATOM     27  C   UNL A   1      29.700  25.714  23.500  1.00  0.00     0.006 A 
ATOM     28  C   UNL A   1      30.216  28.299  22.615  1.00  0.00     0.000 A 
ATOM     29  C   UNL A   1      28.846  26.763  23.854  1.00  0.00     0.000 A 
ATOM     30  C   UNL A   1      29.101  28.056  23.409  1.00  0.00     0.000 A 
ENDBRANCH  24  25
BRANCH  24  31
ATOM     31  C   UNL A   1      33.124  25.200  21.610  1.00  0.00     0.068 C 
ATOM     32  O   UNL A   1      34.057  25.850  22.059  1.00  0.00    -0.548 OA
ATOM     33  O   UNL A   1      33.137  24.906  20.283  1.00  0.00    -0.548 OA
ENDBRANCH  24  31
ENDBRANCH  22  24
ENDBRANCH  19  20
ENDBRANCH  16  19
ENDBRANCH   3  15
ENDBRANCH   1   2
BRANCH   1  34
ATOM     34  C   UNL A   1      37.394  21.467  24.563  1.00  0.00     0.048 C 
BRANCH  34  35
ATOM     35  C   UNL A   1      38.073  20.175  25.029  1.00  0.00     0.025 C 
BRANCH  35  36
ATOM     36  C   UNL A   1      39.299  20.360  25.919  1.00  0.00     0.116 C 
BRANCH  36  37
ATOM     37  N   UNL A   1      40.216  19.232  25.882  1.00  0.00    -0.352 N 
ATOM     38  C   UNL A   1      41.574  19.228  26.103  1.00  0.00     0.251 C 
ATOM     39  H   UNL A   1      39.814  18.358  25.673  1.00  0.00     0.163 HD
ATOM     40  O   UNL A   1      42.231  18.205  25.937  1.00  0.00    -0.269 OA
BRANCH  38  41
ATOM     41  C   UNL A   1      42.245  20.481  26.506  1.00  0.00     0.039 A 
ATOM     42  C   UNL A   1      42.798  21.304  25.520  1.00  0.00     0.014 A 
ATOM     43  C   UNL A   1      42.289  20.860  27.850  1.00  0.00     0.014 A 
ATOM     44  C   UNL A   1      43.320  22.551  25.874  1.00  0.00     0.010 A 
ATOM     45  C   UNL A   1      42.755  22.126  28.190  1.00  0.00     0.010 A 
ATOM     46  C   UNL A   1      43.264  22.987  27.205  1.00  0.00    -0.014 A 
BRANCH  46  47
ATOM     47  C   UNL A   1      43.725  24.338  27.616  1.00  0.00     0.031 A 
ATOM     48  C   UNL A   1      42.717  25.370  28.031  1.00  0.00     0.074 A 
ATOM     49  C   UNL A   1      45.025  24.671  27.503  1.00  0.00     0.049 A 
ATOM     50  N   UNL A   1      42.876  26.655  28.222  1.00  0.00    -0.248 NA
ATOM     51  C   UNL A   1      41.338  24.896  28.226  1.00  0.00     0.031 C 
ATOM     52  C   UNL A   1      46.102  23.767  27.092  1.00  0.00     0.029 A 
ATOM     53  N   UNL A   1      45.659  25.873  27.696  1.00  0.00    -0.354 N 
ATOM     54  C   UNL A   1      41.613  27.147  28.525  1.00  0.00     0.074 A 
ATOM     55  C   UNL A   1      40.695  26.031  28.462  1.00  0.00     0.031 C 
ATOM     56  C   UNL A   1      47.259  24.447  27.064  1.00  0.00     0.029 A 
ATOM     57  C   UNL A   1      47.002  25.842  27.406  1.00  0.00     0.049 A 
ATOM     58  H   UNL A   1      45.194  26.682  28.012  1.00  0.00     0.167 HD
ATOM     59  C   UNL A   1      41.255  28.414  28.839  1.00  0.00     0.037 A 
ATOM     60  C   UNL A   1      47.917  26.831  27.394  1.00  0.00     0.037 A 
ATOM     61  C   UNL A   1      42.177  29.515  28.937  1.00  0.00     0.049 A 
ATOM     62  C   UNL A   1      47.493  28.233  27.739  1.00  0.00     0.074 A 
ATOM     63  C   UNL A   1      41.918  30.825  29.298  1.00  0.00     0.029 A 
ATOM     64  N   UNL A   1      43.536  29.430  28.676  1.00  0.00    -0.354 N 
ATOM     65  N   UNL A   1      46.303  28.680  28.056  1.00  0.00    -0.248 NA
ATOM     66  C   UNL A   1      48.538  29.266  27.722  1.00  0.00     0.031 C 
ATOM     67  C   UNL A   1      43.117  31.542  29.226  1.00  0.00     0.029 A 
ATOM     68  C   UNL A   1      44.127  30.668  28.858  1.00  0.00     0.049 A 
ATOM     69  H   UNL A   1      44.009  28.612  28.402  1.00  0.00     0.167 HD
ATOM     70  C   UNL A   1      46.462  30.036  28.311  1.00  0.00     0.074 A 
ATOM     71  C   UNL A   1      47.864  30.340  28.111  1.00  0.00     0.031 C 
ATOM     72  C   UNL A   1      45.530  30.946  28.683  1.00  0.00     0.037 A 
BRANCH  59  73
ATOM     73  C   UNL A   1      39.802  28.680  29.097  1.00  0.00     0.057 A 
ATOM     74  C   UNL A   1      39.240  28.535  30.371  1.00  0.00     0.134 A 
ATOM     75  C   UNL A   1      38.961  29.114  28.064  1.00  0.00     0.134 A 
ATOM     76  F   UNL A   1      39.988  28.110  31.400  1.00  0.00    -0.206 F 
ATOM     77  C   UNL A   1      37.887  28.790  30.605  1.00  0.00     0.040 A 
ATOM     78  C   UNL A   1      37.613  29.396  28.291  1.00  0.00     0.040 A 
ATOM     79  F   UNL A   1      39.437  29.277  26.821  1.00  0.00    -0.206 F 
ATOM     80  C   UNL A   1      37.072  29.228  29.563  1.00  0.00     0.006 A 
ENDBRANCH  59  73
BRANCH  60  81
ATOM     81  C   UNL A   1      49.329  26.531  27.048  1.00  0.00     0.057 A 
ATOM     82  C   UNL A   1      49.784  26.647  25.730  1.00  0.00     0.134 A 
ATOM     83  C   UNL A   1      50.251  26.117  28.016  1.00  0.00     0.134 A 
ATOM     84  F   UNL A   1      48.942  27.021  24.755  1.00  0.00    -0.206 F 
ATOM     85  C   UNL A   1      51.103  26.348  25.382  1.00  0.00     0.040 A 
ATOM     86  C   UNL A   1      51.578  25.836  27.687  1.00  0.00     0.040 A 
ATOM     87  F   UNL A   1      49.876  25.992  29.298  1.00  0.00    -0.206 F 
ATOM     88  C   UNL A   1      52.005  25.945  26.365  1.00  0.00     0.006 A 
ENDBRANCH  60  81
BRANCH  72  89
ATOM     89  C   UNL A   1      45.995  32.344  28.958  1.00  0.00     0.057 A 
ATOM     90  C   UNL A   1      45.988  33.334  27.968  1.00  0.00     0.134 A 
ATOM     91  C   UNL A   1      46.379  32.720  30.252  1.00  0.00     0.134 A 
ATOM     92  F   UNL A   1      45.642  33.034  26.708  1.00  0.00    -0.206 F 
ATOM     93  C   UNL A   1      46.354  34.650  28.256  1.00  0.00     0.040 A 
ATOM     94  C   UNL A   1      46.727  34.035  30.555  1.00  0.00     0.040 A 
ATOM     95  F   UNL A   1      46.398  31.817  31.245  1.00  0.00    -0.206 F 
ATOM     96  C   UNL A   1      46.715  35.006  29.555  1.00  0.00     0.006 A 
ENDBRANCH  72  89
ENDBRANCH  46  47
ENDBRANCH  38  41
ENDBRANCH  36  37
ENDBRANCH  35  36
ENDBRANCH  34  35
ENDBRANCH   1  34
TORSDOF 16
ENDMDL
MODEL 3
REMARK VINA RESULT:     -12.2      3.988      8.844
REMARK SMILES O=C(CNC(=O)N1CC(NCCCCNC(=O)c2ccc(-c3c4nc(c(-c5c(F)cccc5F)c5ccc([nH]5)c(-c5c(F)cccc5F)c5nc(c(-c6c(F)cccc6F)c6ccc3[nH]6)C=C5)C=C4)cc2)=[NH+]c2ccccc21)N[C@H](C(=O)[O-])c1ccccc1
REMARK SMILES IDX 11 1 10 2 7 3 8 4 78 5 9 6 73 7 77 8 72 9 74 10 76 11 75 14
REMARK SMILES IDX 5 15 4 16 6 18 3 19 2 20 1 21 79 22 80 24 84 25 85 26 89 27
REMARK SMILES IDX 86 28 88 29 87 30 81 31 82 32 83 33 12 34 13 35 14 36 15 37
REMARK SMILES IDX 16 38 17 40 18 41 19 42 71 43 20 44 70 45 21 46 22 47 23 48
REMARK SMILES IDX 64 49 24 50 69 51 63 52 65 53 25 54 68 55 62 56 61 57 26 59
REMARK SMILES IDX 52 60 35 61 51 62 36 63 39 64 50 65 66 66 37 67 38 68 49 70
REMARK SMILES IDX 67 71 40 72 27 73 28 74 33 75 29 76 30 77 32 78 34 79 31 80
REMARK SMILES IDX 53 81 54 82 59 83 55 84 56 85 58 86 60 87 57 88 41 89 42 90
REMARK SMILES IDX 47 91 43 92 44 93 46 94 48 95 45 96
REMARK H PARENT 10 12 72 13 4 17 79 23 15 39 65 58 39 69
REMARK Flexibility Score: inf
ROOT
ATOM      1  C   UNL A   1      32.961  29.984  26.244  1.00  0.00     0.233 C 
ENDROOT
BRANCH   1   2
ATOM      2  N   UNL A   1      33.212  28.601  26.566  1.00  0.00    -0.277 N 
ATOM      3  N   UNL A   1      33.660  26.685  23.469  1.00  0.00    -0.278 N 
ATOM      4  C   UNL A   1      33.963  27.872  24.257  1.00  0.00     0.255 C 
ATOM      5  C   UNL A   1      34.196  25.486  24.006  1.00  0.00     0.093 A 
ATOM      6  C   UNL A   1      33.656  27.602  25.735  1.00  0.00     0.268 C 
ATOM      7  C   UNL A   1      34.285  25.389  25.410  1.00  0.00     0.148 A 
ATOM      8  C   UNL A   1      34.622  24.425  23.196  1.00  0.00     0.031 A 
ATOM      9  N   UNL A   1      33.841  26.421  26.264  1.00  0.00    -0.241 N 
ATOM     10  C   UNL A   1      34.742  24.198  25.977  1.00  0.00     0.054 A 
ATOM     11  C   UNL A   1      35.092  23.249  23.781  1.00  0.00     0.002 A 
ATOM     12  H   UNL A   1      33.043  28.339  27.500  1.00  0.00     0.304 HD
ATOM     13  H   UNL A   1      33.676  26.258  27.221  1.00  0.00     0.312 HD
ATOM     14  C   UNL A   1      35.139  23.131  25.169  1.00  0.00     0.005 A 
BRANCH   3  15
ATOM     15  C   UNL A   1      33.034  26.847  22.261  1.00  0.00     0.323 C 
ATOM     16  N   UNL A   1      31.683  26.985  22.216  1.00  0.00    -0.329 N 
ATOM     17  H   UNL A   1      31.263  26.766  21.354  1.00  0.00     0.165 HD
ATOM     18  O   UNL A   1      33.654  26.976  21.204  1.00  0.00    -0.248 OA
BRANCH  16  19
ATOM     19  C   UNL A   1      30.771  27.412  23.269  1.00  0.00     0.218 C 
BRANCH  19  20
ATOM     20  C   UNL A   1      30.073  26.200  23.876  1.00  0.00     0.240 C 
ATOM     21  O   UNL A   1      28.863  26.024  23.775  1.00  0.00    -0.273 OA
ATOM     22  N   UNL A   1      30.915  25.365  24.582  1.00  0.00    -0.342 N 
ATOM     23  H   UNL A   1      31.847  25.645  24.733  1.00  0.00     0.164 HD
BRANCH  22  24
ATOM     24  C   UNL A   1      30.463  24.075  25.112  1.00  0.00     0.158 C 
BRANCH  24  25
ATOM     25  C   UNL A   1      31.149  22.866  24.477  1.00  0.00    -0.020 A 
ATOM     26  C   UNL A   1      31.642  21.821  25.286  1.00  0.00     0.006 A 
ATOM     27  C   UNL A   1      31.416  22.787  23.100  1.00  0.00     0.006 A 
ATOM     28  C   UNL A   1      32.322  20.730  24.738  1.00  0.00     0.000 A 
ATOM     29  C   UNL A   1      32.098  21.696  22.549  1.00  0.00     0.000 A 
ATOM     30  C   UNL A   1      32.548  20.666  23.368  1.00  0.00     0.000 A 
ENDBRANCH  24  25
BRANCH  24  31
ATOM     31  C   UNL A   1      30.381  24.135  26.662  1.00  0.00     0.068 C 
ATOM     32  O   UNL A   1      29.482  23.728  27.384  1.00  0.00    -0.548 OA
ATOM     33  O   UNL A   1      31.367  24.876  27.235  1.00  0.00    -0.548 OA
ENDBRANCH  24  31
ENDBRANCH  22  24
ENDBRANCH  19  20
ENDBRANCH  16  19
ENDBRANCH   3  15
ENDBRANCH   1   2
BRANCH   1  34
ATOM     34  C   UNL A   1      31.495  30.342  26.485  1.00  0.00     0.048 C 
BRANCH  34  35
ATOM     35  C   UNL A   1      31.218  31.839  26.659  1.00  0.00     0.025 C 
BRANCH  35  36
ATOM     36  C   UNL A   1      32.434  32.751  26.532  1.00  0.00     0.116 C 
BRANCH  36  37
ATOM     37  N   UNL A   1      32.323  33.976  27.309  1.00  0.00    -0.352 N 
ATOM     38  C   UNL A   1      33.097  34.388  28.369  1.00  0.00     0.251 C 
ATOM     39  H   UNL A   1      31.601  34.590  27.041  1.00  0.00     0.163 HD
ATOM     40  O   UNL A   1      32.815  35.407  28.990  1.00  0.00    -0.269 OA
BRANCH  38  41
ATOM     41  C   UNL A   1      34.254  33.567  28.782  1.00  0.00     0.039 A 
ATOM     42  C   UNL A   1      35.510  34.172  28.897  1.00  0.00     0.014 A 
ATOM     43  C   UNL A   1      34.089  32.216  29.095  1.00  0.00     0.014 A 
ATOM     44  C   UNL A   1      36.585  33.440  29.408  1.00  0.00     0.010 A 
ATOM     45  C   UNL A   1      35.145  31.508  29.659  1.00  0.00     0.010 A 
ATOM     46  C   UNL A   1      36.400  32.116  29.831  1.00  0.00    -0.014 A 
BRANCH  46  47
ATOM     47  C   UNL A   1      37.487  31.328  30.462  1.00  0.00     0.031 A 
ATOM     48  C   UNL A   1      37.835  31.566  31.904  1.00  0.00     0.074 A 
ATOM     49  C   UNL A   1      38.234  30.490  29.717  1.00  0.00     0.049 A 
ATOM     50  N   UNL A   1      38.870  31.148  32.587  1.00  0.00    -0.248 NA
ATOM     51  C   UNL A   1      36.908  32.415  32.669  1.00  0.00     0.031 C 
ATOM     52  C   UNL A   1      38.014  30.186  28.302  1.00  0.00     0.029 A 
ATOM     53  N   UNL A   1      39.353  29.763  30.041  1.00  0.00    -0.354 N 
ATOM     54  C   UNL A   1      38.737  31.712  33.850  1.00  0.00     0.074 A 
ATOM     55  C   UNL A   1      37.540  32.524  33.829  1.00  0.00     0.031 C 
ATOM     56  C   UNL A   1      38.966  29.337  27.881  1.00  0.00     0.029 A 
ATOM     57  C   UNL A   1      39.890  29.074  28.980  1.00  0.00     0.049 A 
ATOM     58  H   UNL A   1      39.735  29.738  30.949  1.00  0.00     0.167 HD
ATOM     59  C   UNL A   1      39.536  31.555  34.931  1.00  0.00     0.037 A 
ATOM     60  C   UNL A   1      41.014  28.336  28.896  1.00  0.00     0.037 A 
ATOM     61  C   UNL A   1      40.705  30.717  34.959  1.00  0.00     0.049 A 
ATOM     62  C   UNL A   1      41.889  28.183  30.110  1.00  0.00     0.074 A 
ATOM     63  C   UNL A   1      41.550  30.453  36.023  1.00  0.00     0.029 A 
ATOM     64  N   UNL A   1      41.189  30.004  33.874  1.00  0.00    -0.354 N 
ATOM     65  N   UNL A   1      41.735  28.693  31.307  1.00  0.00    -0.248 NA
ATOM     66  C   UNL A   1      43.094  27.355  29.960  1.00  0.00     0.031 C 
ATOM     67  C   UNL A   1      42.565  29.603  35.572  1.00  0.00     0.029 A 
ATOM     68  C   UNL A   1      42.329  29.308  34.239  1.00  0.00     0.049 A 
ATOM     69  H   UNL A   1      40.784  29.994  32.977  1.00  0.00     0.167 HD
ATOM     70  C   UNL A   1      42.801  28.220  32.061  1.00  0.00     0.074 A 
ATOM     71  C   UNL A   1      43.595  27.382  31.188  1.00  0.00     0.031 C 
ATOM     72  C   UNL A   1      43.091  28.455  33.364  1.00  0.00     0.037 A 
BRANCH  59  73
ATOM     73  C   UNL A   1      39.172  32.310  36.175  1.00  0.00     0.057 A 
ATOM     74  C   UNL A   1      39.702  33.576  36.452  1.00  0.00     0.134 A 
ATOM     75  C   UNL A   1      38.257  31.777  37.092  1.00  0.00     0.134 A 
ATOM     76  F   UNL A   1      40.594  34.137  35.620  1.00  0.00    -0.206 F 
ATOM     77  C   UNL A   1      39.355  34.276  37.609  1.00  0.00     0.040 A 
ATOM     78  C   UNL A   1      37.882  32.477  38.239  1.00  0.00     0.040 A 
ATOM     79  F   UNL A   1      37.709  30.571  36.884  1.00  0.00    -0.206 F 
ATOM     80  C   UNL A   1      38.437  33.728  38.503  1.00  0.00     0.006 A 
ENDBRANCH  59  73
BRANCH  60  81
ATOM     81  C   UNL A   1      41.375  27.678  27.615  1.00  0.00     0.057 A 
ATOM     82  C   UNL A   1      42.130  28.353  26.650  1.00  0.00     0.134 A 
ATOM     83  C   UNL A   1      40.971  26.371  27.321  1.00  0.00     0.134 A 
ATOM     84  F   UNL A   1      42.529  29.615  26.867  1.00  0.00    -0.206 F 
ATOM     85  C   UNL A   1      42.460  27.758  25.431  1.00  0.00     0.040 A 
ATOM     86  C   UNL A   1      41.313  25.754  26.116  1.00  0.00     0.040 A 
ATOM     87  F   UNL A   1      40.249  25.669  28.208  1.00  0.00    -0.206 F 
ATOM     88  C   UNL A   1      42.053  26.452  25.164  1.00  0.00     0.006 A 
ENDBRANCH  60  81
BRANCH  72  89
ATOM     89  C   UNL A   1      44.281  27.756  33.948  1.00  0.00     0.057 A 
ATOM     90  C   UNL A   1      45.538  28.367  34.015  1.00  0.00     0.134 A 
ATOM     91  C   UNL A   1      44.143  26.484  34.519  1.00  0.00     0.134 A 
ATOM     92  F   UNL A   1      45.736  29.578  33.476  1.00  0.00    -0.206 F 
ATOM     93  C   UNL A   1      46.621  27.733  34.628  1.00  0.00     0.040 A 
ATOM     94  C   UNL A   1      45.212  25.850  35.151  1.00  0.00     0.040 A 
ATOM     95  F   UNL A   1      42.961  25.850  34.492  1.00  0.00    -0.206 F 
ATOM     96  C   UNL A   1      46.456  26.475  35.208  1.00  0.00     0.006 A 
ENDBRANCH  72  89
ENDBRANCH  46  47
ENDBRANCH  38  41
ENDBRANCH  36  37
ENDBRANCH  35  36
ENDBRANCH  34  35
ENDBRANCH   1  34
TORSDOF 16
ENDMDL
