MODEL 1
REMARK VINA RESULT:     -13.5      0.000      0.000
REMARK SMILES C[NH+]1CCC(C(=O)N2C[C@@H](C(=O)NCCCCNC(=O)c3ccc(-c4c5nc(c(-c6c(F)cccc6F)c6ccc([nH]6)c(-c6c(F)cccc6F)c6nc(c(-c7c(F)cccc7F)c7ccc4[nH]7)C=C6)C=C5)cc3)[C@H](c3ccc4c(c3)OCO4)C2)CC1
REMARK SMILES IDX 15 1 14 2 13 3 11 4 12 5 10 7 8 8 9 9 85 10 75 11 6 12 7 13
REMARK SMILES IDX 5 14 1 15 2 16 3 17 87 18 4 20 86 21 76 22 77 23 81 24 78 25
REMARK SMILES IDX 80 26 79 27 82 28 84 29 83 30 16 31 17 32 18 33 19 34 20 36
REMARK SMILES IDX 21 37 22 38 74 39 23 40 73 41 24 42 25 43 26 44 67 45 27 46
REMARK SMILES IDX 72 47 66 48 68 49 28 50 71 51 65 52 64 53 29 55 55 56 38 57
REMARK SMILES IDX 54 58 39 59 42 60 53 61 69 62 40 63 41 64 52 66 70 67 43 68
REMARK SMILES IDX 30 69 31 70 36 71 32 72 33 73 35 74 37 75 34 76 56 77 57 78
REMARK SMILES IDX 62 79 58 80 59 81 61 82 63 83 60 84 44 85 45 86 50 87 46 88
REMARK SMILES IDX 47 89 49 90 51 91 48 92
REMARK H PARENT 13 6 2 19 18 35 68 54 42 65
REMARK Flexibility Score: inf
ROOT
ATOM      1  C   UNL A   1      31.992  30.361  26.828  1.00  0.00     0.023 C 
ENDROOT
BRANCH   1   2
ATOM      2  C   UNL A   1      31.742  29.680  25.487  1.00  0.00     0.116 C 
BRANCH   2   3
ATOM      3  N   UNL A   1      32.899  29.701  24.607  1.00  0.00    -0.356 N 
ATOM      4  C   UNL A   1      33.309  28.776  23.690  1.00  0.00     0.225 C 
ATOM      5  O   UNL A   1      34.242  29.069  22.942  1.00  0.00    -0.275 OA
ATOM      6  H   UNL A   1      33.470  30.499  24.683  1.00  0.00     0.163 HD
BRANCH   4   7
ATOM      7  C   UNL A   1      32.618  27.433  23.614  1.00  0.00     0.107 C 
ATOM      8  N   UNL A   1      32.806  25.192  23.106  1.00  0.00    -0.341 N 
ATOM      9  C   UNL A   1      33.629  26.311  23.510  1.00  0.00     0.133 C 
ATOM     10  C   UNL A   1      31.790  25.668  22.169  1.00  0.00     0.128 C 
ATOM     11  C   UNL A   1      31.775  27.211  22.336  1.00  0.00     0.053 C 
BRANCH   8  12
ATOM     12  C   UNL A   1      32.870  23.866  23.451  1.00  0.00     0.226 C 
ATOM     13  O   UNL A   1      31.843  23.176  23.413  1.00  0.00    -0.275 OA
BRANCH  12  14
ATOM     14  C   UNL A   1      34.100  23.290  24.167  1.00  0.00     0.090 C 
ATOM     15  C   UNL A   1      37.606  20.956  25.037  1.00  0.00     0.332 C 
ATOM     16  N   UNL A   1      36.331  21.452  24.521  1.00  0.00    -0.337 N 
ATOM     17  C   UNL A   1      36.528  22.694  23.765  1.00  0.00     0.262 C 
ATOM     18  C   UNL A   1      35.366  21.655  25.613  1.00  0.00     0.262 C 
ATOM     19  H   UNL A   1      35.949  20.748  23.890  1.00  0.00     0.347 HD
ATOM     20  C   UNL A   1      35.217  23.139  23.124  1.00  0.00     0.075 C 
ATOM     21  C   UNL A   1      33.998  22.034  25.030  1.00  0.00     0.075 C 
ENDBRANCH  12  14
ENDBRANCH   8  12
BRANCH  11  22
ATOM     22  C   UNL A   1      30.439  27.917  22.467  1.00  0.00    -0.038 A 
ATOM     23  C   UNL A   1      29.356  27.371  23.194  1.00  0.00     0.008 A 
ATOM     24  C   UNL A   1      30.351  29.247  22.008  1.00  0.00     0.054 A 
ATOM     25  C   UNL A   1      28.228  28.143  23.501  1.00  0.00     0.051 A 
ATOM     26  C   UNL A   1      29.249  29.995  22.364  1.00  0.00     0.166 A 
ATOM     27  C   UNL A   1      28.221  29.460  23.100  1.00  0.00     0.165 A 
ATOM     28  O   UNL A   1      29.089  31.328  22.141  1.00  0.00    -0.454 OA
ATOM     29  O   UNL A   1      27.278  30.386  23.418  1.00  0.00    -0.454 OA
ATOM     30  C   UNL A   1      27.899  31.587  22.917  1.00  0.00     0.468 C 
ENDBRANCH  11  22
ENDBRANCH   4   7
ENDBRANCH   2   3
ENDBRANCH   1   2
BRANCH   1  31
ATOM     31  C   UNL A   1      31.689  31.860  26.870  1.00  0.00     0.023 C 
BRANCH  31  32
ATOM     32  C   UNL A   1      32.857  32.779  27.227  1.00  0.00     0.116 C 
BRANCH  32  33
ATOM     33  N   UNL A   1      32.458  34.116  27.631  1.00  0.00    -0.352 N 
ATOM     34  C   UNL A   1      33.036  34.955  28.557  1.00  0.00     0.251 C 
ATOM     35  H   UNL A   1      31.661  34.475  27.177  1.00  0.00     0.163 HD
ATOM     36  O   UNL A   1      32.547  36.056  28.777  1.00  0.00    -0.269 OA
BRANCH  34  37
ATOM     37  C   UNL A   1      34.225  34.514  29.322  1.00  0.00     0.039 A 
ATOM     38  C   UNL A   1      34.028  33.939  30.581  1.00  0.00     0.014 A 
ATOM     39  C   UNL A   1      35.517  34.644  28.806  1.00  0.00     0.014 A 
ATOM     40  C   UNL A   1      35.114  33.408  31.281  1.00  0.00     0.010 A 
ATOM     41  C   UNL A   1      36.593  34.067  29.480  1.00  0.00     0.010 A 
ATOM     42  C   UNL A   1      36.398  33.427  30.714  1.00  0.00    -0.014 A 
BRANCH  42  43
ATOM     43  C   UNL A   1      37.530  32.722  31.367  1.00  0.00     0.031 A 
ATOM     44  C   UNL A   1      38.212  31.569  30.691  1.00  0.00     0.074 A 
ATOM     45  C   UNL A   1      37.889  33.075  32.617  1.00  0.00     0.049 A 
ATOM     46  N   UNL A   1      39.176  30.803  31.138  1.00  0.00    -0.248 NA
ATOM     47  C   UNL A   1      37.732  31.213  29.347  1.00  0.00     0.031 C 
ATOM     48  C   UNL A   1      37.264  34.137  33.407  1.00  0.00     0.029 A 
ATOM     49  N   UNL A   1      38.855  32.566  33.448  1.00  0.00    -0.354 N 
ATOM     50  C   UNL A   1      39.407  29.866  30.140  1.00  0.00     0.074 A 
ATOM     51  C   UNL A   1      38.458  30.137  29.080  1.00  0.00     0.031 C 
ATOM     52  C   UNL A   1      37.865  34.204  34.606  1.00  0.00     0.029 A 
ATOM     53  C   UNL A   1      38.898  33.176  34.679  1.00  0.00     0.049 A 
ATOM     54  H   UNL A   1      39.460  31.834  33.189  1.00  0.00     0.167 HD
ATOM     55  C   UNL A   1      40.336  28.881  30.104  1.00  0.00     0.037 A 
ATOM     56  C   UNL A   1      39.674  32.930  35.751  1.00  0.00     0.037 A 
ATOM     57  C   UNL A   1      41.294  28.626  31.148  1.00  0.00     0.049 A 
ATOM     58  C   UNL A   1      40.713  31.847  35.678  1.00  0.00     0.074 A 
ATOM     59  C   UNL A   1      42.327  27.704  31.165  1.00  0.00     0.029 A 
ATOM     60  N   UNL A   1      41.332  29.289  32.365  1.00  0.00    -0.354 N 
ATOM     61  N   UNL A   1      40.981  31.028  34.692  1.00  0.00    -0.248 NA
ATOM     62  C   UNL A   1      41.562  31.661  36.863  1.00  0.00     0.031 C 
ATOM     63  C   UNL A   1      42.966  27.784  32.408  1.00  0.00     0.029 A 
ATOM     64  C   UNL A   1      42.355  28.781  33.149  1.00  0.00     0.049 A 
ATOM     65  H   UNL A   1      40.722  30.014  32.632  1.00  0.00     0.167 HD
ATOM     66  C   UNL A   1      42.039  30.241  35.128  1.00  0.00     0.074 A 
ATOM     67  C   UNL A   1      42.374  30.693  36.463  1.00  0.00     0.031 C 
ATOM     68  C   UNL A   1      42.676  29.237  34.478  1.00  0.00     0.037 A 
BRANCH  55  69
ATOM     69  C   UNL A   1      40.357  27.999  28.890  1.00  0.00     0.057 A 
ATOM     70  C   UNL A   1      41.109  28.324  27.755  1.00  0.00     0.134 A 
ATOM     71  C   UNL A   1      39.638  26.797  28.868  1.00  0.00     0.134 A 
ATOM     72  F   UNL A   1      41.812  29.467  27.709  1.00  0.00    -0.206 F 
ATOM     73  C   UNL A   1      41.125  27.499  26.629  1.00  0.00     0.040 A 
ATOM     74  C   UNL A   1      39.664  25.952  27.757  1.00  0.00     0.040 A 
ATOM     75  F   UNL A   1      38.903  26.423  29.926  1.00  0.00    -0.206 F 
ATOM     76  C   UNL A   1      40.404  26.307  26.630  1.00  0.00     0.006 A 
ENDBRANCH  55  69
BRANCH  56  77
ATOM     77  C   UNL A   1      39.509  33.743  36.979  1.00  0.00     0.057 A 
ATOM     78  C   UNL A   1      38.687  33.311  38.026  1.00  0.00     0.134 A 
ATOM     79  C   UNL A   1      40.178  34.961  37.142  1.00  0.00     0.134 A 
ATOM     80  F   UNL A   1      38.008  32.160  37.919  1.00  0.00    -0.206 F 
ATOM     81  C   UNL A   1      38.527  34.067  39.188  1.00  0.00     0.040 A 
ATOM     82  C   UNL A   1      40.044  35.718  38.307  1.00  0.00     0.040 A 
ATOM     83  F   UNL A   1      40.987  35.424  36.176  1.00  0.00    -0.206 F 
ATOM     84  C   UNL A   1      39.213  35.273  39.333  1.00  0.00     0.006 A 
ENDBRANCH  56  77
BRANCH  68  85
ATOM     85  C   UNL A   1      43.812  28.570  35.196  1.00  0.00     0.057 A 
ATOM     86  C   UNL A   1      45.124  29.052  35.106  1.00  0.00     0.134 A 
ATOM     87  C   UNL A   1      43.583  27.458  36.015  1.00  0.00     0.134 A 
ATOM     88  F   UNL A   1      45.409  30.105  34.327  1.00  0.00    -0.206 F 
ATOM     89  C   UNL A   1      46.173  28.439  35.792  1.00  0.00     0.040 A 
ATOM     90  C   UNL A   1      44.620  26.849  36.724  1.00  0.00     0.040 A 
ATOM     91  F   UNL A   1      42.348  26.951  36.148  1.00  0.00    -0.206 F 
ATOM     92  C   UNL A   1      45.920  27.337  36.609  1.00  0.00     0.006 A 
ENDBRANCH  68  85
ENDBRANCH  42  43
ENDBRANCH  34  37
ENDBRANCH  32  33
ENDBRANCH  31  32
ENDBRANCH   1  31
TORSDOF 14
ENDMDL
MODEL 2
REMARK VINA RESULT:     -13.4      5.411     10.947
REMARK SMILES C[NH+]1CCC(C(=O)N2C[C@@H](C(=O)NCCCCNC(=O)c3ccc(-c4c5nc(c(-c6c(F)cccc6F)c6ccc([nH]6)c(-c6c(F)cccc6F)c6nc(c(-c7c(F)cccc7F)c7ccc4[nH]7)C=C6)C=C5)cc3)[C@H](c3ccc4c(c3)OCO4)C2)CC1
REMARK SMILES IDX 15 1 14 2 13 3 11 4 12 5 10 7 8 8 9 9 85 10 75 11 6 12 7 13
REMARK SMILES IDX 5 14 1 15 2 16 3 17 87 18 4 20 86 21 76 22 77 23 81 24 78 25
REMARK SMILES IDX 80 26 79 27 82 28 84 29 83 30 16 31 17 32 18 33 19 34 20 36
REMARK SMILES IDX 21 37 22 38 74 39 23 40 73 41 24 42 25 43 26 44 67 45 27 46
REMARK SMILES IDX 72 47 66 48 68 49 28 50 71 51 65 52 64 53 29 55 55 56 38 57
REMARK SMILES IDX 54 58 39 59 42 60 53 61 69 62 40 63 41 64 52 66 70 67 43 68
REMARK SMILES IDX 30 69 31 70 36 71 32 72 33 73 35 74 37 75 34 76 56 77 57 78
REMARK SMILES IDX 62 79 58 80 59 81 61 82 63 83 60 84 44 85 45 86 50 87 46 88
REMARK SMILES IDX 47 89 49 90 51 91 48 92
REMARK H PARENT 13 6 2 19 18 35 68 54 42 65
REMARK Flexibility Score: inf
ROOT
ATOM      1  C   UNL A   1      37.404  21.433  24.537  1.00  0.00     0.023 C 
ENDROOT
BRANCH   1   2
ATOM      2  C   UNL A   1      37.149  22.506  25.589  1.00  0.00     0.116 C 
BRANCH   2   3
ATOM      3  N   UNL A   1      36.132  22.131  26.559  1.00  0.00    -0.356 N 
ATOM      4  C   UNL A   1      34.849  21.709  26.352  1.00  0.00     0.225 C 
ATOM      5  O   UNL A   1      34.207  21.299  27.319  1.00  0.00    -0.275 OA
ATOM      6  H   UNL A   1      36.409  22.190  27.501  1.00  0.00     0.163 HD
BRANCH   4   7
ATOM      7  C   UNL A   1      34.256  21.755  24.962  1.00  0.00     0.107 C 
ATOM      8  N   UNL A   1      32.933  22.907  23.465  1.00  0.00    -0.341 N 
ATOM      9  C   UNL A   1      33.748  23.144  24.638  1.00  0.00     0.133 C 
ATOM     10  C   UNL A   1      32.234  21.633  23.625  1.00  0.00     0.128 C 
ATOM     11  C   UNL A   1      32.978  20.904  24.777  1.00  0.00     0.053 C 
BRANCH   8  12
ATOM     12  C   UNL A   1      32.747  23.668  22.340  1.00  0.00     0.226 C 
ATOM     13  O   UNL A   1      33.367  23.389  21.305  1.00  0.00    -0.275 OA
BRANCH  12  14
ATOM     14  C   UNL A   1      32.031  25.025  22.407  1.00  0.00     0.090 C 
ATOM     15  C   UNL A   1      30.931  29.015  23.574  1.00  0.00     0.332 C 
ATOM     16  N   UNL A   1      31.429  27.641  23.535  1.00  0.00    -0.337 N 
ATOM     17  C   UNL A   1      32.503  27.509  22.544  1.00  0.00     0.262 C 
ATOM     18  C   UNL A   1      30.339  26.695  23.251  1.00  0.00     0.262 C 
ATOM     19  H   UNL A   1      31.810  27.416  24.455  1.00  0.00     0.347 HD
ATOM     20  C   UNL A   1      33.104  26.107  22.596  1.00  0.00     0.075 C 
ATOM     21  C   UNL A   1      30.861  25.257  23.361  1.00  0.00     0.075 C 
ENDBRANCH  12  14
ENDBRANCH   8  12
BRANCH  11  22
ATOM     22  C   UNL A   1      33.348  19.444  24.595  1.00  0.00    -0.038 A 
ATOM     23  C   UNL A   1      34.677  19.016  24.375  1.00  0.00     0.008 A 
ATOM     24  C   UNL A   1      32.353  18.478  24.850  1.00  0.00     0.054 A 
ATOM     25  C   UNL A   1      35.023  17.661  24.453  1.00  0.00     0.051 A 
ATOM     26  C   UNL A   1      32.733  17.157  24.965  1.00  0.00     0.166 A 
ATOM     27  C   UNL A   1      34.034  16.762  24.782  1.00  0.00     0.165 A 
ATOM     28  O   UNL A   1      31.930  16.134  25.364  1.00  0.00    -0.454 OA
ATOM     29  O   UNL A   1      34.211  15.437  25.027  1.00  0.00    -0.454 OA
ATOM     30  C   UNL A   1      32.902  15.077  25.517  1.00  0.00     0.468 C 
ENDBRANCH  11  22
ENDBRANCH   4   7
ENDBRANCH   2   3
ENDBRANCH   1   2
BRANCH   1  31
ATOM     31  C   UNL A   1      38.046  20.145  25.054  1.00  0.00     0.023 C 
BRANCH  31  32
ATOM     32  C   UNL A   1      39.264  20.310  25.962  1.00  0.00     0.116 C 
BRANCH  32  33
ATOM     33  N   UNL A   1      40.235  19.234  25.855  1.00  0.00    -0.352 N 
ATOM     34  C   UNL A   1      41.588  19.254  26.108  1.00  0.00     0.251 C 
ATOM     35  H   UNL A   1      39.874  18.367  25.560  1.00  0.00     0.163 HD
ATOM     36  O   UNL A   1      42.256  18.240  25.948  1.00  0.00    -0.269 OA
BRANCH  34  37
ATOM     37  C   UNL A   1      42.249  20.509  26.532  1.00  0.00     0.039 A 
ATOM     38  C   UNL A   1      42.872  21.293  25.555  1.00  0.00     0.014 A 
ATOM     39  C   UNL A   1      42.242  20.926  27.865  1.00  0.00     0.014 A 
ATOM     40  C   UNL A   1      43.405  22.538  25.898  1.00  0.00     0.010 A 
ATOM     41  C   UNL A   1      42.727  22.191  28.198  1.00  0.00     0.010 A 
ATOM     42  C   UNL A   1      43.294  23.016  27.214  1.00  0.00    -0.014 A 
BRANCH  42  43
ATOM     43  C   UNL A   1      43.705  24.401  27.559  1.00  0.00     0.031 A 
ATOM     44  C   UNL A   1      42.685  25.437  27.928  1.00  0.00     0.074 A 
ATOM     45  C   UNL A   1      45.004  24.744  27.457  1.00  0.00     0.049 A 
ATOM     46  N   UNL A   1      42.858  26.706  28.201  1.00  0.00    -0.248 NA
ATOM     47  C   UNL A   1      41.282  24.997  27.972  1.00  0.00     0.031 C 
ATOM     48  C   UNL A   1      46.086  23.847  27.047  1.00  0.00     0.029 A 
ATOM     49  N   UNL A   1      45.631  25.946  27.671  1.00  0.00    -0.354 N 
ATOM     50  C   UNL A   1      41.590  27.220  28.433  1.00  0.00     0.074 A 
ATOM     51  C   UNL A   1      40.653  26.134  28.233  1.00  0.00     0.031 C 
ATOM     52  C   UNL A   1      47.244  24.527  27.045  1.00  0.00     0.029 A 
ATOM     53  C   UNL A   1      46.984  25.911  27.427  1.00  0.00     0.049 A 
ATOM     54  H   UNL A   1      45.160  26.755  27.971  1.00  0.00     0.167 HD
ATOM     55  C   UNL A   1      41.240  28.478  28.795  1.00  0.00     0.037 A 
ATOM     56  C   UNL A   1      47.910  26.885  27.493  1.00  0.00     0.037 A 
ATOM     57  C   UNL A   1      42.174  29.552  29.015  1.00  0.00     0.049 A 
ATOM     58  C   UNL A   1      47.501  28.266  27.919  1.00  0.00     0.074 A 
ATOM     59  C   UNL A   1      41.920  30.836  29.465  1.00  0.00     0.029 A 
ATOM     60  N   UNL A   1      43.540  29.468  28.795  1.00  0.00    -0.354 N 
ATOM     61  N   UNL A   1      46.309  28.715  28.224  1.00  0.00    -0.248 NA
ATOM     62  C   UNL A   1      48.567  29.273  28.020  1.00  0.00     0.031 C 
ATOM     63  C   UNL A   1      43.129  31.541  29.479  1.00  0.00     0.029 A 
ATOM     64  C   UNL A   1      44.140  30.685  29.076  1.00  0.00     0.049 A 
ATOM     65  H   UNL A   1      44.013  28.663  28.485  1.00  0.00     0.167 HD
ATOM     66  C   UNL A   1      46.482  30.049  28.569  1.00  0.00     0.074 A 
ATOM     67  C   UNL A   1      47.897  30.332  28.451  1.00  0.00     0.031 C 
ATOM     68  C   UNL A   1      45.550  30.956  28.951  1.00  0.00     0.037 A 
BRANCH  55  69
ATOM     69  C   UNL A   1      39.778  28.761  28.972  1.00  0.00     0.057 A 
ATOM     70  C   UNL A   1      38.977  29.203  27.911  1.00  0.00     0.134 A 
ATOM     71  C   UNL A   1      39.156  28.561  30.212  1.00  0.00     0.134 A 
ATOM     72  F   UNL A   1      39.514  29.424  26.701  1.00  0.00    -0.206 F 
ATOM     73  C   UNL A   1      37.617  29.464  28.083  1.00  0.00     0.040 A 
ATOM     74  C   UNL A   1      37.791  28.796  30.389  1.00  0.00     0.040 A 
ATOM     75  F   UNL A   1      39.864  28.132  31.267  1.00  0.00    -0.206 F 
ATOM     76  C   UNL A   1      37.020  29.256  29.324  1.00  0.00     0.006 A 
ENDBRANCH  55  69
BRANCH  56  77
ATOM     77  C   UNL A   1      49.323  26.578  27.165  1.00  0.00     0.057 A 
ATOM     78  C   UNL A   1      50.207  26.113  28.144  1.00  0.00     0.134 A 
ATOM     79  C   UNL A   1      49.817  26.729  25.864  1.00  0.00     0.134 A 
ATOM     80  F   UNL A   1      49.794  25.965  29.411  1.00  0.00    -0.206 F 
ATOM     81  C   UNL A   1      51.538  25.817  27.845  1.00  0.00     0.040 A 
ATOM     82  C   UNL A   1      51.140  26.418  25.546  1.00  0.00     0.040 A 
ATOM     83  F   UNL A   1      49.015  27.164  24.880  1.00  0.00    -0.206 F 
ATOM     84  C   UNL A   1      52.006  25.965  26.539  1.00  0.00     0.006 A 
ENDBRANCH  56  77
BRANCH  68  85
ATOM     85  C   UNL A   1      46.034  32.334  29.287  1.00  0.00     0.057 A 
ATOM     86  C   UNL A   1      46.088  33.351  28.325  1.00  0.00     0.134 A 
ATOM     87  C   UNL A   1      46.416  32.658  30.594  1.00  0.00     0.134 A 
ATOM     88  F   UNL A   1      45.750  33.099  27.051  1.00  0.00    -0.206 F 
ATOM     89  C   UNL A   1      46.522  34.637  28.647  1.00  0.00     0.040 A 
ATOM     90  C   UNL A   1      46.831  33.947  30.935  1.00  0.00     0.040 A 
ATOM     91  F   UNL A   1      46.382  31.731  31.564  1.00  0.00    -0.206 F 
ATOM     92  C   UNL A   1      46.888  34.939  29.958  1.00  0.00     0.006 A 
ENDBRANCH  68  85
ENDBRANCH  42  43
ENDBRANCH  34  37
ENDBRANCH  32  33
ENDBRANCH  31  32
ENDBRANCH   1  31
TORSDOF 14
ENDMDL
MODEL 3
REMARK VINA RESULT:     -13.4      0.601      5.955
REMARK SMILES C[NH+]1CCC(C(=O)N2C[C@@H](C(=O)NCCCCNC(=O)c3ccc(-c4c5nc(c(-c6c(F)cccc6F)c6ccc([nH]6)c(-c6c(F)cccc6F)c6nc(c(-c7c(F)cccc7F)c7ccc4[nH]7)C=C6)C=C5)cc3)[C@H](c3ccc4c(c3)OCO4)C2)CC1
REMARK SMILES IDX 15 1 14 2 13 3 11 4 12 5 10 7 8 8 9 9 85 10 75 11 6 12 7 13
REMARK SMILES IDX 5 14 1 15 2 16 3 17 87 18 4 20 86 21 76 22 77 23 81 24 78 25
REMARK SMILES IDX 80 26 79 27 82 28 84 29 83 30 16 31 17 32 18 33 19 34 20 36
REMARK SMILES IDX 21 37 22 38 74 39 23 40 73 41 24 42 25 43 26 44 67 45 27 46
REMARK SMILES IDX 72 47 66 48 68 49 28 50 71 51 65 52 64 53 29 55 55 56 38 57
REMARK SMILES IDX 54 58 39 59 42 60 53 61 69 62 40 63 41 64 52 66 70 67 43 68
REMARK SMILES IDX 30 69 31 70 36 71 32 72 33 73 35 74 37 75 34 76 56 77 57 78
REMARK SMILES IDX 62 79 58 80 59 81 61 82 63 83 60 84 44 85 45 86 50 87 46 88
REMARK SMILES IDX 47 89 49 90 51 91 48 92
REMARK H PARENT 13 6 2 19 18 35 68 54 42 65
REMARK Flexibility Score: inf
ROOT
ATOM      1  C   UNL A   1      31.801  30.448  26.815  1.00  0.00     0.023 C 
ENDROOT
BRANCH   1   2
ATOM      2  C   UNL A   1      31.607  29.760  25.468  1.00  0.00     0.116 C 
BRANCH   2   3
ATOM      3  N   UNL A   1      32.809  29.748  24.650  1.00  0.00    -0.356 N 
ATOM      4  C   UNL A   1      33.267  28.788  23.794  1.00  0.00     0.225 C 
ATOM      5  O   UNL A   1      34.238  29.052  23.086  1.00  0.00    -0.275 OA
ATOM      6  H   UNL A   1      33.376  30.549  24.725  1.00  0.00     0.163 HD
BRANCH   4   7
ATOM      7  C   UNL A   1      32.579  27.441  23.735  1.00  0.00     0.107 C 
ATOM      8  N   UNL A   1      32.788  25.186  23.305  1.00  0.00    -0.341 N 
ATOM      9  C   UNL A   1      33.595  26.319  23.705  1.00  0.00     0.133 C 
ATOM     10  C   UNL A   1      31.806  25.630  22.316  1.00  0.00     0.128 C 
ATOM     11  C   UNL A   1      31.785  27.178  22.434  1.00  0.00     0.053 C 
BRANCH   8  12
ATOM     12  C   UNL A   1      32.839  23.872  23.694  1.00  0.00     0.226 C 
ATOM     13  O   UNL A   1      31.792  23.215  23.766  1.00  0.00    -0.275 OA
BRANCH  12  14
ATOM     14  C   UNL A   1      34.105  23.281  24.330  1.00  0.00     0.090 C 
ATOM     15  C   UNL A   1      37.636  20.910  24.970  1.00  0.00     0.332 C 
ATOM     16  N   UNL A   1      36.336  21.420  24.536  1.00  0.00    -0.337 N 
ATOM     17  C   UNL A   1      36.498  22.665  23.775  1.00  0.00     0.262 C 
ATOM     18  C   UNL A   1      35.443  21.626  25.687  1.00  0.00     0.262 C 
ATOM     19  H   UNL A   1      35.910  20.723  23.926  1.00  0.00     0.347 HD
ATOM     20  C   UNL A   1      35.154  23.125  23.219  1.00  0.00     0.075 C 
ATOM     21  C   UNL A   1      34.046  22.021  25.192  1.00  0.00     0.075 C 
ENDBRANCH  12  14
ENDBRANCH   8  12
BRANCH  11  22
ATOM     22  C   UNL A   1      30.444  27.885  22.493  1.00  0.00    -0.038 A 
ATOM     23  C   UNL A   1      29.335  27.360  23.195  1.00  0.00     0.008 A 
ATOM     24  C   UNL A   1      30.373  29.201  21.990  1.00  0.00     0.054 A 
ATOM     25  C   UNL A   1      28.196  28.140  23.435  1.00  0.00     0.051 A 
ATOM     26  C   UNL A   1      29.258  29.958  22.282  1.00  0.00     0.166 A 
ATOM     27  C   UNL A   1      28.204  29.444  22.994  1.00  0.00     0.165 A 
ATOM     28  O   UNL A   1      29.107  31.283  22.012  1.00  0.00    -0.454 OA
ATOM     29  O   UNL A   1      27.248  30.377  23.248  1.00  0.00    -0.454 OA
ATOM     30  C   UNL A   1      27.888  31.564  22.734  1.00  0.00     0.468 C 
ENDBRANCH  11  22
ENDBRANCH   4   7
ENDBRANCH   2   3
ENDBRANCH   1   2
BRANCH   1  31
ATOM     31  C   UNL A   1      31.562  31.959  26.821  1.00  0.00     0.023 C 
BRANCH  31  32
ATOM     32  C   UNL A   1      32.751  32.833  27.217  1.00  0.00     0.116 C 
BRANCH  32  33
ATOM     33  N   UNL A   1      32.385  34.165  27.668  1.00  0.00    -0.352 N 
ATOM     34  C   UNL A   1      33.010  34.975  28.589  1.00  0.00     0.251 C 
ATOM     35  H   UNL A   1      31.574  34.543  27.255  1.00  0.00     0.163 HD
ATOM     36  O   UNL A   1      32.543  36.076  28.854  1.00  0.00    -0.269 OA
BRANCH  34  37
ATOM     37  C   UNL A   1      34.223  34.503  29.295  1.00  0.00     0.039 A 
ATOM     38  C   UNL A   1      34.070  33.911  30.552  1.00  0.00     0.014 A 
ATOM     39  C   UNL A   1      35.493  34.620  28.725  1.00  0.00     0.014 A 
ATOM     40  C   UNL A   1      35.177  33.352  31.197  1.00  0.00     0.010 A 
ATOM     41  C   UNL A   1      36.588  34.016  29.343  1.00  0.00     0.010 A 
ATOM     42  C   UNL A   1      36.435  33.359  30.574  1.00  0.00    -0.014 A 
BRANCH  42  43
ATOM     43  C   UNL A   1      37.583  32.626  31.166  1.00  0.00     0.031 A 
ATOM     44  C   UNL A   1      38.217  33.090  32.444  1.00  0.00     0.074 A 
ATOM     45  C   UNL A   1      38.107  31.579  30.498  1.00  0.00     0.049 A 
ATOM     46  N   UNL A   1      39.260  32.606  33.072  1.00  0.00    -0.248 NA
ATOM     47  C   UNL A   1      37.617  34.267  33.090  1.00  0.00     0.031 C 
ATOM     48  C   UNL A   1      37.623  31.068  29.215  1.00  0.00     0.029 A 
ATOM     49  N   UNL A   1      39.175  30.771  30.797  1.00  0.00    -0.354 N 
ATOM     50  C   UNL A   1      39.451  33.426  34.175  1.00  0.00     0.074 A 
ATOM     51  C   UNL A   1      38.439  34.460  34.112  1.00  0.00     0.031 C 
ATOM     52  C   UNL A   1      38.387  30.030  28.839  1.00  0.00     0.029 A 
ATOM     53  C   UNL A   1      39.429  29.818  29.839  1.00  0.00     0.049 A 
ATOM     54  H   UNL A   1      39.709  30.863  31.618  1.00  0.00     0.167 HD
ATOM     55  C   UNL A   1      40.376  33.318  35.159  1.00  0.00     0.037 A 
ATOM     56  C   UNL A   1      40.396  28.886  29.767  1.00  0.00     0.037 A 
ATOM     57  C   UNL A   1      41.368  32.277  35.234  1.00  0.00     0.049 A 
ATOM     58  C   UNL A   1      41.397  28.771  30.882  1.00  0.00     0.074 A 
ATOM     59  C   UNL A   1      42.292  32.037  36.237  1.00  0.00     0.029 A 
ATOM     60  N   UNL A   1      41.570  31.307  34.264  1.00  0.00    -0.354 N 
ATOM     61  N   UNL A   1      41.509  29.498  31.966  1.00  0.00    -0.248 NA
ATOM     62  C   UNL A   1      42.397  27.700  30.769  1.00  0.00     0.031 C 
ATOM     63  C   UNL A   1      43.079  30.944  35.854  1.00  0.00     0.029 A 
ATOM     64  C   UNL A   1      42.619  30.481  34.633  1.00  0.00     0.049 A 
ATOM     65  H   UNL A   1      41.044  31.218  33.437  1.00  0.00     0.167 HD
ATOM     66  C   UNL A   1      42.579  28.964  32.672  1.00  0.00     0.074 A 
ATOM     67  C   UNL A   1      43.072  27.842  31.901  1.00  0.00     0.031 C 
ATOM     68  C   UNL A   1      43.103  29.369  33.855  1.00  0.00     0.037 A 
BRANCH  55  69
ATOM     69  C   UNL A   1      40.358  34.361  36.237  1.00  0.00     0.057 A 
ATOM     70  C   UNL A   1      41.095  35.547  36.129  1.00  0.00     0.134 A 
ATOM     71  C   UNL A   1      39.572  34.189  37.384  1.00  0.00     0.134 A 
ATOM     72  F   UNL A   1      41.876  35.767  35.060  1.00  0.00    -0.206 F 
ATOM     73  C   UNL A   1      41.073  36.514  37.136  1.00  0.00     0.040 A 
ATOM     74  C   UNL A   1      39.525  35.160  38.387  1.00  0.00     0.040 A 
ATOM     75  F   UNL A   1      38.837  33.079  37.546  1.00  0.00    -0.206 F 
ATOM     76  C   UNL A   1      40.283  36.323  38.267  1.00  0.00     0.006 A 
ENDBRANCH  55  69
BRANCH  56  77
ATOM     77  C   UNL A   1      40.451  27.972  28.601  1.00  0.00     0.057 A 
ATOM     78  C   UNL A   1      41.202  28.294  27.465  1.00  0.00     0.134 A 
ATOM     79  C   UNL A   1      39.765  26.752  28.599  1.00  0.00     0.134 A 
ATOM     80  F   UNL A   1      41.866  29.458  27.403  1.00  0.00    -0.206 F 
ATOM     81  C   UNL A   1      41.263  27.440  26.364  1.00  0.00     0.040 A 
ATOM     82  C   UNL A   1      39.833  25.879  27.513  1.00  0.00     0.040 A 
ATOM     83  F   UNL A   1      39.034  26.384  29.662  1.00  0.00    -0.206 F 
ATOM     84  C   UNL A   1      40.581  26.224  26.389  1.00  0.00     0.006 A 
ENDBRANCH  56  77
BRANCH  68  85
ATOM     85  C   UNL A   1      44.259  28.581  34.395  1.00  0.00     0.057 A 
ATOM     86  C   UNL A   1      45.586  28.941  34.126  1.00  0.00     0.134 A 
ATOM     87  C   UNL A   1      44.043  27.473  35.223  1.00  0.00     0.134 A 
ATOM     88  F   UNL A   1      45.858  29.984  33.327  1.00  0.00    -0.206 F 
ATOM     89  C   UNL A   1      46.657  28.216  34.648  1.00  0.00     0.040 A 
ATOM     90  C   UNL A   1      45.106  26.752  35.770  1.00  0.00     0.040 A 
ATOM     91  F   UNL A   1      42.796  27.080  35.524  1.00  0.00    -0.206 F 
ATOM     92  C   UNL A   1      46.418  27.121  35.478  1.00  0.00     0.006 A 
ENDBRANCH  68  85
ENDBRANCH  42  43
ENDBRANCH  34  37
ENDBRANCH  32  33
ENDBRANCH  31  32
ENDBRANCH   1  31
TORSDOF 14
ENDMDL
