MODEL 1
REMARK VINA RESULT:     -11.4      0.000      0.000
REMARK SMILES O=C(NCCCCNC(=O)c1ccc(C[NH2+]Cc2cc(F)ccc2F)nc1)c1ccc(-c2c3nc(c(-c4c(F)cccc4F)c4ccc([nH]4)c(-c4c(F)cccc4F)c4nc(c(-c5c(F)cccc5F)c5ccc2[nH]5)C=C4)C=C3)cc1
REMARK SMILES IDX 6 1 5 2 4 3 3 4 1 5 2 6 28 8 29 9 81 10 30 11 80 12 31 13
REMARK SMILES IDX 32 14 33 15 74 16 34 17 79 18 73 19 75 20 35 21 78 22 72 23
REMARK SMILES IDX 71 24 36 26 62 27 45 28 61 29 46 30 49 31 60 32 76 33 47 34
REMARK SMILES IDX 48 35 59 37 77 38 50 39 37 40 38 41 43 42 39 43 40 44 42 45
REMARK SMILES IDX 44 46 41 47 63 48 64 49 69 50 65 51 66 52 68 53 70 54 67 55
REMARK SMILES IDX 51 56 52 57 57 58 53 59 54 60 56 61 58 62 55 63 7 64 8 65
REMARK SMILES IDX 9 66 10 68 11 69 12 70 27 71 13 72 26 73 14 74 15 75 16 76
REMARK SMILES IDX 17 79 18 80 19 81 24 82 20 83 23 84 25 85 21 86 22 87
REMARK H PARENT 3 7 75 25 49 36 8 67 16 77 16 78
REMARK Flexibility Score: inf
ROOT
ATOM      1  C   UNL A   1      30.663  31.747  25.432  1.00  0.00     0.023 C 
ENDROOT
BRANCH   1   2
ATOM      2  C   UNL A   1      31.386  31.658  26.773  1.00  0.00     0.023 C 
BRANCH   2   3
ATOM      3  C   UNL A   1      32.666  32.478  26.867  1.00  0.00     0.116 C 
BRANCH   3   4
ATOM      4  N   UNL A   1      32.435  33.823  27.371  1.00  0.00    -0.352 N 
ATOM      5  O   UNL A   1      32.634  35.564  28.794  1.00  0.00    -0.269 OA
ATOM      6  C   UNL A   1      33.063  34.484  28.398  1.00  0.00     0.251 C 
ATOM      7  H   UNL A   1      31.730  34.332  26.909  1.00  0.00     0.163 HD
BRANCH   6   8
ATOM      8  C   UNL A   1      34.246  33.877  29.043  1.00  0.00     0.039 A 
ATOM      9  C   UNL A   1      35.532  34.328  28.736  1.00  0.00     0.014 A 
ATOM     10  C   UNL A   1      34.061  32.840  29.961  1.00  0.00     0.014 A 
ATOM     11  C   UNL A   1      36.638  33.652  29.237  1.00  0.00     0.010 A 
ATOM     12  C   UNL A   1      35.173  32.221  30.533  1.00  0.00     0.010 A 
ATOM     13  C   UNL A   1      36.471  32.605  30.155  1.00  0.00    -0.014 A 
BRANCH  13  14
ATOM     14  C   UNL A   1      37.660  31.966  30.770  1.00  0.00     0.031 A 
ATOM     15  C   UNL A   1      38.436  30.908  30.043  1.00  0.00     0.074 A 
ATOM     16  C   UNL A   1      38.021  32.339  32.012  1.00  0.00     0.049 A 
ATOM     17  N   UNL A   1      39.458  30.204  30.459  1.00  0.00    -0.248 NA
ATOM     18  C   UNL A   1      38.002  30.588  28.675  1.00  0.00     0.031 C 
ATOM     19  C   UNL A   1      37.333  33.349  32.821  1.00  0.00     0.029 A 
ATOM     20  N   UNL A   1      39.042  31.907  32.818  1.00  0.00    -0.354 N 
ATOM     21  C   UNL A   1      39.776  29.343  29.417  1.00  0.00     0.074 A 
ATOM     22  C   UNL A   1      38.821  29.595  28.358  1.00  0.00     0.031 C 
ATOM     23  C   UNL A   1      37.957  33.465  34.000  1.00  0.00     0.029 A 
ATOM     24  C   UNL A   1      39.043  32.495  34.058  1.00  0.00     0.049 A 
ATOM     25  H   UNL A   1      39.710  31.240  32.535  1.00  0.00     0.167 HD
ATOM     26  C   UNL A   1      40.776  28.429  29.352  1.00  0.00     0.037 A 
ATOM     27  C   UNL A   1      39.805  32.255  35.141  1.00  0.00     0.037 A 
ATOM     28  C   UNL A   1      41.720  28.189  30.414  1.00  0.00     0.049 A 
ATOM     29  C   UNL A   1      40.880  31.212  35.060  1.00  0.00     0.074 A 
ATOM     30  C   UNL A   1      42.801  27.324  30.427  1.00  0.00     0.029 A 
ATOM     31  N   UNL A   1      41.686  28.804  31.659  1.00  0.00    -0.354 N 
ATOM     32  N   UNL A   1      41.205  30.442  34.051  1.00  0.00    -0.248 NA
ATOM     33  C   UNL A   1      41.694  31.006  36.264  1.00  0.00     0.031 C 
ATOM     34  C   UNL A   1      43.381  27.368  31.700  1.00  0.00     0.029 A 
ATOM     35  C   UNL A   1      42.703  28.309  32.460  1.00  0.00     0.049 A 
ATOM     36  H   UNL A   1      41.035  29.490  31.932  1.00  0.00     0.167 HD
ATOM     37  C   UNL A   1      42.273  29.672  34.489  1.00  0.00     0.074 A 
ATOM     38  C   UNL A   1      42.546  30.076  35.854  1.00  0.00     0.031 C 
ATOM     39  C   UNL A   1      42.965  28.720  33.817  1.00  0.00     0.037 A 
BRANCH  26  40
ATOM     40  C   UNL A   1      40.873  27.595  28.105  1.00  0.00     0.057 A 
ATOM     41  C   UNL A   1      40.217  26.363  27.975  1.00  0.00     0.134 A 
ATOM     42  C   UNL A   1      41.623  28.042  27.009  1.00  0.00     0.134 A 
ATOM     43  F   UNL A   1      39.488  25.872  28.989  1.00  0.00    -0.206 F 
ATOM     44  C   UNL A   1      40.335  25.591  26.819  1.00  0.00     0.040 A 
ATOM     45  C   UNL A   1      41.723  27.292  25.835  1.00  0.00     0.040 A 
ATOM     46  F   UNL A   1      42.268  29.217  27.056  1.00  0.00    -0.206 F 
ATOM     47  C   UNL A   1      41.086  26.056  25.741  1.00  0.00     0.006 A 
ENDBRANCH  26  40
BRANCH  27  48
ATOM     48  C   UNL A   1      39.544  33.012  36.389  1.00  0.00     0.057 A 
ATOM     49  C   UNL A   1      38.629  32.553  37.341  1.00  0.00     0.134 A 
ATOM     50  C   UNL A   1      40.251  34.185  36.684  1.00  0.00     0.134 A 
ATOM     51  F   UNL A   1      37.915  31.441  37.110  1.00  0.00    -0.206 F 
ATOM     52  C   UNL A   1      38.423  33.235  38.541  1.00  0.00     0.040 A 
ATOM     53  C   UNL A   1      40.075  34.862  37.890  1.00  0.00     0.040 A 
ATOM     54  F   UNL A   1      41.155  34.667  35.816  1.00  0.00    -0.206 F 
ATOM     55  C   UNL A   1      39.155  34.388  38.822  1.00  0.00     0.006 A 
ENDBRANCH  27  48
BRANCH  39  56
ATOM     56  C   UNL A   1      44.111  28.066  34.534  1.00  0.00     0.057 A 
ATOM     57  C   UNL A   1      45.396  28.622  34.540  1.00  0.00     0.134 A 
ATOM     58  C   UNL A   1      43.907  26.897  35.278  1.00  0.00     0.134 A 
ATOM     59  F   UNL A   1      45.661  29.731  33.834  1.00  0.00    -0.206 F 
ATOM     60  C   UNL A   1      46.440  28.033  35.255  1.00  0.00     0.040 A 
ATOM     61  C   UNL A   1      44.935  26.314  36.018  1.00  0.00     0.040 A 
ATOM     62  F   UNL A   1      42.698  26.317  35.318  1.00  0.00    -0.206 F 
ATOM     63  C   UNL A   1      46.208  26.881  36.005  1.00  0.00     0.006 A 
ENDBRANCH  39  56
ENDBRANCH  13  14
ENDBRANCH   6   8
ENDBRANCH   3   4
ENDBRANCH   2   3
ENDBRANCH   1   2
BRANCH   1  64
ATOM     64  C   UNL A   1      30.640  30.453  24.624  1.00  0.00     0.116 C 
BRANCH  64  65
ATOM     65  N   UNL A   1      29.979  30.613  23.338  1.00  0.00    -0.352 N 
ATOM     66  C   UNL A   1      29.660  29.654  22.410  1.00  0.00     0.252 C 
ATOM     67  H   UNL A   1      29.728  31.535  23.101  1.00  0.00     0.163 HD
ATOM     68  O   UNL A   1      29.257  29.972  21.296  1.00  0.00    -0.269 OA
BRANCH  66  69
ATOM     69  C   UNL A   1      29.824  28.238  22.755  1.00  0.00     0.058 A 
ATOM     70  C   UNL A   1      28.854  27.536  23.468  1.00  0.00     0.017 A 
ATOM     71  C   UNL A   1      30.986  27.584  22.383  1.00  0.00     0.125 A 
ATOM     72  C   UNL A   1      29.119  26.225  23.849  1.00  0.00     0.030 A 
ATOM     73  N   UNL A   1      31.272  26.314  22.753  1.00  0.00    -0.255 NA
ATOM     74  C   UNL A   1      30.345  25.655  23.496  1.00  0.00     0.094 A 
BRANCH  74  75
ATOM     75  C   UNL A   1      30.680  24.254  23.967  1.00  0.00     0.318 C 
BRANCH  75  76
ATOM     76  N   UNL A   1      32.083  24.102  24.342  1.00  0.00    -0.337 N 
ATOM     77  H   UNL A   1      32.637  24.770  23.805  1.00  0.00     0.346 HD
ATOM     78  H   UNL A   1      32.347  23.136  24.144  1.00  0.00     0.346 HD
BRANCH  76  79
ATOM     79  C   UNL A   1      32.330  24.332  25.764  1.00  0.00     0.300 C 
BRANCH  79  80
ATOM     80  C   UNL A   1      32.560  25.784  26.097  1.00  0.00     0.045 A 
ATOM     81  C   UNL A   1      31.609  26.521  26.819  1.00  0.00     0.051 A 
ATOM     82  C   UNL A   1      33.755  26.416  25.737  1.00  0.00     0.132 A 
ATOM     83  C   UNL A   1      31.883  27.832  27.197  1.00  0.00     0.123 A 
ATOM     84  C   UNL A   1      34.016  27.738  26.097  1.00  0.00     0.043 A 
ATOM     85  F   UNL A   1      34.684  25.747  25.039  1.00  0.00    -0.206 F 
ATOM     86  F   UNL A   1      30.985  28.504  27.929  1.00  0.00    -0.207 F 
ATOM     87  C   UNL A   1      33.078  28.447  26.843  1.00  0.00     0.042 A 
ENDBRANCH  79  80
ENDBRANCH  76  79
ENDBRANCH  75  76
ENDBRANCH  74  75
ENDBRANCH  66  69
ENDBRANCH  64  65
ENDBRANCH   1  64
TORSDOF 15
ENDMDL
MODEL 2
REMARK VINA RESULT:     -11.4      4.872      9.525
REMARK SMILES O=C(NCCCCNC(=O)c1ccc(C[NH2+]Cc2cc(F)ccc2F)nc1)c1ccc(-c2c3nc(c(-c4c(F)cccc4F)c4ccc([nH]4)c(-c4c(F)cccc4F)c4nc(c(-c5c(F)cccc5F)c5ccc2[nH]5)C=C4)C=C3)cc1
REMARK SMILES IDX 6 1 5 2 4 3 3 4 1 5 2 6 28 8 29 9 81 10 30 11 80 12 31 13
REMARK SMILES IDX 32 14 33 15 74 16 34 17 79 18 73 19 75 20 35 21 78 22 72 23
REMARK SMILES IDX 71 24 36 26 62 27 45 28 61 29 46 30 49 31 60 32 76 33 47 34
REMARK SMILES IDX 48 35 59 37 77 38 50 39 37 40 38 41 43 42 39 43 40 44 42 45
REMARK SMILES IDX 44 46 41 47 63 48 64 49 69 50 65 51 66 52 68 53 70 54 67 55
REMARK SMILES IDX 51 56 52 57 57 58 53 59 54 60 56 61 58 62 55 63 7 64 8 65
REMARK SMILES IDX 9 66 10 68 11 69 12 70 27 71 13 72 26 73 14 74 15 75 16 76
REMARK SMILES IDX 17 79 18 80 19 81 24 82 20 83 23 84 25 85 21 86 22 87
REMARK H PARENT 3 7 75 25 49 36 8 67 16 77 16 78
REMARK Flexibility Score: inf
ROOT
ATOM      1  C   UNL A   1      36.223  20.350  24.998  1.00  0.00     0.023 C 
ENDROOT
BRANCH   1   2
ATOM      2  C   UNL A   1      37.617  19.813  24.683  1.00  0.00     0.023 C 
BRANCH   2   3
ATOM      3  C   UNL A   1      38.692  20.189  25.693  1.00  0.00     0.116 C 
BRANCH   3   4
ATOM      4  N   UNL A   1      39.759  19.203  25.770  1.00  0.00    -0.352 N 
ATOM      5  O   UNL A   1      41.883  18.459  25.949  1.00  0.00    -0.269 OA
ATOM      6  C   UNL A   1      41.084  19.381  26.085  1.00  0.00     0.251 C 
ATOM      7  H   UNL A   1      39.494  18.277  25.568  1.00  0.00     0.163 HD
BRANCH   6   8
ATOM      8  C   UNL A   1      41.549  20.698  26.568  1.00  0.00     0.039 A 
ATOM      9  C   UNL A   1      41.549  20.994  27.933  1.00  0.00     0.014 A 
ATOM     10  C   UNL A   1      41.986  21.646  25.639  1.00  0.00     0.014 A 
ATOM     11  C   UNL A   1      41.850  22.283  28.359  1.00  0.00     0.010 A 
ATOM     12  C   UNL A   1      42.374  22.913  26.079  1.00  0.00     0.010 A 
ATOM     13  C   UNL A   1      42.283  23.249  27.440  1.00  0.00    -0.014 A 
BRANCH  13  14
ATOM     14  C   UNL A   1      42.709  24.586  27.921  1.00  0.00     0.031 A 
ATOM     15  C   UNL A   1      41.705  25.658  28.228  1.00  0.00     0.074 A 
ATOM     16  C   UNL A   1      44.026  24.832  28.056  1.00  0.00     0.049 A 
ATOM     17  N   UNL A   1      41.910  26.898  28.594  1.00  0.00    -0.248 NA
ATOM     18  C   UNL A   1      40.286  25.295  28.094  1.00  0.00     0.031 C 
ATOM     19  C   UNL A   1      45.094  23.869  27.774  1.00  0.00     0.029 A 
ATOM     20  N   UNL A   1      44.692  25.963  28.450  1.00  0.00    -0.354 N 
ATOM     21  C   UNL A   1      40.650  27.471  28.713  1.00  0.00     0.074 A 
ATOM     22  C   UNL A   1      39.689  26.449  28.354  1.00  0.00     0.031 C 
ATOM     23  C   UNL A   1      46.279  24.447  28.014  1.00  0.00     0.029 A 
ATOM     24  C   UNL A   1      46.058  25.835  28.399  1.00  0.00     0.049 A 
ATOM     25  H   UNL A   1      44.236  26.786  28.741  1.00  0.00     0.167 HD
ATOM     26  C   UNL A   1      40.330  28.733  29.091  1.00  0.00     0.037 A 
ATOM     27  C   UNL A   1      47.030  26.743  28.600  1.00  0.00     0.037 A 
ATOM     28  C   UNL A   1      41.299  29.739  29.446  1.00  0.00     0.049 A 
ATOM     29  C   UNL A   1      46.654  28.145  28.978  1.00  0.00     0.074 A 
ATOM     30  C   UNL A   1      41.076  31.031  29.893  1.00  0.00     0.029 A 
ATOM     31  N   UNL A   1      42.676  29.573  29.379  1.00  0.00    -0.354 N 
ATOM     32  N   UNL A   1      45.460  28.661  29.139  1.00  0.00    -0.248 NA
ATOM     33  C   UNL A   1      47.755  29.089  29.205  1.00  0.00     0.031 C 
ATOM     34  C   UNL A   1      42.315  31.665  30.034  1.00  0.00     0.029 A 
ATOM     35  C   UNL A   1      43.314  30.750  29.739  1.00  0.00     0.049 A 
ATOM     36  H   UNL A   1      43.132  28.741  29.115  1.00  0.00     0.167 HD
ATOM     37  C   UNL A   1      45.663  29.984  29.504  1.00  0.00     0.074 A 
ATOM     38  C   UNL A   1      47.098  30.188  29.550  1.00  0.00     0.031 C 
ATOM     39  C   UNL A   1      44.743  30.940  29.781  1.00  0.00     0.037 A 
BRANCH  26  40
ATOM     40  C   UNL A   1      38.874  29.106  29.100  1.00  0.00     0.057 A 
ATOM     41  C   UNL A   1      38.210  29.561  27.952  1.00  0.00     0.134 A 
ATOM     42  C   UNL A   1      38.119  28.991  30.275  1.00  0.00     0.134 A 
ATOM     43  F   UNL A   1      38.874  29.702  26.795  1.00  0.00    -0.206 F 
ATOM     44  C   UNL A   1      36.863  29.923  27.982  1.00  0.00     0.040 A 
ATOM     45  C   UNL A   1      36.763  29.321  30.310  1.00  0.00     0.040 A 
ATOM     46  F   UNL A   1      38.684  28.551  31.409  1.00  0.00    -0.206 F 
ATOM     47  C   UNL A   1      36.133  29.800  29.163  1.00  0.00     0.006 A 
ENDBRANCH  26  40
BRANCH  27  48
ATOM     48  C   UNL A   1      48.445  26.338  28.417  1.00  0.00     0.057 A 
ATOM     49  C   UNL A   1      49.085  26.465  27.182  1.00  0.00     0.134 A 
ATOM     50  C   UNL A   1      49.207  25.868  29.496  1.00  0.00     0.134 A 
ATOM     51  F   UNL A   1      48.405  26.899  26.111  1.00  0.00    -0.206 F 
ATOM     52  C   UNL A   1      50.432  26.136  27.022  1.00  0.00     0.040 A 
ATOM     53  C   UNL A   1      50.560  25.561  29.357  1.00  0.00     0.040 A 
ATOM     54  F   UNL A   1      48.652  25.740  30.711  1.00  0.00    -0.206 F 
ATOM     55  C   UNL A   1      51.175  25.691  28.115  1.00  0.00     0.006 A 
ENDBRANCH  27  48
BRANCH  39  56
ATOM     56  C   UNL A   1      45.254  32.291  30.190  1.00  0.00     0.057 A 
ATOM     57  C   UNL A   1      45.555  33.286  29.252  1.00  0.00     0.134 A 
ATOM     58  C   UNL A   1      45.386  32.618  31.545  1.00  0.00     0.134 A 
ATOM     59  F   UNL A   1      45.464  33.031  27.938  1.00  0.00    -0.206 F 
ATOM     60  C   UNL A   1      45.978  34.555  29.648  1.00  0.00     0.040 A 
ATOM     61  C   UNL A   1      45.782  33.891  31.954  1.00  0.00     0.040 A 
ATOM     62  F   UNL A   1      45.108  31.711  32.495  1.00  0.00    -0.206 F 
ATOM     63  C   UNL A   1      46.082  34.864  31.003  1.00  0.00     0.006 A 
ENDBRANCH  39  56
ENDBRANCH  13  14
ENDBRANCH   6   8
ENDBRANCH   3   4
ENDBRANCH   2   3
ENDBRANCH   1   2
BRANCH   1  64
ATOM     64  C   UNL A   1      36.196  21.618  25.846  1.00  0.00     0.116 C 
BRANCH  64  65
ATOM     65  N   UNL A   1      35.167  21.579  26.872  1.00  0.00    -0.352 N 
ATOM     66  C   UNL A   1      34.039  22.352  26.990  1.00  0.00     0.252 C 
ATOM     67  H   UNL A   1      35.298  20.906  27.580  1.00  0.00     0.163 HD
ATOM     68  O   UNL A   1      33.357  22.311  28.008  1.00  0.00    -0.269 OA
BRANCH  66  69
ATOM     69  C   UNL A   1      33.664  23.246  25.890  1.00  0.00     0.058 A 
ATOM     70  C   UNL A   1      34.238  24.507  25.738  1.00  0.00     0.017 A 
ATOM     71  C   UNL A   1      32.695  22.839  24.990  1.00  0.00     0.125 A 
ATOM     72  C   UNL A   1      33.763  25.344  24.733  1.00  0.00     0.030 A 
ATOM     73  N   UNL A   1      32.207  23.639  24.013  1.00  0.00    -0.255 NA
ATOM     74  C   UNL A   1      32.733  24.886  23.907  1.00  0.00     0.094 A 
BRANCH  74  75
ATOM     75  C   UNL A   1      32.153  25.812  22.855  1.00  0.00     0.318 C 
BRANCH  75  76
ATOM     76  N   UNL A   1      30.938  26.488  23.302  1.00  0.00    -0.337 N 
ATOM     77  H   UNL A   1      30.652  26.084  24.195  1.00  0.00     0.346 HD
ATOM     78  H   UNL A   1      30.233  26.354  22.576  1.00  0.00     0.346 HD
BRANCH  76  79
ATOM     79  C   UNL A   1      31.108  27.928  23.478  1.00  0.00     0.300 C 
BRANCH  79  80
ATOM     80  C   UNL A   1      31.811  28.289  24.762  1.00  0.00     0.045 A 
ATOM     81  C   UNL A   1      31.265  27.946  26.008  1.00  0.00     0.051 A 
ATOM     82  C   UNL A   1      33.054  28.931  24.736  1.00  0.00     0.132 A 
ATOM     83  C   UNL A   1      31.976  28.205  27.176  1.00  0.00     0.123 A 
ATOM     84  C   UNL A   1      33.752  29.211  25.911  1.00  0.00     0.043 A 
ATOM     85  F   UNL A   1      33.603  29.283  23.565  1.00  0.00    -0.206 F 
ATOM     86  F   UNL A   1      31.463  27.825  28.353  1.00  0.00    -0.207 F 
ATOM     87  C   UNL A   1      33.215  28.834  27.139  1.00  0.00     0.042 A 
ENDBRANCH  79  80
ENDBRANCH  76  79
ENDBRANCH  75  76
ENDBRANCH  74  75
ENDBRANCH  66  69
ENDBRANCH  64  65
ENDBRANCH   1  64
TORSDOF 15
ENDMDL
MODEL 3
REMARK VINA RESULT:     -11.3      5.287      9.910
REMARK SMILES O=C(NCCCCNC(=O)c1ccc(C[NH2+]Cc2cc(F)ccc2F)nc1)c1ccc(-c2c3nc(c(-c4c(F)cccc4F)c4ccc([nH]4)c(-c4c(F)cccc4F)c4nc(c(-c5c(F)cccc5F)c5ccc2[nH]5)C=C4)C=C3)cc1
REMARK SMILES IDX 6 1 5 2 4 3 3 4 1 5 2 6 28 8 29 9 81 10 30 11 80 12 31 13
REMARK SMILES IDX 32 14 33 15 74 16 34 17 79 18 73 19 75 20 35 21 78 22 72 23
REMARK SMILES IDX 71 24 36 26 62 27 45 28 61 29 46 30 49 31 60 32 76 33 47 34
REMARK SMILES IDX 48 35 59 37 77 38 50 39 37 40 38 41 43 42 39 43 40 44 42 45
REMARK SMILES IDX 44 46 41 47 63 48 64 49 69 50 65 51 66 52 68 53 70 54 67 55
REMARK SMILES IDX 51 56 52 57 57 58 53 59 54 60 56 61 58 62 55 63 7 64 8 65
REMARK SMILES IDX 9 66 10 68 11 69 12 70 27 71 13 72 26 73 14 74 15 75 16 76
REMARK SMILES IDX 17 79 18 80 19 81 24 82 20 83 23 84 25 85 21 86 22 87
REMARK H PARENT 3 7 75 25 49 36 8 67 16 77 16 78
REMARK Flexibility Score: inf
ROOT
ATOM      1  C   UNL A   1      36.871  20.215  24.978  1.00  0.00     0.023 C 
ENDROOT
BRANCH   1   2
ATOM      2  C   UNL A   1      38.110  19.325  25.000  1.00  0.00     0.023 C 
BRANCH   2   3
ATOM      3  C   UNL A   1      39.209  19.779  25.951  1.00  0.00     0.116 C 
BRANCH   3   4
ATOM      4  N   UNL A   1      40.384  18.923  25.899  1.00  0.00    -0.352 N 
ATOM      5  O   UNL A   1      42.586  18.431  25.818  1.00  0.00    -0.269 OA
ATOM      6  C   UNL A   1      41.709  19.257  26.048  1.00  0.00     0.251 C 
ATOM      7  H   UNL A   1      40.206  17.969  25.734  1.00  0.00     0.163 HD
BRANCH   6   8
ATOM      8  C   UNL A   1      42.073  20.627  26.466  1.00  0.00     0.039 A 
ATOM      9  C   UNL A   1      42.356  21.609  25.513  1.00  0.00     0.014 A 
ATOM     10  C   UNL A   1      42.135  20.927  27.829  1.00  0.00     0.014 A 
ATOM     11  C   UNL A   1      42.838  22.847  25.921  1.00  0.00     0.010 A 
ATOM     12  C   UNL A   1      42.534  22.200  28.237  1.00  0.00     0.010 A 
ATOM     13  C   UNL A   1      42.914  23.162  27.286  1.00  0.00    -0.014 A 
BRANCH  13  14
ATOM     14  C   UNL A   1      43.322  24.525  27.706  1.00  0.00     0.031 A 
ATOM     15  C   UNL A   1      42.302  25.557  28.089  1.00  0.00     0.074 A 
ATOM     16  C   UNL A   1      44.632  24.830  27.716  1.00  0.00     0.049 A 
ATOM     17  N   UNL A   1      42.483  26.812  28.417  1.00  0.00    -0.248 NA
ATOM     18  C   UNL A   1      40.895  25.131  28.092  1.00  0.00     0.031 C 
ATOM     19  C   UNL A   1      45.713  23.910  27.350  1.00  0.00     0.029 A 
ATOM     20  N   UNL A   1      45.280  25.997  28.030  1.00  0.00    -0.354 N 
ATOM     21  C   UNL A   1      41.216  27.332  28.644  1.00  0.00     0.074 A 
ATOM     22  C   UNL A   1      40.272  26.263  28.389  1.00  0.00     0.031 C 
ATOM     23  C   UNL A   1      46.887  24.544  27.471  1.00  0.00     0.029 A 
ATOM     24  C   UNL A   1      46.640  25.928  27.856  1.00  0.00     0.049 A 
ATOM     25  H   UNL A   1      44.816  26.804  28.350  1.00  0.00     0.167 HD
ATOM     26  C   UNL A   1      40.875  28.586  29.031  1.00  0.00     0.037 A 
ATOM     27  C   UNL A   1      47.585  26.881  27.952  1.00  0.00     0.037 A 
ATOM     28  C   UNL A   1      41.826  29.639  29.280  1.00  0.00     0.049 A 
ATOM     29  C   UNL A   1      47.181  28.272  28.343  1.00  0.00     0.074 A 
ATOM     30  C   UNL A   1      41.586  30.928  29.727  1.00  0.00     0.029 A 
ATOM     31  N   UNL A   1      43.197  29.532  29.089  1.00  0.00    -0.354 N 
ATOM     32  N   UNL A   1      45.985  28.738  28.606  1.00  0.00    -0.248 NA
ATOM     33  C   UNL A   1      48.255  29.267  28.453  1.00  0.00     0.031 C 
ATOM     34  C   UNL A   1      42.803  31.618  29.744  1.00  0.00     0.029 A 
ATOM     35  C   UNL A   1      43.811  30.742  29.372  1.00  0.00     0.049 A 
ATOM     36  H   UNL A   1      43.663  28.716  28.796  1.00  0.00     0.167 HD
ATOM     37  C   UNL A   1      46.161  30.076  28.932  1.00  0.00     0.074 A 
ATOM     38  C   UNL A   1      47.583  30.342  28.842  1.00  0.00     0.031 C 
ATOM     39  C   UNL A   1      45.228  30.995  29.278  1.00  0.00     0.037 A 
BRANCH  26  40
ATOM     40  C   UNL A   1      39.410  28.895  29.169  1.00  0.00     0.057 A 
ATOM     41  C   UNL A   1      38.729  28.764  30.387  1.00  0.00     0.134 A 
ATOM     42  C   UNL A   1      38.672  29.347  28.067  1.00  0.00     0.134 A 
ATOM     43  F   UNL A   1      39.372  28.328  31.481  1.00  0.00    -0.206 F 
ATOM     44  C   UNL A   1      37.364  29.035  30.495  1.00  0.00     0.040 A 
ATOM     45  C   UNL A   1      37.313  29.651  28.169  1.00  0.00     0.040 A 
ATOM     46  F   UNL A   1      39.260  29.508  26.872  1.00  0.00    -0.206 F 
ATOM     47  C   UNL A   1      36.652  29.484  29.385  1.00  0.00     0.006 A 
ENDBRANCH  26  40
BRANCH  27  48
ATOM     48  C   UNL A   1      48.994  26.535  27.646  1.00  0.00     0.057 A 
ATOM     49  C   UNL A   1      49.866  26.090  28.642  1.00  0.00     0.134 A 
ATOM     50  C   UNL A   1      49.482  26.587  26.333  1.00  0.00     0.134 A 
ATOM     51  F   UNL A   1      49.460  26.029  29.918  1.00  0.00    -0.206 F 
ATOM     52  C   UNL A   1      51.177  25.712  28.346  1.00  0.00     0.040 A 
ATOM     53  C   UNL A   1      50.780  26.187  26.018  1.00  0.00     0.040 A 
ATOM     54  F   UNL A   1      48.686  26.991  25.330  1.00  0.00    -0.206 F 
ATOM     55  C   UNL A   1      51.633  25.750  27.029  1.00  0.00     0.006 A 
ENDBRANCH  27  48
BRANCH  39  56
ATOM     56  C   UNL A   1      45.713  32.374  29.619  1.00  0.00     0.057 A 
ATOM     57  C   UNL A   1      45.780  33.395  28.662  1.00  0.00     0.134 A 
ATOM     58  C   UNL A   1      46.058  32.699  30.937  1.00  0.00     0.134 A 
ATOM     59  F   UNL A   1      45.478  33.145  27.379  1.00  0.00    -0.206 F 
ATOM     60  C   UNL A   1      46.181  34.687  29.004  1.00  0.00     0.040 A 
ATOM     61  C   UNL A   1      46.434  33.993  31.296  1.00  0.00     0.040 A 
ATOM     62  F   UNL A   1      46.009  31.768  31.903  1.00  0.00    -0.206 F 
ATOM     63  C   UNL A   1      46.499  34.992  30.326  1.00  0.00     0.006 A 
ENDBRANCH  39  56
ENDBRANCH  13  14
ENDBRANCH   6   8
ENDBRANCH   3   4
ENDBRANCH   2   3
ENDBRANCH   1   2
BRANCH   1  64
ATOM     64  C   UNL A   1      37.045  21.547  24.254  1.00  0.00     0.116 C 
BRANCH  64  65
ATOM     65  N   UNL A   1      37.703  22.546  25.080  1.00  0.00    -0.352 N 
ATOM     66  C   UNL A   1      37.149  23.608  25.751  1.00  0.00     0.252 C 
ATOM     67  H   UNL A   1      38.679  22.449  25.170  1.00  0.00     0.163 HD
ATOM     68  O   UNL A   1      37.862  24.462  26.267  1.00  0.00    -0.269 OA
BRANCH  66  69
ATOM     69  C   UNL A   1      35.689  23.724  25.829  1.00  0.00     0.058 A 
ATOM     70  C   UNL A   1      34.949  23.064  26.808  1.00  0.00     0.017 A 
ATOM     71  C   UNL A   1      35.022  24.493  24.891  1.00  0.00     0.125 A 
ATOM     72  C   UNL A   1      33.561  23.137  26.763  1.00  0.00     0.030 A 
ATOM     73  N   UNL A   1      33.673  24.568  24.818  1.00  0.00    -0.255 NA
ATOM     74  C   UNL A   1      32.958  23.877  25.743  1.00  0.00     0.094 A 
BRANCH  74  75
ATOM     75  C   UNL A   1      31.446  23.905  25.635  1.00  0.00     0.318 C 
BRANCH  75  76
ATOM     76  N   UNL A   1      30.829  24.856  26.557  1.00  0.00    -0.337 N 
ATOM     77  H   UNL A   1      31.542  25.183  27.210  1.00  0.00     0.346 HD
ATOM     78  H   UNL A   1      30.068  24.368  27.030  1.00  0.00     0.346 HD
BRANCH  76  79
ATOM     79  C   UNL A   1      30.246  26.016  25.887  1.00  0.00     0.300 C 
BRANCH  79  80
ATOM     80  C   UNL A   1      31.171  27.206  25.852  1.00  0.00     0.045 A 
ATOM     81  C   UNL A   1      32.149  27.394  26.841  1.00  0.00     0.051 A 
ATOM     82  C   UNL A   1      31.108  28.126  24.799  1.00  0.00     0.132 A 
ATOM     83  C   UNL A   1      33.053  28.447  26.738  1.00  0.00     0.123 A 
ATOM     84  C   UNL A   1      32.001  29.194  24.712  1.00  0.00     0.043 A 
ATOM     85  F   UNL A   1      30.182  27.985  23.841  1.00  0.00    -0.206 F 
ATOM     86  F   UNL A   1      34.011  28.581  27.663  1.00  0.00    -0.207 F 
ATOM     87  C   UNL A   1      32.988  29.348  25.682  1.00  0.00     0.042 A 
ENDBRANCH  79  80
ENDBRANCH  76  79
ENDBRANCH  75  76
ENDBRANCH  74  75
ENDBRANCH  66  69
ENDBRANCH  64  65
ENDBRANCH   1  64
TORSDOF 15
ENDMDL
