MODEL 1
REMARK VINA RESULT:     -10.3      0.000      0.000
REMARK SMILES CCc1ccc(Nc2nc(OCC(=O)NCCCCNC(=O)c3ccc(-c4c5nc(c(-c6c(F)cccc6F)c6ccc([nH]6)c(-c6c(F)cccc6F)c6nc(c(-c7c(F)cccc7F)c7ccc4[nH]7)C=C6)C=C5)cc3)cc(-c3cccnc3)n2)cc1
REMARK SMILES IDX 16 1 15 2 13 3 14 4 12 6 11 7 10 8 8 9 9 10 85 11 78 12
REMARK SMILES IDX 77 13 7 14 6 16 3 17 4 18 87 19 5 20 86 21 2 22 1 23 79 24
REMARK SMILES IDX 80 25 84 26 81 27 83 28 82 29 17 30 18 31 19 32 20 33 21 34
REMARK SMILES IDX 22 36 23 37 24 38 76 39 25 40 75 41 26 42 27 43 28 44 69 45
REMARK SMILES IDX 29 46 74 47 68 48 70 49 30 50 73 51 67 52 66 53 31 55 57 56
REMARK SMILES IDX 40 57 56 58 41 59 44 60 55 61 71 62 42 63 43 64 54 66 72 67
REMARK SMILES IDX 45 68 32 69 33 70 38 71 34 72 35 73 37 74 39 75 36 76 58 77
REMARK SMILES IDX 59 78 64 79 60 80 61 81 63 82 65 83 62 84 46 85 47 86 52 87
REMARK SMILES IDX 48 88 49 89 51 90 53 91 50 92
REMARK H PARENT 15 5 7 15 20 35 70 54 44 65
REMARK Flexibility Score: inf
ROOT
ATOM      1  C   UNL A   1      33.750  36.776  33.347  1.00  0.00     0.116 C 
ENDROOT
BRANCH   1   2
ATOM      2  N   UNL A   1      33.285  35.405  33.273  1.00  0.00    -0.353 N 
ATOM      3  C   UNL A   1      34.025  34.263  33.205  1.00  0.00     0.258 C 
ATOM      4  O   UNL A   1      33.439  33.182  33.126  1.00  0.00    -0.271 OA
ATOM      5  H   UNL A   1      32.308  35.284  33.271  1.00  0.00     0.163 HD
BRANCH   3   6
ATOM      6  C   UNL A   1      35.559  34.339  33.243  1.00  0.00     0.331 C 
BRANCH   6   7
ATOM      7  O   UNL A   1      36.182  34.322  34.516  1.00  0.00    -0.467 OA
BRANCH   7   8
ATOM      8  C   UNL A   1      36.867  33.195  34.875  1.00  0.00     0.219 A 
ATOM      9  C   UNL A   1      38.024  32.212  36.593  1.00  0.00     0.231 A 
ATOM     10  N   UNL A   1      37.237  33.208  36.167  1.00  0.00    -0.177 NA
ATOM     11  N   UNL A   1      38.394  31.180  35.822  1.00  0.00    -0.212 NA
ATOM     12  C   UNL A   1      37.977  31.169  34.547  1.00  0.00     0.081 A 
ATOM     13  C   UNL A   1      37.192  32.169  34.024  1.00  0.00     0.097 A 
BRANCH   9  14
ATOM     14  N   UNL A   1      38.525  32.320  37.889  1.00  0.00    -0.324 N 
ATOM     15  H   UNL A   1      38.280  31.595  38.507  1.00  0.00     0.170 HD
BRANCH  14  16
ATOM     16  C   UNL A   1      39.336  33.335  38.422  1.00  0.00     0.041 A 
ATOM     17  C   UNL A   1      40.992  35.347  39.536  1.00  0.00    -0.048 A 
ATOM     18  C   UNL A   1      39.645  35.601  39.265  1.00  0.00     0.006 A 
ATOM     19  C   UNL A   1      41.515  34.090  39.210  1.00  0.00     0.006 A 
ATOM     20  C   UNL A   1      38.836  34.611  38.710  1.00  0.00     0.026 A 
ATOM     21  C   UNL A   1      40.695  33.097  38.656  1.00  0.00     0.026 A 
BRANCH  17  22
ATOM     22  C   UNL A   1      41.847  36.418  40.160  1.00  0.00     0.032 C 
ATOM     23  C   UNL A   1      43.190  36.567  39.456  1.00  0.00     0.009 C 
ENDBRANCH  17  22
ENDBRANCH  14  16
ENDBRANCH   9  14
BRANCH  12  24
ATOM     24  C   UNL A   1      38.452  30.063  33.721  1.00  0.00     0.019 A 
ATOM     25  C   UNL A   1      37.574  29.302  32.936  1.00  0.00     0.013 A 
ATOM     26  C   UNL A   1      39.792  29.692  33.701  1.00  0.00     0.121 A 
ATOM     27  C   UNL A   1      38.052  28.218  32.204  1.00  0.00     0.021 A 
ATOM     28  N   UNL A   1      40.286  28.631  33.012  1.00  0.00    -0.264 NA
ATOM     29  C   UNL A   1      39.401  27.920  32.282  1.00  0.00     0.111 A 
ENDBRANCH  12  24
ENDBRANCH   7   8
ENDBRANCH   6   7
ENDBRANCH   3   6
ENDBRANCH   1   2
BRANCH   1  30
ATOM     30  C   UNL A   1      33.717  37.468  31.986  1.00  0.00     0.023 C 
BRANCH  30  31
ATOM     31  C   UNL A   1      32.823  36.800  30.936  1.00  0.00     0.023 C 
BRANCH  31  32
ATOM     32  C   UNL A   1      33.518  36.377  29.647  1.00  0.00     0.116 C 
BRANCH  32  33
ATOM     33  N   UNL A   1      32.708  35.494  28.823  1.00  0.00    -0.352 N 
ATOM     34  C   UNL A   1      33.018  34.263  28.297  1.00  0.00     0.251 C 
ATOM     35  H   UNL A   1      31.805  35.826  28.611  1.00  0.00     0.163 HD
ATOM     36  O   UNL A   1      32.242  33.714  27.517  1.00  0.00    -0.269 OA
BRANCH  34  37
ATOM     37  C   UNL A   1      34.299  33.608  28.639  1.00  0.00     0.039 A 
ATOM     38  C   UNL A   1      35.424  33.877  27.853  1.00  0.00     0.014 A 
ATOM     39  C   UNL A   1      34.400  32.737  29.727  1.00  0.00     0.014 A 
ATOM     40  C   UNL A   1      36.662  33.333  28.202  1.00  0.00     0.010 A 
ATOM     41  C   UNL A   1      35.648  32.258  30.119  1.00  0.00     0.010 A 
ATOM     42  C   UNL A   1      36.792  32.552  29.362  1.00  0.00    -0.014 A 
BRANCH  42  43
ATOM     43  C   UNL A   1      38.119  32.044  29.802  1.00  0.00     0.031 A 
ATOM     44  C   UNL A   1      38.623  30.714  29.317  1.00  0.00     0.074 A 
ATOM     45  C   UNL A   1      38.845  32.755  30.687  1.00  0.00     0.049 A 
ATOM     46  N   UNL A   1      39.724  30.078  29.635  1.00  0.00    -0.248 NA
ATOM     47  C   UNL A   1      37.766  29.988  28.366  1.00  0.00     0.031 C 
ATOM     48  C   UNL A   1      38.452  34.041  31.267  1.00  0.00     0.029 A 
ATOM     49  N   UNL A   1      40.064  32.492  31.262  1.00  0.00    -0.354 N 
ATOM     50  C   UNL A   1      39.686  28.880  28.933  1.00  0.00     0.074 A 
ATOM     51  C   UNL A   1      38.426  28.849  28.221  1.00  0.00     0.031 C 
ATOM     52  C   UNL A   1      39.423  34.467  32.090  1.00  0.00     0.029 A 
ATOM     53  C   UNL A   1      40.487  33.469  32.131  1.00  0.00     0.049 A 
ATOM     54  H   UNL A   1      40.587  31.680  31.068  1.00  0.00     0.167 HD
ATOM     55  C   UNL A   1      40.624  27.905  28.867  1.00  0.00     0.037 A 
ATOM     56  C   UNL A   1      41.600  33.547  32.884  1.00  0.00     0.037 A 
ATOM     57  C   UNL A   1      41.882  27.943  29.568  1.00  0.00     0.049 A 
ATOM     58  C   UNL A   1      42.611  32.435  32.820  1.00  0.00     0.074 A 
ATOM     59  C   UNL A   1      42.918  27.025  29.529  1.00  0.00     0.029 A 
ATOM     60  N   UNL A   1      42.271  28.948  30.441  1.00  0.00    -0.354 N 
ATOM     61  N   UNL A   1      42.592  31.339  32.101  1.00  0.00    -0.248 NA
ATOM     62  C   UNL A   1      43.802  32.574  33.671  1.00  0.00     0.031 C 
ATOM     63  C   UNL A   1      43.911  27.449  30.419  1.00  0.00     0.029 A 
ATOM     64  C   UNL A   1      43.519  28.660  30.967  1.00  0.00     0.049 A 
ATOM     65  H   UNL A   1      41.738  29.747  30.655  1.00  0.00     0.167 HD
ATOM     66  C   UNL A   1      43.779  30.676  32.386  1.00  0.00     0.074 A 
ATOM     67  C   UNL A   1      44.501  31.500  33.333  1.00  0.00     0.031 C 
ATOM     68  C   UNL A   1      44.232  29.492  31.904  1.00  0.00     0.037 A 
BRANCH  55  69
ATOM     69  C   UNL A   1      40.322  26.713  28.002  1.00  0.00     0.057 A 
ATOM     70  C   UNL A   1      40.876  26.567  26.724  1.00  0.00     0.134 A 
ATOM     71  C   UNL A   1      39.487  25.687  28.464  1.00  0.00     0.134 A 
ATOM     72  F   UNL A   1      41.675  27.517  26.216  1.00  0.00    -0.206 F 
ATOM     73  C   UNL A   1      40.585  25.462  25.921  1.00  0.00     0.040 A 
ATOM     74  C   UNL A   1      39.214  24.562  27.683  1.00  0.00     0.040 A 
ATOM     75  F   UNL A   1      38.930  25.756  29.681  1.00  0.00    -0.206 F 
ATOM     76  C   UNL A   1      39.756  24.451  26.404  1.00  0.00     0.006 A 
ENDBRANCH  55  69
BRANCH  56  77
ATOM     77  C   UNL A   1      41.834  34.732  33.748  1.00  0.00     0.057 A 
ATOM     78  C   UNL A   1      42.645  35.789  33.317  1.00  0.00     0.134 A 
ATOM     79  C   UNL A   1      41.273  34.833  35.026  1.00  0.00     0.134 A 
ATOM     80  F   UNL A   1      43.228  35.743  32.110  1.00  0.00    -0.206 F 
ATOM     81  C   UNL A   1      42.907  36.892  34.132  1.00  0.00     0.040 A 
ATOM     82  C   UNL A   1      41.503  35.943  35.841  1.00  0.00     0.040 A 
ATOM     83  F   UNL A   1      40.481  33.858  35.497  1.00  0.00    -0.206 F 
ATOM     84  C   UNL A   1      42.330  36.972  35.398  1.00  0.00     0.006 A 
ENDBRANCH  56  77
BRANCH  68  85
ATOM     85  C   UNL A   1      45.589  29.037  32.359  1.00  0.00     0.057 A 
ATOM     86  C   UNL A   1      46.760  29.380  31.671  1.00  0.00     0.134 A 
ATOM     87  C   UNL A   1      45.727  28.271  33.525  1.00  0.00     0.134 A 
ATOM     88  F   UNL A   1      46.696  30.101  30.540  1.00  0.00    -0.206 F 
ATOM     89  C   UNL A   1      48.016  28.958  32.109  1.00  0.00     0.040 A 
ATOM     90  C   UNL A   1      46.980  27.868  33.990  1.00  0.00     0.040 A 
ATOM     91  F   UNL A   1      44.649  27.914  34.239  1.00  0.00    -0.206 F 
ATOM     92  C   UNL A   1      48.128  28.205  33.277  1.00  0.00     0.006 A 
ENDBRANCH  68  85
ENDBRANCH  42  43
ENDBRANCH  34  37
ENDBRANCH  32  33
ENDBRANCH  31  32
ENDBRANCH  30  31
ENDBRANCH   1  30
TORSDOF 17
ENDMDL
MODEL 2
REMARK VINA RESULT:     -10.3      1.347      6.191
REMARK SMILES CCc1ccc(Nc2nc(OCC(=O)NCCCCNC(=O)c3ccc(-c4c5nc(c(-c6c(F)cccc6F)c6ccc([nH]6)c(-c6c(F)cccc6F)c6nc(c(-c7c(F)cccc7F)c7ccc4[nH]7)C=C6)C=C5)cc3)cc(-c3cccnc3)n2)cc1
REMARK SMILES IDX 16 1 15 2 13 3 14 4 12 6 11 7 10 8 8 9 9 10 85 11 78 12
REMARK SMILES IDX 77 13 7 14 6 16 3 17 4 18 87 19 5 20 86 21 2 22 1 23 79 24
REMARK SMILES IDX 80 25 84 26 81 27 83 28 82 29 17 30 18 31 19 32 20 33 21 34
REMARK SMILES IDX 22 36 23 37 24 38 76 39 25 40 75 41 26 42 27 43 28 44 69 45
REMARK SMILES IDX 29 46 74 47 68 48 70 49 30 50 73 51 67 52 66 53 31 55 57 56
REMARK SMILES IDX 40 57 56 58 41 59 44 60 55 61 71 62 42 63 43 64 54 66 72 67
REMARK SMILES IDX 45 68 32 69 33 70 38 71 34 72 35 73 37 74 39 75 36 76 58 77
REMARK SMILES IDX 59 78 64 79 60 80 61 81 63 82 65 83 62 84 46 85 47 86 52 87
REMARK SMILES IDX 48 88 49 89 51 90 53 91 50 92
REMARK H PARENT 15 5 7 15 20 35 70 54 44 65
REMARK Flexibility Score: inf
ROOT
ATOM      1  C   UNL A   1      33.574  36.782  33.147  1.00  0.00     0.116 C 
ENDROOT
BRANCH   1   2
ATOM      2  N   UNL A   1      33.265  35.366  33.179  1.00  0.00    -0.353 N 
ATOM      3  C   UNL A   1      34.128  34.313  33.250  1.00  0.00     0.258 C 
ATOM      4  O   UNL A   1      33.667  33.170  33.245  1.00  0.00    -0.271 OA
ATOM      5  H   UNL A   1      32.309  35.135  33.146  1.00  0.00     0.163 HD
BRANCH   3   6
ATOM      6  C   UNL A   1      35.640  34.564  33.349  1.00  0.00     0.331 C 
BRANCH   6   7
ATOM      7  O   UNL A   1      36.226  34.518  34.639  1.00  0.00    -0.467 OA
BRANCH   7   8
ATOM      8  C   UNL A   1      36.862  33.367  35.009  1.00  0.00     0.219 A 
ATOM      9  C   UNL A   1      37.952  32.342  36.746  1.00  0.00     0.231 A 
ATOM     10  N   UNL A   1      37.210  33.365  36.307  1.00  0.00    -0.177 NA
ATOM     11  N   UNL A   1      38.298  31.297  35.980  1.00  0.00    -0.212 NA
ATOM     12  C   UNL A   1      37.903  31.302  34.697  1.00  0.00     0.081 A 
ATOM     13  C   UNL A   1      37.165  32.330  34.162  1.00  0.00     0.097 A 
BRANCH   9  14
ATOM     14  N   UNL A   1      38.433  32.431  38.050  1.00  0.00    -0.324 N 
ATOM     15  H   UNL A   1      39.412  32.459  38.146  1.00  0.00     0.170 HD
BRANCH  14  16
ATOM     16  C   UNL A   1      37.697  32.485  39.244  1.00  0.00     0.041 A 
ATOM     17  C   UNL A   1      36.257  32.600  41.682  1.00  0.00    -0.048 A 
ATOM     18  C   UNL A   1      35.971  31.618  40.731  1.00  0.00     0.006 A 
ATOM     19  C   UNL A   1      37.243  33.549  41.390  1.00  0.00     0.006 A 
ATOM     20  C   UNL A   1      36.677  31.570  39.530  1.00  0.00     0.026 A 
ATOM     21  C   UNL A   1      37.952  33.493  40.181  1.00  0.00     0.026 A 
BRANCH  17  22
ATOM     22  C   UNL A   1      35.504  32.623  42.987  1.00  0.00     0.032 C 
ATOM     23  C   UNL A   1      34.615  31.397  43.161  1.00  0.00     0.009 C 
ENDBRANCH  17  22
ENDBRANCH  14  16
ENDBRANCH   9  14
BRANCH  12  24
ATOM     24  C   UNL A   1      38.351  30.179  33.879  1.00  0.00     0.019 A 
ATOM     25  C   UNL A   1      37.481  29.513  33.005  1.00  0.00     0.013 A 
ATOM     26  C   UNL A   1      39.654  29.697  33.954  1.00  0.00     0.121 A 
ATOM     27  C   UNL A   1      37.927  28.410  32.281  1.00  0.00     0.021 A 
ATOM     28  N   UNL A   1      40.113  28.616  33.275  1.00  0.00    -0.264 NA
ATOM     29  C   UNL A   1      39.236  27.998  32.456  1.00  0.00     0.111 A 
ENDBRANCH  12  24
ENDBRANCH   7   8
ENDBRANCH   6   7
ENDBRANCH   3   6
ENDBRANCH   1   2
BRANCH   1  30
ATOM     30  C   UNL A   1      33.515  37.351  31.732  1.00  0.00     0.023 C 
BRANCH  30  31
ATOM     31  C   UNL A   1      32.672  36.543  30.740  1.00  0.00     0.023 C 
BRANCH  31  32
ATOM     32  C   UNL A   1      33.238  36.428  29.328  1.00  0.00     0.116 C 
BRANCH  32  33
ATOM     33  N   UNL A   1      32.604  35.383  28.541  1.00  0.00    -0.352 N 
ATOM     34  C   UNL A   1      33.089  34.151  28.174  1.00  0.00     0.251 C 
ATOM     35  H   UNL A   1      31.694  35.588  28.224  1.00  0.00     0.163 HD
ATOM     36  O   UNL A   1      32.449  33.445  27.397  1.00  0.00    -0.269 OA
BRANCH  34  37
ATOM     37  C   UNL A   1      34.396  33.682  28.684  1.00  0.00     0.039 A 
ATOM     38  C   UNL A   1      34.426  32.908  29.847  1.00  0.00     0.014 A 
ATOM     39  C   UNL A   1      35.586  33.996  28.022  1.00  0.00     0.014 A 
ATOM     40  C   UNL A   1      35.640  32.389  30.304  1.00  0.00     0.010 A 
ATOM     41  C   UNL A   1      36.783  33.415  28.434  1.00  0.00     0.010 A 
ATOM     42  C   UNL A   1      36.823  32.603  29.578  1.00  0.00    -0.014 A 
BRANCH  42  43
ATOM     43  C   UNL A   1      38.105  31.978  29.997  1.00  0.00     0.031 A 
ATOM     44  C   UNL A   1      39.030  32.697  30.939  1.00  0.00     0.074 A 
ATOM     45  C   UNL A   1      38.467  30.788  29.479  1.00  0.00     0.049 A 
ATOM     46  N   UNL A   1      40.215  32.342  31.370  1.00  0.00    -0.248 NA
ATOM     47  C   UNL A   1      38.573  34.001  31.448  1.00  0.00     0.031 C 
ATOM     48  C   UNL A   1      37.681  30.005  28.524  1.00  0.00     0.029 A 
ATOM     49  N   UNL A   1      39.595  30.031  29.679  1.00  0.00    -0.354 N 
ATOM     50  C   UNL A   1      40.646  33.377  32.190  1.00  0.00     0.074 A 
ATOM     51  C   UNL A   1      39.625  34.402  32.147  1.00  0.00     0.031 C 
ATOM     52  C   UNL A   1      38.336  28.867  28.244  1.00  0.00     0.029 A 
ATOM     53  C   UNL A   1      39.606  28.857  28.963  1.00  0.00     0.049 A 
ATOM     54  H   UNL A   1      40.327  30.302  30.279  1.00  0.00     0.167 HD
ATOM     55  C   UNL A   1      41.777  33.459  32.930  1.00  0.00     0.037 A 
ATOM     56  C   UNL A   1      40.537  27.887  28.888  1.00  0.00     0.037 A 
ATOM     57  C   UNL A   1      42.788  32.433  32.980  1.00  0.00     0.049 A 
ATOM     58  C   UNL A   1      41.800  28.016  29.692  1.00  0.00     0.074 A 
ATOM     59  C   UNL A   1      43.948  32.402  33.736  1.00  0.00     0.029 A 
ATOM     60  N   UNL A   1      42.763  31.261  32.238  1.00  0.00    -0.354 N 
ATOM     61  N   UNL A   1      42.165  28.972  30.513  1.00  0.00    -0.248 NA
ATOM     62  C   UNL A   1      42.782  26.930  29.562  1.00  0.00     0.031 C 
ATOM     63  C   UNL A   1      44.650  31.236  33.411  1.00  0.00     0.029 A 
ATOM     64  C   UNL A   1      43.899  30.513  32.498  1.00  0.00     0.049 A 
ATOM     65  H   UNL A   1      42.044  31.000  31.619  1.00  0.00     0.167 HD
ATOM     66  C   UNL A   1      43.399  28.585  31.023  1.00  0.00     0.074 A 
ATOM     67  C   UNL A   1      43.713  27.303  30.428  1.00  0.00     0.031 C 
ATOM     68  C   UNL A   1      44.198  29.233  31.905  1.00  0.00     0.037 A 
BRANCH  55  69
ATOM     69  C   UNL A   1      41.980  34.703  33.748  1.00  0.00     0.057 A 
ATOM     70  C   UNL A   1      42.704  35.799  33.262  1.00  0.00     0.134 A 
ATOM     71  C   UNL A   1      41.421  34.818  35.028  1.00  0.00     0.134 A 
ATOM     72  F   UNL A   1      43.275  35.752  32.048  1.00  0.00    -0.206 F 
ATOM     73  C   UNL A   1      42.897  36.949  34.030  1.00  0.00     0.040 A 
ATOM     74  C   UNL A   1      41.579  35.975  35.793  1.00  0.00     0.040 A 
ATOM     75  F   UNL A   1      40.707  33.811  35.553  1.00  0.00    -0.206 F 
ATOM     76  C   UNL A   1      42.327  37.041  35.298  1.00  0.00     0.006 A 
ENDBRANCH  55  69
BRANCH  56  77
ATOM     77  C   UNL A   1      40.302  26.693  28.037  1.00  0.00     0.057 A 
ATOM     78  C   UNL A   1      40.885  26.586  26.769  1.00  0.00     0.134 A 
ATOM     79  C   UNL A   1      39.479  25.641  28.457  1.00  0.00     0.134 A 
ATOM     80  F   UNL A   1      41.667  27.570  26.301  1.00  0.00    -0.206 F 
ATOM     81  C   UNL A   1      40.643  25.488  25.941  1.00  0.00     0.040 A 
ATOM     82  C   UNL A   1      39.251  24.524  27.651  1.00  0.00     0.040 A 
ATOM     83  F   UNL A   1      38.895  25.678  29.664  1.00  0.00    -0.206 F 
ATOM     84  C   UNL A   1      39.826  24.450  26.385  1.00  0.00     0.006 A 
ENDBRANCH  56  77
BRANCH  68  85
ATOM     85  C   UNL A   1      45.470  28.548  32.315  1.00  0.00     0.057 A 
ATOM     86  C   UNL A   1      46.694  28.808  31.685  1.00  0.00     0.134 A 
ATOM     87  C   UNL A   1      45.475  27.638  33.381  1.00  0.00     0.134 A 
ATOM     88  F   UNL A   1      46.756  29.658  30.648  1.00  0.00    -0.206 F 
ATOM     89  C   UNL A   1      47.870  28.170  32.081  1.00  0.00     0.040 A 
ATOM     90  C   UNL A   1      46.650  27.017  33.807  1.00  0.00     0.040 A 
ATOM     91  F   UNL A   1      44.341  27.349  34.037  1.00  0.00    -0.206 F 
ATOM     92  C   UNL A   1      47.851  27.278  33.151  1.00  0.00     0.006 A 
ENDBRANCH  68  85
ENDBRANCH  42  43
ENDBRANCH  34  37
ENDBRANCH  32  33
ENDBRANCH  31  32
ENDBRANCH  30  31
ENDBRANCH   1  30
TORSDOF 17
ENDMDL
MODEL 3
REMARK VINA RESULT:      -9.6      5.027      9.402
REMARK SMILES CCc1ccc(Nc2nc(OCC(=O)NCCCCNC(=O)c3ccc(-c4c5nc(c(-c6c(F)cccc6F)c6ccc([nH]6)c(-c6c(F)cccc6F)c6nc(c(-c7c(F)cccc7F)c7ccc4[nH]7)C=C6)C=C5)cc3)cc(-c3cccnc3)n2)cc1
REMARK SMILES IDX 16 1 15 2 13 3 14 4 12 6 11 7 10 8 8 9 9 10 85 11 78 12
REMARK SMILES IDX 77 13 7 14 6 16 3 17 4 18 87 19 5 20 86 21 2 22 1 23 79 24
REMARK SMILES IDX 80 25 84 26 81 27 83 28 82 29 17 30 18 31 19 32 20 33 21 34
REMARK SMILES IDX 22 36 23 37 24 38 76 39 25 40 75 41 26 42 27 43 28 44 69 45
REMARK SMILES IDX 29 46 74 47 68 48 70 49 30 50 73 51 67 52 66 53 31 55 57 56
REMARK SMILES IDX 40 57 56 58 41 59 44 60 55 61 71 62 42 63 43 64 54 66 72 67
REMARK SMILES IDX 45 68 32 69 33 70 38 71 34 72 35 73 37 74 39 75 36 76 58 77
REMARK SMILES IDX 59 78 64 79 60 80 61 81 63 82 65 83 62 84 46 85 47 86 52 87
REMARK SMILES IDX 48 88 49 89 51 90 53 91 50 92
REMARK H PARENT 15 5 7 15 20 35 70 54 44 65
REMARK Flexibility Score: inf
ROOT
ATOM      1  C   UNL A   1      31.380  27.077  26.021  1.00  0.00     0.116 C 
ENDROOT
BRANCH   1   2
ATOM      2  N   UNL A   1      30.739  25.961  26.688  1.00  0.00    -0.353 N 
ATOM      3  C   UNL A   1      30.708  24.653  26.308  1.00  0.00     0.258 C 
ATOM      4  O   UNL A   1      30.086  23.849  27.006  1.00  0.00    -0.271 OA
ATOM      5  H   UNL A   1      30.265  26.177  27.524  1.00  0.00     0.163 HD
BRANCH   3   6
ATOM      6  C   UNL A   1      31.452  24.203  25.042  1.00  0.00     0.331 C 
BRANCH   6   7
ATOM      7  O   UNL A   1      31.251  22.869  24.606  1.00  0.00    -0.467 OA
BRANCH   7   8
ATOM      8  C   UNL A   1      32.309  22.007  24.686  1.00  0.00     0.219 A 
ATOM      9  C   UNL A   1      34.591  21.873  24.523  1.00  0.00     0.231 A 
ATOM     10  N   UNL A   1      33.493  22.635  24.587  1.00  0.00    -0.177 NA
ATOM     11  N   UNL A   1      34.572  20.537  24.625  1.00  0.00    -0.212 NA
ATOM     12  C   UNL A   1      33.380  19.936  24.765  1.00  0.00     0.081 A 
ATOM     13  C   UNL A   1      32.203  20.645  24.809  1.00  0.00     0.097 A 
BRANCH   9  14
ATOM     14  N   UNL A   1      35.794  22.528  24.266  1.00  0.00    -0.324 N 
ATOM     15  H   UNL A   1      35.810  23.099  23.464  1.00  0.00     0.170 HD
BRANCH  14  16
ATOM     16  C   UNL A   1      36.985  22.476  25.007  1.00  0.00     0.041 A 
ATOM     17  C   UNL A   1      39.373  22.323  26.525  1.00  0.00    -0.048 A 
ATOM     18  C   UNL A   1      38.618  23.497  26.500  1.00  0.00     0.006 A 
ATOM     19  C   UNL A   1      38.945  21.235  25.754  1.00  0.00     0.006 A 
ATOM     20  C   UNL A   1      37.448  23.571  25.747  1.00  0.00     0.026 A 
ATOM     21  C   UNL A   1      37.766  21.315  25.001  1.00  0.00     0.026 A 
BRANCH  17  22
ATOM     22  C   UNL A   1      40.621  22.250  27.366  1.00  0.00     0.032 C 
ATOM     23  C   UNL A   1      41.818  21.734  26.576  1.00  0.00     0.009 C 
ENDBRANCH  17  22
ENDBRANCH  14  16
ENDBRANCH   9  14
BRANCH  12  24
ATOM     24  C   UNL A   1      33.394  18.477  24.811  1.00  0.00     0.019 A 
ATOM     25  C   UNL A   1      34.183  17.721  23.934  1.00  0.00     0.013 A 
ATOM     26  C   UNL A   1      32.597  17.769  25.706  1.00  0.00     0.121 A 
ATOM     27  C   UNL A   1      34.129  16.330  23.967  1.00  0.00     0.021 A 
ATOM     28  N   UNL A   1      32.510  16.415  25.751  1.00  0.00    -0.264 NA
ATOM     29  C   UNL A   1      33.278  15.730  24.878  1.00  0.00     0.111 A 
ENDBRANCH  12  24
ENDBRANCH   7   8
ENDBRANCH   6   7
ENDBRANCH   3   6
ENDBRANCH   1   2
BRANCH   1  30
ATOM     30  C   UNL A   1      31.982  28.070  27.012  1.00  0.00     0.023 C 
BRANCH  30  31
ATOM     31  C   UNL A   1      31.412  29.491  26.939  1.00  0.00     0.023 C 
BRANCH  31  32
ATOM     32  C   UNL A   1      32.228  30.491  26.127  1.00  0.00     0.116 C 
BRANCH  32  33
ATOM     33  N   UNL A   1      31.977  31.873  26.501  1.00  0.00    -0.352 N 
ATOM     34  C   UNL A   1      32.698  32.697  27.332  1.00  0.00     0.251 C 
ATOM     35  H   UNL A   1      31.174  32.278  26.101  1.00  0.00     0.163 HD
ATOM     36  O   UNL A   1      32.260  33.807  27.627  1.00  0.00    -0.269 OA
BRANCH  34  37
ATOM     37  C   UNL A   1      33.984  32.240  27.902  1.00  0.00     0.039 A 
ATOM     38  C   UNL A   1      34.983  33.186  28.152  1.00  0.00     0.014 A 
ATOM     39  C   UNL A   1      34.208  30.893  28.195  1.00  0.00     0.014 A 
ATOM     40  C   UNL A   1      36.175  32.791  28.762  1.00  0.00     0.010 A 
ATOM     41  C   UNL A   1      35.365  30.513  28.873  1.00  0.00     0.010 A 
ATOM     42  C   UNL A   1      36.360  31.458  29.165  1.00  0.00    -0.014 A 
BRANCH  42  43
ATOM     43  C   UNL A   1      37.582  31.040  29.902  1.00  0.00     0.031 A 
ATOM     44  C   UNL A   1      38.600  30.151  29.244  1.00  0.00     0.074 A 
ATOM     45  C   UNL A   1      37.746  31.412  31.186  1.00  0.00     0.049 A 
ATOM     46  N   UNL A   1      39.695  29.633  29.743  1.00  0.00    -0.248 NA
ATOM     47  C   UNL A   1      38.341  29.772  27.845  1.00  0.00     0.031 C 
ATOM     48  C   UNL A   1      36.814  32.240  31.955  1.00  0.00     0.029 A 
ATOM     49  N   UNL A   1      38.755  31.135  32.077  1.00  0.00    -0.354 N 
ATOM     50  C   UNL A   1      40.248  28.865  28.726  1.00  0.00     0.074 A 
ATOM     51  C   UNL A   1      39.338  28.933  27.604  1.00  0.00     0.031 C 
ATOM     52  C   UNL A   1      37.308  32.427  33.189  1.00  0.00     0.029 A 
ATOM     53  C   UNL A   1      38.567  31.700  33.316  1.00  0.00     0.049 A 
ATOM     54  H   UNL A   1      39.539  30.585  31.849  1.00  0.00     0.167 HD
ATOM     55  C   UNL A   1      41.419  28.184  28.719  1.00  0.00     0.037 A 
ATOM     56  C   UNL A   1      39.319  31.632  34.431  1.00  0.00     0.037 A 
ATOM     57  C   UNL A   1      42.330  28.126  29.834  1.00  0.00     0.049 A 
ATOM     58  C   UNL A   1      40.598  30.841  34.408  1.00  0.00     0.074 A 
ATOM     59  C   UNL A   1      43.563  27.501  29.909  1.00  0.00     0.029 A 
ATOM     60  N   UNL A   1      42.101  28.709  31.072  1.00  0.00    -0.354 N 
ATOM     61  N   UNL A   1      41.141  30.173  33.419  1.00  0.00    -0.248 NA
ATOM     62  C   UNL A   1      41.371  30.798  35.658  1.00  0.00     0.031 C 
ATOM     63  C   UNL A   1      44.056  27.661  31.208  1.00  0.00     0.029 A 
ATOM     64  C   UNL A   1      43.158  28.435  31.925  1.00  0.00     0.049 A 
ATOM     65  H   UNL A   1      41.306  29.238  31.310  1.00  0.00     0.167 HD
ATOM     66  C   UNL A   1      42.333  29.660  33.916  1.00  0.00     0.074 A 
ATOM     67  C   UNL A   1      42.439  30.106  35.289  1.00  0.00     0.031 C 
ATOM     68  C   UNL A   1      43.257  28.891  33.290  1.00  0.00     0.037 A 
BRANCH  55  69
ATOM     69  C   UNL A   1      41.781  27.447  27.461  1.00  0.00     0.057 A 
ATOM     70  C   UNL A   1      42.468  28.069  26.410  1.00  0.00     0.134 A 
ATOM     71  C   UNL A   1      41.463  26.091  27.308  1.00  0.00     0.134 A 
ATOM     72  F   UNL A   1      42.795  29.368  26.485  1.00  0.00    -0.206 F 
ATOM     73  C   UNL A   1      42.794  27.381  25.239  1.00  0.00     0.040 A 
ATOM     74  C   UNL A   1      41.812  25.384  26.156  1.00  0.00     0.040 A 
ATOM     75  F   UNL A   1      40.815  25.429  28.278  1.00  0.00    -0.206 F 
ATOM     76  C   UNL A   1      42.471  26.031  25.113  1.00  0.00     0.006 A 
ENDBRANCH  55  69
BRANCH  56  77
ATOM     77  C   UNL A   1      38.898  32.353  35.659  1.00  0.00     0.057 A 
ATOM     78  C   UNL A   1      39.248  33.692  35.864  1.00  0.00     0.134 A 
ATOM     79  C   UNL A   1      38.153  31.722  36.663  1.00  0.00     0.134 A 
ATOM     80  F   UNL A   1      39.978  34.346  34.949  1.00  0.00    -0.206 F 
ATOM     81  C   UNL A   1      38.894  34.373  37.031  1.00  0.00     0.040 A 
ATOM     82  C   UNL A   1      37.767  32.398  37.822  1.00  0.00     0.040 A 
ATOM     83  F   UNL A   1      37.778  30.441  36.525  1.00  0.00    -0.206 F 
ATOM     84  C   UNL A   1      38.147  33.725  38.012  1.00  0.00     0.006 A 
ENDBRANCH  56  77
BRANCH  68  85
ATOM     85  C   UNL A   1      44.485  28.518  34.069  1.00  0.00     0.057 A 
ATOM     86  C   UNL A   1      44.562  27.336  34.817  1.00  0.00     0.134 A 
ATOM     87  C   UNL A   1      45.621  29.339  34.041  1.00  0.00     0.134 A 
ATOM     88  F   UNL A   1      43.506  26.513  34.897  1.00  0.00    -0.206 F 
ATOM     89  C   UNL A   1      45.713  26.997  35.530  1.00  0.00     0.040 A 
ATOM     90  C   UNL A   1      46.788  28.995  34.725  1.00  0.00     0.040 A 
ATOM     91  F   UNL A   1      45.621  30.480  33.336  1.00  0.00    -0.206 F 
ATOM     92  C   UNL A   1      46.834  27.824  35.478  1.00  0.00     0.006 A 
ENDBRANCH  68  85
ENDBRANCH  42  43
ENDBRANCH  34  37
ENDBRANCH  32  33
ENDBRANCH  31  32
ENDBRANCH  30  31
ENDBRANCH   1  30
TORSDOF 17
ENDMDL
