MODEL 1
REMARK VINA RESULT:     -12.0      0.000      0.000
REMARK SMILES CC1(C)CCN(S(=O)(=O)c2ccc(O)c(C(=O)NCCCCNC(=O)c3ccc(-c4c5nc(c(-c6c(F)cccc6F)c6ccc([nH]6)c(-c6c(F)cccc6F)c6nc(c(-c7c(F)cccc7F)c7ccc4[nH]7)C=C6)C=C5)cc3)c2)C1
REMARK SMILES IDX 20 1 19 2 18 3 16 4 17 5 15 7 10 8 11 9 80 10 12 11 13 12
REMARK SMILES IDX 7 13 8 14 9 15 6 16 1 17 2 18 3 19 4 20 81 21 5 22 14 23
REMARK SMILES IDX 21 25 22 26 23 27 24 28 25 30 26 31 27 32 79 33 28 34 78 35
REMARK SMILES IDX 29 36 30 37 31 38 72 39 32 40 77 41 71 42 73 43 33 44 76 45
REMARK SMILES IDX 70 46 69 47 34 49 60 50 43 51 59 52 44 53 47 54 58 55 74 56
REMARK SMILES IDX 45 57 46 58 57 60 75 61 48 62 35 63 36 64 41 65 37 66 38 67
REMARK SMILES IDX 40 68 42 69 39 70 61 71 62 72 67 73 63 74 64 75 66 76 68 77
REMARK SMILES IDX 65 78 49 79 50 80 55 81 51 82 52 83 54 84 56 85 53 86
REMARK H PARENT 18 6 14 24 23 29 73 48 47 59
REMARK Flexibility Score: inf
ROOT
ATOM      1  C   UNL A   1      41.256  21.269  27.091  1.00  0.00     0.023 C 
ENDROOT
BRANCH   1   2
ATOM      2  C   UNL A   1      42.026  20.168  27.833  1.00  0.00     0.116 C 
BRANCH   2   3
ATOM      3  N   UNL A   1      42.059  18.951  27.058  1.00  0.00    -0.352 N 
ATOM      4  C   UNL A   1      42.907  18.476  26.094  1.00  0.00     0.255 C 
ATOM      5  O   UNL A   1      42.608  17.363  25.646  1.00  0.00    -0.269 OA
ATOM      6  H   UNL A   1      41.320  18.335  27.266  1.00  0.00     0.163 HD
BRANCH   4   7
ATOM      7  C   UNL A   1      44.142  19.142  25.552  1.00  0.00     0.082 A 
ATOM      8  C   UNL A   1      45.041  21.317  24.842  1.00  0.00     0.083 A 
ATOM      9  C   UNL A   1      46.327  20.787  24.799  1.00  0.00     0.025 A 
ATOM     10  C   UNL A   1      43.961  20.507  25.214  1.00  0.00     0.039 A 
ATOM     11  C   UNL A   1      46.522  19.440  25.063  1.00  0.00     0.048 A 
ATOM     12  C   UNL A   1      45.447  18.630  25.453  1.00  0.00     0.128 A 
BRANCH   8  13
ATOM     13  S   UNL A   1      44.829  23.070  24.626  1.00  0.00     0.243 S 
ATOM     14  O   UNL A   1      43.405  23.316  24.506  1.00  0.00    -0.207 OA
ATOM     15  O   UNL A   1      45.748  23.518  23.605  1.00  0.00    -0.207 OA
BRANCH  13  16
ATOM     16  N   UNL A   1      45.341  23.752  26.105  1.00  0.00    -0.197 NA
ATOM     17  C   UNL A   1      45.816  24.763  29.068  1.00  0.00     0.012 C 
ATOM     18  C   UNL A   1      44.566  24.721  28.179  1.00  0.00    -0.020 C 
ATOM     19  C   UNL A   1      43.315  24.825  29.059  1.00  0.00     0.012 C 
ATOM     20  C   UNL A   1      44.596  25.806  27.105  1.00  0.00     0.024 C 
ATOM     21  C   UNL A   1      44.525  23.454  27.316  1.00  0.00     0.109 C 
ATOM     22  C   UNL A   1      45.524  25.237  26.037  1.00  0.00     0.103 C 
ENDBRANCH  13  16
ENDBRANCH   8  13
BRANCH  12  23
ATOM     23  O   UNL A   1      45.779  17.352  25.780  1.00  0.00    -0.507 OA
ATOM     24  H   UNL A   1      46.474  17.189  26.388  1.00  0.00     0.293 HD
ENDBRANCH  12  23
ENDBRANCH   4   7
ENDBRANCH   2   3
ENDBRANCH   1   2
BRANCH   1  25
ATOM     25  C   UNL A   1      40.775  22.428  27.961  1.00  0.00     0.023 C 
BRANCH  25  26
ATOM     26  C   UNL A   1      40.023  23.515  27.208  1.00  0.00     0.116 C 
BRANCH  26  27
ATOM     27  N   UNL A   1      40.778  24.099  26.108  1.00  0.00    -0.352 N 
ATOM     28  C   UNL A   1      41.163  25.408  25.947  1.00  0.00     0.251 C 
ATOM     29  H   UNL A   1      41.046  23.479  25.390  1.00  0.00     0.163 HD
ATOM     30  O   UNL A   1      41.733  25.778  24.927  1.00  0.00    -0.269 OA
BRANCH  28  31
ATOM     31  C   UNL A   1      40.825  26.377  27.006  1.00  0.00     0.039 A 
ATOM     32  C   UNL A   1      39.961  25.983  28.030  1.00  0.00     0.014 A 
ATOM     33  C   UNL A   1      41.419  27.641  27.023  1.00  0.00     0.014 A 
ATOM     34  C   UNL A   1      39.751  26.833  29.116  1.00  0.00     0.010 A 
ATOM     35  C   UNL A   1      41.267  28.455  28.138  1.00  0.00     0.010 A 
ATOM     36  C   UNL A   1      40.434  28.058  29.194  1.00  0.00    -0.014 A 
BRANCH  36  37
ATOM     37  C   UNL A   1      40.289  28.947  30.370  1.00  0.00     0.031 A 
ATOM     38  C   UNL A   1      39.233  30.016  30.370  1.00  0.00     0.074 A 
ATOM     39  C   UNL A   1      41.154  28.846  31.397  1.00  0.00     0.049 A 
ATOM     40  N   UNL A   1      39.008  30.956  31.250  1.00  0.00    -0.248 NA
ATOM     41  C   UNL A   1      38.330  30.050  29.208  1.00  0.00     0.031 C 
ATOM     42  C   UNL A   1      42.255  27.883  31.487  1.00  0.00     0.029 A 
ATOM     43  N   UNL A   1      41.254  29.574  32.554  1.00  0.00    -0.354 N 
ATOM     44  C   UNL A   1      37.955  31.703  30.739  1.00  0.00     0.074 A 
ATOM     45  C   UNL A   1      37.617  31.138  29.451  1.00  0.00     0.031 C 
ATOM     46  C   UNL A   1      42.906  28.069  32.648  1.00  0.00     0.029 A 
ATOM     47  C   UNL A   1      42.291  29.182  33.365  1.00  0.00     0.049 A 
ATOM     48  H   UNL A   1      40.640  30.309  32.783  1.00  0.00     0.167 HD
ATOM     49  C   UNL A   1      37.314  32.753  31.304  1.00  0.00     0.037 A 
ATOM     50  C   UNL A   1      42.701  29.670  34.550  1.00  0.00     0.037 A 
ATOM     51  C   UNL A   1      37.628  33.289  32.601  1.00  0.00     0.049 A 
ATOM     52  C   UNL A   1      41.959  30.824  35.165  1.00  0.00     0.074 A 
ATOM     53  C   UNL A   1      36.999  34.313  33.286  1.00  0.00     0.029 A 
ATOM     54  N   UNL A   1      38.660  32.837  33.409  1.00  0.00    -0.354 N 
ATOM     55  N   UNL A   1      40.926  31.483  34.699  1.00  0.00    -0.248 NA
ATOM     56  C   UNL A   1      42.433  31.295  36.474  1.00  0.00     0.031 C 
ATOM     57  C   UNL A   1      37.667  34.498  34.502  1.00  0.00     0.029 A 
ATOM     58  C   UNL A   1      38.691  33.567  34.585  1.00  0.00     0.049 A 
ATOM     59  H   UNL A   1      39.278  32.106  33.181  1.00  0.00     0.167 HD
ATOM     60  C   UNL A   1      40.611  32.428  35.666  1.00  0.00     0.074 A 
ATOM     61  C   UNL A   1      41.555  32.249  36.750  1.00  0.00     0.031 C 
ATOM     62  C   UNL A   1      39.627  33.360  35.659  1.00  0.00     0.037 A 
BRANCH  49  63
ATOM     63  C   UNL A   1      36.200  33.381  30.521  1.00  0.00     0.057 A 
ATOM     64  C   UNL A   1      36.452  34.224  29.431  1.00  0.00     0.134 A 
ATOM     65  C   UNL A   1      34.863  33.120  30.843  1.00  0.00     0.134 A 
ATOM     66  F   UNL A   1      37.713  34.526  29.082  1.00  0.00    -0.206 F 
ATOM     67  C   UNL A   1      35.413  34.806  28.703  1.00  0.00     0.040 A 
ATOM     68  C   UNL A   1      33.815  33.677  30.107  1.00  0.00     0.040 A 
ATOM     69  F   UNL A   1      34.553  32.319  31.873  1.00  0.00    -0.206 F 
ATOM     70  C   UNL A   1      34.089  34.527  29.037  1.00  0.00     0.006 A 
ENDBRANCH  49  63
BRANCH  50  71
ATOM     71  C   UNL A   1      43.855  29.054  35.251  1.00  0.00     0.057 A 
ATOM     72  C   UNL A   1      43.662  28.043  36.200  1.00  0.00     0.134 A 
ATOM     73  C   UNL A   1      45.169  29.462  35.000  1.00  0.00     0.134 A 
ATOM     74  F   UNL A   1      42.423  27.624  36.496  1.00  0.00    -0.206 F 
ATOM     75  C   UNL A   1      44.733  27.474  36.890  1.00  0.00     0.040 A 
ATOM     76  C   UNL A   1      46.252  28.887  35.666  1.00  0.00     0.040 A 
ATOM     77  F   UNL A   1      45.419  30.421  34.096  1.00  0.00    -0.206 F 
ATOM     78  C   UNL A   1      46.034  27.894  36.620  1.00  0.00     0.006 A 
ENDBRANCH  50  71
BRANCH  62  79
ATOM     79  C   UNL A   1      39.497  34.228  36.873  1.00  0.00     0.057 A 
ATOM     80  C   UNL A   1      39.997  35.534  36.904  1.00  0.00     0.134 A 
ATOM     81  C   UNL A   1      38.820  33.763  38.008  1.00  0.00     0.134 A 
ATOM     82  F   UNL A   1      40.666  36.031  35.852  1.00  0.00    -0.206 F 
ATOM     83  C   UNL A   1      39.843  36.346  38.028  1.00  0.00     0.040 A 
ATOM     84  C   UNL A   1      38.640  34.572  39.130  1.00  0.00     0.040 A 
ATOM     85  F   UNL A   1      38.311  32.522  38.037  1.00  0.00    -0.206 F 
ATOM     86  C   UNL A   1      39.156  35.866  39.144  1.00  0.00     0.006 A 
ENDBRANCH  62  79
ENDBRANCH  36  37
ENDBRANCH  28  31
ENDBRANCH  26  27
ENDBRANCH  25  26
ENDBRANCH   1  25
TORSDOF 14
ENDMDL
MODEL 2
REMARK VINA RESULT:     -12.0      5.631     10.915
REMARK SMILES CC1(C)CCN(S(=O)(=O)c2ccc(O)c(C(=O)NCCCCNC(=O)c3ccc(-c4c5nc(c(-c6c(F)cccc6F)c6ccc([nH]6)c(-c6c(F)cccc6F)c6nc(c(-c7c(F)cccc7F)c7ccc4[nH]7)C=C6)C=C5)cc3)c2)C1
REMARK SMILES IDX 20 1 19 2 18 3 16 4 17 5 15 7 10 8 11 9 80 10 12 11 13 12
REMARK SMILES IDX 7 13 8 14 9 15 6 16 1 17 2 18 3 19 4 20 81 21 5 22 14 23
REMARK SMILES IDX 21 25 22 26 23 27 24 28 25 30 26 31 27 32 79 33 28 34 78 35
REMARK SMILES IDX 29 36 30 37 31 38 72 39 32 40 77 41 71 42 73 43 33 44 76 45
REMARK SMILES IDX 70 46 69 47 34 49 60 50 43 51 59 52 44 53 47 54 58 55 74 56
REMARK SMILES IDX 45 57 46 58 57 60 75 61 48 62 35 63 36 64 41 65 37 66 38 67
REMARK SMILES IDX 40 68 42 69 39 70 61 71 62 72 67 73 63 74 64 75 66 76 68 77
REMARK SMILES IDX 65 78 49 79 50 80 55 81 51 82 52 83 54 84 56 85 53 86
REMARK H PARENT 18 6 14 24 23 29 73 48 47 59
REMARK Flexibility Score: inf
ROOT
ATOM      1  C   UNL A   1      37.081  21.053  24.558  1.00  0.00     0.023 C 
ENDROOT
BRANCH   1   2
ATOM      2  C   UNL A   1      36.910  22.154  25.613  1.00  0.00     0.116 C 
BRANCH   2   3
ATOM      3  N   UNL A   1      35.813  21.851  26.501  1.00  0.00    -0.352 N 
ATOM      4  C   UNL A   1      34.452  21.882  26.354  1.00  0.00     0.255 C 
ATOM      5  O   UNL A   1      33.816  21.547  27.361  1.00  0.00    -0.269 OA
ATOM      6  H   UNL A   1      36.103  21.563  27.396  1.00  0.00     0.163 HD
BRANCH   4   7
ATOM      7  C   UNL A   1      33.672  22.253  25.123  1.00  0.00     0.082 A 
ATOM      8  C   UNL A   1      33.086  24.150  23.675  1.00  0.00     0.083 A 
ATOM      9  C   UNL A   1      32.562  23.281  22.723  1.00  0.00     0.025 A 
ATOM     10  C   UNL A   1      33.635  23.645  24.860  1.00  0.00     0.039 A 
ATOM     11  C   UNL A   1      32.528  21.920  22.984  1.00  0.00     0.048 A 
ATOM     12  C   UNL A   1      33.093  21.407  24.160  1.00  0.00     0.128 A 
BRANCH   8  13
ATOM     13  S   UNL A   1      33.236  25.876  23.268  1.00  0.00     0.243 S 
ATOM     14  O   UNL A   1      33.619  25.953  21.872  1.00  0.00    -0.207 OA
ATOM     15  O   UNL A   1      34.029  26.518  24.292  1.00  0.00    -0.207 OA
BRANCH  13  16
ATOM     16  N   UNL A   1      31.647  26.489  23.396  1.00  0.00    -0.197 NA
ATOM     17  C   UNL A   1      28.819  27.886  23.127  1.00  0.00     0.012 C 
ATOM     18  C   UNL A   1      30.249  28.400  22.912  1.00  0.00    -0.020 C 
ATOM     19  C   UNL A   1      30.208  29.667  22.051  1.00  0.00     0.012 C 
ATOM     20  C   UNL A   1      30.972  28.636  24.237  1.00  0.00     0.024 C 
ATOM     21  C   UNL A   1      31.146  27.332  22.274  1.00  0.00     0.109 C 
ATOM     22  C   UNL A   1      31.408  27.241  24.669  1.00  0.00     0.103 C 
ENDBRANCH  13  16
ENDBRANCH   8  13
BRANCH  12  23
ATOM     23  O   UNL A   1      33.088  20.051  24.258  1.00  0.00    -0.507 OA
ATOM     24  H   UNL A   1      32.280  19.593  24.388  1.00  0.00     0.293 HD
ENDBRANCH  12  23
ENDBRANCH   4   7
ENDBRANCH   2   3
ENDBRANCH   1   2
BRANCH   1  25
ATOM     25  C   UNL A   1      37.910  19.849  25.000  1.00  0.00     0.023 C 
BRANCH  25  26
ATOM     26  C   UNL A   1      39.183  20.200  25.755  1.00  0.00     0.116 C 
BRANCH  26  27
ATOM     27  N   UNL A   1      40.157  19.119  25.801  1.00  0.00    -0.352 N 
ATOM     28  C   UNL A   1      41.500  19.201  26.079  1.00  0.00     0.251 C 
ATOM     29  H   UNL A   1      39.811  18.216  25.609  1.00  0.00     0.163 HD
ATOM     30  O   UNL A   1      42.222  18.213  26.007  1.00  0.00    -0.269 OA
BRANCH  28  31
ATOM     31  C   UNL A   1      42.071  20.520  26.413  1.00  0.00     0.039 A 
ATOM     32  C   UNL A   1      42.512  21.345  25.376  1.00  0.00     0.014 A 
ATOM     33  C   UNL A   1      42.100  20.962  27.737  1.00  0.00     0.014 A 
ATOM     34  C   UNL A   1      42.913  22.651  25.662  1.00  0.00     0.010 A 
ATOM     35  C   UNL A   1      42.430  22.283  28.012  1.00  0.00     0.010 A 
ATOM     36  C   UNL A   1      42.837  23.139  26.977  1.00  0.00    -0.014 A 
BRANCH  36  37
ATOM     37  C   UNL A   1      43.186  24.542  27.298  1.00  0.00     0.031 A 
ATOM     38  C   UNL A   1      44.621  24.981  27.256  1.00  0.00     0.074 A 
ATOM     39  C   UNL A   1      42.225  25.394  27.705  1.00  0.00     0.049 A 
ATOM     40  N   UNL A   1      45.145  26.129  27.598  1.00  0.00    -0.248 NA
ATOM     41  C   UNL A   1      45.602  23.985  26.798  1.00  0.00     0.031 C 
ATOM     42  C   UNL A   1      40.802  25.068  27.837  1.00  0.00     0.029 A 
ATOM     43  N   UNL A   1      42.303  26.706  28.098  1.00  0.00    -0.354 N 
ATOM     44  C   UNL A   1      46.514  25.986  27.417  1.00  0.00     0.074 A 
ATOM     45  C   UNL A   1      46.746  24.626  26.981  1.00  0.00     0.031 C 
ATOM     46  C   UNL A   1      40.141  26.158  28.262  1.00  0.00     0.029 A 
ATOM     47  C   UNL A   1      41.094  27.245  28.463  1.00  0.00     0.049 A 
ATOM     48  H   UNL A   1      43.147  27.213  28.115  1.00  0.00     0.167 HD
ATOM     49  C   UNL A   1      47.488  26.912  27.579  1.00  0.00     0.037 A 
ATOM     50  C   UNL A   1      40.792  28.477  28.914  1.00  0.00     0.037 A 
ATOM     51  C   UNL A   1      47.251  28.273  27.977  1.00  0.00     0.049 A 
ATOM     52  C   UNL A   1      41.890  29.492  29.065  1.00  0.00     0.074 A 
ATOM     53  C   UNL A   1      48.163  29.304  28.111  1.00  0.00     0.029 A 
ATOM     54  N   UNL A   1      46.006  28.792  28.298  1.00  0.00    -0.354 N 
ATOM     55  N   UNL A   1      43.173  29.361  28.833  1.00  0.00    -0.248 NA
ATOM     56  C   UNL A   1      41.497  30.829  29.533  1.00  0.00     0.031 C 
ATOM     57  C   UNL A   1      47.473  30.444  28.540  1.00  0.00     0.029 A 
ATOM     58  C   UNL A   1      46.127  30.129  28.639  1.00  0.00     0.049 A 
ATOM     59  H   UNL A   1      45.162  28.287  28.286  1.00  0.00     0.167 HD
ATOM     60  C   UNL A   1      43.736  30.602  29.100  1.00  0.00     0.074 A 
ATOM     61  C   UNL A   1      42.653  31.475  29.501  1.00  0.00     0.031 C 
ATOM     62  C   UNL A   1      45.034  30.985  29.019  1.00  0.00     0.037 A 
BRANCH  49  63
ATOM     63  C   UNL A   1      48.899  26.480  27.312  1.00  0.00     0.057 A 
ATOM     64  C   UNL A   1      49.719  25.981  28.332  1.00  0.00     0.134 A 
ATOM     65  C   UNL A   1      49.435  26.540  26.021  1.00  0.00     0.134 A 
ATOM     66  F   UNL A   1      49.270  25.913  29.595  1.00  0.00    -0.206 F 
ATOM     67  C   UNL A   1      51.032  25.578  28.081  1.00  0.00     0.040 A 
ATOM     68  C   UNL A   1      50.738  26.117  25.752  1.00  0.00     0.040 A 
ATOM     69  F   UNL A   1      48.700  27.005  24.999  1.00  0.00    -0.206 F 
ATOM     70  C   UNL A   1      51.542  25.640  26.786  1.00  0.00     0.006 A 
ENDBRANCH  49  63
BRANCH  50  71
ATOM     71  C   UNL A   1      39.387  28.830  29.229  1.00  0.00     0.057 A 
ATOM     72  C   UNL A   1      38.556  29.405  28.259  1.00  0.00     0.134 A 
ATOM     73  C   UNL A   1      38.842  28.615  30.499  1.00  0.00     0.134 A 
ATOM     74  F   UNL A   1      39.028  29.652  27.028  1.00  0.00    -0.206 F 
ATOM     75  C   UNL A   1      37.241  29.771  28.547  1.00  0.00     0.040 A 
ATOM     76  C   UNL A   1      37.521  28.956  30.796  1.00  0.00     0.040 A 
ATOM     77  F   UNL A   1      39.585  28.061  31.469  1.00  0.00    -0.206 F 
ATOM     78  C   UNL A   1      36.719  29.543  29.819  1.00  0.00     0.006 A 
ENDBRANCH  50  71
BRANCH  62  79
ATOM     79  C   UNL A   1      45.346  32.417  29.331  1.00  0.00     0.057 A 
ATOM     80  C   UNL A   1      45.720  32.827  30.614  1.00  0.00     0.134 A 
ATOM     81  C   UNL A   1      45.318  33.386  28.320  1.00  0.00     0.134 A 
ATOM     82  F   UNL A   1      45.754  31.947  31.628  1.00  0.00    -0.206 F 
ATOM     83  C   UNL A   1      46.040  34.157  30.889  1.00  0.00     0.040 A 
ATOM     84  C   UNL A   1      45.655  34.714  28.576  1.00  0.00     0.040 A 
ATOM     85  F   UNL A   1      44.974  33.053  27.067  1.00  0.00    -0.206 F 
ATOM     86  C   UNL A   1      46.014  35.104  29.865  1.00  0.00     0.006 A 
ENDBRANCH  62  79
ENDBRANCH  36  37
ENDBRANCH  28  31
ENDBRANCH  26  27
ENDBRANCH  25  26
ENDBRANCH   1  25
TORSDOF 14
ENDMDL
MODEL 3
REMARK VINA RESULT:     -11.9      4.884     10.023
REMARK SMILES CC1(C)CCN(S(=O)(=O)c2ccc(O)c(C(=O)NCCCCNC(=O)c3ccc(-c4c5nc(c(-c6c(F)cccc6F)c6ccc([nH]6)c(-c6c(F)cccc6F)c6nc(c(-c7c(F)cccc7F)c7ccc4[nH]7)C=C6)C=C5)cc3)c2)C1
REMARK SMILES IDX 20 1 19 2 18 3 16 4 17 5 15 7 10 8 11 9 80 10 12 11 13 12
REMARK SMILES IDX 7 13 8 14 9 15 6 16 1 17 2 18 3 19 4 20 81 21 5 22 14 23
REMARK SMILES IDX 21 25 22 26 23 27 24 28 25 30 26 31 27 32 79 33 28 34 78 35
REMARK SMILES IDX 29 36 30 37 31 38 72 39 32 40 77 41 71 42 73 43 33 44 76 45
REMARK SMILES IDX 70 46 69 47 34 49 60 50 43 51 59 52 44 53 47 54 58 55 74 56
REMARK SMILES IDX 45 57 46 58 57 60 75 61 48 62 35 63 36 64 41 65 37 66 38 67
REMARK SMILES IDX 40 68 42 69 39 70 61 71 62 72 67 73 63 74 64 75 66 76 68 77
REMARK SMILES IDX 65 78 49 79 50 80 55 81 51 82 52 83 54 84 56 85 53 86
REMARK H PARENT 18 6 14 24 23 29 73 48 47 59
REMARK Flexibility Score: inf
ROOT
ATOM      1  C   UNL A   1      39.162  22.699  26.420  1.00  0.00     0.023 C 
ENDROOT
BRANCH   1   2
ATOM      2  C   UNL A   1      37.998  23.641  26.089  1.00  0.00     0.116 C 
BRANCH   2   3
ATOM      3  N   UNL A   1      37.561  23.461  24.725  1.00  0.00    -0.352 N 
ATOM      4  C   UNL A   1      36.422  22.949  24.165  1.00  0.00     0.255 C 
ATOM      5  O   UNL A   1      36.405  22.959  22.928  1.00  0.00    -0.269 OA
ATOM      6  H   UNL A   1      38.218  23.771  24.060  1.00  0.00     0.163 HD
BRANCH   4   7
ATOM      7  C   UNL A   1      35.213  22.409  24.879  1.00  0.00     0.082 A 
ATOM      8  C   UNL A   1      32.965  23.024  25.661  1.00  0.00     0.083 A 
ATOM      9  C   UNL A   1      32.677  21.688  25.926  1.00  0.00     0.025 A 
ATOM     10  C   UNL A   1      34.217  23.381  25.143  1.00  0.00     0.039 A 
ATOM     11  C   UNL A   1      33.656  20.725  25.736  1.00  0.00     0.048 A 
ATOM     12  C   UNL A   1      34.903  21.076  25.201  1.00  0.00     0.128 A 
BRANCH   8  13
ATOM     13  S   UNL A   1      31.658  24.224  25.789  1.00  0.00     0.243 S 
ATOM     14  O   UNL A   1      31.254  24.266  27.181  1.00  0.00    -0.207 OA
ATOM     15  O   UNL A   1      30.695  23.963  24.744  1.00  0.00    -0.207 OA
BRANCH  13  16
ATOM     16  N   UNL A   1      32.407  25.716  25.430  1.00  0.00    -0.197 NA
ATOM     17  C   UNL A   1      33.763  28.575  25.337  1.00  0.00     0.012 C 
ATOM     18  C   UNL A   1      32.525  28.043  26.071  1.00  0.00    -0.020 C 
ATOM     19  C   UNL A   1      32.179  28.986  27.229  1.00  0.00     0.012 C 
ATOM     20  C   UNL A   1      31.343  27.849  25.124  1.00  0.00     0.024 C 
ATOM     21  C   UNL A   1      32.737  26.611  26.576  1.00  0.00     0.109 C 
ATOM     22  C   UNL A   1      31.648  26.528  24.426  1.00  0.00     0.103 C 
ENDBRANCH  13  16
ENDBRANCH   8  13
BRANCH  12  23
ATOM     23  O   UNL A   1      35.744  20.033  24.968  1.00  0.00    -0.507 OA
ATOM     24  H   UNL A   1      36.670  20.176  24.932  1.00  0.00     0.293 HD
ENDBRANCH  12  23
ENDBRANCH   4   7
ENDBRANCH   2   3
ENDBRANCH   1   2
BRANCH   1  25
ATOM     25  C   UNL A   1      39.139  21.354  25.696  1.00  0.00     0.023 C 
BRANCH  25  26
ATOM     26  C   UNL A   1      39.613  20.177  26.534  1.00  0.00     0.116 C 
BRANCH  26  27
ATOM     27  N   UNL A   1      40.702  19.424  25.929  1.00  0.00    -0.352 N 
ATOM     28  C   UNL A   1      42.022  19.788  25.815  1.00  0.00     0.251 C 
ATOM     29  H   UNL A   1      40.464  18.544  25.555  1.00  0.00     0.163 HD
ATOM     30  O   UNL A   1      42.821  19.084  25.209  1.00  0.00    -0.269 OA
BRANCH  28  31
ATOM     31  C   UNL A   1      42.450  21.077  26.391  1.00  0.00     0.039 A 
ATOM     32  C   UNL A   1      42.805  22.116  25.527  1.00  0.00     0.014 A 
ATOM     33  C   UNL A   1      42.426  21.276  27.773  1.00  0.00     0.014 A 
ATOM     34  C   UNL A   1      43.065  23.383  26.050  1.00  0.00     0.010 A 
ATOM     35  C   UNL A   1      42.613  22.554  28.285  1.00  0.00     0.010 A 
ATOM     36  C   UNL A   1      42.933  23.618  27.428  1.00  0.00    -0.014 A 
BRANCH  36  37
ATOM     37  C   UNL A   1      43.130  24.969  28.002  1.00  0.00     0.031 A 
ATOM     38  C   UNL A   1      44.492  25.384  28.480  1.00  0.00     0.074 A 
ATOM     39  C   UNL A   1      42.072  25.787  28.165  1.00  0.00     0.049 A 
ATOM     40  N   UNL A   1      44.853  26.476  29.101  1.00  0.00    -0.248 NA
ATOM     41  C   UNL A   1      45.588  24.428  28.257  1.00  0.00     0.031 C 
ATOM     42  C   UNL A   1      40.691  25.475  27.789  1.00  0.00     0.029 A 
ATOM     43  N   UNL A   1      41.993  27.045  28.707  1.00  0.00    -0.354 N 
ATOM     44  C   UNL A   1      46.209  26.329  29.361  1.00  0.00     0.074 A 
ATOM     45  C   UNL A   1      46.596  25.023  28.874  1.00  0.00     0.031 C 
ATOM     46  C   UNL A   1      39.906  26.522  28.095  1.00  0.00     0.029 A 
ATOM     47  C   UNL A   1      40.721  27.562  28.717  1.00  0.00     0.049 A 
ATOM     48  H   UNL A   1      42.775  27.531  29.056  1.00  0.00     0.167 HD
ATOM     49  C   UNL A   1      47.058  27.213  29.934  1.00  0.00     0.037 A 
ATOM     50  C   UNL A   1      40.264  28.740  29.180  1.00  0.00     0.037 A 
ATOM     51  C   UNL A   1      46.678  28.525  30.384  1.00  0.00     0.049 A 
ATOM     52  C   UNL A   1      41.233  29.712  29.794  1.00  0.00     0.074 A 
ATOM     53  C   UNL A   1      47.477  29.517  30.923  1.00  0.00     0.029 A 
ATOM     54  N   UNL A   1      45.387  29.027  30.338  1.00  0.00    -0.354 N 
ATOM     55  N   UNL A   1      42.524  29.584  29.980  1.00  0.00    -0.248 NA
ATOM     56  C   UNL A   1      40.682  30.994  30.256  1.00  0.00     0.031 C 
ATOM     57  C   UNL A   1      46.663  30.613  31.229  1.00  0.00     0.029 A 
ATOM     58  C   UNL A   1      45.364  30.314  30.848  1.00  0.00     0.049 A 
ATOM     59  H   UNL A   1      44.603  28.542  29.994  1.00  0.00     0.167 HD
ATOM     60  C   UNL A   1      42.945  30.777  30.554  1.00  0.00     0.074 A 
ATOM     61  C   UNL A   1      41.773  31.619  30.676  1.00  0.00     0.031 C 
ATOM     62  C   UNL A   1      44.190  31.142  30.944  1.00  0.00     0.037 A 
BRANCH  49  63
ATOM     63  C   UNL A   1      48.487  26.788  30.096  1.00  0.00     0.057 A 
ATOM     64  C   UNL A   1      49.458  27.093  29.132  1.00  0.00     0.134 A 
ATOM     65  C   UNL A   1      48.903  26.089  31.235  1.00  0.00     0.134 A 
ATOM     66  F   UNL A   1      49.120  27.747  28.009  1.00  0.00    -0.206 F 
ATOM     67  C   UNL A   1      50.788  26.696  29.285  1.00  0.00     0.040 A 
ATOM     68  C   UNL A   1      50.234  25.708  31.411  1.00  0.00     0.040 A 
ATOM     69  F   UNL A   1      48.024  25.768  32.196  1.00  0.00    -0.206 F 
ATOM     70  C   UNL A   1      51.180  26.007  30.431  1.00  0.00     0.006 A 
ENDBRANCH  49  63
BRANCH  50  71
ATOM     71  C   UNL A   1      38.826  29.082  29.057  1.00  0.00     0.057 A 
ATOM     72  C   UNL A   1      38.290  29.507  27.836  1.00  0.00     0.134 A 
ATOM     73  C   UNL A   1      37.957  29.003  30.150  1.00  0.00     0.134 A 
ATOM     74  F   UNL A   1      39.080  29.619  26.757  1.00  0.00    -0.206 F 
ATOM     75  C   UNL A   1      36.947  29.861  27.709  1.00  0.00     0.040 A 
ATOM     76  C   UNL A   1      36.605  29.333  30.034  1.00  0.00     0.040 A 
ATOM     77  F   UNL A   1      38.408  28.595  31.346  1.00  0.00    -0.206 F 
ATOM     78  C   UNL A   1      36.099  29.771  28.811  1.00  0.00     0.006 A 
ENDBRANCH  50  71
BRANCH  62  79
ATOM     79  C   UNL A   1      44.356  32.524  31.500  1.00  0.00     0.057 A 
ATOM     80  C   UNL A   1      44.266  32.782  32.871  1.00  0.00     0.134 A 
ATOM     81  C   UNL A   1      44.656  33.598  30.653  1.00  0.00     0.134 A 
ATOM     82  F   UNL A   1      43.969  31.796  33.732  1.00  0.00    -0.206 F 
ATOM     83  C   UNL A   1      44.453  34.067  33.384  1.00  0.00     0.040 A 
ATOM     84  C   UNL A   1      44.866  34.882  31.154  1.00  0.00     0.040 A 
ATOM     85  F   UNL A   1      44.763  33.413  29.329  1.00  0.00    -0.206 F 
ATOM     86  C   UNL A   1      44.761  35.120  32.523  1.00  0.00     0.006 A 
ENDBRANCH  62  79
ENDBRANCH  36  37
ENDBRANCH  28  31
ENDBRANCH  26  27
ENDBRANCH  25  26
ENDBRANCH   1  25
TORSDOF 14
ENDMDL
