MODEL 1
REMARK VINA RESULT:     -11.5      0.000      0.000
REMARK SMILES CC(C)C[C@H](C(=O)NCCCCNC(=O)c1ccc(-c2c3nc(c(-c4c(F)cccc4F)c4ccc([nH]4)c(-c4c(F)cccc4F)c4nc(c(-c5c(F)cccc5F)c5ccc2[nH]5)C=C4)C=C3)cc1)[C@@H]1CCO[C@]2(CCOC2)C1
REMARK SMILES IDX 10 1 9 2 8 3 6 4 7 5 5 7 4 8 2 9 1 10 3 11 70 12 71 13 79 14
REMARK SMILES IDX 72 15 74 16 73 17 75 18 78 19 76 20 77 21 11 22 12 23 13 24
REMARK SMILES IDX 14 25 15 27 16 28 17 29 69 30 18 31 68 32 19 33 20 34 21 35
REMARK SMILES IDX 62 36 22 37 67 38 61 39 63 40 23 41 66 42 60 43 59 44 24 46
REMARK SMILES IDX 50 47 33 48 49 49 34 50 37 51 48 52 64 53 35 54 36 55 47 57
REMARK SMILES IDX 65 58 38 59 25 60 26 61 31 62 27 63 28 64 30 65 32 66 29 67
REMARK SMILES IDX 51 68 52 69 57 70 53 71 54 72 56 73 58 74 55 75 39 76 40 77
REMARK SMILES IDX 45 78 41 79 42 80 44 81 46 82 43 83
REMARK H PARENT 8 6 13 26 63 45 37 56
REMARK Flexibility Score: inf
ROOT
ATOM      1  C   UNL A   1      36.896  21.003  24.703  1.00  0.00     0.023 C 
ENDROOT
BRANCH   1   2
ATOM      2  C   UNL A   1      36.706  22.132  25.725  1.00  0.00     0.116 C 
BRANCH   2   3
ATOM      3  N   UNL A   1      35.544  21.987  26.583  1.00  0.00    -0.356 N 
ATOM      4  C   UNL A   1      34.289  21.484  26.437  1.00  0.00     0.223 C 
ATOM      5  O   UNL A   1      33.704  21.318  27.517  1.00  0.00    -0.275 OA
ATOM      6  H   UNL A   1      35.703  22.337  27.488  1.00  0.00     0.163 HD
BRANCH   4   7
ATOM      7  C   UNL A   1      33.594  21.106  25.097  1.00  0.00     0.082 C 
BRANCH   7   8
ATOM      8  C   UNL A   1      33.263  19.558  25.171  1.00  0.00     0.016 C 
BRANCH   8   9
ATOM      9  C   UNL A   1      33.803  18.644  24.027  1.00  0.00    -0.017 C 
ATOM     10  C   UNL A   1      34.640  17.447  24.502  1.00  0.00     0.007 C 
ATOM     11  C   UNL A   1      32.625  18.071  23.226  1.00  0.00     0.007 C 
ENDBRANCH   8   9
ENDBRANCH   7   8
BRANCH   7  12
ATOM     12  C   UNL A   1      32.336  21.837  24.501  1.00  0.00     0.007 C 
ATOM     13  C   UNL A   1      32.189  21.753  22.990  1.00  0.00     0.033 C 
ATOM     14  C   UNL A   1      31.930  23.260  24.928  1.00  0.00     0.042 C 
ATOM     15  C   UNL A   1      32.904  22.853  22.262  1.00  0.00     0.161 C 
ATOM     16  C   UNL A   1      32.718  24.376  24.247  1.00  0.00     0.094 C 
ATOM     17  O   UNL A   1      32.948  24.143  22.856  1.00  0.00    -0.372 OA
ATOM     18  C   UNL A   1      33.944  24.703  25.097  1.00  0.00     0.066 C 
ATOM     19  C   UNL A   1      32.024  25.748  24.307  1.00  0.00     0.195 C 
ATOM     20  C   UNL A   1      33.644  25.960  25.888  1.00  0.00     0.163 C 
ATOM     21  O   UNL A   1      32.303  26.322  25.584  1.00  0.00    -0.378 OA
ENDBRANCH   7  12
ENDBRANCH   4   7
ENDBRANCH   2   3
ENDBRANCH   1   2
BRANCH   1  22
ATOM     22  C   UNL A   1      37.891  19.884  24.973  1.00  0.00     0.023 C 
BRANCH  22  23
ATOM     23  C   UNL A   1      39.137  20.292  25.710  1.00  0.00     0.116 C 
BRANCH  23  24
ATOM     24  N   UNL A   1      40.087  19.200  25.840  1.00  0.00    -0.352 N 
ATOM     25  C   UNL A   1      41.440  19.230  26.081  1.00  0.00     0.251 C 
ATOM     26  H   UNL A   1      39.702  18.299  25.739  1.00  0.00     0.163 HD
ATOM     27  O   UNL A   1      42.109  18.215  25.946  1.00  0.00    -0.269 OA
BRANCH  25  28
ATOM     28  C   UNL A   1      42.086  20.502  26.475  1.00  0.00     0.039 A 
ATOM     29  C   UNL A   1      42.628  21.327  25.487  1.00  0.00     0.014 A 
ATOM     30  C   UNL A   1      42.130  20.893  27.813  1.00  0.00     0.014 A 
ATOM     31  C   UNL A   1      43.131  22.581  25.839  1.00  0.00     0.010 A 
ATOM     32  C   UNL A   1      42.501  22.188  28.142  1.00  0.00     0.010 A 
ATOM     33  C   UNL A   1      43.020  23.043  27.161  1.00  0.00    -0.014 A 
BRANCH  33  34
ATOM     34  C   UNL A   1      43.448  24.408  27.549  1.00  0.00     0.031 A 
ATOM     35  C   UNL A   1      42.415  25.441  27.916  1.00  0.00     0.074 A 
ATOM     36  C   UNL A   1      44.753  24.737  27.494  1.00  0.00     0.049 A 
ATOM     37  N   UNL A   1      42.579  26.708  28.201  1.00  0.00    -0.248 NA
ATOM     38  C   UNL A   1      41.008  25.004  27.931  1.00  0.00     0.031 C 
ATOM     39  C   UNL A   1      45.840  23.841  27.086  1.00  0.00     0.029 A 
ATOM     40  N   UNL A   1      45.391  25.920  27.769  1.00  0.00    -0.354 N 
ATOM     41  C   UNL A   1      41.303  27.215  28.407  1.00  0.00     0.074 A 
ATOM     42  C   UNL A   1      40.370  26.141  28.156  1.00  0.00     0.031 C 
ATOM     43  C   UNL A   1      47.008  24.496  27.169  1.00  0.00     0.029 A 
ATOM     44  C   UNL A   1      46.753  25.869  27.587  1.00  0.00     0.049 A 
ATOM     45  H   UNL A   1      44.918  26.730  28.070  1.00  0.00     0.167 HD
ATOM     46  C   UNL A   1      40.943  28.459  28.800  1.00  0.00     0.037 A 
ATOM     47  C   UNL A   1      47.688  26.827  27.730  1.00  0.00     0.037 A 
ATOM     48  C   UNL A   1      41.880  29.511  29.087  1.00  0.00     0.049 A 
ATOM     49  C   UNL A   1      47.256  28.201  28.169  1.00  0.00     0.074 A 
ATOM     50  C   UNL A   1      41.625  30.781  29.570  1.00  0.00     0.029 A 
ATOM     51  N   UNL A   1      43.252  29.414  28.913  1.00  0.00    -0.354 N 
ATOM     52  N   UNL A   1      46.053  28.640  28.449  1.00  0.00    -0.248 NA
ATOM     53  C   UNL A   1      48.313  29.212  28.313  1.00  0.00     0.031 C 
ATOM     54  C   UNL A   1      42.838  31.473  29.636  1.00  0.00     0.029 A 
ATOM     55  C   UNL A   1      43.854  30.614  29.248  1.00  0.00     0.049 A 
ATOM     56  H   UNL A   1      43.726  28.611  28.598  1.00  0.00     0.167 HD
ATOM     57  C   UNL A   1      46.211  29.968  28.824  1.00  0.00     0.074 A 
ATOM     58  C   UNL A   1      47.630  30.254  28.761  1.00  0.00     0.031 C 
ATOM     59  C   UNL A   1      45.269  30.874  29.183  1.00  0.00     0.037 A 
BRANCH  46  60
ATOM     60  C   UNL A   1      39.479  28.750  28.959  1.00  0.00     0.057 A 
ATOM     61  C   UNL A   1      38.815  28.567  30.179  1.00  0.00     0.134 A 
ATOM     62  C   UNL A   1      38.738  29.281  27.894  1.00  0.00     0.134 A 
ATOM     63  F   UNL A   1      39.463  28.049  31.235  1.00  0.00    -0.206 F 
ATOM     64  C   UNL A   1      37.465  28.888  30.332  1.00  0.00     0.040 A 
ATOM     65  C   UNL A   1      37.396  29.631  28.043  1.00  0.00     0.040 A 
ATOM     66  F   UNL A   1      39.313  29.483  26.699  1.00  0.00    -0.206 F 
ATOM     67  C   UNL A   1      36.755  29.433  29.265  1.00  0.00     0.006 A 
ENDBRANCH  46  60
BRANCH  47  68
ATOM     68  C   UNL A   1      49.119  26.534  27.459  1.00  0.00     0.057 A 
ATOM     69  C   UNL A   1      49.667  26.709  26.183  1.00  0.00     0.134 A 
ATOM     70  C   UNL A   1      49.965  26.038  28.460  1.00  0.00     0.134 A 
ATOM     71  F   UNL A   1      48.906  27.164  25.178  1.00  0.00    -0.206 F 
ATOM     72  C   UNL A   1      50.993  26.370  25.902  1.00  0.00     0.040 A 
ATOM     73  C   UNL A   1      51.301  25.725  28.200  1.00  0.00     0.040 A 
ATOM     74  F   UNL A   1      49.508  25.856  29.706  1.00  0.00    -0.206 F 
ATOM     75  C   UNL A   1      51.815  25.880  26.913  1.00  0.00     0.006 A 
ENDBRANCH  47  68
BRANCH  59  76
ATOM     76  C   UNL A   1      45.745  32.247  29.557  1.00  0.00     0.057 A 
ATOM     77  C   UNL A   1      46.136  32.562  30.864  1.00  0.00     0.134 A 
ATOM     78  C   UNL A   1      45.850  33.254  28.589  1.00  0.00     0.134 A 
ATOM     79  F   UNL A   1      46.047  31.645  31.840  1.00  0.00    -0.206 F 
ATOM     80  C   UNL A   1      46.590  33.837  31.201  1.00  0.00     0.040 A 
ATOM     81  C   UNL A   1      46.333  34.522  28.907  1.00  0.00     0.040 A 
ATOM     82  F   UNL A   1      45.503  33.014  27.315  1.00  0.00    -0.206 F 
ATOM     83  C   UNL A   1      46.696  34.819  30.218  1.00  0.00     0.006 A 
ENDBRANCH  59  76
ENDBRANCH  33  34
ENDBRANCH  25  28
ENDBRANCH  23  24
ENDBRANCH  22  23
ENDBRANCH   1  22
TORSDOF 14
ENDMDL
MODEL 2
REMARK VINA RESULT:     -11.5      5.283     10.452
REMARK SMILES CC(C)C[C@H](C(=O)NCCCCNC(=O)c1ccc(-c2c3nc(c(-c4c(F)cccc4F)c4ccc([nH]4)c(-c4c(F)cccc4F)c4nc(c(-c5c(F)cccc5F)c5ccc2[nH]5)C=C4)C=C3)cc1)[C@@H]1CCO[C@]2(CCOC2)C1
REMARK SMILES IDX 10 1 9 2 8 3 6 4 7 5 5 7 4 8 2 9 1 10 3 11 70 12 71 13 79 14
REMARK SMILES IDX 72 15 74 16 73 17 75 18 78 19 76 20 77 21 11 22 12 23 13 24
REMARK SMILES IDX 14 25 15 27 16 28 17 29 69 30 18 31 68 32 19 33 20 34 21 35
REMARK SMILES IDX 62 36 22 37 67 38 61 39 63 40 23 41 66 42 60 43 59 44 24 46
REMARK SMILES IDX 50 47 33 48 49 49 34 50 37 51 48 52 64 53 35 54 36 55 47 57
REMARK SMILES IDX 65 58 38 59 25 60 26 61 31 62 27 63 28 64 30 65 32 66 29 67
REMARK SMILES IDX 51 68 52 69 57 70 53 71 54 72 56 73 58 74 55 75 39 76 40 77
REMARK SMILES IDX 45 78 41 79 42 80 44 81 46 82 43 83
REMARK H PARENT 8 6 13 26 63 45 37 56
REMARK Flexibility Score: inf
ROOT
ATOM      1  C   UNL A   1      31.695  30.480  26.266  1.00  0.00     0.023 C 
ENDROOT
BRANCH   1   2
ATOM      2  C   UNL A   1      33.100  29.912  26.029  1.00  0.00     0.116 C 
BRANCH   2   3
ATOM      3  N   UNL A   1      33.379  29.531  24.657  1.00  0.00    -0.356 N 
ATOM      4  C   UNL A   1      32.649  29.038  23.621  1.00  0.00     0.223 C 
ATOM      5  O   UNL A   1      33.240  29.109  22.533  1.00  0.00    -0.275 OA
ATOM      6  H   UNL A   1      34.325  29.662  24.418  1.00  0.00     0.163 HD
BRANCH   4   7
ATOM      7  C   UNL A   1      31.210  28.451  23.700  1.00  0.00     0.082 C 
BRANCH   7   8
ATOM      8  C   UNL A   1      30.277  29.401  22.840  1.00  0.00     0.016 C 
BRANCH   8   9
ATOM      9  C   UNL A   1      29.002  29.983  23.526  1.00  0.00    -0.017 C 
ATOM     10  C   UNL A   1      28.966  31.515  23.620  1.00  0.00     0.007 C 
ATOM     11  C   UNL A   1      27.754  29.558  22.739  1.00  0.00     0.007 C 
ENDBRANCH   8   9
ENDBRANCH   7   8
BRANCH   7  12
ATOM     12  C   UNL A   1      30.826  26.965  23.357  1.00  0.00     0.007 C 
ATOM     13  C   UNL A   1      29.543  26.460  23.997  1.00  0.00     0.033 C 
ATOM     14  C   UNL A   1      31.851  25.817  23.405  1.00  0.00     0.042 C 
ATOM     15  C   UNL A   1      29.752  25.865  25.358  1.00  0.00     0.161 C 
ATOM     16  C   UNL A   1      32.125  25.269  24.803  1.00  0.00     0.094 C 
ATOM     17  O   UNL A   1      30.949  25.139  25.604  1.00  0.00    -0.372 OA
ATOM     18  C   UNL A   1      33.288  26.045  25.417  1.00  0.00     0.066 C 
ATOM     19  C   UNL A   1      32.758  23.867  24.804  1.00  0.00     0.195 C 
ATOM     20  C   UNL A   1      34.537  25.197  25.289  1.00  0.00     0.163 C 
ATOM     21  O   UNL A   1      34.161  24.021  24.583  1.00  0.00    -0.378 OA
ENDBRANCH   7  12
ENDBRANCH   4   7
ENDBRANCH   2   3
ENDBRANCH   1   2
BRANCH   1  22
ATOM     22  C   UNL A   1      31.505  31.963  26.547  1.00  0.00     0.023 C 
BRANCH  22  23
ATOM     23  C   UNL A   1      32.628  32.627  27.294  1.00  0.00     0.116 C 
BRANCH  23  24
ATOM     24  N   UNL A   1      32.367  34.033  27.554  1.00  0.00    -0.352 N 
ATOM     25  C   UNL A   1      32.945  34.887  28.463  1.00  0.00     0.251 C 
ATOM     26  H   UNL A   1      31.666  34.437  26.992  1.00  0.00     0.163 HD
ATOM     27  O   UNL A   1      32.445  35.981  28.680  1.00  0.00    -0.269 OA
BRANCH  25  28
ATOM     28  C   UNL A   1      34.158  34.462  29.198  1.00  0.00     0.039 A 
ATOM     29  C   UNL A   1      34.021  33.859  30.450  1.00  0.00     0.014 A 
ATOM     30  C   UNL A   1      35.425  34.630  28.639  1.00  0.00     0.014 A 
ATOM     31  C   UNL A   1      35.149  33.349  31.095  1.00  0.00     0.010 A 
ATOM     32  C   UNL A   1      36.521  34.004  29.213  1.00  0.00     0.010 A 
ATOM     33  C   UNL A   1      36.399  33.367  30.455  1.00  0.00    -0.014 A 
BRANCH  33  34
ATOM     34  C   UNL A   1      37.597  32.742  31.064  1.00  0.00     0.031 A 
ATOM     35  C   UNL A   1      38.214  31.526  30.424  1.00  0.00     0.074 A 
ATOM     36  C   UNL A   1      38.077  33.218  32.229  1.00  0.00     0.049 A 
ATOM     37  N   UNL A   1      39.208  30.786  30.845  1.00  0.00    -0.248 NA
ATOM     38  C   UNL A   1      37.615  31.057  29.163  1.00  0.00     0.031 C 
ATOM     39  C   UNL A   1      37.520  34.349  32.979  1.00  0.00     0.029 A 
ATOM     40  N   UNL A   1      39.136  32.806  32.997  1.00  0.00    -0.354 N 
ATOM     41  C   UNL A   1      39.335  29.762  29.916  1.00  0.00     0.074 A 
ATOM     42  C   UNL A   1      38.283  29.936  28.941  1.00  0.00     0.031 C 
ATOM     43  C   UNL A   1      38.261  34.557  34.079  1.00  0.00     0.029 A 
ATOM     44  C   UNL A   1      39.313  33.550  34.140  1.00  0.00     0.049 A 
ATOM     45  H   UNL A   1      39.716  32.048  32.753  1.00  0.00     0.167 HD
ATOM     46  C   UNL A   1      40.266  28.782  29.863  1.00  0.00     0.037 A 
ATOM     47  C   UNL A   1      40.215  33.423  35.131  1.00  0.00     0.037 A 
ATOM     48  C   UNL A   1      41.335  28.639  30.814  1.00  0.00     0.049 A 
ATOM     49  C   UNL A   1      41.238  32.322  35.044  1.00  0.00     0.074 A 
ATOM     50  C   UNL A   1      42.378  27.731  30.806  1.00  0.00     0.029 A 
ATOM     51  N   UNL A   1      41.494  29.426  31.945  1.00  0.00    -0.354 N 
ATOM     52  N   UNL A   1      41.402  31.418  34.109  1.00  0.00    -0.248 NA
ATOM     53  C   UNL A   1      42.203  32.227  36.148  1.00  0.00     0.031 C 
ATOM     54  C   UNL A   1      43.137  27.932  31.962  1.00  0.00     0.029 A 
ATOM     55  C   UNL A   1      42.600  29.002  32.660  1.00  0.00     0.049 A 
ATOM     56  H   UNL A   1      40.907  30.174  32.199  1.00  0.00     0.167 HD
ATOM     57  C   UNL A   1      42.499  30.662  34.500  1.00  0.00     0.074 A 
ATOM     58  C   UNL A   1      42.977  31.232  35.743  1.00  0.00     0.031 C 
ATOM     59  C   UNL A   1      43.061  29.588  33.892  1.00  0.00     0.037 A 
BRANCH  46  60
ATOM     60  C   UNL A   1      40.183  27.794  28.736  1.00  0.00     0.057 A 
ATOM     61  C   UNL A   1      40.838  28.006  27.515  1.00  0.00     0.134 A 
ATOM     62  C   UNL A   1      39.493  26.585  28.895  1.00  0.00     0.134 A 
ATOM     63  F   UNL A   1      41.506  29.149  27.291  1.00  0.00    -0.206 F 
ATOM     64  C   UNL A   1      40.798  27.060  26.490  1.00  0.00     0.040 A 
ATOM     65  C   UNL A   1      39.469  25.620  27.888  1.00  0.00     0.040 A 
ATOM     66  F   UNL A   1      38.846  26.317  30.039  1.00  0.00    -0.206 F 
ATOM     67  C   UNL A   1      40.122  25.857  26.680  1.00  0.00     0.006 A 
ENDBRANCH  46  60
BRANCH  47  68
ATOM     68  C   UNL A   1      40.201  34.353  36.290  1.00  0.00     0.057 A 
ATOM     69  C   UNL A   1      39.495  34.046  37.459  1.00  0.00     0.134 A 
ATOM     70  C   UNL A   1      40.863  35.587  36.245  1.00  0.00     0.134 A 
ATOM     71  F   UNL A   1      38.826  32.889  37.558  1.00  0.00    -0.206 F 
ATOM     72  C   UNL A   1      39.417  34.943  38.526  1.00  0.00     0.040 A 
ATOM     73  C   UNL A   1      40.821  36.480  37.317  1.00  0.00     0.040 A 
ATOM     74  F   UNL A   1      41.567  35.939  35.160  1.00  0.00    -0.206 F 
ATOM     75  C   UNL A   1      40.085  36.164  38.458  1.00  0.00     0.006 A 
ENDBRANCH  47  68
BRANCH  59  76
ATOM     76  C   UNL A   1      44.264  28.979  34.549  1.00  0.00     0.057 A 
ATOM     77  C   UNL A   1      45.561  29.437  34.282  1.00  0.00     0.134 A 
ATOM     78  C   UNL A   1      44.120  27.950  35.488  1.00  0.00     0.134 A 
ATOM     79  F   UNL A   1      45.767  30.411  33.383  1.00  0.00    -0.206 F 
ATOM     80  C   UNL A   1      46.674  28.873  34.906  1.00  0.00     0.040 A 
ATOM     81  C   UNL A   1      45.223  27.401  36.142  1.00  0.00     0.040 A 
ATOM     82  F   UNL A   1      42.904  27.474  35.797  1.00  0.00    -0.206 F 
ATOM     83  C   UNL A   1      46.504  27.857  35.846  1.00  0.00     0.006 A 
ENDBRANCH  59  76
ENDBRANCH  33  34
ENDBRANCH  25  28
ENDBRANCH  23  24
ENDBRANCH  22  23
ENDBRANCH   1  22
TORSDOF 14
ENDMDL
MODEL 3
REMARK VINA RESULT:     -11.5      5.052      9.764
REMARK SMILES CC(C)C[C@H](C(=O)NCCCCNC(=O)c1ccc(-c2c3nc(c(-c4c(F)cccc4F)c4ccc([nH]4)c(-c4c(F)cccc4F)c4nc(c(-c5c(F)cccc5F)c5ccc2[nH]5)C=C4)C=C3)cc1)[C@@H]1CCO[C@]2(CCOC2)C1
REMARK SMILES IDX 10 1 9 2 8 3 6 4 7 5 5 7 4 8 2 9 1 10 3 11 70 12 71 13 79 14
REMARK SMILES IDX 72 15 74 16 73 17 75 18 78 19 76 20 77 21 11 22 12 23 13 24
REMARK SMILES IDX 14 25 15 27 16 28 17 29 69 30 18 31 68 32 19 33 20 34 21 35
REMARK SMILES IDX 62 36 22 37 67 38 61 39 63 40 23 41 66 42 60 43 59 44 24 46
REMARK SMILES IDX 50 47 33 48 49 49 34 50 37 51 48 52 64 53 35 54 36 55 47 57
REMARK SMILES IDX 65 58 38 59 25 60 26 61 31 62 27 63 28 64 30 65 32 66 29 67
REMARK SMILES IDX 51 68 52 69 57 70 53 71 54 72 56 73 58 74 55 75 39 76 40 77
REMARK SMILES IDX 45 78 41 79 42 80 44 81 46 82 43 83
REMARK H PARENT 8 6 13 26 63 45 37 56
REMARK Flexibility Score: inf
ROOT
ATOM      1  C   UNL A   1      31.502  30.815  26.005  1.00  0.00     0.023 C 
ENDROOT
BRANCH   1   2
ATOM      2  C   UNL A   1      32.868  30.118  25.939  1.00  0.00     0.116 C 
BRANCH   2   3
ATOM      3  N   UNL A   1      33.225  29.601  24.631  1.00  0.00    -0.356 N 
ATOM      4  C   UNL A   1      32.556  28.997  23.613  1.00  0.00     0.223 C 
ATOM      5  O   UNL A   1      33.207  28.962  22.558  1.00  0.00    -0.275 OA
ATOM      6  H   UNL A   1      34.182  29.717  24.433  1.00  0.00     0.163 HD
BRANCH   4   7
ATOM      7  C   UNL A   1      31.118  28.407  23.672  1.00  0.00     0.082 C 
BRANCH   7   8
ATOM      8  C   UNL A   1      30.199  29.342  22.783  1.00  0.00     0.016 C 
BRANCH   8   9
ATOM      9  C   UNL A   1      28.923  29.950  23.445  1.00  0.00    -0.017 C 
ATOM     10  C   UNL A   1      28.863  31.485  23.432  1.00  0.00     0.007 C 
ATOM     11  C   UNL A   1      27.672  29.451  22.708  1.00  0.00     0.007 C 
ENDBRANCH   8   9
ENDBRANCH   7   8
BRANCH   7  12
ATOM     12  C   UNL A   1      30.745  26.915  23.342  1.00  0.00     0.007 C 
ATOM     13  C   UNL A   1      29.462  26.408  23.981  1.00  0.00     0.033 C 
ATOM     14  C   UNL A   1      31.777  25.774  23.404  1.00  0.00     0.042 C 
ATOM     15  C   UNL A   1      29.670  25.826  25.349  1.00  0.00     0.161 C 
ATOM     16  C   UNL A   1      32.049  25.241  24.809  1.00  0.00     0.094 C 
ATOM     17  O   UNL A   1      30.870  25.111  25.606  1.00  0.00    -0.372 OA
ATOM     18  C   UNL A   1      33.205  26.030  25.420  1.00  0.00     0.066 C 
ATOM     19  C   UNL A   1      32.691  23.843  24.825  1.00  0.00     0.195 C 
ATOM     20  C   UNL A   1      34.459  25.189  25.306  1.00  0.00     0.163 C 
ATOM     21  O   UNL A   1      34.093  24.004  24.609  1.00  0.00    -0.378 OA
ENDBRANCH   7  12
ENDBRANCH   4   7
ENDBRANCH   2   3
ENDBRANCH   1   2
BRANCH   1  22
ATOM     22  C   UNL A   1      31.331  32.093  26.812  1.00  0.00     0.023 C 
BRANCH  22  23
ATOM     23  C   UNL A   1      32.608  32.770  27.226  1.00  0.00     0.116 C 
BRANCH  23  24
ATOM     24  N   UNL A   1      32.403  34.158  27.604  1.00  0.00    -0.352 N 
ATOM     25  C   UNL A   1      33.028  34.913  28.568  1.00  0.00     0.251 C 
ATOM     26  H   UNL A   1      31.708  34.631  27.091  1.00  0.00     0.163 HD
ATOM     27  O   UNL A   1      32.572  36.003  28.884  1.00  0.00    -0.269 OA
BRANCH  25  28
ATOM     28  C   UNL A   1      34.236  34.387  29.242  1.00  0.00     0.039 A 
ATOM     29  C   UNL A   1      34.096  33.667  30.431  1.00  0.00     0.014 A 
ATOM     30  C   UNL A   1      35.501  34.578  28.686  1.00  0.00     0.014 A 
ATOM     31  C   UNL A   1      35.217  33.067  31.007  1.00  0.00     0.010 A 
ATOM     32  C   UNL A   1      36.586  33.870  29.180  1.00  0.00     0.010 A 
ATOM     33  C   UNL A   1      36.460  33.118  30.356  1.00  0.00    -0.014 A 
BRANCH  33  34
ATOM     34  C   UNL A   1      37.648  32.405  30.885  1.00  0.00     0.031 A 
ATOM     35  C   UNL A   1      38.352  32.929  32.108  1.00  0.00     0.074 A 
ATOM     36  C   UNL A   1      38.135  31.339  30.220  1.00  0.00     0.049 A 
ATOM     37  N   UNL A   1      39.451  32.500  32.676  1.00  0.00    -0.248 NA
ATOM     38  C   UNL A   1      37.767  34.112  32.763  1.00  0.00     0.031 C 
ATOM     39  C   UNL A   1      37.578  30.781  28.984  1.00  0.00     0.029 A 
ATOM     40  N   UNL A   1      39.218  30.538  30.483  1.00  0.00    -0.354 N 
ATOM     41  C   UNL A   1      39.693  33.369  33.732  1.00  0.00     0.074 A 
ATOM     42  C   UNL A   1      38.666  34.385  33.694  1.00  0.00     0.031 C 
ATOM     43  C   UNL A   1      38.303  29.713  28.616  1.00  0.00     0.029 A 
ATOM     44  C   UNL A   1      39.402  29.538  29.557  1.00  0.00     0.049 A 
ATOM     45  H   UNL A   1      39.807  30.668  31.261  1.00  0.00     0.167 HD
ATOM     46  C   UNL A   1      40.668  33.308  34.668  1.00  0.00     0.037 A 
ATOM     47  C   UNL A   1      40.359  28.595  29.473  1.00  0.00     0.037 A 
ATOM     48  C   UNL A   1      41.662  32.271  34.723  1.00  0.00     0.049 A 
ATOM     49  C   UNL A   1      41.430  28.552  30.530  1.00  0.00     0.074 A 
ATOM     50  C   UNL A   1      42.644  32.070  35.676  1.00  0.00     0.029 A 
ATOM     51  N   UNL A   1      41.802  31.263  33.782  1.00  0.00    -0.354 N 
ATOM     52  N   UNL A   1      41.592  29.326  31.575  1.00  0.00    -0.248 NA
ATOM     53  C   UNL A   1      42.451  27.504  30.395  1.00  0.00     0.031 C 
ATOM     54  C   UNL A   1      43.414  30.972  35.283  1.00  0.00     0.029 A 
ATOM     55  C   UNL A   1      42.876  30.456  34.114  1.00  0.00     0.049 A 
ATOM     56  H   UNL A   1      41.224  31.140  32.995  1.00  0.00     0.167 HD
ATOM     57  C   UNL A   1      42.715  28.845  32.235  1.00  0.00     0.074 A 
ATOM     58  C   UNL A   1      43.178  27.696  31.485  1.00  0.00     0.031 C 
ATOM     59  C   UNL A   1      43.316  29.313  33.356  1.00  0.00     0.037 A 
BRANCH  46  60
ATOM     60  C   UNL A   1      40.702  34.379  35.718  1.00  0.00     0.057 A 
ATOM     61  C   UNL A   1      41.452  35.552  35.557  1.00  0.00     0.134 A 
ATOM     62  C   UNL A   1      39.922  34.267  36.878  1.00  0.00     0.134 A 
ATOM     63  F   UNL A   1      42.231  35.717  34.476  1.00  0.00    -0.206 F 
ATOM     64  C   UNL A   1      41.438  36.567  36.515  1.00  0.00     0.040 A 
ATOM     65  C   UNL A   1      39.879  35.287  37.829  1.00  0.00     0.040 A 
ATOM     66  F   UNL A   1      39.179  33.172  37.094  1.00  0.00    -0.206 F 
ATOM     67  C   UNL A   1      40.640  36.440  37.650  1.00  0.00     0.006 A 
ENDBRANCH  46  60
BRANCH  47  68
ATOM     68  C   UNL A   1      40.357  27.614  28.356  1.00  0.00     0.057 A 
ATOM     69  C   UNL A   1      39.687  26.390  28.467  1.00  0.00     0.134 A 
ATOM     70  C   UNL A   1      41.054  27.860  27.166  1.00  0.00     0.134 A 
ATOM     71  F   UNL A   1      39.016  26.087  29.587  1.00  0.00    -0.206 F 
ATOM     72  C   UNL A   1      39.737  25.433  27.452  1.00  0.00     0.040 A 
ATOM     73  C   UNL A   1      41.086  26.924  26.130  1.00  0.00     0.040 A 
ATOM     74  F   UNL A   1      41.709  29.016  26.990  1.00  0.00    -0.206 F 
ATOM     75  C   UNL A   1      40.436  25.701  26.277  1.00  0.00     0.006 A 
ENDBRANCH  47  68
BRANCH  59  76
ATOM     76  C   UNL A   1      44.521  28.568  33.850  1.00  0.00     0.057 A 
ATOM     77  C   UNL A   1      44.407  27.467  34.708  1.00  0.00     0.134 A 
ATOM     78  C   UNL A   1      45.806  28.933  33.431  1.00  0.00     0.134 A 
ATOM     79  F   UNL A   1      43.205  27.075  35.156  1.00  0.00    -0.206 F 
ATOM     80  C   UNL A   1      45.532  26.772  35.153  1.00  0.00     0.040 A 
ATOM     81  C   UNL A   1      46.935  28.226  33.843  1.00  0.00     0.040 A 
ATOM     82  F   UNL A   1      45.983  29.971  32.599  1.00  0.00    -0.206 F 
ATOM     83  C   UNL A   1      46.800  27.148  34.713  1.00  0.00     0.006 A 
ENDBRANCH  59  76
ENDBRANCH  33  34
ENDBRANCH  25  28
ENDBRANCH  23  24
ENDBRANCH  22  23
ENDBRANCH   1  22
TORSDOF 14
ENDMDL
