MODEL 1
REMARK VINA RESULT:     -12.4      0.000      0.000
REMARK SMILES O=C(NCCCCNC(=O)[C@@H]1[C@@H](C(=O)Nc2ccc(F)c(F)c2)[C@H]2CC[C@@H]1O2)c1ccc(-c2c3nc(c(-c4c(F)cccc4F)c4ccc([nH]4)c(-c4c(F)cccc4F)c4nc(c(-c5c(F)cccc5F)c5ccc2[nH]5)C=C4)C=C3)cc1
REMARK SMILES IDX 5 1 4 2 3 3 1 4 2 5 29 7 30 8 82 9 31 10 81 11 32 12 33 13
REMARK SMILES IDX 34 14 75 15 35 16 80 17 74 18 76 19 36 20 79 21 73 22 72 23
REMARK SMILES IDX 37 25 63 26 46 27 62 28 47 29 50 30 61 31 77 32 48 33 49 34
REMARK SMILES IDX 60 36 78 37 51 38 38 39 39 40 44 41 40 42 41 43 43 44 45 45
REMARK SMILES IDX 42 46 64 47 65 48 70 49 66 50 67 51 69 52 71 53 68 54 52 55
REMARK SMILES IDX 53 56 58 57 54 58 55 59 57 60 59 61 56 62 6 63 7 64 8 65
REMARK SMILES IDX 9 66 10 68 11 69 12 70 27 71 24 72 26 73 28 74 25 75 13 76
REMARK SMILES IDX 14 77 15 78 16 80 17 81 23 82 18 83 21 84 19 85 22 86 20 87
REMARK H PARENT 3 6 76 24 50 35 8 67 15 79
REMARK Flexibility Score: inf
ROOT
ATOM      1  C   UNL A   1      33.477  29.134  27.349  1.00  0.00     0.023 C 
ENDROOT
BRANCH   1   2
ATOM      2  C   UNL A   1      34.820  29.810  27.551  1.00  0.00     0.116 C 
BRANCH   2   3
ATOM      3  N   UNL A   1      34.810  30.744  28.666  1.00  0.00    -0.352 N 
ATOM      4  O   UNL A   1      35.524  31.676  30.591  1.00  0.00    -0.269 OA
ATOM      5  C   UNL A   1      35.779  30.984  29.616  1.00  0.00     0.251 C 
ATOM      6  H   UNL A   1      33.991  31.282  28.756  1.00  0.00     0.163 HD
BRANCH   5   7
ATOM      7  C   UNL A   1      37.127  30.391  29.454  1.00  0.00     0.039 A 
ATOM      8  C   UNL A   1      37.785  30.471  28.229  1.00  0.00     0.014 A 
ATOM      9  C   UNL A   1      37.746  29.760  30.539  1.00  0.00     0.014 A 
ATOM     10  C   UNL A   1      38.966  29.776  28.034  1.00  0.00     0.010 A 
ATOM     11  C   UNL A   1      39.009  29.178  30.377  1.00  0.00     0.010 A 
ATOM     12  C   UNL A   1      39.621  29.164  29.115  1.00  0.00    -0.014 A 
BRANCH  12  13
ATOM     13  C   UNL A   1      40.992  28.640  28.886  1.00  0.00     0.031 A 
ATOM     14  C   UNL A   1      41.243  27.217  28.480  1.00  0.00     0.074 A 
ATOM     15  C   UNL A   1      42.015  29.514  28.978  1.00  0.00     0.049 A 
ATOM     16  N   UNL A   1      42.381  26.643  28.174  1.00  0.00    -0.248 NA
ATOM     17  C   UNL A   1      40.082  26.318  28.413  1.00  0.00     0.031 C 
ATOM     18  C   UNL A   1      41.886  30.917  29.392  1.00  0.00     0.029 A 
ATOM     19  N   UNL A   1      43.347  29.381  28.688  1.00  0.00    -0.354 N 
ATOM     20  C   UNL A   1      42.076  25.318  27.894  1.00  0.00     0.074 A 
ATOM     21  C   UNL A   1      40.651  25.163  28.090  1.00  0.00     0.031 C 
ATOM     22  C   UNL A   1      43.065  31.532  29.246  1.00  0.00     0.029 A 
ATOM     23  C   UNL A   1      44.054  30.553  28.820  1.00  0.00     0.049 A 
ATOM     24  H   UNL A   1      43.758  28.530  28.412  1.00  0.00     0.167 HD
ATOM     25  C   UNL A   1      42.914  24.327  27.500  1.00  0.00     0.037 A 
ATOM     26  C   UNL A   1      45.361  30.812  28.639  1.00  0.00     0.037 A 
ATOM     27  C   UNL A   1      44.333  24.497  27.301  1.00  0.00     0.049 A 
ATOM     28  C   UNL A   1      46.259  29.692  28.211  1.00  0.00     0.074 A 
ATOM     29  C   UNL A   1      45.268  23.556  26.904  1.00  0.00     0.029 A 
ATOM     30  N   UNL A   1      45.021  25.688  27.482  1.00  0.00    -0.354 N 
ATOM     31  N   UNL A   1      45.953  28.446  27.943  1.00  0.00    -0.248 NA
ATOM     32  C   UNL A   1      47.685  30.009  28.069  1.00  0.00     0.031 C 
ATOM     33  C   UNL A   1      46.526  24.168  26.882  1.00  0.00     0.029 A 
ATOM     34  C   UNL A   1      46.370  25.503  27.217  1.00  0.00     0.049 A 
ATOM     35  H   UNL A   1      44.613  26.541  27.758  1.00  0.00     0.167 HD
ATOM     36  C   UNL A   1      47.146  27.829  27.601  1.00  0.00     0.074 A 
ATOM     37  C   UNL A   1      48.173  28.850  27.653  1.00  0.00     0.031 C 
ATOM     38  C   UNL A   1      47.376  26.531  27.286  1.00  0.00     0.037 A 
BRANCH  25  39
ATOM     39  C   UNL A   1      42.327  22.964  27.267  1.00  0.00     0.057 A 
ATOM     40  C   UNL A   1      41.940  22.136  28.329  1.00  0.00     0.134 A 
ATOM     41  C   UNL A   1      42.082  22.502  25.968  1.00  0.00     0.134 A 
ATOM     42  F   UNL A   1      42.153  22.513  29.599  1.00  0.00    -0.206 F 
ATOM     43  C   UNL A   1      41.344  20.892  28.106  1.00  0.00     0.040 A 
ATOM     44  C   UNL A   1      41.466  21.272  25.732  1.00  0.00     0.040 A 
ATOM     45  F   UNL A   1      42.421  23.247  24.905  1.00  0.00    -0.206 F 
ATOM     46  C   UNL A   1      41.097  20.461  26.804  1.00  0.00     0.006 A 
ENDBRANCH  25  39
BRANCH  26  47
ATOM     47  C   UNL A   1      45.893  32.173  28.899  1.00  0.00     0.057 A 
ATOM     48  C   UNL A   1      45.982  33.131  27.884  1.00  0.00     0.134 A 
ATOM     49  C   UNL A   1      46.325  32.549  30.177  1.00  0.00     0.134 A 
ATOM     50  F   UNL A   1      45.597  32.829  26.634  1.00  0.00    -0.206 F 
ATOM     51  C   UNL A   1      46.503  34.404  28.124  1.00  0.00     0.040 A 
ATOM     52  C   UNL A   1      46.814  33.828  30.441  1.00  0.00     0.040 A 
ATOM     53  F   UNL A   1      46.255  31.681  31.199  1.00  0.00    -0.206 F 
ATOM     54  C   UNL A   1      46.914  34.757  29.408  1.00  0.00     0.006 A 
ENDBRANCH  26  47
BRANCH  38  55
ATOM     55  C   UNL A   1      48.795  26.164  26.965  1.00  0.00     0.057 A 
ATOM     56  C   UNL A   1      49.660  25.646  27.937  1.00  0.00     0.134 A 
ATOM     57  C   UNL A   1      49.304  26.343  25.673  1.00  0.00     0.134 A 
ATOM     58  F   UNL A   1      49.237  25.468  29.198  1.00  0.00    -0.206 F 
ATOM     59  C   UNL A   1      50.993  25.353  27.645  1.00  0.00     0.040 A 
ATOM     60  C   UNL A   1      50.626  26.026  25.361  1.00  0.00     0.040 A 
ATOM     61  F   UNL A   1      48.525  26.829  24.694  1.00  0.00    -0.206 F 
ATOM     62  C   UNL A   1      51.477  25.540  26.352  1.00  0.00     0.006 A 
ENDBRANCH  38  55
ENDBRANCH  12  13
ENDBRANCH   5   7
ENDBRANCH   2   3
ENDBRANCH   1   2
BRANCH   1  63
ATOM     63  C   UNL A   1      32.432  30.015  26.669  1.00  0.00     0.023 C 
BRANCH  63  64
ATOM     64  C   UNL A   1      32.076  29.610  25.238  1.00  0.00     0.116 C 
BRANCH  64  65
ATOM     65  N   UNL A   1      33.237  29.519  24.366  1.00  0.00    -0.356 N 
ATOM     66  C   UNL A   1      33.690  28.521  23.558  1.00  0.00     0.226 C 
ATOM     67  H   UNL A   1      33.798  30.328  24.358  1.00  0.00     0.163 HD
ATOM     68  O   UNL A   1      34.702  28.754  22.895  1.00  0.00    -0.275 OA
BRANCH  66  69
ATOM     69  C   UNL A   1      33.002  27.172  23.544  1.00  0.00     0.122 C 
ATOM     70  C   UNL A   1      33.935  26.038  24.000  1.00  0.00     0.123 C 
ATOM     71  C   UNL A   1      32.696  26.749  22.091  1.00  0.00     0.132 C 
ATOM     72  C   UNL A   1      33.713  25.003  22.888  1.00  0.00     0.132 C 
ATOM     73  C   UNL A   1      31.572  25.719  22.093  1.00  0.00     0.035 C 
ATOM     74  O   UNL A   1      33.817  25.893  21.745  1.00  0.00    -0.373 OA
ATOM     75  C   UNL A   1      32.284  24.495  22.671  1.00  0.00     0.035 C 
BRANCH  70  76
ATOM     76  C   UNL A   1      33.633  25.544  25.389  1.00  0.00     0.231 C 
ATOM     77  O   UNL A   1      32.804  26.121  26.100  1.00  0.00    -0.274 OA
ATOM     78  N   UNL A   1      34.260  24.483  25.968  1.00  0.00    -0.326 N 
ATOM     79  H   UNL A   1      33.855  24.258  26.837  1.00  0.00     0.169 HD
BRANCH  78  80
ATOM     80  C   UNL A   1      35.330  23.620  25.661  1.00  0.00     0.044 A 
ATOM     81  C   UNL A   1      36.692  23.903  25.787  1.00  0.00     0.029 A 
ATOM     82  C   UNL A   1      34.963  22.319  25.275  1.00  0.00     0.068 A 
ATOM     83  C   UNL A   1      37.661  22.910  25.574  1.00  0.00     0.044 A 
ATOM     84  C   UNL A   1      35.929  21.335  25.067  1.00  0.00     0.160 A 
ATOM     85  C   UNL A   1      37.273  21.626  25.227  1.00  0.00     0.158 A 
ATOM     86  F   UNL A   1      35.541  20.095  24.741  1.00  0.00    -0.204 F 
ATOM     87  F   UNL A   1      38.201  20.673  25.074  1.00  0.00    -0.204 F 
ENDBRANCH  78  80
ENDBRANCH  70  76
ENDBRANCH  66  69
ENDBRANCH  64  65
ENDBRANCH  63  64
ENDBRANCH   1  63
TORSDOF 13
ENDMDL
MODEL 2
REMARK VINA RESULT:     -12.4      4.213      8.045
REMARK SMILES O=C(NCCCCNC(=O)[C@@H]1[C@@H](C(=O)Nc2ccc(F)c(F)c2)[C@H]2CC[C@@H]1O2)c1ccc(-c2c3nc(c(-c4c(F)cccc4F)c4ccc([nH]4)c(-c4c(F)cccc4F)c4nc(c(-c5c(F)cccc5F)c5ccc2[nH]5)C=C4)C=C3)cc1
REMARK SMILES IDX 5 1 4 2 3 3 1 4 2 5 29 7 30 8 82 9 31 10 81 11 32 12 33 13
REMARK SMILES IDX 34 14 75 15 35 16 80 17 74 18 76 19 36 20 79 21 73 22 72 23
REMARK SMILES IDX 37 25 63 26 46 27 62 28 47 29 50 30 61 31 77 32 48 33 49 34
REMARK SMILES IDX 60 36 78 37 51 38 38 39 39 40 44 41 40 42 41 43 43 44 45 45
REMARK SMILES IDX 42 46 64 47 65 48 70 49 66 50 67 51 69 52 71 53 68 54 52 55
REMARK SMILES IDX 53 56 58 57 54 58 55 59 57 60 59 61 56 62 6 63 7 64 8 65
REMARK SMILES IDX 9 66 10 68 11 69 12 70 27 71 24 72 26 73 28 74 25 75 13 76
REMARK SMILES IDX 14 77 15 78 16 80 17 81 23 82 18 83 21 84 19 85 22 86 20 87
REMARK H PARENT 3 6 76 24 50 35 8 67 15 79
REMARK Flexibility Score: inf
ROOT
ATOM      1  C   UNL A   1      31.210  31.539  26.499  1.00  0.00     0.023 C 
ENDROOT
BRANCH   1   2
ATOM      2  C   UNL A   1      32.484  32.255  26.907  1.00  0.00     0.116 C 
BRANCH   2   3
ATOM      3  N   UNL A   1      32.237  33.618  27.353  1.00  0.00    -0.352 N 
ATOM      4  O   UNL A   1      32.454  35.435  28.671  1.00  0.00    -0.269 OA
ATOM      5  C   UNL A   1      32.915  34.369  28.288  1.00  0.00     0.251 C 
ATOM      6  H   UNL A   1      31.473  34.068  26.926  1.00  0.00     0.163 HD
BRANCH   5   7
ATOM      7  C   UNL A   1      34.201  33.874  28.834  1.00  0.00     0.039 A 
ATOM      8  C   UNL A   1      34.210  32.934  29.862  1.00  0.00     0.014 A 
ATOM      9  C   UNL A   1      35.409  34.342  28.307  1.00  0.00     0.014 A 
ATOM     10  C   UNL A   1      35.402  32.599  30.481  1.00  0.00     0.010 A 
ATOM     11  C   UNL A   1      36.623  33.894  28.842  1.00  0.00     0.010 A 
ATOM     12  C   UNL A   1      36.628  33.032  29.948  1.00  0.00    -0.014 A 
BRANCH  12  13
ATOM     13  C   UNL A   1      37.871  32.450  30.515  1.00  0.00     0.031 A 
ATOM     14  C   UNL A   1      38.478  32.956  31.791  1.00  0.00     0.074 A 
ATOM     15  C   UNL A   1      38.403  31.384  29.882  1.00  0.00     0.049 A 
ATOM     16  N   UNL A   1      39.519  32.496  32.440  1.00  0.00    -0.248 NA
ATOM     17  C   UNL A   1      37.852  34.130  32.417  1.00  0.00     0.031 C 
ATOM     18  C   UNL A   1      37.909  30.825  28.619  1.00  0.00     0.029 A 
ATOM     19  N   UNL A   1      39.435  30.551  30.226  1.00  0.00    -0.354 N 
ATOM     20  C   UNL A   1      39.681  33.327  33.541  1.00  0.00     0.074 A 
ATOM     21  C   UNL A   1      38.649  34.338  33.460  1.00  0.00     0.031 C 
ATOM     22  C   UNL A   1      38.575  29.699  28.341  1.00  0.00     0.029 A 
ATOM     23  C   UNL A   1      39.605  29.504  29.351  1.00  0.00     0.049 A 
ATOM     24  H   UNL A   1      40.000  30.688  31.020  1.00  0.00     0.167 HD
ATOM     25  C   UNL A   1      40.605  33.243  34.530  1.00  0.00     0.037 A 
ATOM     26  C   UNL A   1      40.505  28.505  29.346  1.00  0.00     0.037 A 
ATOM     27  C   UNL A   1      41.624  32.225  34.603  1.00  0.00     0.049 A 
ATOM     28  C   UNL A   1      41.515  28.447  30.451  1.00  0.00     0.074 A 
ATOM     29  C   UNL A   1      42.606  32.053  35.564  1.00  0.00     0.029 A 
ATOM     30  N   UNL A   1      41.791  31.203  33.678  1.00  0.00    -0.354 N 
ATOM     31  N   UNL A   1      41.649  29.237  31.488  1.00  0.00    -0.248 NA
ATOM     32  C   UNL A   1      42.505  27.365  30.381  1.00  0.00     0.031 C 
ATOM     33  C   UNL A   1      43.389  30.952  35.201  1.00  0.00     0.029 A 
ATOM     34  C   UNL A   1      42.867  30.406  34.040  1.00  0.00     0.049 A 
ATOM     35  H   UNL A   1      41.228  31.064  32.882  1.00  0.00     0.167 HD
ATOM     36  C   UNL A   1      42.737  28.751  32.196  1.00  0.00     0.074 A 
ATOM     37  C   UNL A   1      43.198  27.571  31.491  1.00  0.00     0.031 C 
ATOM     38  C   UNL A   1      43.315  29.243  33.318  1.00  0.00     0.037 A 
BRANCH  25  39
ATOM     39  C   UNL A   1      40.567  34.284  35.612  1.00  0.00     0.057 A 
ATOM     40  C   UNL A   1      41.235  35.509  35.482  1.00  0.00     0.134 A 
ATOM     41  C   UNL A   1      39.802  34.088  36.769  1.00  0.00     0.134 A 
ATOM     42  F   UNL A   1      41.993  35.759  34.403  1.00  0.00    -0.206 F 
ATOM     43  C   UNL A   1      41.152  36.495  36.468  1.00  0.00     0.040 A 
ATOM     44  C   UNL A   1      39.692  35.075  37.750  1.00  0.00     0.040 A 
ATOM     45  F   UNL A   1      39.131  32.941  36.955  1.00  0.00    -0.206 F 
ATOM     46  C   UNL A   1      40.372  36.282  37.602  1.00  0.00     0.006 A 
ENDBRANCH  25  39
BRANCH  26  47
ATOM     47  C   UNL A   1      40.507  27.511  28.243  1.00  0.00     0.057 A 
ATOM     48  C   UNL A   1      39.784  26.317  28.331  1.00  0.00     0.134 A 
ATOM     49  C   UNL A   1      41.237  27.736  27.069  1.00  0.00     0.134 A 
ATOM     50  F   UNL A   1      39.074  26.036  29.435  1.00  0.00    -0.206 F 
ATOM     51  C   UNL A   1      39.804  25.373  27.303  1.00  0.00     0.040 A 
ATOM     52  C   UNL A   1      41.239  26.818  26.018  1.00  0.00     0.040 A 
ATOM     53  F   UNL A   1      41.944  28.866  26.916  1.00  0.00    -0.206 F 
ATOM     54  C   UNL A   1      40.528  25.627  26.139  1.00  0.00     0.006 A 
ENDBRANCH  26  47
BRANCH  38  55
ATOM     55  C   UNL A   1      44.497  28.487  33.846  1.00  0.00     0.057 A 
ATOM     56  C   UNL A   1      45.807  28.810  33.468  1.00  0.00     0.134 A 
ATOM     57  C   UNL A   1      44.324  27.417  34.733  1.00  0.00     0.134 A 
ATOM     58  F   UNL A   1      46.038  29.813  32.608  1.00  0.00    -0.206 F 
ATOM     59  C   UNL A   1      46.900  28.072  33.924  1.00  0.00     0.040 A 
ATOM     60  C   UNL A   1      45.410  26.690  35.218  1.00  0.00     0.040 A 
ATOM     61  F   UNL A   1      43.096  27.061  35.139  1.00  0.00    -0.206 F 
ATOM     62  C   UNL A   1      46.702  27.010  34.804  1.00  0.00     0.006 A 
ENDBRANCH  38  55
ENDBRANCH  12  13
ENDBRANCH   5   7
ENDBRANCH   2   3
ENDBRANCH   1   2
BRANCH   1  63
ATOM     63  C   UNL A   1      31.409  30.480  25.418  1.00  0.00     0.023 C 
BRANCH  63  64
ATOM     64  C   UNL A   1      32.562  29.508  25.670  1.00  0.00     0.116 C 
BRANCH  64  65
ATOM     65  N   UNL A   1      33.524  29.470  24.579  1.00  0.00    -0.356 N 
ATOM     66  C   UNL A   1      33.765  28.541  23.612  1.00  0.00     0.226 C 
ATOM     67  H   UNL A   1      34.108  30.261  24.530  1.00  0.00     0.163 HD
ATOM     68  O   UNL A   1      34.636  28.809  22.784  1.00  0.00    -0.275 OA
BRANCH  66  69
ATOM     69  C   UNL A   1      33.027  27.219  23.617  1.00  0.00     0.122 C 
ATOM     70  C   UNL A   1      33.935  26.048  24.027  1.00  0.00     0.123 C 
ATOM     71  C   UNL A   1      32.646  26.820  22.176  1.00  0.00     0.132 C 
ATOM     72  C   UNL A   1      33.629  25.030  22.917  1.00  0.00     0.132 C 
ATOM     73  C   UNL A   1      31.485  25.831  22.217  1.00  0.00     0.035 C 
ATOM     74  O   UNL A   1      33.720  25.926  21.778  1.00  0.00    -0.373 OA
ATOM     75  C   UNL A   1      32.174  24.577  22.757  1.00  0.00     0.035 C 
BRANCH  70  76
ATOM     76  C   UNL A   1      33.672  25.553  25.423  1.00  0.00     0.231 C 
ATOM     77  O   UNL A   1      32.902  26.158  26.175  1.00  0.00    -0.274 OA
ATOM     78  N   UNL A   1      34.277  24.460  25.966  1.00  0.00    -0.326 N 
ATOM     79  H   UNL A   1      33.902  24.244  26.850  1.00  0.00     0.169 HD
BRANCH  78  80
ATOM     80  C   UNL A   1      35.294  23.555  25.605  1.00  0.00     0.044 A 
ATOM     81  C   UNL A   1      36.671  23.787  25.650  1.00  0.00     0.029 A 
ATOM     82  C   UNL A   1      34.857  22.266  25.252  1.00  0.00     0.068 A 
ATOM     83  C   UNL A   1      37.588  22.757  25.390  1.00  0.00     0.044 A 
ATOM     84  C   UNL A   1      35.772  21.245  24.998  1.00  0.00     0.160 A 
ATOM     85  C   UNL A   1      37.133  21.486  25.077  1.00  0.00     0.158 A 
ATOM     86  F   UNL A   1      35.319  20.019  24.705  1.00  0.00    -0.204 F 
ATOM     87  F   UNL A   1      38.014  20.497  24.880  1.00  0.00    -0.204 F 
ENDBRANCH  78  80
ENDBRANCH  70  76
ENDBRANCH  66  69
ENDBRANCH  64  65
ENDBRANCH  63  64
ENDBRANCH   1  63
TORSDOF 13
ENDMDL
MODEL 3
REMARK VINA RESULT:     -12.3      3.006      8.083
REMARK SMILES O=C(NCCCCNC(=O)[C@@H]1[C@@H](C(=O)Nc2ccc(F)c(F)c2)[C@H]2CC[C@@H]1O2)c1ccc(-c2c3nc(c(-c4c(F)cccc4F)c4ccc([nH]4)c(-c4c(F)cccc4F)c4nc(c(-c5c(F)cccc5F)c5ccc2[nH]5)C=C4)C=C3)cc1
REMARK SMILES IDX 5 1 4 2 3 3 1 4 2 5 29 7 30 8 82 9 31 10 81 11 32 12 33 13
REMARK SMILES IDX 34 14 75 15 35 16 80 17 74 18 76 19 36 20 79 21 73 22 72 23
REMARK SMILES IDX 37 25 63 26 46 27 62 28 47 29 50 30 61 31 77 32 48 33 49 34
REMARK SMILES IDX 60 36 78 37 51 38 38 39 39 40 44 41 40 42 41 43 43 44 45 45
REMARK SMILES IDX 42 46 64 47 65 48 70 49 66 50 67 51 69 52 71 53 68 54 52 55
REMARK SMILES IDX 53 56 58 57 54 58 55 59 57 60 59 61 56 62 6 63 7 64 8 65
REMARK SMILES IDX 9 66 10 68 11 69 12 70 27 71 24 72 26 73 28 74 25 75 13 76
REMARK SMILES IDX 14 77 15 78 16 80 17 81 23 82 18 83 21 84 19 85 22 86 20 87
REMARK H PARENT 3 6 76 24 50 35 8 67 15 79
REMARK Flexibility Score: inf
ROOT
ATOM      1  C   UNL A   1      37.718  19.979  24.647  1.00  0.00     0.023 C 
ENDROOT
BRANCH   1   2
ATOM      2  C   UNL A   1      38.722  20.227  25.756  1.00  0.00     0.116 C 
BRANCH   2   3
ATOM      3  N   UNL A   1      39.815  19.266  25.742  1.00  0.00    -0.352 N 
ATOM      4  O   UNL A   1      41.960  18.572  25.747  1.00  0.00    -0.269 OA
ATOM      5  C   UNL A   1      41.157  19.463  25.984  1.00  0.00     0.251 C 
ATOM      6  H   UNL A   1      39.557  18.341  25.527  1.00  0.00     0.163 HD
BRANCH   5   7
ATOM      7  C   UNL A   1      41.622  20.762  26.524  1.00  0.00     0.039 A 
ATOM      8  C   UNL A   1      41.863  21.831  25.664  1.00  0.00     0.014 A 
ATOM      9  C   UNL A   1      41.807  20.919  27.902  1.00  0.00     0.014 A 
ATOM     10  C   UNL A   1      42.454  22.986  26.149  1.00  0.00     0.010 A 
ATOM     11  C   UNL A   1      42.272  22.139  28.408  1.00  0.00     0.010 A 
ATOM     12  C   UNL A   1      42.618  23.177  27.531  1.00  0.00    -0.014 A 
BRANCH  12  13
ATOM     13  C   UNL A   1      43.037  24.524  27.997  1.00  0.00     0.031 A 
ATOM     14  C   UNL A   1      44.480  24.936  28.048  1.00  0.00     0.074 A 
ATOM     15  C   UNL A   1      42.065  25.407  28.302  1.00  0.00     0.049 A 
ATOM     16  N   UNL A   1      44.986  26.103  28.363  1.00  0.00    -0.248 NA
ATOM     17  C   UNL A   1      45.486  23.917  27.714  1.00  0.00     0.031 C 
ATOM     18  C   UNL A   1      40.629  25.103  28.312  1.00  0.00     0.029 A 
ATOM     19  N   UNL A   1      42.118  26.740  28.613  1.00  0.00    -0.354 N 
ATOM     20  C   UNL A   1      46.365  25.956  28.279  1.00  0.00     0.074 A 
ATOM     21  C   UNL A   1      46.620  24.580  27.910  1.00  0.00     0.031 C 
ATOM     22  C   UNL A   1      39.939  26.230  28.526  1.00  0.00     0.029 A 
ATOM     23  C   UNL A   1      40.879  27.316  28.761  1.00  0.00     0.049 A 
ATOM     24  H   UNL A   1      42.962  27.237  28.720  1.00  0.00     0.167 HD
ATOM     25  C   UNL A   1      47.324  26.892  28.485  1.00  0.00     0.037 A 
ATOM     26  C   UNL A   1      40.531  28.577  29.073  1.00  0.00     0.037 A 
ATOM     27  C   UNL A   1      47.056  28.262  28.846  1.00  0.00     0.049 A 
ATOM     28  C   UNL A   1      41.618  29.583  29.302  1.00  0.00     0.074 A 
ATOM     29  C   UNL A   1      47.959  29.287  29.076  1.00  0.00     0.029 A 
ATOM     30  N   UNL A   1      45.790  28.801  29.025  1.00  0.00    -0.354 N 
ATOM     31  N   UNL A   1      42.916  29.428  29.211  1.00  0.00    -0.248 NA
ATOM     32  C   UNL A   1      41.193  30.935  29.684  1.00  0.00     0.031 C 
ATOM     33  C   UNL A   1      47.240  30.434  29.433  1.00  0.00     0.029 A 
ATOM     34  C   UNL A   1      45.888  30.139  29.376  1.00  0.00     0.049 A 
ATOM     35  H   UNL A   1      44.945  28.306  28.919  1.00  0.00     0.167 HD
ATOM     36  C   UNL A   1      43.466  30.662  29.524  1.00  0.00     0.074 A 
ATOM     37  C   UNL A   1      42.357  31.563  29.765  1.00  0.00     0.031 C 
ATOM     38  C   UNL A   1      44.771  31.015  29.622  1.00  0.00     0.037 A 
BRANCH  25  39
ATOM     39  C   UNL A   1      48.758  26.468  28.337  1.00  0.00     0.057 A 
ATOM     40  C   UNL A   1      49.429  26.548  27.110  1.00  0.00     0.134 A 
ATOM     41  C   UNL A   1      49.496  26.037  29.447  1.00  0.00     0.134 A 
ATOM     42  F   UNL A   1      48.779  26.943  26.004  1.00  0.00    -0.206 F 
ATOM     43  C   UNL A   1      50.777  26.203  26.990  1.00  0.00     0.040 A 
ATOM     44  C   UNL A   1      50.850  25.714  29.346  1.00  0.00     0.040 A 
ATOM     45  F   UNL A   1      48.918  25.945  30.655  1.00  0.00    -0.206 F 
ATOM     46  C   UNL A   1      51.494  25.793  28.112  1.00  0.00     0.006 A 
ENDBRANCH  25  39
BRANCH  26  47
ATOM     47  C   UNL A   1      39.099  28.938  29.223  1.00  0.00     0.057 A 
ATOM     48  C   UNL A   1      38.429  28.792  30.441  1.00  0.00     0.134 A 
ATOM     49  C   UNL A   1      38.364  29.443  28.142  1.00  0.00     0.134 A 
ATOM     50  F   UNL A   1      39.074  28.301  31.512  1.00  0.00    -0.206 F 
ATOM     51  C   UNL A   1      37.077  29.111  30.576  1.00  0.00     0.040 A 
ATOM     52  C   UNL A   1      37.022  29.799  28.269  1.00  0.00     0.040 A 
ATOM     53  F   UNL A   1      38.950  29.619  26.947  1.00  0.00    -0.206 F 
ATOM     54  C   UNL A   1      36.372  29.623  29.488  1.00  0.00     0.006 A 
ENDBRANCH  26  47
BRANCH  38  55
ATOM     55  C   UNL A   1      45.050  32.442  29.990  1.00  0.00     0.057 A 
ATOM     56  C   UNL A   1      45.214  32.839  31.324  1.00  0.00     0.134 A 
ATOM     57  C   UNL A   1      45.143  33.430  29.003  1.00  0.00     0.134 A 
ATOM     58  F   UNL A   1      45.119  31.942  32.317  1.00  0.00    -0.206 F 
ATOM     59  C   UNL A   1      45.424  34.175  31.665  1.00  0.00     0.040 A 
ATOM     60  C   UNL A   1      45.381  34.764  29.329  1.00  0.00     0.040 A 
ATOM     61  F   UNL A   1      45.002  33.114  27.707  1.00  0.00    -0.206 F 
ATOM     62  C   UNL A   1      45.511  35.141  30.665  1.00  0.00     0.006 A 
ENDBRANCH  38  55
ENDBRANCH  12  13
ENDBRANCH   5   7
ENDBRANCH   2   3
ENDBRANCH   1   2
BRANCH   1  63
ATOM     63  C   UNL A   1      36.277  20.313  25.024  1.00  0.00     0.023 C 
BRANCH  63  64
ATOM     64  C   UNL A   1      36.011  21.790  25.316  1.00  0.00     0.116 C 
BRANCH  64  65
ATOM     65  N   UNL A   1      35.495  22.022  26.656  1.00  0.00    -0.356 N 
ATOM     66  C   UNL A   1      34.322  22.554  27.098  1.00  0.00     0.226 C 
ATOM     67  H   UNL A   1      36.106  21.744  27.376  1.00  0.00     0.163 HD
ATOM     68  O   UNL A   1      34.147  22.587  28.316  1.00  0.00    -0.275 OA
BRANCH  66  69
ATOM     69  C   UNL A   1      33.323  23.132  26.118  1.00  0.00     0.122 C 
ATOM     70  C   UNL A   1      33.256  24.666  26.192  1.00  0.00     0.123 C 
ATOM     71  C   UNL A   1      31.888  22.744  26.533  1.00  0.00     0.132 C 
ATOM     72  C   UNL A   1      31.740  24.896  26.275  1.00  0.00     0.132 C 
ATOM     73  C   UNL A   1      30.969  22.841  25.319  1.00  0.00     0.035 C 
ATOM     74  O   UNL A   1      31.430  23.899  27.285  1.00  0.00    -0.373 OA
ATOM     75  C   UNL A   1      30.880  24.356  25.128  1.00  0.00     0.035 C 
BRANCH  70  76
ATOM     76  C   UNL A   1      33.932  25.347  25.032  1.00  0.00     0.231 C 
ATOM     77  O   UNL A   1      34.624  24.704  24.237  1.00  0.00    -0.274 OA
ATOM     78  N   UNL A   1      33.873  26.687  24.802  1.00  0.00    -0.326 N 
ATOM     79  H   UNL A   1      34.296  26.923  23.945  1.00  0.00     0.169 HD
BRANCH  78  80
ATOM     80  C   UNL A   1      33.371  27.829  25.457  1.00  0.00     0.044 A 
ATOM     81  C   UNL A   1      33.946  28.486  26.547  1.00  0.00     0.029 A 
ATOM     82  C   UNL A   1      32.220  28.397  24.881  1.00  0.00     0.068 A 
ATOM     83  C   UNL A   1      33.417  29.693  27.027  1.00  0.00     0.044 A 
ATOM     84  C   UNL A   1      31.700  29.598  25.360  1.00  0.00     0.160 A 
ATOM     85  C   UNL A   1      32.302  30.251  26.422  1.00  0.00     0.158 A 
ATOM     86  F   UNL A   1      30.627  30.132  24.760  1.00  0.00    -0.204 F 
ATOM     87  F   UNL A   1      31.833  31.428  26.854  1.00  0.00    -0.204 F 
ENDBRANCH  78  80
ENDBRANCH  70  76
ENDBRANCH  66  69
ENDBRANCH  64  65
ENDBRANCH  63  64
ENDBRANCH   1  63
TORSDOF 13
ENDMDL
