MODEL 1
REMARK VINA RESULT:     -11.5      0.000      0.000
REMARK SMILES O=C(NCCCCNC(=O)c1ccccc1C(=O)N1CCS[C@H]1c1ccccc1)c1ccc(-c2c3nc(c(-c4c(F)cccc4F)c4ccc([nH]4)c(-c4c(F)cccc4F)c4nc(c(-c5c(F)cccc5F)c5ccc2[nH]5)C=C4)C=C3)cc1
REMARK SMILES IDX 6 1 5 2 4 3 3 4 1 5 2 6 30 8 31 9 83 10 32 11 82 12 33 13
REMARK SMILES IDX 34 14 35 15 76 16 36 17 81 18 75 19 77 20 37 21 80 22 74 23
REMARK SMILES IDX 73 24 38 26 64 27 47 28 63 29 48 30 51 31 62 32 78 33 49 34
REMARK SMILES IDX 50 35 61 37 79 38 52 39 39 40 40 41 45 42 41 43 42 44 44 45
REMARK SMILES IDX 46 46 43 47 65 48 66 49 71 50 67 51 68 52 70 53 72 54 69 55
REMARK SMILES IDX 53 56 54 57 59 58 55 59 56 60 58 61 60 62 57 63 7 64 8 65
REMARK SMILES IDX 9 66 10 68 11 69 12 70 16 71 13 72 15 73 14 74 17 75 18 76
REMARK SMILES IDX 19 77 20 78 23 79 21 80 22 81 24 82 25 83 29 84 26 85 28 86
REMARK SMILES IDX 27 87
REMARK H PARENT 3 7 77 25 51 36 8 67
REMARK Flexibility Score: inf
ROOT
ATOM      1  C   UNL A   1      32.411  27.451  25.871  1.00  0.00     0.023 C 
ENDROOT
BRANCH   1   2
ATOM      2  C   UNL A   1      32.371  28.611  26.873  1.00  0.00     0.023 C 
BRANCH   2   3
ATOM      3  C   UNL A   1      33.719  29.120  27.368  1.00  0.00     0.116 C 
BRANCH   3   4
ATOM      4  N   UNL A   1      33.658  30.432  27.986  1.00  0.00    -0.352 N 
ATOM      5  O   UNL A   1      34.394  32.169  29.231  1.00  0.00    -0.269 OA
ATOM      6  C   UNL A   1      34.635  31.101  28.688  1.00  0.00     0.251 C 
ATOM      7  H   UNL A   1      32.801  30.906  27.892  1.00  0.00     0.163 HD
BRANCH   6   8
ATOM      8  C   UNL A   1      35.981  30.499  28.817  1.00  0.00     0.039 A 
ATOM      9  C   UNL A   1      36.383  29.884  30.005  1.00  0.00     0.014 A 
ATOM     10  C   UNL A   1      36.853  30.570  27.729  1.00  0.00     0.014 A 
ATOM     11  C   UNL A   1      37.701  29.454  30.148  1.00  0.00     0.010 A 
ATOM     12  C   UNL A   1      38.158  30.085  27.854  1.00  0.00     0.010 A 
ATOM     13  C   UNL A   1      38.604  29.555  29.075  1.00  0.00    -0.014 A 
BRANCH  13  14
ATOM     14  C   UNL A   1      40.004  29.081  29.224  1.00  0.00     0.031 A 
ATOM     15  C   UNL A   1      41.072  29.983  29.780  1.00  0.00     0.074 A 
ATOM     16  C   UNL A   1      40.318  27.830  28.839  1.00  0.00     0.049 A 
ATOM     17  N   UNL A   1      42.350  29.748  29.941  1.00  0.00    -0.248 NA
ATOM     18  C   UNL A   1      40.650  31.327  30.204  1.00  0.00     0.031 C 
ATOM     19  C   UNL A   1      39.377  26.860  28.278  1.00  0.00     0.029 A 
ATOM     20  N   UNL A   1      41.514  27.161  28.861  1.00  0.00    -0.354 N 
ATOM     21  C   UNL A   1      42.890  30.917  30.463  1.00  0.00     0.074 A 
ATOM     22  C   UNL A   1      41.804  31.869  30.569  1.00  0.00     0.031 C 
ATOM     23  C   UNL A   1      40.026  25.712  28.032  1.00  0.00     0.029 A 
ATOM     24  C   UNL A   1      41.436  25.882  28.368  1.00  0.00     0.049 A 
ATOM     25  H   UNL A   1      42.350  27.559  29.198  1.00  0.00     0.167 HD
ATOM     26  C   UNL A   1      44.171  31.171  30.827  1.00  0.00     0.037 A 
ATOM     27  C   UNL A   1      42.393  24.955  28.187  1.00  0.00     0.037 A 
ATOM     28  C   UNL A   1      45.249  30.219  30.732  1.00  0.00     0.049 A 
ATOM     29  C   UNL A   1      43.811  25.272  28.563  1.00  0.00     0.074 A 
ATOM     30  C   UNL A   1      46.571  30.370  31.119  1.00  0.00     0.029 A 
ATOM     31  N   UNL A   1      45.133  28.941  30.204  1.00  0.00    -0.354 N 
ATOM     32  N   UNL A   1      44.300  26.368  29.089  1.00  0.00    -0.248 NA
ATOM     33  C   UNL A   1      44.810  24.223  28.317  1.00  0.00     0.031 C 
ATOM     34  C   UNL A   1      47.263  29.200  30.784  1.00  0.00     0.029 A 
ATOM     35  C   UNL A   1      46.364  28.303  30.232  1.00  0.00     0.049 A 
ATOM     36  H   UNL A   1      44.300  28.546  29.860  1.00  0.00     0.167 HD
ATOM     37  C   UNL A   1      45.658  26.135  29.258  1.00  0.00     0.074 A 
ATOM     38  C   UNL A   1      45.913  24.789  28.788  1.00  0.00     0.031 C 
ATOM     39  C   UNL A   1      46.607  26.963  29.759  1.00  0.00     0.037 A 
BRANCH  26  40
ATOM     40  C   UNL A   1      44.485  32.546  31.343  1.00  0.00     0.057 A 
ATOM     41  C   UNL A   1      44.866  33.591  30.491  1.00  0.00     0.134 A 
ATOM     42  C   UNL A   1      44.370  32.838  32.709  1.00  0.00     0.134 A 
ATOM     43  F   UNL A   1      45.004  33.377  29.174  1.00  0.00    -0.206 F 
ATOM     44  C   UNL A   1      45.149  34.868  30.981  1.00  0.00     0.040 A 
ATOM     45  C   UNL A   1      44.626  34.117  33.208  1.00  0.00     0.040 A 
ATOM     46  F   UNL A   1      44.001  31.888  33.581  1.00  0.00    -0.206 F 
ATOM     47  C   UNL A   1      45.024  35.135  32.344  1.00  0.00     0.006 A 
ENDBRANCH  26  40
BRANCH  27  48
ATOM     48  C   UNL A   1      42.030  23.631  27.627  1.00  0.00     0.057 A 
ATOM     49  C   UNL A   1      41.836  22.526  28.461  1.00  0.00     0.134 A 
ATOM     50  C   UNL A   1      41.842  23.447  26.252  1.00  0.00     0.134 A 
ATOM     51  F   UNL A   1      42.020  22.640  29.784  1.00  0.00    -0.206 F 
ATOM     52  C   UNL A   1      41.471  21.281  27.948  1.00  0.00     0.040 A 
ATOM     53  C   UNL A   1      41.454  22.214  25.727  1.00  0.00     0.040 A 
ATOM     54  F   UNL A   1      42.008  24.472  25.402  1.00  0.00    -0.206 F 
ATOM     55  C   UNL A   1      41.271  21.126  26.577  1.00  0.00     0.006 A 
ENDBRANCH  27  48
BRANCH  39  56
ATOM     56  C   UNL A   1      48.004  26.422  29.854  1.00  0.00     0.057 A 
ATOM     57  C   UNL A   1      48.896  26.485  28.775  1.00  0.00     0.134 A 
ATOM     58  C   UNL A   1      48.468  25.853  31.046  1.00  0.00     0.134 A 
ATOM     59  F   UNL A   1      48.506  27.004  27.601  1.00  0.00    -0.206 F 
ATOM     60  C   UNL A   1      50.193  25.978  28.872  1.00  0.00     0.040 A 
ATOM     61  C   UNL A   1      49.771  25.366  31.162  1.00  0.00     0.040 A 
ATOM     62  F   UNL A   1      47.667  25.768  32.118  1.00  0.00    -0.206 F 
ATOM     63  C   UNL A   1      50.635  25.421  30.071  1.00  0.00     0.006 A 
ENDBRANCH  39  56
ENDBRANCH  13  14
ENDBRANCH   6   8
ENDBRANCH   3   4
ENDBRANCH   2   3
ENDBRANCH   1   2
BRANCH   1  64
ATOM     64  C   UNL A   1      32.680  26.068  26.461  1.00  0.00     0.116 C 
BRANCH  64  65
ATOM     65  N   UNL A   1      31.465  25.389  26.866  1.00  0.00    -0.352 N 
ATOM     66  C   UNL A   1      31.173  24.052  26.870  1.00  0.00     0.252 C 
ATOM     67  H   UNL A   1      30.742  25.978  27.186  1.00  0.00     0.163 HD
ATOM     68  O   UNL A   1      30.010  23.708  27.065  1.00  0.00    -0.269 OA
BRANCH  66  69
ATOM     69  C   UNL A   1      32.198  23.041  26.535  1.00  0.00     0.052 A 
ATOM     70  C   UNL A   1      32.889  22.490  27.629  1.00  0.00     0.014 A 
ATOM     71  C   UNL A   1      32.501  22.609  25.238  1.00  0.00     0.052 A 
ATOM     72  C   UNL A   1      33.812  21.460  27.439  1.00  0.00     0.001 A 
ATOM     73  C   UNL A   1      33.403  21.545  25.062  1.00  0.00     0.014 A 
ATOM     74  C   UNL A   1      34.055  20.974  26.158  1.00  0.00     0.001 A 
BRANCH  71  75
ATOM     75  C   UNL A   1      31.836  23.123  24.020  1.00  0.00     0.255 C 
ATOM     76  O   UNL A   1      30.810  22.543  23.663  1.00  0.00    -0.269 OA
BRANCH  75  77
ATOM     77  N   UNL A   1      32.276  24.283  23.409  1.00  0.00    -0.322 N 
ATOM     78  C   UNL A   1      31.292  25.059  22.674  1.00  0.00     0.132 C 
ATOM     79  C   UNL A   1      33.610  24.532  22.861  1.00  0.00     0.174 C 
ATOM     80  C   UNL A   1      31.797  26.487  22.641  1.00  0.00     0.093 C 
ATOM     81  S   UNL A   1      33.580  26.303  22.367  1.00  0.00    -0.130 SA
BRANCH  79  82
ATOM     82  C   UNL A   1      34.826  24.088  23.633  1.00  0.00    -0.015 A 
ATOM     83  C   UNL A   1      35.184  24.591  24.891  1.00  0.00     0.007 A 
ATOM     84  C   UNL A   1      35.658  23.108  23.057  1.00  0.00     0.007 A 
ATOM     85  C   UNL A   1      36.315  24.114  25.560  1.00  0.00     0.000 A 
ATOM     86  C   UNL A   1      36.785  22.627  23.726  1.00  0.00     0.000 A 
ATOM     87  C   UNL A   1      37.110  23.130  24.981  1.00  0.00     0.000 A 
ENDBRANCH  79  82
ENDBRANCH  75  77
ENDBRANCH  71  75
ENDBRANCH  66  69
ENDBRANCH  64  65
ENDBRANCH   1  64
TORSDOF 14
ENDMDL
MODEL 2
REMARK VINA RESULT:     -11.5      1.892      2.406
REMARK SMILES O=C(NCCCCNC(=O)c1ccccc1C(=O)N1CCS[C@H]1c1ccccc1)c1ccc(-c2c3nc(c(-c4c(F)cccc4F)c4ccc([nH]4)c(-c4c(F)cccc4F)c4nc(c(-c5c(F)cccc5F)c5ccc2[nH]5)C=C4)C=C3)cc1
REMARK SMILES IDX 6 1 5 2 4 3 3 4 1 5 2 6 30 8 31 9 83 10 32 11 82 12 33 13
REMARK SMILES IDX 34 14 35 15 76 16 36 17 81 18 75 19 77 20 37 21 80 22 74 23
REMARK SMILES IDX 73 24 38 26 64 27 47 28 63 29 48 30 51 31 62 32 78 33 49 34
REMARK SMILES IDX 50 35 61 37 79 38 52 39 39 40 40 41 45 42 41 43 42 44 44 45
REMARK SMILES IDX 46 46 43 47 65 48 66 49 71 50 67 51 68 52 70 53 72 54 69 55
REMARK SMILES IDX 53 56 54 57 59 58 55 59 56 60 58 61 60 62 57 63 7 64 8 65
REMARK SMILES IDX 9 66 10 68 11 69 12 70 16 71 13 72 15 73 14 74 17 75 18 76
REMARK SMILES IDX 19 77 20 78 23 79 21 80 22 81 24 82 25 83 29 84 26 85 28 86
REMARK SMILES IDX 27 87
REMARK H PARENT 3 7 77 25 51 36 8 67
REMARK Flexibility Score: inf
ROOT
ATOM      1  C   UNL A   1      32.347  27.518  26.894  1.00  0.00     0.023 C 
ENDROOT
BRANCH   1   2
ATOM      2  C   UNL A   1      32.801  28.546  25.852  1.00  0.00     0.023 C 
BRANCH   2   3
ATOM      3  C   UNL A   1      34.082  29.307  26.171  1.00  0.00     0.116 C 
BRANCH   3   4
ATOM      4  N   UNL A   1      33.858  30.566  26.859  1.00  0.00    -0.352 N 
ATOM      5  O   UNL A   1      34.216  32.166  28.415  1.00  0.00    -0.269 OA
ATOM      6  C   UNL A   1      34.593  31.137  27.875  1.00  0.00     0.251 C 
ATOM      7  H   UNL A   1      33.074  31.080  26.560  1.00  0.00     0.163 HD
BRANCH   6   8
ATOM      8  C   UNL A   1      35.832  30.473  28.339  1.00  0.00     0.039 A 
ATOM      9  C   UNL A   1      35.825  29.640  29.461  1.00  0.00     0.014 A 
ATOM     10  C   UNL A   1      37.018  30.707  27.641  1.00  0.00     0.014 A 
ATOM     11  C   UNL A   1      37.028  29.145  29.960  1.00  0.00     0.010 A 
ATOM     12  C   UNL A   1      38.216  30.161  28.109  1.00  0.00     0.010 A 
ATOM     13  C   UNL A   1      38.237  29.404  29.292  1.00  0.00    -0.014 A 
BRANCH  13  14
ATOM     14  C   UNL A   1      39.516  28.861  29.816  1.00  0.00     0.031 A 
ATOM     15  C   UNL A   1      40.174  29.463  31.029  1.00  0.00     0.074 A 
ATOM     16  C   UNL A   1      40.098  27.825  29.184  1.00  0.00     0.049 A 
ATOM     17  N   UNL A   1      41.310  29.142  31.597  1.00  0.00    -0.248 NA
ATOM     18  C   UNL A   1      39.468  30.575  31.683  1.00  0.00     0.031 C 
ATOM     19  C   UNL A   1      39.567  27.158  27.996  1.00  0.00     0.029 A 
ATOM     20  N   UNL A   1      41.263  27.154  29.452  1.00  0.00    -0.354 N 
ATOM     21  C   UNL A   1      41.466  30.023  32.660  1.00  0.00     0.074 A 
ATOM     22  C   UNL A   1      40.320  30.908  32.643  1.00  0.00     0.031 C 
ATOM     23  C   UNL A   1      40.389  26.157  27.651  1.00  0.00     0.029 A 
ATOM     24  C   UNL A   1      41.531  26.145  28.561  1.00  0.00     0.049 A 
ATOM     25  H   UNL A   1      41.852  27.374  30.211  1.00  0.00     0.167 HD
ATOM     26  C   UNL A   1      42.469  30.084  33.570  1.00  0.00     0.037 A 
ATOM     27  C   UNL A   1      42.585  25.315  28.471  1.00  0.00     0.037 A 
ATOM     28  C   UNL A   1      43.603  29.195  33.594  1.00  0.00     0.049 A 
ATOM     29  C   UNL A   1      43.701  25.424  29.469  1.00  0.00     0.074 A 
ATOM     30  C   UNL A   1      44.646  29.150  34.505  1.00  0.00     0.029 A 
ATOM     31  N   UNL A   1      43.850  28.201  32.659  1.00  0.00    -0.354 N 
ATOM     32  N   UNL A   1      43.817  26.238  30.490  1.00  0.00    -0.248 NA
ATOM     33  C   UNL A   1      44.833  24.503  29.298  1.00  0.00     0.031 C 
ATOM     34  C   UNL A   1      45.545  28.159  34.095  1.00  0.00     0.029 A 
ATOM     35  C   UNL A   1      45.040  27.555  32.956  1.00  0.00     0.049 A 
ATOM     36  H   UNL A   1      43.266  27.986  31.896  1.00  0.00     0.167 HD
ATOM     37  C   UNL A   1      45.023  25.913  31.097  1.00  0.00     0.074 A 
ATOM     38  C   UNL A   1      45.594  24.822  30.336  1.00  0.00     0.031 C 
ATOM     39  C   UNL A   1      45.601  26.470  32.190  1.00  0.00     0.037 A 
BRANCH  26  40
ATOM     40  C   UNL A   1      42.396  31.166  34.610  1.00  0.00     0.057 A 
ATOM     41  C   UNL A   1      42.910  32.450  34.382  1.00  0.00     0.134 A 
ATOM     42  C   UNL A   1      41.772  30.931  35.842  1.00  0.00     0.134 A 
ATOM     43  F   UNL A   1      43.528  32.739  33.228  1.00  0.00    -0.206 F 
ATOM     44  C   UNL A   1      42.831  33.451  35.354  1.00  0.00     0.040 A 
ATOM     45  C   UNL A   1      41.665  31.931  36.811  1.00  0.00     0.040 A 
ATOM     46  F   UNL A   1      41.251  29.727  36.123  1.00  0.00    -0.206 F 
ATOM     47  C   UNL A   1      42.202  33.194  36.570  1.00  0.00     0.006 A 
ENDBRANCH  26  40
BRANCH  27  48
ATOM     48  C   UNL A   1      42.623  24.298  27.393  1.00  0.00     0.057 A 
ATOM     49  C   UNL A   1      43.151  24.604  26.134  1.00  0.00     0.134 A 
ATOM     50  C   UNL A   1      42.160  22.993  27.602  1.00  0.00     0.134 A 
ATOM     51  F   UNL A   1      43.593  25.842  25.872  1.00  0.00    -0.206 F 
ATOM     52  C   UNL A   1      43.214  23.649  25.119  1.00  0.00     0.040 A 
ATOM     53  C   UNL A   1      42.238  22.023  26.603  1.00  0.00     0.040 A 
ATOM     54  F   UNL A   1      41.648  22.639  28.790  1.00  0.00    -0.206 F 
ATOM     55  C   UNL A   1      42.763  22.351  25.356  1.00  0.00     0.006 A 
ENDBRANCH  27  48
BRANCH  39  56
ATOM     56  C   UNL A   1      46.907  25.885  32.643  1.00  0.00     0.057 A 
ATOM     57  C   UNL A   1      48.132  26.310  32.114  1.00  0.00     0.134 A 
ATOM     58  C   UNL A   1      46.938  24.900  33.639  1.00  0.00     0.134 A 
ATOM     59  F   UNL A   1      48.168  27.238  31.146  1.00  0.00    -0.206 F 
ATOM     60  C   UNL A   1      49.341  25.758  32.541  1.00  0.00     0.040 A 
ATOM     61  C   UNL A   1      48.142  24.360  34.092  1.00  0.00     0.040 A 
ATOM     62  F   UNL A   1      45.801  24.454  34.191  1.00  0.00    -0.206 F 
ATOM     63  C   UNL A   1      49.347  24.784  33.538  1.00  0.00     0.006 A 
ENDBRANCH  39  56
ENDBRANCH  13  14
ENDBRANCH   6   8
ENDBRANCH   3   4
ENDBRANCH   2   3
ENDBRANCH   1   2
BRANCH   1  64
ATOM     64  C   UNL A   1      32.382  26.056  26.451  1.00  0.00     0.116 C 
BRANCH  64  65
ATOM     65  N   UNL A   1      31.211  25.316  26.881  1.00  0.00    -0.352 N 
ATOM     66  C   UNL A   1      30.997  23.965  26.911  1.00  0.00     0.252 C 
ATOM     67  H   UNL A   1      30.459  25.869  27.198  1.00  0.00     0.163 HD
ATOM     68  O   UNL A   1      29.857  23.558  27.124  1.00  0.00    -0.269 OA
BRANCH  66  69
ATOM     69  C   UNL A   1      32.075  23.008  26.583  1.00  0.00     0.052 A 
ATOM     70  C   UNL A   1      32.756  22.459  27.684  1.00  0.00     0.014 A 
ATOM     71  C   UNL A   1      32.437  22.625  25.285  1.00  0.00     0.052 A 
ATOM     72  C   UNL A   1      33.729  21.476  27.497  1.00  0.00     0.001 A 
ATOM     73  C   UNL A   1      33.389  21.606  25.111  1.00  0.00     0.014 A 
ATOM     74  C   UNL A   1      34.032  21.035  26.213  1.00  0.00     0.001 A 
BRANCH  71  75
ATOM     75  C   UNL A   1      31.787  23.141  24.061  1.00  0.00     0.255 C 
ATOM     76  O   UNL A   1      30.799  22.527  23.657  1.00  0.00    -0.269 OA
BRANCH  75  77
ATOM     77  N   UNL A   1      32.193  24.335  23.493  1.00  0.00    -0.322 N 
ATOM     78  C   UNL A   1      31.179  25.130  22.823  1.00  0.00     0.132 C 
ATOM     79  C   UNL A   1      33.508  24.630  22.922  1.00  0.00     0.174 C 
ATOM     80  C   UNL A   1      31.663  26.566  22.844  1.00  0.00     0.093 C 
ATOM     81  S   UNL A   1      33.440  26.421  22.513  1.00  0.00    -0.130 SA
BRANCH  79  82
ATOM     82  C   UNL A   1      34.752  24.168  23.637  1.00  0.00    -0.015 A 
ATOM     83  C   UNL A   1      35.136  24.615  24.909  1.00  0.00     0.007 A 
ATOM     84  C   UNL A   1      35.582  23.231  22.992  1.00  0.00     0.007 A 
ATOM     85  C   UNL A   1      36.292  24.124  25.523  1.00  0.00     0.000 A 
ATOM     86  C   UNL A   1      36.733  22.736  23.606  1.00  0.00     0.000 A 
ATOM     87  C   UNL A   1      37.085  23.182  24.875  1.00  0.00     0.000 A 
ENDBRANCH  79  82
ENDBRANCH  75  77
ENDBRANCH  71  75
ENDBRANCH  66  69
ENDBRANCH  64  65
ENDBRANCH   1  64
TORSDOF 14
ENDMDL
MODEL 3
REMARK VINA RESULT:     -11.5      3.510      5.308
REMARK SMILES O=C(NCCCCNC(=O)c1ccccc1C(=O)N1CCS[C@H]1c1ccccc1)c1ccc(-c2c3nc(c(-c4c(F)cccc4F)c4ccc([nH]4)c(-c4c(F)cccc4F)c4nc(c(-c5c(F)cccc5F)c5ccc2[nH]5)C=C4)C=C3)cc1
REMARK SMILES IDX 6 1 5 2 4 3 3 4 1 5 2 6 30 8 31 9 83 10 32 11 82 12 33 13
REMARK SMILES IDX 34 14 35 15 76 16 36 17 81 18 75 19 77 20 37 21 80 22 74 23
REMARK SMILES IDX 73 24 38 26 64 27 47 28 63 29 48 30 51 31 62 32 78 33 49 34
REMARK SMILES IDX 50 35 61 37 79 38 52 39 39 40 40 41 45 42 41 43 42 44 44 45
REMARK SMILES IDX 46 46 43 47 65 48 66 49 71 50 67 51 68 52 70 53 72 54 69 55
REMARK SMILES IDX 53 56 54 57 59 58 55 59 56 60 58 61 60 62 57 63 7 64 8 65
REMARK SMILES IDX 9 66 10 68 11 69 12 70 16 71 13 72 15 73 14 74 17 75 18 76
REMARK SMILES IDX 19 77 20 78 23 79 21 80 22 81 24 82 25 83 29 84 26 85 28 86
REMARK SMILES IDX 27 87
REMARK H PARENT 3 7 77 25 51 36 8 67
REMARK Flexibility Score: inf
ROOT
ATOM      1  C   UNL A   1      31.454  30.826  25.754  1.00  0.00     0.023 C 
ENDROOT
BRANCH   1   2
ATOM      2  C   UNL A   1      31.189  32.121  26.529  1.00  0.00     0.023 C 
BRANCH   2   3
ATOM      3  C   UNL A   1      32.397  32.763  27.201  1.00  0.00     0.116 C 
BRANCH   3   4
ATOM      4  N   UNL A   1      32.188  34.148  27.581  1.00  0.00    -0.352 N 
ATOM      5  O   UNL A   1      32.539  36.048  28.754  1.00  0.00    -0.269 OA
ATOM      6  C   UNL A   1      32.903  34.916  28.473  1.00  0.00     0.251 C 
ATOM      7  H   UNL A   1      31.431  34.599  27.142  1.00  0.00     0.163 HD
BRANCH   6   8
ATOM      8  C   UNL A   1      34.104  34.347  29.124  1.00  0.00     0.039 A 
ATOM      9  C   UNL A   1      35.377  34.538  28.579  1.00  0.00     0.014 A 
ATOM     10  C   UNL A   1      33.940  33.596  30.290  1.00  0.00     0.014 A 
ATOM     11  C   UNL A   1      36.470  33.872  29.131  1.00  0.00     0.010 A 
ATOM     12  C   UNL A   1      35.048  32.977  30.876  1.00  0.00     0.010 A 
ATOM     13  C   UNL A   1      36.316  33.081  30.281  1.00  0.00    -0.014 A 
BRANCH  13  14
ATOM     14  C   UNL A   1      37.486  32.385  30.877  1.00  0.00     0.031 A 
ATOM     15  C   UNL A   1      38.123  32.887  32.144  1.00  0.00     0.074 A 
ATOM     16  C   UNL A   1      37.987  31.298  30.261  1.00  0.00     0.049 A 
ATOM     17  N   UNL A   1      39.172  32.429  32.779  1.00  0.00    -0.248 NA
ATOM     18  C   UNL A   1      37.505  34.063  32.776  1.00  0.00     0.031 C 
ATOM     19  C   UNL A   1      37.466  30.715  29.025  1.00  0.00     0.029 A 
ATOM     20  N   UNL A   1      39.046  30.492  30.591  1.00  0.00    -0.354 N 
ATOM     21  C   UNL A   1      39.355  33.268  33.871  1.00  0.00     0.074 A 
ATOM     22  C   UNL A   1      38.322  34.281  33.798  1.00  0.00     0.031 C 
ATOM     23  C   UNL A   1      38.190  29.631  28.712  1.00  0.00     0.029 A 
ATOM     24  C   UNL A   1      39.257  29.472  29.696  1.00  0.00     0.049 A 
ATOM     25  H   UNL A   1      39.602  30.630  31.392  1.00  0.00     0.167 HD
ATOM     26  C   UNL A   1      40.293  33.199  34.847  1.00  0.00     0.037 A 
ATOM     27  C   UNL A   1      40.213  28.527  29.658  1.00  0.00     0.037 A 
ATOM     28  C   UNL A   1      41.314  32.185  34.926  1.00  0.00     0.049 A 
ATOM     29  C   UNL A   1      41.262  28.492  30.730  1.00  0.00     0.074 A 
ATOM     30  C   UNL A   1      42.279  32.004  35.903  1.00  0.00     0.029 A 
ATOM     31  N   UNL A   1      41.509  31.183  33.986  1.00  0.00    -0.354 N 
ATOM     32  N   UNL A   1      41.400  29.270  31.775  1.00  0.00    -0.248 NA
ATOM     33  C   UNL A   1      42.290  27.448  30.614  1.00  0.00     0.031 C 
ATOM     34  C   UNL A   1      43.085  30.922  35.531  1.00  0.00     0.029 A 
ATOM     35  C   UNL A   1      42.593  30.398  34.347  1.00  0.00     0.049 A 
ATOM     36  H   UNL A   1      40.958  31.049  33.181  1.00  0.00     0.167 HD
ATOM     37  C   UNL A   1      42.516  28.799  32.454  1.00  0.00     0.074 A 
ATOM     38  C   UNL A   1      43.010  27.660  31.708  1.00  0.00     0.031 C 
ATOM     39  C   UNL A   1      43.078  29.268  33.595  1.00  0.00     0.037 A 
BRANCH  26  40
ATOM     40  C   UNL A   1      40.273  34.267  35.904  1.00  0.00     0.057 A 
ATOM     41  C   UNL A   1      40.984  35.466  35.762  1.00  0.00     0.134 A 
ATOM     42  C   UNL A   1      39.505  34.107  37.065  1.00  0.00     0.134 A 
ATOM     43  F   UNL A   1      41.747  35.678  34.680  1.00  0.00    -0.206 F 
ATOM     44  C   UNL A   1      40.954  36.454  36.748  1.00  0.00     0.040 A 
ATOM     45  C   UNL A   1      39.447  35.098  38.046  1.00  0.00     0.040 A 
ATOM     46  F   UNL A   1      38.792  32.987  37.262  1.00  0.00    -0.206 F 
ATOM     47  C   UNL A   1      40.178  36.274  37.892  1.00  0.00     0.006 A 
ENDBRANCH  26  40
BRANCH  27  48
ATOM     48  C   UNL A   1      40.208  27.529  28.561  1.00  0.00     0.057 A 
ATOM     49  C   UNL A   1      40.881  27.778  27.360  1.00  0.00     0.134 A 
ATOM     50  C   UNL A   1      39.557  26.298  28.697  1.00  0.00     0.134 A 
ATOM     51  F   UNL A   1      41.507  28.947  27.168  1.00  0.00    -0.206 F 
ATOM     52  C   UNL A   1      40.904  26.837  26.330  1.00  0.00     0.040 A 
ATOM     53  C   UNL A   1      39.591  25.339  27.684  1.00  0.00     0.040 A 
ATOM     54  F   UNL A   1      38.900  26.000  29.828  1.00  0.00    -0.206 F 
ATOM     55  C   UNL A   1      40.263  25.610  26.495  1.00  0.00     0.006 A 
ENDBRANCH  27  48
BRANCH  39  56
ATOM     56  C   UNL A   1      44.273  28.528  34.121  1.00  0.00     0.057 A 
ATOM     57  C   UNL A   1      44.143  27.395  34.935  1.00  0.00     0.134 A 
ATOM     58  C   UNL A   1      45.569  28.940  33.789  1.00  0.00     0.134 A 
ATOM     59  F   UNL A   1      42.928  26.959  35.302  1.00  0.00    -0.206 F 
ATOM     60  C   UNL A   1      45.260  26.714  35.420  1.00  0.00     0.040 A 
ATOM     61  C   UNL A   1      46.694  28.253  34.247  1.00  0.00     0.040 A 
ATOM     62  F   UNL A   1      45.764  30.013  33.008  1.00  0.00    -0.206 F 
ATOM     63  C   UNL A   1      46.541  27.140  35.070  1.00  0.00     0.006 A 
ENDBRANCH  39  56
ENDBRANCH  13  14
ENDBRANCH   6   8
ENDBRANCH   3   4
ENDBRANCH   2   3
ENDBRANCH   1   2
BRANCH   1  64
ATOM     64  C   UNL A   1      31.736  29.585  26.600  1.00  0.00     0.116 C 
BRANCH  64  65
ATOM     65  N   UNL A   1      33.153  29.377  26.826  1.00  0.00    -0.352 N 
ATOM     66  C   UNL A   1      34.042  28.605  26.129  1.00  0.00     0.252 C 
ATOM     67  H   UNL A   1      33.531  29.862  27.596  1.00  0.00     0.163 HD
ATOM     68  O   UNL A   1      35.155  28.413  26.612  1.00  0.00    -0.269 OA
BRANCH  66  69
ATOM     69  C   UNL A   1      33.649  27.917  24.880  1.00  0.00     0.052 A 
ATOM     70  C   UNL A   1      33.931  28.609  23.690  1.00  0.00     0.014 A 
ATOM     71  C   UNL A   1      33.043  26.655  24.820  1.00  0.00     0.052 A 
ATOM     72  C   UNL A   1      33.689  28.016  22.450  1.00  0.00     0.001 A 
ATOM     73  C   UNL A   1      32.840  26.051  23.566  1.00  0.00     0.014 A 
ATOM     74  C   UNL A   1      33.161  26.729  22.388  1.00  0.00     0.001 A 
BRANCH  71  75
ATOM     75  C   UNL A   1      32.704  25.844  26.009  1.00  0.00     0.255 C 
ATOM     76  O   UNL A   1      32.638  26.439  27.085  1.00  0.00    -0.269 OA
BRANCH  75  77
ATOM     77  N   UNL A   1      32.343  24.515  25.881  1.00  0.00    -0.322 N 
ATOM     78  C   UNL A   1      30.986  24.158  26.254  1.00  0.00     0.132 C 
ATOM     79  C   UNL A   1      33.218  23.352  26.030  1.00  0.00     0.174 C 
ATOM     80  C   UNL A   1      30.638  22.897  25.489  1.00  0.00     0.093 C 
ATOM     81  S   UNL A   1      32.164  21.920  25.560  1.00  0.00    -0.130 SA
BRANCH  79  82
ATOM     82  C   UNL A   1      34.598  23.375  25.424  1.00  0.00    -0.015 A 
ATOM     83  C   UNL A   1      35.759  23.723  26.129  1.00  0.00     0.007 A 
ATOM     84  C   UNL A   1      34.735  23.027  24.066  1.00  0.00     0.007 A 
ATOM     85  C   UNL A   1      37.011  23.699  25.508  1.00  0.00     0.000 A 
ATOM     86  C   UNL A   1      35.985  22.997  23.446  1.00  0.00     0.000 A 
ATOM     87  C   UNL A   1      37.124  23.330  24.171  1.00  0.00     0.000 A 
ENDBRANCH  79  82
ENDBRANCH  75  77
ENDBRANCH  71  75
ENDBRANCH  66  69
ENDBRANCH  64  65
ENDBRANCH   1  64
TORSDOF 14
ENDMDL
