MODEL 1
REMARK VINA RESULT:     -13.1      0.000      0.000
REMARK SMILES Cc1c(-c2nn(-c3ccccc3)cc2/C=N/O)nnn1-c1ccc(C(=O)NCCCCNC(=O)c2ccc(-c3c4nc(c(-c5c(F)cccc5F)c5ccc([nH]5)c(-c5c(F)cccc5F)c5nc(c(-c6c(F)cccc6F)c6ccc3[nH]6)C=C5)C=C4)cc2)cc1
REMARK SMILES IDX 28 1 27 2 25 3 26 4 24 6 21 7 22 8 90 9 23 10 89 11 20 12
REMARK SMILES IDX 1 13 2 14 3 15 18 16 19 17 4 18 5 19 14 20 6 21 13 22 15 23
REMARK SMILES IDX 16 24 17 25 7 27 8 28 12 29 9 30 11 31 10 32 29 33 30 34
REMARK SMILES IDX 31 35 32 36 33 37 34 39 35 40 36 41 88 42 37 43 87 44 38 45
REMARK SMILES IDX 39 46 40 47 81 48 41 49 86 50 80 51 82 52 42 53 85 54 79 55
REMARK SMILES IDX 78 56 43 58 69 59 52 60 68 61 53 62 56 63 67 64 83 65 54 66
REMARK SMILES IDX 55 67 66 69 84 70 57 71 44 72 45 73 50 74 46 75 47 76 49 77
REMARK SMILES IDX 51 78 48 79 70 80 71 81 76 82 72 83 73 84 75 85 77 86 74 87
REMARK SMILES IDX 58 88 59 89 64 90 60 91 61 92 63 93 65 94 62 95
REMARK H PARENT 27 5 17 26 32 38 82 57 56 68
REMARK Flexibility Score: inf
ROOT
ATOM      1  C   UNL A   1      31.683  30.657  26.558  1.00  0.00     0.116 C 
ENDROOT
BRANCH   1   2
ATOM      2  N   UNL A   1      30.866  30.910  25.386  1.00  0.00    -0.352 N 
ATOM      3  C   UNL A   1      30.629  30.223  24.224  1.00  0.00     0.251 C 
ATOM      4  O   UNL A   1      29.838  30.743  23.433  1.00  0.00    -0.269 OA
ATOM      5  H   UNL A   1      30.374  31.761  25.437  1.00  0.00     0.163 HD
BRANCH   3   6
ATOM      6  C   UNL A   1      31.211  28.887  23.884  1.00  0.00     0.039 A 
ATOM      7  C   UNL A   1      32.198  26.285  23.463  1.00  0.00     0.067 A 
ATOM      8  C   UNL A   1      30.939  26.457  24.037  1.00  0.00     0.029 A 
ATOM      9  C   UNL A   1      32.933  27.392  23.033  1.00  0.00     0.029 A 
ATOM     10  C   UNL A   1      30.472  27.754  24.276  1.00  0.00     0.016 A 
ATOM     11  C   UNL A   1      32.411  28.681  23.196  1.00  0.00     0.016 A 
BRANCH   7  12
ATOM     12  N   UNL A   1      32.718  24.986  23.290  1.00  0.00    -0.217 N 
ATOM     13  C   UNL A   1      32.804  24.214  25.704  1.00  0.00     0.069 C 
ATOM     14  C   UNL A   1      33.117  24.089  24.261  1.00  0.00     0.071 A 
ATOM     15  C   UNL A   1      33.710  23.080  23.527  1.00  0.00     0.137 A 
ATOM     16  N   UNL A   1      33.571  23.326  22.191  1.00  0.00    -0.128 NA
ATOM     17  N   UNL A   1      32.891  24.459  22.057  1.00  0.00    -0.061 NA
BRANCH  15  18
ATOM     18  C   UNL A   1      34.287  21.830  24.007  1.00  0.00     0.124 A 
ATOM     19  N   UNL A   1      33.619  20.675  23.916  1.00  0.00    -0.165 NA
ATOM     20  C   UNL A   1      35.548  21.679  24.629  1.00  0.00     0.044 A 
ATOM     21  N   UNL A   1      34.398  19.781  24.561  1.00  0.00    -0.240 N 
ATOM     22  C   UNL A   1      35.566  20.351  25.013  1.00  0.00     0.125 A 
BRANCH  20  23
ATOM     23  C   UNL A   1      36.623  22.609  24.862  1.00  0.00     0.166 C 
ATOM     24  N   UNL A   1      37.644  22.262  25.573  1.00  0.00    -0.097 NA
BRANCH  24  25
ATOM     25  O   UNL A   1      38.524  23.348  25.671  1.00  0.00    -0.411 OA
ATOM     26  H   UNL A   1      38.959  23.670  24.907  1.00  0.00     0.330 HD
ENDBRANCH  24  25
ENDBRANCH  20  23
BRANCH  21  27
ATOM     27  C   UNL A   1      33.969  18.445  24.734  1.00  0.00     0.065 A 
ATOM     28  C   UNL A   1      32.824  18.190  25.500  1.00  0.00     0.028 A 
ATOM     29  C   UNL A   1      34.690  17.387  24.167  1.00  0.00     0.028 A 
ATOM     30  C   UNL A   1      32.387  16.879  25.678  1.00  0.00     0.002 A 
ATOM     31  C   UNL A   1      34.274  16.074  24.396  1.00  0.00     0.002 A 
ATOM     32  C   UNL A   1      33.120  15.821  25.138  1.00  0.00     0.000 A 
ENDBRANCH  21  27
ENDBRANCH  15  18
ENDBRANCH   7  12
ENDBRANCH   3   6
ENDBRANCH   1   2
BRANCH   1  33
ATOM     33  C   UNL A   1      33.122  30.299  26.167  1.00  0.00     0.023 C 
BRANCH  33  34
ATOM     34  C   UNL A   1      33.623  28.953  26.717  1.00  0.00     0.023 C 
BRANCH  34  35
ATOM     35  C   UNL A   1      35.053  28.970  27.252  1.00  0.00     0.116 C 
BRANCH  35  36
ATOM     36  N   UNL A   1      35.245  29.941  28.329  1.00  0.00    -0.352 N 
ATOM     37  C   UNL A   1      36.271  30.005  29.246  1.00  0.00     0.251 C 
ATOM     38  H   UNL A   1      34.555  30.638  28.407  1.00  0.00     0.163 HD
ATOM     39  O   UNL A   1      36.126  30.595  30.316  1.00  0.00    -0.269 OA
BRANCH  37  40
ATOM     40  C   UNL A   1      37.558  29.370  28.926  1.00  0.00     0.039 A 
ATOM     41  C   UNL A   1      38.275  29.718  27.778  1.00  0.00     0.014 A 
ATOM     42  C   UNL A   1      38.054  28.421  29.818  1.00  0.00     0.014 A 
ATOM     43  C   UNL A   1      39.539  29.169  27.583  1.00  0.00     0.010 A 
ATOM     44  C   UNL A   1      39.348  27.977  29.691  1.00  0.00     0.010 A 
ATOM     45  C   UNL A   1      40.081  28.317  28.558  1.00  0.00    -0.014 A 
BRANCH  45  46
ATOM     46  C   UNL A   1      41.479  27.897  28.483  1.00  0.00     0.031 A 
ATOM     47  C   UNL A   1      41.689  26.624  27.736  1.00  0.00     0.074 A 
ATOM     48  C   UNL A   1      42.505  28.701  28.838  1.00  0.00     0.049 A 
ATOM     49  N   UNL A   1      42.116  25.497  28.197  1.00  0.00    -0.248 NA
ATOM     50  C   UNL A   1      41.233  26.555  26.336  1.00  0.00     0.031 C 
ATOM     51  C   UNL A   1      42.433  30.100  29.280  1.00  0.00     0.029 A 
ATOM     52  N   UNL A   1      43.849  28.479  28.773  1.00  0.00    -0.354 N 
ATOM     53  C   UNL A   1      42.193  24.637  27.101  1.00  0.00     0.074 A 
ATOM     54  C   UNL A   1      41.459  25.272  26.042  1.00  0.00     0.031 C 
ATOM     55  C   UNL A   1      43.659  30.664  29.213  1.00  0.00     0.029 A 
ATOM     56  C   UNL A   1      44.625  29.629  28.899  1.00  0.00     0.049 A 
ATOM     57  H   UNL A   1      44.237  27.584  28.647  1.00  0.00     0.167 HD
ATOM     58  C   UNL A   1      43.093  23.614  27.083  1.00  0.00     0.037 A 
ATOM     59  C   UNL A   1      45.968  29.732  28.750  1.00  0.00     0.037 A 
ATOM     60  C   UNL A   1      43.618  23.386  28.407  1.00  0.00     0.049 A 
ATOM     61  C   UNL A   1      46.531  28.374  28.901  1.00  0.00     0.074 A 
ATOM     62  C   UNL A   1      43.125  22.932  29.610  1.00  0.00     0.029 A 
ATOM     63  N   UNL A   1      44.792  24.040  28.673  1.00  0.00    -0.354 N 
ATOM     64  N   UNL A   1      46.531  27.710  30.021  1.00  0.00    -0.248 NA
ATOM     65  C   UNL A   1      46.772  27.580  27.705  1.00  0.00     0.031 C 
ATOM     66  C   UNL A   1      43.872  23.620  30.612  1.00  0.00     0.029 A 
ATOM     67  C   UNL A   1      44.830  24.421  29.985  1.00  0.00     0.049 A 
ATOM     68  H   UNL A   1      45.505  24.211  28.016  1.00  0.00     0.167 HD
ATOM     69  C   UNL A   1      46.317  26.397  29.644  1.00  0.00     0.074 A 
ATOM     70  C   UNL A   1      46.646  26.355  28.223  1.00  0.00     0.031 C 
ATOM     71  C   UNL A   1      45.599  25.556  30.446  1.00  0.00     0.037 A 
BRANCH  58  72
ATOM     72  C   UNL A   1      43.862  23.146  25.859  1.00  0.00     0.057 A 
ATOM     73  C   UNL A   1      43.907  21.765  25.574  1.00  0.00     0.134 A 
ATOM     74  C   UNL A   1      44.806  23.921  25.154  1.00  0.00     0.134 A 
ATOM     75  F   UNL A   1      43.066  20.909  26.176  1.00  0.00    -0.206 F 
ATOM     76  C   UNL A   1      44.874  21.194  24.735  1.00  0.00     0.040 A 
ATOM     77  C   UNL A   1      45.745  23.367  24.277  1.00  0.00     0.040 A 
ATOM     78  F   UNL A   1      44.947  25.237  25.342  1.00  0.00    -0.206 F 
ATOM     79  C   UNL A   1      45.806  21.997  24.091  1.00  0.00     0.006 A 
ENDBRANCH  58  72
BRANCH  59  80
ATOM     80  C   UNL A   1      46.781  30.873  28.279  1.00  0.00     0.057 A 
ATOM     81  C   UNL A   1      46.607  31.417  26.997  1.00  0.00     0.134 A 
ATOM     82  C   UNL A   1      47.545  31.637  29.175  1.00  0.00     0.134 A 
ATOM     83  F   UNL A   1      45.863  30.779  26.082  1.00  0.00    -0.206 F 
ATOM     84  C   UNL A   1      47.137  32.664  26.639  1.00  0.00     0.040 A 
ATOM     85  C   UNL A   1      48.083  32.883  28.830  1.00  0.00     0.040 A 
ATOM     86  F   UNL A   1      47.717  31.241  30.445  1.00  0.00    -0.206 F 
ATOM     87  C   UNL A   1      47.865  33.408  27.562  1.00  0.00     0.006 A 
ENDBRANCH  59  80
BRANCH  71  88
ATOM     88  C   UNL A   1      45.442  25.946  31.889  1.00  0.00     0.057 A 
ATOM     89  C   UNL A   1      46.422  25.774  32.877  1.00  0.00     0.134 A 
ATOM     90  C   UNL A   1      44.281  26.633  32.260  1.00  0.00     0.134 A 
ATOM     91  F   UNL A   1      47.600  25.203  32.600  1.00  0.00    -0.206 F 
ATOM     92  C   UNL A   1      46.234  26.233  34.185  1.00  0.00     0.040 A 
ATOM     93  C   UNL A   1      44.097  27.128  33.552  1.00  0.00     0.040 A 
ATOM     94  F   UNL A   1      43.320  26.873  31.354  1.00  0.00    -0.206 F 
ATOM     95  C   UNL A   1      45.072  26.920  34.523  1.00  0.00     0.006 A 
ENDBRANCH  71  88
ENDBRANCH  45  46
ENDBRANCH  37  40
ENDBRANCH  35  36
ENDBRANCH  34  35
ENDBRANCH  33  34
ENDBRANCH   1  33
TORSDOF 16
ENDMDL
MODEL 2
REMARK VINA RESULT:     -12.6      1.861      5.787
REMARK SMILES Cc1c(-c2nn(-c3ccccc3)cc2/C=N/O)nnn1-c1ccc(C(=O)NCCCCNC(=O)c2ccc(-c3c4nc(c(-c5c(F)cccc5F)c5ccc([nH]5)c(-c5c(F)cccc5F)c5nc(c(-c6c(F)cccc6F)c6ccc3[nH]6)C=C5)C=C4)cc2)cc1
REMARK SMILES IDX 28 1 27 2 25 3 26 4 24 6 21 7 22 8 90 9 23 10 89 11 20 12
REMARK SMILES IDX 1 13 2 14 3 15 18 16 19 17 4 18 5 19 14 20 6 21 13 22 15 23
REMARK SMILES IDX 16 24 17 25 7 27 8 28 12 29 9 30 11 31 10 32 29 33 30 34
REMARK SMILES IDX 31 35 32 36 33 37 34 39 35 40 36 41 88 42 37 43 87 44 38 45
REMARK SMILES IDX 39 46 40 47 81 48 41 49 86 50 80 51 82 52 42 53 85 54 79 55
REMARK SMILES IDX 78 56 43 58 69 59 52 60 68 61 53 62 56 63 67 64 83 65 54 66
REMARK SMILES IDX 55 67 66 69 84 70 57 71 44 72 45 73 50 74 46 75 47 76 49 77
REMARK SMILES IDX 51 78 48 79 70 80 71 81 76 82 72 83 73 84 75 85 77 86 74 87
REMARK SMILES IDX 58 88 59 89 64 90 60 91 61 92 63 93 65 94 62 95
REMARK H PARENT 27 5 17 26 32 38 82 57 56 68
REMARK Flexibility Score: inf
ROOT
ATOM      1  C   UNL A   1      31.781  30.545  26.753  1.00  0.00     0.116 C 
ENDROOT
BRANCH   1   2
ATOM      2  N   UNL A   1      30.974  30.787  25.571  1.00  0.00    -0.352 N 
ATOM      3  C   UNL A   1      30.786  30.112  24.392  1.00  0.00     0.251 C 
ATOM      4  O   UNL A   1      29.989  30.616  23.597  1.00  0.00    -0.269 OA
ATOM      5  H   UNL A   1      30.447  31.616  25.628  1.00  0.00     0.163 HD
BRANCH   3   6
ATOM      6  C   UNL A   1      31.428  28.808  24.039  1.00  0.00     0.039 A 
ATOM      7  C   UNL A   1      32.496  26.247  23.567  1.00  0.00     0.067 A 
ATOM      8  C   UNL A   1      31.163  26.373  23.958  1.00  0.00     0.029 A 
ATOM      9  C   UNL A   1      33.273  27.384  23.340  1.00  0.00     0.029 A 
ATOM     10  C   UNL A   1      30.651  27.647  24.226  1.00  0.00     0.016 A 
ATOM     11  C   UNL A   1      32.718  28.656  23.524  1.00  0.00     0.016 A 
BRANCH   7  12
ATOM     12  N   UNL A   1      33.050  24.966  23.372  1.00  0.00    -0.217 N 
ATOM     13  C   UNL A   1      32.955  24.072  25.742  1.00  0.00     0.069 C 
ATOM     14  C   UNL A   1      33.386  24.025  24.325  1.00  0.00     0.071 A 
ATOM     15  C   UNL A   1      34.053  23.064  23.592  1.00  0.00     0.137 A 
ATOM     16  N   UNL A   1      34.017  23.376  22.264  1.00  0.00    -0.128 NA
ATOM     17  N   UNL A   1      33.331  24.505  22.132  1.00  0.00    -0.061 NA
BRANCH  15  18
ATOM     18  C   UNL A   1      34.611  21.798  24.055  1.00  0.00     0.124 A 
ATOM     19  N   UNL A   1      33.896  20.669  24.023  1.00  0.00    -0.165 NA
ATOM     20  C   UNL A   1      35.903  21.606  24.598  1.00  0.00     0.044 A 
ATOM     21  N   UNL A   1      34.679  19.753  24.632  1.00  0.00    -0.240 N 
ATOM     22  C   UNL A   1      35.894  20.283  25.001  1.00  0.00     0.125 A 
BRANCH  20  23
ATOM     23  C   UNL A   1      37.025  22.497  24.749  1.00  0.00     0.166 C 
ATOM     24  N   UNL A   1      37.241  23.090  25.876  1.00  0.00    -0.097 NA
BRANCH  24  25
ATOM     25  O   UNL A   1      38.365  23.916  25.751  1.00  0.00    -0.411 OA
ATOM     26  H   UNL A   1      38.735  24.322  26.510  1.00  0.00     0.330 HD
ENDBRANCH  24  25
ENDBRANCH  20  23
BRANCH  21  27
ATOM     27  C   UNL A   1      34.212  18.438  24.851  1.00  0.00     0.065 A 
ATOM     28  C   UNL A   1      32.905  18.248  25.319  1.00  0.00     0.028 A 
ATOM     29  C   UNL A   1      35.049  17.338  24.626  1.00  0.00     0.028 A 
ATOM     30  C   UNL A   1      32.428  16.957  25.539  1.00  0.00     0.002 A 
ATOM     31  C   UNL A   1      34.580  16.052  24.900  1.00  0.00     0.002 A 
ATOM     32  C   UNL A   1      33.270  15.861  25.344  1.00  0.00     0.000 A 
ENDBRANCH  21  27
ENDBRANCH  15  18
ENDBRANCH   7  12
ENDBRANCH   3   6
ENDBRANCH   1   2
BRANCH   1  33
ATOM     33  C   UNL A   1      33.274  30.505  26.409  1.00  0.00     0.023 C 
BRANCH  33  34
ATOM     34  C   UNL A   1      34.216  30.507  27.626  1.00  0.00     0.023 C 
BRANCH  34  35
ATOM     35  C   UNL A   1      35.002  31.799  27.828  1.00  0.00     0.116 C 
BRANCH  35  36
ATOM     36  N   UNL A   1      34.984  32.265  29.215  1.00  0.00    -0.352 N 
ATOM     37  C   UNL A   1      35.652  31.739  30.299  1.00  0.00     0.251 C 
ATOM     38  H   UNL A   1      34.425  33.054  29.395  1.00  0.00     0.163 HD
ATOM     39  O   UNL A   1      35.261  31.954  31.446  1.00  0.00    -0.269 OA
BRANCH  37  40
ATOM     40  C   UNL A   1      36.855  30.926  30.073  1.00  0.00     0.039 A 
ATOM     41  C   UNL A   1      38.095  31.517  29.819  1.00  0.00     0.014 A 
ATOM     42  C   UNL A   1      36.725  29.540  30.143  1.00  0.00     0.014 A 
ATOM     43  C   UNL A   1      39.222  30.704  29.726  1.00  0.00     0.010 A 
ATOM     44  C   UNL A   1      37.849  28.751  30.176  1.00  0.00     0.010 A 
ATOM     45  C   UNL A   1      39.095  29.321  29.930  1.00  0.00    -0.014 A 
BRANCH  45  46
ATOM     46  C   UNL A   1      40.281  28.476  30.047  1.00  0.00     0.031 A 
ATOM     47  C   UNL A   1      40.804  28.355  31.437  1.00  0.00     0.074 A 
ATOM     48  C   UNL A   1      40.718  27.685  29.042  1.00  0.00     0.049 A 
ATOM     49  N   UNL A   1      41.933  28.778  31.899  1.00  0.00    -0.248 NA
ATOM     50  C   UNL A   1      39.902  27.828  32.477  1.00  0.00     0.031 C 
ATOM     51  C   UNL A   1      40.088  27.474  27.732  1.00  0.00     0.029 A 
ATOM     52  N   UNL A   1      41.761  26.806  29.015  1.00  0.00    -0.354 N 
ATOM     53  C   UNL A   1      41.980  28.374  33.233  1.00  0.00     0.074 A 
ATOM     54  C   UNL A   1      40.642  27.980  33.579  1.00  0.00     0.031 C 
ATOM     55  C   UNL A   1      40.612  26.376  27.145  1.00  0.00     0.029 A 
ATOM     56  C   UNL A   1      41.728  25.914  27.947  1.00  0.00     0.049 A 
ATOM     57  H   UNL A   1      42.475  26.804  29.692  1.00  0.00     0.167 HD
ATOM     58  C   UNL A   1      43.173  28.136  33.845  1.00  0.00     0.037 A 
ATOM     59  C   UNL A   1      42.553  24.860  27.734  1.00  0.00     0.037 A 
ATOM     60  C   UNL A   1      44.255  28.682  33.063  1.00  0.00     0.049 A 
ATOM     61  C   UNL A   1      43.769  25.085  28.543  1.00  0.00     0.074 A 
ATOM     62  C   UNL A   1      44.689  29.939  32.704  1.00  0.00     0.029 A 
ATOM     63  N   UNL A   1      44.840  27.791  32.202  1.00  0.00    -0.354 N 
ATOM     64  N   UNL A   1      44.631  26.032  28.307  1.00  0.00    -0.248 NA
ATOM     65  C   UNL A   1      43.850  24.482  29.866  1.00  0.00     0.031 C 
ATOM     66  C   UNL A   1      45.279  29.783  31.414  1.00  0.00     0.029 A 
ATOM     67  C   UNL A   1      45.235  28.432  31.061  1.00  0.00     0.049 A 
ATOM     68  H   UNL A   1      44.958  26.830  32.378  1.00  0.00     0.167 HD
ATOM     69  C   UNL A   1      45.040  26.447  29.561  1.00  0.00     0.074 A 
ATOM     70  C   UNL A   1      44.669  25.357  30.457  1.00  0.00     0.031 C 
ATOM     71  C   UNL A   1      45.353  27.756  29.787  1.00  0.00     0.037 A 
BRANCH  58  72
ATOM     72  C   UNL A   1      43.434  27.029  34.853  1.00  0.00     0.057 A 
ATOM     73  C   UNL A   1      43.364  25.688  34.420  1.00  0.00     0.134 A 
ATOM     74  C   UNL A   1      43.425  27.194  36.253  1.00  0.00     0.134 A 
ATOM     75  F   UNL A   1      43.363  25.385  33.112  1.00  0.00    -0.206 F 
ATOM     76  C   UNL A   1      43.200  24.613  35.303  1.00  0.00     0.040 A 
ATOM     77  C   UNL A   1      43.309  26.122  37.146  1.00  0.00     0.040 A 
ATOM     78  F   UNL A   1      43.424  28.395  36.841  1.00  0.00    -0.206 F 
ATOM     79  C   UNL A   1      43.160  24.830  36.674  1.00  0.00     0.006 A 
ENDBRANCH  58  72
BRANCH  59  80
ATOM     80  C   UNL A   1      42.288  23.574  27.054  1.00  0.00     0.057 A 
ATOM     81  C   UNL A   1      43.216  23.009  26.167  1.00  0.00     0.134 A 
ATOM     82  C   UNL A   1      41.246  22.733  27.477  1.00  0.00     0.134 A 
ATOM     83  F   UNL A   1      44.266  23.722  25.736  1.00  0.00    -0.206 F 
ATOM     84  C   UNL A   1      43.130  21.674  25.750  1.00  0.00     0.040 A 
ATOM     85  C   UNL A   1      41.146  21.399  27.066  1.00  0.00     0.040 A 
ATOM     86  F   UNL A   1      40.342  23.154  28.375  1.00  0.00    -0.206 F 
ATOM     87  C   UNL A   1      42.101  20.860  26.212  1.00  0.00     0.006 A 
ENDBRANCH  59  80
BRANCH  71  88
ATOM     88  C   UNL A   1      45.664  28.608  28.590  1.00  0.00     0.057 A 
ATOM     89  C   UNL A   1      46.884  28.606  27.898  1.00  0.00     0.134 A 
ATOM     90  C   UNL A   1      44.631  29.382  28.049  1.00  0.00     0.134 A 
ATOM     91  F   UNL A   1      47.905  27.835  28.289  1.00  0.00    -0.206 F 
ATOM     92  C   UNL A   1      47.074  29.370  26.742  1.00  0.00     0.040 A 
ATOM     93  C   UNL A   1      44.797  30.120  26.876  1.00  0.00     0.040 A 
ATOM     94  F   UNL A   1      43.422  29.397  28.633  1.00  0.00    -0.206 F 
ATOM     95  C   UNL A   1      46.026  30.124  26.223  1.00  0.00     0.006 A 
ENDBRANCH  71  88
ENDBRANCH  45  46
ENDBRANCH  37  40
ENDBRANCH  35  36
ENDBRANCH  34  35
ENDBRANCH  33  34
ENDBRANCH   1  33
TORSDOF 16
ENDMDL
MODEL 3
REMARK VINA RESULT:     -12.5      3.502      7.726
REMARK SMILES Cc1c(-c2nn(-c3ccccc3)cc2/C=N/O)nnn1-c1ccc(C(=O)NCCCCNC(=O)c2ccc(-c3c4nc(c(-c5c(F)cccc5F)c5ccc([nH]5)c(-c5c(F)cccc5F)c5nc(c(-c6c(F)cccc6F)c6ccc3[nH]6)C=C5)C=C4)cc2)cc1
REMARK SMILES IDX 28 1 27 2 25 3 26 4 24 6 21 7 22 8 90 9 23 10 89 11 20 12
REMARK SMILES IDX 1 13 2 14 3 15 18 16 19 17 4 18 5 19 14 20 6 21 13 22 15 23
REMARK SMILES IDX 16 24 17 25 7 27 8 28 12 29 9 30 11 31 10 32 29 33 30 34
REMARK SMILES IDX 31 35 32 36 33 37 34 39 35 40 36 41 88 42 37 43 87 44 38 45
REMARK SMILES IDX 39 46 40 47 81 48 41 49 86 50 80 51 82 52 42 53 85 54 79 55
REMARK SMILES IDX 78 56 43 58 69 59 52 60 68 61 53 62 56 63 67 64 83 65 54 66
REMARK SMILES IDX 55 67 66 69 84 70 57 71 44 72 45 73 50 74 46 75 47 76 49 77
REMARK SMILES IDX 51 78 48 79 70 80 71 81 76 82 72 83 73 84 75 85 77 86 74 87
REMARK SMILES IDX 58 88 59 89 64 90 60 91 61 92 63 93 65 94 62 95
REMARK H PARENT 27 5 17 26 32 38 82 57 56 68
REMARK Flexibility Score: inf
ROOT
ATOM      1  C   UNL A   1      34.030  35.450  27.911  1.00  0.00     0.116 C 
ENDROOT
BRANCH   1   2
ATOM      2  N   UNL A   1      35.286  34.802  28.241  1.00  0.00    -0.352 N 
ATOM      3  C   UNL A   1      35.693  33.495  28.314  1.00  0.00     0.251 C 
ATOM      4  O   UNL A   1      36.874  33.307  28.617  1.00  0.00    -0.269 OA
ATOM      5  H   UNL A   1      36.002  35.441  28.460  1.00  0.00     0.163 HD
BRANCH   3   6
ATOM      6  C   UNL A   1      34.834  32.311  28.003  1.00  0.00     0.039 A 
ATOM      7  C   UNL A   1      33.430  29.967  27.325  1.00  0.00     0.067 A 
ATOM      8  C   UNL A   1      34.739  29.871  27.798  1.00  0.00     0.029 A 
ATOM      9  C   UNL A   1      32.795  31.209  27.259  1.00  0.00     0.029 A 
ATOM     10  C   UNL A   1      35.442  31.043  28.097  1.00  0.00     0.016 A 
ATOM     11  C   UNL A   1      33.482  32.364  27.650  1.00  0.00     0.016 A 
BRANCH   7  12
ATOM     12  N   UNL A   1      32.736  28.801  26.942  1.00  0.00    -0.217 N 
ATOM     13  C   UNL A   1      34.017  28.189  24.842  1.00  0.00     0.069 C 
ATOM     14  C   UNL A   1      32.883  28.060  25.787  1.00  0.00     0.071 A 
ATOM     15  C   UNL A   1      31.834  27.164  25.857  1.00  0.00     0.137 A 
ATOM     16  N   UNL A   1      31.172  27.307  27.042  1.00  0.00    -0.128 NA
ATOM     17  N   UNL A   1      31.782  28.261  27.734  1.00  0.00    -0.061 NA
BRANCH  15  18
ATOM     18  C   UNL A   1      31.496  26.092  24.928  1.00  0.00     0.124 A 
ATOM     19  N   UNL A   1      31.829  24.822  25.181  1.00  0.00    -0.165 NA
ATOM     20  C   UNL A   1      30.834  26.241  23.687  1.00  0.00     0.044 A 
ATOM     21  N   UNL A   1      31.472  24.148  24.067  1.00  0.00    -0.240 N 
ATOM     22  C   UNL A   1      30.877  24.972  23.139  1.00  0.00     0.125 A 
BRANCH  20  23
ATOM     23  C   UNL A   1      30.230  27.384  23.051  1.00  0.00     0.166 C 
ATOM     24  N   UNL A   1      30.791  27.932  22.025  1.00  0.00    -0.097 NA
BRANCH  24  25
ATOM     25  O   UNL A   1      30.026  29.033  21.617  1.00  0.00    -0.411 OA
ATOM     26  H   UNL A   1      29.924  29.769  22.186  1.00  0.00     0.330 HD
ENDBRANCH  24  25
ENDBRANCH  20  23
BRANCH  21  27
ATOM     27  C   UNL A   1      31.746  22.768  23.941  1.00  0.00     0.065 A 
ATOM     28  C   UNL A   1      31.953  22.005  25.098  1.00  0.00     0.028 A 
ATOM     29  C   UNL A   1      31.833  22.172  22.677  1.00  0.00     0.028 A 
ATOM     30  C   UNL A   1      32.223  20.642  24.991  1.00  0.00     0.002 A 
ATOM     31  C   UNL A   1      32.156  20.817  22.579  1.00  0.00     0.002 A 
ATOM     32  C   UNL A   1      32.339  20.052  23.732  1.00  0.00     0.000 A 
ENDBRANCH  21  27
ENDBRANCH  15  18
ENDBRANCH   7  12
ENDBRANCH   3   6
ENDBRANCH   1   2
BRANCH   1  33
ATOM     33  C   UNL A   1      33.649  36.496  28.964  1.00  0.00     0.023 C 
BRANCH  33  34
ATOM     34  C   UNL A   1      32.907  35.937  30.190  1.00  0.00     0.023 C 
BRANCH  34  35
ATOM     35  C   UNL A   1      33.690  34.908  31.001  1.00  0.00     0.116 C 
BRANCH  35  36
ATOM     36  N   UNL A   1      34.050  35.388  32.335  1.00  0.00    -0.352 N 
ATOM     37  C   UNL A   1      34.980  34.866  33.206  1.00  0.00     0.251 C 
ATOM     38  H   UNL A   1      33.567  36.187  32.648  1.00  0.00     0.163 HD
ATOM     39  O   UNL A   1      34.914  35.098  34.414  1.00  0.00    -0.269 OA
BRANCH  37  40
ATOM     40  C   UNL A   1      36.070  34.035  32.677  1.00  0.00     0.039 A 
ATOM     41  C   UNL A   1      37.319  34.582  32.374  1.00  0.00     0.014 A 
ATOM     42  C   UNL A   1      35.825  32.673  32.506  1.00  0.00     0.014 A 
ATOM     43  C   UNL A   1      38.350  33.730  31.983  1.00  0.00     0.010 A 
ATOM     44  C   UNL A   1      36.869  31.821  32.243  1.00  0.00     0.010 A 
ATOM     45  C   UNL A   1      38.124  32.345  31.944  1.00  0.00    -0.014 A 
BRANCH  45  46
ATOM     46  C   UNL A   1      39.235  31.417  31.743  1.00  0.00     0.031 A 
ATOM     47  C   UNL A   1      39.949  31.048  32.999  1.00  0.00     0.074 A 
ATOM     48  C   UNL A   1      39.444  30.766  30.578  1.00  0.00     0.049 A 
ATOM     49  N   UNL A   1      41.167  31.320  33.327  1.00  0.00    -0.248 NA
ATOM     50  C   UNL A   1      39.171  30.425  34.085  1.00  0.00     0.031 C 
ATOM     51  C   UNL A   1      38.608  30.803  29.371  1.00  0.00     0.029 A 
ATOM     52  N   UNL A   1      40.389  29.837  30.256  1.00  0.00    -0.354 N 
ATOM     53  C   UNL A   1      41.378  30.711  34.563  1.00  0.00     0.074 A 
ATOM     54  C   UNL A   1      40.078  30.355  35.062  1.00  0.00     0.031 C 
ATOM     55  C   UNL A   1      38.938  29.778  28.555  1.00  0.00     0.029 A 
ATOM     56  C   UNL A   1      40.117  29.126  29.090  1.00  0.00     0.049 A 
ATOM     57  H   UNL A   1      41.194  29.683  30.800  1.00  0.00     0.167 HD
ATOM     58  C   UNL A   1      42.624  30.304  34.934  1.00  0.00     0.037 A 
ATOM     59  C   UNL A   1      40.805  28.067  28.597  1.00  0.00     0.037 A 
ATOM     60  C   UNL A   1      43.620  30.894  34.073  1.00  0.00     0.049 A 
ATOM     61  C   UNL A   1      42.143  28.084  29.222  1.00  0.00     0.074 A 
ATOM     62  C   UNL A   1      44.105  32.161  33.833  1.00  0.00     0.029 A 
ATOM     63  N   UNL A   1      43.988  30.113  33.009  1.00  0.00    -0.354 N 
ATOM     64  N   UNL A   1      43.040  28.999  28.988  1.00  0.00    -0.248 NA
ATOM     65  C   UNL A   1      42.369  27.279  30.414  1.00  0.00     0.031 C 
ATOM     66  C   UNL A   1      44.477  32.171  32.455  1.00  0.00     0.029 A 
ATOM     67  C   UNL A   1      44.261  30.896  31.924  1.00  0.00     0.049 A 
ATOM     68  H   UNL A   1      44.046  29.130  33.024  1.00  0.00     0.167 HD
ATOM     69  C   UNL A   1      43.669  29.186  30.206  1.00  0.00     0.074 A 
ATOM     70  C   UNL A   1      43.341  27.996  30.984  1.00  0.00     0.031 C 
ATOM     71  C   UNL A   1      44.127  30.421  30.564  1.00  0.00     0.037 A 
BRANCH  58  72
ATOM     72  C   UNL A   1      42.936  29.038  35.716  1.00  0.00     0.057 A 
ATOM     73  C   UNL A   1      43.857  29.111  36.782  1.00  0.00     0.134 A 
ATOM     74  C   UNL A   1      42.642  27.729  35.283  1.00  0.00     0.134 A 
ATOM     75  F   UNL A   1      44.229  30.295  37.294  1.00  0.00    -0.206 F 
ATOM     76  C   UNL A   1      44.503  27.982  37.305  1.00  0.00     0.040 A 
ATOM     77  C   UNL A   1      43.246  26.592  35.830  1.00  0.00     0.040 A 
ATOM     78  F   UNL A   1      41.838  27.474  34.245  1.00  0.00    -0.206 F 
ATOM     79  C   UNL A   1      44.206  26.716  36.819  1.00  0.00     0.006 A 
ENDBRANCH  58  72
BRANCH  59  80
ATOM     80  C   UNL A   1      40.327  26.923  27.791  1.00  0.00     0.057 A 
ATOM     81  C   UNL A   1      40.889  26.621  26.542  1.00  0.00     0.134 A 
ATOM     82  C   UNL A   1      39.507  25.932  28.355  1.00  0.00     0.134 A 
ATOM     83  F   UNL A   1      41.715  27.489  25.940  1.00  0.00    -0.206 F 
ATOM     84  C   UNL A   1      40.673  25.392  25.905  1.00  0.00     0.040 A 
ATOM     85  C   UNL A   1      39.280  24.701  27.729  1.00  0.00     0.040 A 
ATOM     86  F   UNL A   1      38.974  26.092  29.576  1.00  0.00    -0.206 F 
ATOM     87  C   UNL A   1      39.878  24.421  26.506  1.00  0.00     0.006 A 
ENDBRANCH  59  80
BRANCH  71  88
ATOM     88  C   UNL A   1      44.327  31.428  29.467  1.00  0.00     0.057 A 
ATOM     89  C   UNL A   1      43.408  32.428  29.119  1.00  0.00     0.134 A 
ATOM     90  C   UNL A   1      45.563  31.448  28.812  1.00  0.00     0.134 A 
ATOM     91  F   UNL A   1      42.232  32.544  29.746  1.00  0.00    -0.206 F 
ATOM     92  C   UNL A   1      43.697  33.381  28.136  1.00  0.00     0.040 A 
ATOM     93  C   UNL A   1      45.878  32.415  27.856  1.00  0.00     0.040 A 
ATOM     94  F   UNL A   1      46.508  30.547  29.127  1.00  0.00    -0.206 F 
ATOM     95  C   UNL A   1      44.939  33.381  27.508  1.00  0.00     0.006 A 
ENDBRANCH  71  88
ENDBRANCH  45  46
ENDBRANCH  37  40
ENDBRANCH  35  36
ENDBRANCH  34  35
ENDBRANCH  33  34
ENDBRANCH   1  33
TORSDOF 16
ENDMDL
