MODEL 1
REMARK VINA RESULT:     -11.8      0.000      0.000
REMARK SMILES CC[C@H](C(=O)NCCCCNC(=O)c1ccc(-c2c3nc(c(-c4c(F)cccc4F)c4ccc([nH]4)c(-c4c(F)cccc4F)c4nc(c(-c5c(F)cccc5F)c5ccc2[nH]5)C=C4)C=C3)cc1)N1C(=O)/C(=C\c2cccs2)SC1=S
REMARK SMILES IDX 8 1 7 2 6 3 4 4 5 5 3 7 2 8 1 9 68 10 69 11 79 12 70 13
REMARK SMILES IDX 71 14 78 15 80 16 72 17 73 18 74 19 77 20 75 21 76 22 9 23
REMARK SMILES IDX 10 24 11 25 12 26 13 28 14 29 15 30 67 31 16 32 66 33 17 34
REMARK SMILES IDX 18 35 19 36 60 37 20 38 65 39 59 40 61 41 21 42 64 43 58 44
REMARK SMILES IDX 57 45 22 47 48 48 31 49 47 50 32 51 35 52 46 53 62 54 33 55
REMARK SMILES IDX 34 56 45 58 63 59 36 60 23 61 24 62 29 63 25 64 26 65 28 66
REMARK SMILES IDX 30 67 27 68 49 69 50 70 55 71 51 72 52 73 54 74 56 75 53 76
REMARK SMILES IDX 37 77 38 78 43 79 39 80 40 81 42 82 44 83 41 84
REMARK H PARENT 6 6 11 27 61 46 35 57
REMARK Flexibility Score: inf
ROOT
ATOM      1  C   UNL A   1      31.597  30.638  26.315  1.00  0.00     0.023 C 
ENDROOT
BRANCH   1   2
ATOM      2  C   UNL A   1      33.055  30.199  26.224  1.00  0.00     0.116 C 
BRANCH   2   3
ATOM      3  N   UNL A   1      33.209  28.812  26.620  1.00  0.00    -0.354 N 
ATOM      4  C   UNL A   1      33.045  27.665  25.889  1.00  0.00     0.243 C 
ATOM      5  O   UNL A   1      33.036  26.593  26.499  1.00  0.00    -0.273 OA
ATOM      6  H   UNL A   1      33.473  28.673  27.558  1.00  0.00     0.163 HD
BRANCH   4   7
ATOM      7  C   UNL A   1      32.704  27.725  24.372  1.00  0.00     0.181 C 
BRANCH   7   8
ATOM      8  C   UNL A   1      33.645  26.666  23.725  1.00  0.00     0.032 C 
ATOM      9  C   UNL A   1      33.653  26.746  22.203  1.00  0.00     0.006 C 
ENDBRANCH   7   8
BRANCH   7  10
ATOM     10  N   UNL A   1      31.241  27.534  24.121  1.00  0.00    -0.280 N 
ATOM     11  C   UNL A   1      30.584  28.476  23.334  1.00  0.00     0.266 C 
ATOM     12  C   UNL A   1      30.546  26.345  24.187  1.00  0.00     0.149 C 
ATOM     13  O   UNL A   1      31.122  29.320  22.635  1.00  0.00    -0.268 OA
ATOM     14  C   UNL A   1      29.113  28.254  23.366  1.00  0.00     0.081 C 
ATOM     15  S   UNL A   1      28.833  26.632  23.876  1.00  0.00    -0.054 SA
ATOM     16  S   UNL A   1      31.099  24.792  24.442  1.00  0.00    -0.052 S 
ATOM     17  C   UNL A   1      28.111  29.118  23.150  1.00  0.00     0.040 C 
BRANCH  17  18
ATOM     18  C   UNL A   1      28.266  30.502  22.858  1.00  0.00     0.028 A 
ATOM     19  C   UNL A   1      28.620  31.570  23.663  1.00  0.00     0.020 A 
ATOM     20  S   UNL A   1      28.058  31.033  21.227  1.00  0.00    -0.144 S 
ATOM     21  C   UNL A   1      28.682  32.810  22.961  1.00  0.00     0.012 A 
ATOM     22  C   UNL A   1      28.403  32.656  21.624  1.00  0.00     0.065 A 
ENDBRANCH  17  18
ENDBRANCH   7  10
ENDBRANCH   4   7
ENDBRANCH   2   3
ENDBRANCH   1   2
BRANCH   1  23
ATOM     23  C   UNL A   1      31.409  32.132  26.557  1.00  0.00     0.023 C 
BRANCH  23  24
ATOM     24  C   UNL A   1      32.537  32.797  27.336  1.00  0.00     0.116 C 
BRANCH  24  25
ATOM     25  N   UNL A   1      32.280  34.203  27.622  1.00  0.00    -0.352 N 
ATOM     26  C   UNL A   1      32.903  35.017  28.534  1.00  0.00     0.251 C 
ATOM     27  H   UNL A   1      31.566  34.623  27.090  1.00  0.00     0.163 HD
ATOM     28  O   UNL A   1      32.490  36.151  28.751  1.00  0.00    -0.269 OA
BRANCH  26  29
ATOM     29  C   UNL A   1      34.060  34.488  29.278  1.00  0.00     0.039 A 
ATOM     30  C   UNL A   1      33.843  33.829  30.489  1.00  0.00     0.014 A 
ATOM     31  C   UNL A   1      35.342  34.578  28.730  1.00  0.00     0.014 A 
ATOM     32  C   UNL A   1      34.911  33.191  31.119  1.00  0.00     0.010 A 
ATOM     33  C   UNL A   1      36.385  33.874  29.317  1.00  0.00     0.010 A 
ATOM     34  C   UNL A   1      36.180  33.175  30.516  1.00  0.00    -0.014 A 
BRANCH  34  35
ATOM     35  C   UNL A   1      37.312  32.436  31.126  1.00  0.00     0.031 A 
ATOM     36  C   UNL A   1      37.890  32.903  32.431  1.00  0.00     0.074 A 
ATOM     37  C   UNL A   1      37.866  31.398  30.468  1.00  0.00     0.049 A 
ATOM     38  N   UNL A   1      38.930  32.451  33.083  1.00  0.00    -0.248 NA
ATOM     39  C   UNL A   1      37.231  34.053  33.072  1.00  0.00     0.031 C 
ATOM     40  C   UNL A   1      37.429  30.887  29.166  1.00  0.00     0.029 A 
ATOM     41  N   UNL A   1      38.926  30.595  30.801  1.00  0.00    -0.354 N 
ATOM     42  C   UNL A   1      39.060  33.272  34.196  1.00  0.00     0.074 A 
ATOM     43  C   UNL A   1      38.031  34.282  34.102  1.00  0.00     0.031 C 
ATOM     44  C   UNL A   1      38.201  29.843  28.823  1.00  0.00     0.029 A 
ATOM     45  C   UNL A   1      39.206  29.634  29.860  1.00  0.00     0.049 A 
ATOM     46  H   UNL A   1      39.438  30.696  31.635  1.00  0.00     0.167 HD
ATOM     47  C   UNL A   1      39.943  33.175  35.218  1.00  0.00     0.037 A 
ATOM     48  C   UNL A   1      40.169  28.693  29.836  1.00  0.00     0.037 A 
ATOM     49  C   UNL A   1      40.943  32.147  35.324  1.00  0.00     0.049 A 
ATOM     50  C   UNL A   1      41.129  28.599  30.989  1.00  0.00     0.074 A 
ATOM     51  C   UNL A   1      41.840  31.920  36.353  1.00  0.00     0.029 A 
ATOM     52  N   UNL A   1      41.175  31.171  34.366  1.00  0.00    -0.354 N 
ATOM     53  N   UNL A   1      41.196  29.337  32.070  1.00  0.00    -0.248 NA
ATOM     54  C   UNL A   1      42.144  27.538  30.921  1.00  0.00     0.031 C 
ATOM     55  C   UNL A   1      42.642  30.830  35.999  1.00  0.00     0.029 A 
ATOM     56  C   UNL A   1      42.214  30.350  34.771  1.00  0.00     0.049 A 
ATOM     57  H   UNL A   1      40.675  31.076  33.523  1.00  0.00     0.167 HD
ATOM     58  C   UNL A   1      42.239  28.814  32.824  1.00  0.00     0.074 A 
ATOM     59  C   UNL A   1      42.768  27.688  32.081  1.00  0.00     0.031 C 
ATOM     60  C   UNL A   1      42.718  29.228  34.022  1.00  0.00     0.037 A 
BRANCH  47  61
ATOM     61  C   UNL A   1      39.857  34.205  36.304  1.00  0.00     0.057 A 
ATOM     62  C   UNL A   1      40.506  35.443  36.202  1.00  0.00     0.134 A 
ATOM     63  C   UNL A   1      39.097  33.968  37.456  1.00  0.00     0.134 A 
ATOM     64  F   UNL A   1      41.264  35.726  35.131  1.00  0.00    -0.206 F 
ATOM     65  C   UNL A   1      40.425  36.397  37.216  1.00  0.00     0.040 A 
ATOM     66  C   UNL A   1      38.984  34.927  38.465  1.00  0.00     0.040 A 
ATOM     67  F   UNL A   1      38.448  32.806  37.618  1.00  0.00    -0.206 F 
ATOM     68  C   UNL A   1      39.655  36.143  38.350  1.00  0.00     0.006 A 
ENDBRANCH  47  61
BRANCH  48  69
ATOM     69  C   UNL A   1      40.258  27.748  28.695  1.00  0.00     0.057 A 
ATOM     70  C   UNL A   1      40.989  28.074  27.545  1.00  0.00     0.134 A 
ATOM     71  C   UNL A   1      39.613  26.506  28.718  1.00  0.00     0.134 A 
ATOM     72  F   UNL A   1      41.614  29.257  27.456  1.00  0.00    -0.206 F 
ATOM     73  C   UNL A   1      41.057  27.208  26.452  1.00  0.00     0.040 A 
ATOM     74  C   UNL A   1      39.693  25.621  27.641  1.00  0.00     0.040 A 
ATOM     75  F   UNL A   1      38.904  26.131  29.793  1.00  0.00    -0.206 F 
ATOM     76  C   UNL A   1      40.410  25.976  26.501  1.00  0.00     0.006 A 
ENDBRANCH  48  69
BRANCH  60  77
ATOM     77  C   UNL A   1      43.845  28.440  34.620  1.00  0.00     0.057 A 
ATOM     78  C   UNL A   1      45.184  28.804  34.430  1.00  0.00     0.134 A 
ATOM     79  C   UNL A   1      43.583  27.329  35.432  1.00  0.00     0.134 A 
ATOM     80  F   UNL A   1      45.499  29.850  33.652  1.00  0.00    -0.206 F 
ATOM     81  C   UNL A   1      46.224  28.078  35.011  1.00  0.00     0.040 A 
ATOM     82  C   UNL A   1      44.614  26.612  36.039  1.00  0.00     0.040 A 
ATOM     83  F   UNL A   1      42.321  26.934  35.661  1.00  0.00    -0.206 F 
ATOM     84  C   UNL A   1      45.939  26.982  35.825  1.00  0.00     0.006 A 
ENDBRANCH  60  77
ENDBRANCH  34  35
ENDBRANCH  26  29
ENDBRANCH  24  25
ENDBRANCH  23  24
ENDBRANCH   1  23
TORSDOF 14
ENDMDL
MODEL 2
REMARK VINA RESULT:     -11.7      6.204     11.214
REMARK SMILES CC[C@H](C(=O)NCCCCNC(=O)c1ccc(-c2c3nc(c(-c4c(F)cccc4F)c4ccc([nH]4)c(-c4c(F)cccc4F)c4nc(c(-c5c(F)cccc5F)c5ccc2[nH]5)C=C4)C=C3)cc1)N1C(=O)/C(=C\c2cccs2)SC1=S
REMARK SMILES IDX 8 1 7 2 6 3 4 4 5 5 3 7 2 8 1 9 68 10 69 11 79 12 70 13
REMARK SMILES IDX 71 14 78 15 80 16 72 17 73 18 74 19 77 20 75 21 76 22 9 23
REMARK SMILES IDX 10 24 11 25 12 26 13 28 14 29 15 30 67 31 16 32 66 33 17 34
REMARK SMILES IDX 18 35 19 36 60 37 20 38 65 39 59 40 61 41 21 42 64 43 58 44
REMARK SMILES IDX 57 45 22 47 48 48 31 49 47 50 32 51 35 52 46 53 62 54 33 55
REMARK SMILES IDX 34 56 45 58 63 59 36 60 23 61 24 62 29 63 25 64 26 65 28 66
REMARK SMILES IDX 30 67 27 68 49 69 50 70 55 71 51 72 52 73 54 74 56 75 53 76
REMARK SMILES IDX 37 77 38 78 43 79 39 80 40 81 42 82 44 83 41 84
REMARK H PARENT 6 6 11 27 61 46 35 57
REMARK Flexibility Score: inf
ROOT
ATOM      1  C   UNL A   1      37.158  20.551  25.026  1.00  0.00     0.023 C 
ENDROOT
BRANCH   1   2
ATOM      2  C   UNL A   1      37.629  21.981  25.271  1.00  0.00     0.116 C 
BRANCH   2   3
ATOM      3  N   UNL A   1      37.195  22.864  24.205  1.00  0.00    -0.354 N 
ATOM      4  C   UNL A   1      35.937  23.297  23.881  1.00  0.00     0.243 C 
ATOM      5  O   UNL A   1      35.794  23.886  22.805  1.00  0.00    -0.273 OA
ATOM      6  H   UNL A   1      37.915  23.204  23.626  1.00  0.00     0.163 HD
BRANCH   4   7
ATOM      7  C   UNL A   1      34.706  22.908  24.749  1.00  0.00     0.181 C 
BRANCH   7   8
ATOM      8  C   UNL A   1      34.176  24.267  25.294  1.00  0.00     0.032 C 
ATOM      9  C   UNL A   1      33.269  24.093  26.508  1.00  0.00     0.006 C 
ENDBRANCH   7   8
BRANCH   7  10
ATOM     10  N   UNL A   1      33.720  22.086  23.981  1.00  0.00    -0.280 N 
ATOM     11  C   UNL A   1      33.440  20.801  24.440  1.00  0.00     0.266 C 
ATOM     12  C   UNL A   1      32.729  22.561  23.148  1.00  0.00     0.149 C 
ATOM     13  O   UNL A   1      33.742  20.356  25.536  1.00  0.00    -0.268 OA
ATOM     14  C   UNL A   1      32.614  20.058  23.451  1.00  0.00     0.081 C 
ATOM     15  S   UNL A   1      31.861  21.210  22.415  1.00  0.00    -0.054 SA
ATOM     16  S   UNL A   1      32.256  24.128  22.829  1.00  0.00    -0.052 S 
ATOM     17  C   UNL A   1      32.492  18.736  23.258  1.00  0.00     0.040 C 
BRANCH  17  18
ATOM     18  C   UNL A   1      33.187  17.730  23.986  1.00  0.00     0.028 A 
ATOM     19  C   UNL A   1      34.457  17.204  23.828  1.00  0.00     0.020 A 
ATOM     20  S   UNL A   1      32.419  17.024  25.364  1.00  0.00    -0.144 S 
ATOM     21  C   UNL A   1      34.781  16.210  24.799  1.00  0.00     0.012 A 
ATOM     22  C   UNL A   1      33.758  16.020  25.698  1.00  0.00     0.065 A 
ENDBRANCH  17  18
ENDBRANCH   7  10
ENDBRANCH   4   7
ENDBRANCH   2   3
ENDBRANCH   1   2
BRANCH   1  23
ATOM     23  C   UNL A   1      38.281  19.518  25.012  1.00  0.00     0.023 C 
BRANCH  23  24
ATOM     24  C   UNL A   1      39.529  19.925  25.786  1.00  0.00     0.116 C 
BRANCH  24  25
ATOM     25  N   UNL A   1      40.516  18.856  25.879  1.00  0.00    -0.352 N 
ATOM     26  C   UNL A   1      41.861  18.954  26.132  1.00  0.00     0.251 C 
ATOM     27  H   UNL A   1      40.171  17.944  25.743  1.00  0.00     0.163 HD
ATOM     28  O   UNL A   1      42.589  17.971  26.054  1.00  0.00    -0.269 OA
BRANCH  26  29
ATOM     29  C   UNL A   1      42.421  20.275  26.465  1.00  0.00     0.039 A 
ATOM     30  C   UNL A   1      43.005  21.039  25.453  1.00  0.00     0.014 A 
ATOM     31  C   UNL A   1      42.293  20.782  27.761  1.00  0.00     0.014 A 
ATOM     32  C   UNL A   1      43.395  22.349  25.726  1.00  0.00     0.010 A 
ATOM     33  C   UNL A   1      42.607  22.112  28.009  1.00  0.00     0.010 A 
ATOM     34  C   UNL A   1      43.161  22.907  26.994  1.00  0.00    -0.014 A 
BRANCH  34  35
ATOM     35  C   UNL A   1      43.494  24.322  27.286  1.00  0.00     0.031 A 
ATOM     36  C   UNL A   1      44.920  24.785  27.205  1.00  0.00     0.074 A 
ATOM     37  C   UNL A   1      42.527  25.166  27.697  1.00  0.00     0.049 A 
ATOM     38  N   UNL A   1      45.429  25.952  27.503  1.00  0.00    -0.248 NA
ATOM     39  C   UNL A   1      45.913  23.792  26.760  1.00  0.00     0.031 C 
ATOM     40  C   UNL A   1      41.114  24.820  27.871  1.00  0.00     0.029 A 
ATOM     41  N   UNL A   1      42.591  26.488  28.057  1.00  0.00    -0.354 N 
ATOM     42  C   UNL A   1      46.798  25.827  27.302  1.00  0.00     0.074 A 
ATOM     43  C   UNL A   1      47.048  24.457  26.912  1.00  0.00     0.031 C 
ATOM     44  C   UNL A   1      40.442  25.907  28.281  1.00  0.00     0.029 A 
ATOM     45  C   UNL A   1      41.379  27.015  28.434  1.00  0.00     0.049 A 
ATOM     46  H   UNL A   1      43.425  27.010  28.046  1.00  0.00     0.167 HD
ATOM     47  C   UNL A   1      47.758  26.776  27.409  1.00  0.00     0.037 A 
ATOM     48  C   UNL A   1      41.063  28.253  28.860  1.00  0.00     0.037 A 
ATOM     49  C   UNL A   1      47.500  28.146  27.763  1.00  0.00     0.049 A 
ATOM     50  C   UNL A   1      42.145  29.292  28.957  1.00  0.00     0.074 A 
ATOM     51  C   UNL A   1      48.392  29.201  27.831  1.00  0.00     0.029 A 
ATOM     52  N   UNL A   1      46.255  28.650  28.107  1.00  0.00    -0.354 N 
ATOM     53  N   UNL A   1      43.424  29.180  28.695  1.00  0.00    -0.248 NA
ATOM     54  C   UNL A   1      41.738  30.632  29.403  1.00  0.00     0.031 C 
ATOM     55  C   UNL A   1      47.693  30.336  28.254  1.00  0.00     0.029 A 
ATOM     56  C   UNL A   1      46.358  29.998  28.406  1.00  0.00     0.049 A 
ATOM     57  H   UNL A   1      45.421  28.127  28.134  1.00  0.00     0.167 HD
ATOM     58  C   UNL A   1      43.970  30.437  28.918  1.00  0.00     0.074 A 
ATOM     59  C   UNL A   1      42.880  31.301  29.323  1.00  0.00     0.031 C 
ATOM     60  C   UNL A   1      45.258  30.842  28.798  1.00  0.00     0.037 A 
BRANCH  47  61
ATOM     61  C   UNL A   1      49.172  26.362  27.129  1.00  0.00     0.057 A 
ATOM     62  C   UNL A   1      50.035  25.943  28.149  1.00  0.00     0.134 A 
ATOM     63  C   UNL A   1      49.671  26.361  25.820  1.00  0.00     0.134 A 
ATOM     64  F   UNL A   1      49.623  25.936  29.427  1.00  0.00    -0.206 F 
ATOM     65  C   UNL A   1      51.350  25.561  27.884  1.00  0.00     0.040 A 
ATOM     66  C   UNL A   1      50.976  25.954  25.538  1.00  0.00     0.040 A 
ATOM     67  F   UNL A   1      48.897  26.749  24.795  1.00  0.00    -0.206 F 
ATOM     68  C   UNL A   1      51.822  25.559  26.573  1.00  0.00     0.006 A 
ENDBRANCH  47  61
BRANCH  48  69
ATOM     69  C   UNL A   1      39.658  28.587  29.201  1.00  0.00     0.057 A 
ATOM     70  C   UNL A   1      38.791  29.125  28.241  1.00  0.00     0.134 A 
ATOM     71  C   UNL A   1      39.148  28.388  30.489  1.00  0.00     0.134 A 
ATOM     72  F   UNL A   1      39.226  29.355  26.994  1.00  0.00    -0.206 F 
ATOM     73  C   UNL A   1      37.476  29.472  28.555  1.00  0.00     0.040 A 
ATOM     74  C   UNL A   1      37.828  28.708  30.811  1.00  0.00     0.040 A 
ATOM     75  F   UNL A   1      39.924  27.868  31.452  1.00  0.00    -0.206 F 
ATOM     76  C   UNL A   1      36.991  29.259  29.844  1.00  0.00     0.006 A 
ENDBRANCH  48  69
BRANCH  60  77
ATOM     77  C   UNL A   1      45.552  32.286  29.074  1.00  0.00     0.057 A 
ATOM     78  C   UNL A   1      45.976  32.727  30.334  1.00  0.00     0.134 A 
ATOM     79  C   UNL A   1      45.451  33.240  28.053  1.00  0.00     0.134 A 
ATOM     80  F   UNL A   1      46.080  31.863  31.356  1.00  0.00    -0.206 F 
ATOM     81  C   UNL A   1      46.270  34.069  30.574  1.00  0.00     0.040 A 
ATOM     82  C   UNL A   1      45.767  34.581  28.275  1.00  0.00     0.040 A 
ATOM     83  F   UNL A   1      45.058  32.882  26.821  1.00  0.00    -0.206 F 
ATOM     84  C   UNL A   1      46.173  34.999  29.540  1.00  0.00     0.006 A 
ENDBRANCH  60  77
ENDBRANCH  34  35
ENDBRANCH  26  29
ENDBRANCH  24  25
ENDBRANCH  23  24
ENDBRANCH   1  23
TORSDOF 14
ENDMDL
MODEL 3
REMARK VINA RESULT:     -11.7      0.673      6.318
REMARK SMILES CC[C@H](C(=O)NCCCCNC(=O)c1ccc(-c2c3nc(c(-c4c(F)cccc4F)c4ccc([nH]4)c(-c4c(F)cccc4F)c4nc(c(-c5c(F)cccc5F)c5ccc2[nH]5)C=C4)C=C3)cc1)N1C(=O)/C(=C\c2cccs2)SC1=S
REMARK SMILES IDX 8 1 7 2 6 3 4 4 5 5 3 7 2 8 1 9 68 10 69 11 79 12 70 13
REMARK SMILES IDX 71 14 78 15 80 16 72 17 73 18 74 19 77 20 75 21 76 22 9 23
REMARK SMILES IDX 10 24 11 25 12 26 13 28 14 29 15 30 67 31 16 32 66 33 17 34
REMARK SMILES IDX 18 35 19 36 60 37 20 38 65 39 59 40 61 41 21 42 64 43 58 44
REMARK SMILES IDX 57 45 22 47 48 48 31 49 47 50 32 51 35 52 46 53 62 54 33 55
REMARK SMILES IDX 34 56 45 58 63 59 36 60 23 61 24 62 29 63 25 64 26 65 28 66
REMARK SMILES IDX 30 67 27 68 49 69 50 70 55 71 51 72 52 73 54 74 56 75 53 76
REMARK SMILES IDX 37 77 38 78 43 79 39 80 40 81 42 82 44 83 41 84
REMARK H PARENT 6 6 11 27 61 46 35 57
REMARK Flexibility Score: inf
ROOT
ATOM      1  C   UNL A   1      31.864  30.427  26.678  1.00  0.00     0.023 C 
ENDROOT
BRANCH   1   2
ATOM      2  C   UNL A   1      32.437  29.794  25.414  1.00  0.00     0.116 C 
BRANCH   2   3
ATOM      3  N   UNL A   1      33.114  28.547  25.715  1.00  0.00    -0.354 N 
ATOM      4  C   UNL A   1      33.195  27.392  24.983  1.00  0.00     0.243 C 
ATOM      5  O   UNL A   1      33.660  26.393  25.539  1.00  0.00    -0.273 OA
ATOM      6  H   UNL A   1      33.588  28.527  26.577  1.00  0.00     0.163 HD
BRANCH   4   7
ATOM      7  C   UNL A   1      32.562  27.295  23.565  1.00  0.00     0.181 C 
BRANCH   7   8
ATOM      8  C   UNL A   1      33.292  26.091  22.900  1.00  0.00     0.032 C 
ATOM      9  C   UNL A   1      32.971  25.965  21.415  1.00  0.00     0.006 C 
ENDBRANCH   7   8
BRANCH   7  10
ATOM     10  N   UNL A   1      31.070  27.198  23.627  1.00  0.00    -0.280 N 
ATOM     11  C   UNL A   1      30.324  28.053  22.819  1.00  0.00     0.266 C 
ATOM     12  C   UNL A   1      30.335  26.103  24.031  1.00  0.00     0.149 C 
ATOM     13  O   UNL A   1      30.762  28.719  21.893  1.00  0.00    -0.268 OA
ATOM     14  C   UNL A   1      28.879  27.972  23.161  1.00  0.00     0.081 C 
ATOM     15  S   UNL A   1      28.613  26.488  23.995  1.00  0.00    -0.054 SA
ATOM     16  S   UNL A   1      30.839  24.570  24.453  1.00  0.00    -0.052 S 
ATOM     17  C   UNL A   1      27.904  28.876  22.983  1.00  0.00     0.040 C 
BRANCH  17  18
ATOM     18  C   UNL A   1      28.077  30.173  22.425  1.00  0.00     0.028 A 
ATOM     19  C   UNL A   1      27.998  30.622  21.118  1.00  0.00     0.020 A 
ATOM     20  S   UNL A   1      28.378  31.500  23.490  1.00  0.00    -0.144 S 
ATOM     21  C   UNL A   1      28.220  32.025  20.989  1.00  0.00     0.012 A 
ATOM     22  C   UNL A   1      28.434  32.624  22.207  1.00  0.00     0.065 A 
ENDBRANCH  17  18
ENDBRANCH   7  10
ENDBRANCH   4   7
ENDBRANCH   2   3
ENDBRANCH   1   2
BRANCH   1  23
ATOM     23  C   UNL A   1      31.731  31.945  26.610  1.00  0.00     0.023 C 
BRANCH  23  24
ATOM     24  C   UNL A   1      32.766  32.710  27.425  1.00  0.00     0.116 C 
BRANCH  24  25
ATOM     25  N   UNL A   1      32.397  34.102  27.652  1.00  0.00    -0.352 N 
ATOM     26  C   UNL A   1      32.944  34.998  28.536  1.00  0.00     0.251 C 
ATOM     27  H   UNL A   1      31.658  34.444  27.099  1.00  0.00     0.163 HD
ATOM     28  O   UNL A   1      32.441  36.103  28.705  1.00  0.00    -0.269 OA
BRANCH  26  29
ATOM     29  C   UNL A   1      34.131  34.591  29.309  1.00  0.00     0.039 A 
ATOM     30  C   UNL A   1      33.959  34.083  30.598  1.00  0.00     0.014 A 
ATOM     31  C   UNL A   1      35.398  34.641  28.721  1.00  0.00     0.014 A 
ATOM     32  C   UNL A   1      35.057  33.552  31.274  1.00  0.00     0.010 A 
ATOM     33  C   UNL A   1      36.471  34.038  29.363  1.00  0.00     0.010 A 
ATOM     34  C   UNL A   1      36.311  33.489  30.645  1.00  0.00    -0.014 A 
BRANCH  34  35
ATOM     35  C   UNL A   1      37.476  32.858  31.310  1.00  0.00     0.031 A 
ATOM     36  C   UNL A   1      38.140  31.667  30.681  1.00  0.00     0.074 A 
ATOM     37  C   UNL A   1      37.884  33.307  32.514  1.00  0.00     0.049 A 
ATOM     38  N   UNL A   1      39.110  30.922  31.141  1.00  0.00    -0.248 NA
ATOM     39  C   UNL A   1      37.620  31.236  29.372  1.00  0.00     0.031 C 
ATOM     40  C   UNL A   1      37.283  34.419  33.254  1.00  0.00     0.029 A 
ATOM     41  N   UNL A   1      38.894  32.872  33.333  1.00  0.00    -0.354 N 
ATOM     42  C   UNL A   1      39.303  29.926  30.192  1.00  0.00     0.074 A 
ATOM     43  C   UNL A   1      38.312  30.127  29.159  1.00  0.00     0.031 C 
ATOM     44  C   UNL A   1      37.951  34.593  34.405  1.00  0.00     0.029 A 
ATOM     45  C   UNL A   1      39.001  33.585  34.502  1.00  0.00     0.049 A 
ATOM     46  H   UNL A   1      39.487  32.121  33.105  1.00  0.00     0.167 HD
ATOM     47  C   UNL A   1      40.237  28.947  30.172  1.00  0.00     0.037 A 
ATOM     48  C   UNL A   1      39.849  33.438  35.538  1.00  0.00     0.037 A 
ATOM     49  C   UNL A   1      41.243  28.773  31.185  1.00  0.00     0.049 A 
ATOM     50  C   UNL A   1      40.887  32.350  35.485  1.00  0.00     0.074 A 
ATOM     51  C   UNL A   1      42.278  27.855  31.223  1.00  0.00     0.029 A 
ATOM     52  N   UNL A   1      41.339  29.535  32.340  1.00  0.00    -0.354 N 
ATOM     53  N   UNL A   1      41.103  31.460  34.547  1.00  0.00    -0.248 NA
ATOM     54  C   UNL A   1      41.801  32.252  36.631  1.00  0.00     0.031 C 
ATOM     55  C   UNL A   1      42.978  28.038  32.420  1.00  0.00     0.029 A 
ATOM     56  C   UNL A   1      42.407  29.098  33.106  1.00  0.00     0.049 A 
ATOM     57  H   UNL A   1      40.738  30.277  32.579  1.00  0.00     0.167 HD
ATOM     58  C   UNL A   1      42.194  30.714  34.976  1.00  0.00     0.074 A 
ATOM     59  C   UNL A   1      42.602  31.265  36.252  1.00  0.00     0.031 C 
ATOM     60  C   UNL A   1      42.803  29.667  34.368  1.00  0.00     0.037 A 
BRANCH  47  61
ATOM     61  C   UNL A   1      40.218  27.998  29.011  1.00  0.00     0.057 A 
ATOM     62  C   UNL A   1      39.490  26.802  29.047  1.00  0.00     0.134 A 
ATOM     63  C   UNL A   1      40.917  28.294  27.833  1.00  0.00     0.134 A 
ATOM     64  F   UNL A   1      38.812  26.451  30.151  1.00  0.00    -0.206 F 
ATOM     65  C   UNL A   1      39.477  25.921  27.964  1.00  0.00     0.040 A 
ATOM     66  C   UNL A   1      40.888  27.435  26.733  1.00  0.00     0.040 A 
ATOM     67  F   UNL A   1      41.632  29.424  27.730  1.00  0.00    -0.206 F 
ATOM     68  C   UNL A   1      40.172  26.241  26.799  1.00  0.00     0.006 A 
ENDBRANCH  47  61
BRANCH  48  69
ATOM     69  C   UNL A   1      39.772  34.356  36.701  1.00  0.00     0.057 A 
ATOM     70  C   UNL A   1      40.425  35.596  36.685  1.00  0.00     0.134 A 
ATOM     71  C   UNL A   1      39.057  34.020  37.856  1.00  0.00     0.134 A 
ATOM     72  F   UNL A   1      41.141  35.966  35.613  1.00  0.00    -0.206 F 
ATOM     73  C   UNL A   1      40.387  36.457  37.782  1.00  0.00     0.040 A 
ATOM     74  C   UNL A   1      38.990  34.882  38.951  1.00  0.00     0.040 A 
ATOM     75  F   UNL A   1      38.403  32.851  37.931  1.00  0.00    -0.206 F 
ATOM     76  C   UNL A   1      39.664  36.101  38.919  1.00  0.00     0.006 A 
ENDBRANCH  48  69
BRANCH  60  77
ATOM     77  C   UNL A   1      43.994  29.072  35.058  1.00  0.00     0.057 A 
ATOM     78  C   UNL A   1      43.871  28.007  35.959  1.00  0.00     0.134 A 
ATOM     79  C   UNL A   1      45.283  29.544  34.783  1.00  0.00     0.134 A 
ATOM     80  F   UNL A   1      42.662  27.519  36.273  1.00  0.00    -0.206 F 
ATOM     81  C   UNL A   1      44.989  27.444  36.577  1.00  0.00     0.040 A 
ATOM     82  C   UNL A   1      46.410  28.972  35.375  1.00  0.00     0.040 A 
ATOM     83  F   UNL A   1      45.470  30.556  33.922  1.00  0.00    -0.206 F 
ATOM     84  C   UNL A   1      46.264  27.923  36.279  1.00  0.00     0.006 A 
ENDBRANCH  60  77
ENDBRANCH  34  35
ENDBRANCH  26  29
ENDBRANCH  24  25
ENDBRANCH  23  24
ENDBRANCH   1  23
TORSDOF 14
ENDMDL
