MODEL 1
REMARK VINA RESULT:     -11.3      0.000      0.000
REMARK SMILES Cc1cscc1C(=O)Nc1cc(Br)ccc1C(=O)NCCCCNC(=O)c1ccc(-c2c3nc(c(-c4c(F)cccc4F)c4ccc([nH]4)c(-c4c(F)cccc4F)c4nc(c(-c5c(F)cccc5F)c5ccc2[nH]5)C=C4)C=C3)cc1
REMARK SMILES IDX 21 1 20 2 19 3 17 4 18 5 16 7 10 8 11 9 12 10 15 11 13 12
REMARK SMILES IDX 14 13 9 14 7 15 8 16 6 18 1 19 2 20 3 21 4 22 5 23 22 24
REMARK SMILES IDX 23 25 24 26 25 27 26 29 27 30 28 31 80 32 29 33 79 34 30 35
REMARK SMILES IDX 31 36 32 37 73 38 33 39 78 40 72 41 74 42 34 43 77 44 71 45
REMARK SMILES IDX 70 46 35 48 61 49 44 50 60 51 45 52 48 53 59 54 75 55 46 56
REMARK SMILES IDX 47 57 58 59 76 60 49 61 36 62 37 63 42 64 38 65 39 66 41 67
REMARK SMILES IDX 43 68 40 69 62 70 63 71 68 72 64 73 65 74 67 75 69 76 66 77
REMARK SMILES IDX 50 78 51 79 56 80 52 81 53 82 55 83 57 84 54 85
REMARK H PARENT 19 6 9 17 24 28 74 47 48 58
REMARK Flexibility Score: inf
ROOT
ATOM      1  C   UNL A   1      38.342  22.337  25.778  1.00  0.00     0.023 C 
ENDROOT
BRANCH   1   2
ATOM      2  C   UNL A   1      36.966  22.919  25.498  1.00  0.00     0.116 C 
BRANCH   2   3
ATOM      3  N   UNL A   1      36.073  23.090  26.614  1.00  0.00    -0.352 N 
ATOM      4  C   UNL A   1      34.873  22.487  26.916  1.00  0.00     0.253 C 
ATOM      5  O   UNL A   1      34.357  22.849  27.979  1.00  0.00    -0.269 OA
ATOM      6  H   UNL A   1      36.371  23.755  27.275  1.00  0.00     0.163 HD
BRANCH   4   7
ATOM      7  C   UNL A   1      34.118  21.474  26.084  1.00  0.00     0.063 A 
ATOM      8  C   UNL A   1      32.728  21.285  25.918  1.00  0.00     0.055 A 
ATOM      9  C   UNL A   1      32.231  20.359  24.980  1.00  0.00     0.042 A 
ATOM     10  C   UNL A   1      33.100  19.541  24.265  1.00  0.00     0.020 A 
ATOM     11  C   UNL A   1      34.964  20.591  25.370  1.00  0.00     0.017 A 
ATOM     12  Br  UNL A   1      32.410  18.287  23.034  1.00  0.00    -0.051 Br
ATOM     13  C   UNL A   1      34.466  19.629  24.483  1.00  0.00     0.016 A 
BRANCH   8  14
ATOM     14  N   UNL A   1      31.772  22.076  26.530  1.00  0.00    -0.321 N 
ATOM     15  C   UNL A   1      31.397  23.390  26.336  1.00  0.00     0.256 C 
ATOM     16  O   UNL A   1      30.553  23.782  27.154  1.00  0.00    -0.269 OA
ATOM     17  H   UNL A   1      31.263  21.616  27.237  1.00  0.00     0.170 HD
BRANCH  15  18
ATOM     18  C   UNL A   1      31.778  24.270  25.195  1.00  0.00     0.053 A 
ATOM     19  C   UNL A   1      33.900  25.823  25.769  1.00  0.00     0.046 C 
ATOM     20  C   UNL A   1      32.786  25.302  24.927  1.00  0.00    -0.028 A 
ATOM     21  C   UNL A   1      32.633  25.846  23.656  1.00  0.00     0.069 A 
ATOM     22  S   UNL A   1      31.467  25.064  22.714  1.00  0.00    -0.151 S 
ATOM     23  C   UNL A   1      31.083  24.032  24.005  1.00  0.00     0.079 A 
ENDBRANCH  15  18
ENDBRANCH   8  14
ENDBRANCH   4   7
ENDBRANCH   2   3
ENDBRANCH   1   2
BRANCH   1  24
ATOM     24  C   UNL A   1      38.638  20.956  25.210  1.00  0.00     0.023 C 
BRANCH  24  25
ATOM     25  C   UNL A   1      39.054  19.875  26.201  1.00  0.00     0.116 C 
BRANCH  25  26
ATOM     26  N   UNL A   1      40.271  19.160  25.843  1.00  0.00    -0.352 N 
ATOM     27  C   UNL A   1      41.588  19.553  25.928  1.00  0.00     0.251 C 
ATOM     28  H   UNL A   1      40.131  18.254  25.483  1.00  0.00     0.163 HD
ATOM     29  O   UNL A   1      42.478  18.823  25.496  1.00  0.00    -0.269 OA
BRANCH  27  30
ATOM     30  C   UNL A   1      41.947  20.870  26.502  1.00  0.00     0.039 A 
ATOM     31  C   UNL A   1      42.324  21.906  25.641  1.00  0.00     0.014 A 
ATOM     32  C   UNL A   1      41.915  21.093  27.879  1.00  0.00     0.014 A 
ATOM     33  C   UNL A   1      42.592  23.177  26.157  1.00  0.00     0.010 A 
ATOM     34  C   UNL A   1      42.068  22.383  28.378  1.00  0.00     0.010 A 
ATOM     35  C   UNL A   1      42.431  23.437  27.527  1.00  0.00    -0.014 A 
BRANCH  35  36
ATOM     36  C   UNL A   1      42.692  24.786  28.098  1.00  0.00     0.031 A 
ATOM     37  C   UNL A   1      44.085  25.156  28.538  1.00  0.00     0.074 A 
ATOM     38  C   UNL A   1      41.680  25.660  28.267  1.00  0.00     0.049 A 
ATOM     39  N   UNL A   1      44.512  26.257  29.104  1.00  0.00    -0.248 NA
ATOM     40  C   UNL A   1      45.135  24.140  28.348  1.00  0.00     0.031 C 
ATOM     41  C   UNL A   1      40.275  25.408  27.937  1.00  0.00     0.029 A 
ATOM     42  N   UNL A   1      41.677  26.940  28.764  1.00  0.00    -0.354 N 
ATOM     43  C   UNL A   1      45.864  26.055  29.352  1.00  0.00     0.074 A 
ATOM     44  C   UNL A   1      46.174  24.704  28.945  1.00  0.00     0.031 C 
ATOM     45  C   UNL A   1      39.555  26.510  28.209  1.00  0.00     0.029 A 
ATOM     46  C   UNL A   1      40.436  27.532  28.764  1.00  0.00     0.049 A 
ATOM     47  H   UNL A   1      42.489  27.393  29.089  1.00  0.00     0.167 HD
ATOM     48  C   UNL A   1      46.778  26.925  29.843  1.00  0.00     0.037 A 
ATOM     49  C   UNL A   1      40.054  28.760  29.166  1.00  0.00     0.037 A 
ATOM     50  C   UNL A   1      46.480  28.283  30.213  1.00  0.00     0.049 A 
ATOM     51  C   UNL A   1      41.092  29.713  29.694  1.00  0.00     0.074 A 
ATOM     52  C   UNL A   1      47.346  29.263  30.666  1.00  0.00     0.029 A 
ATOM     53  N   UNL A   1      45.217  28.853  30.166  1.00  0.00    -0.354 N 
ATOM     54  N   UNL A   1      42.381  29.531  29.857  1.00  0.00    -0.248 NA
ATOM     55  C   UNL A   1      40.625  31.052  30.081  1.00  0.00     0.031 C 
ATOM     56  C   UNL A   1      46.598  30.413  30.938  1.00  0.00     0.029 A 
ATOM     57  C   UNL A   1      45.278  30.168  30.597  1.00  0.00     0.049 A 
ATOM     58  H   UNL A   1      44.399  28.391  29.872  1.00  0.00     0.167 HD
ATOM     59  C   UNL A   1      42.882  30.740  30.323  1.00  0.00     0.074 A 
ATOM     60  C   UNL A   1      41.760  31.653  30.404  1.00  0.00     0.031 C 
ATOM     61  C   UNL A   1      44.155  31.068  30.652  1.00  0.00     0.037 A 
BRANCH  48  62
ATOM     62  C   UNL A   1      48.191  26.436  29.995  1.00  0.00     0.057 A 
ATOM     63  C   UNL A   1      49.134  26.566  28.966  1.00  0.00     0.134 A 
ATOM     64  C   UNL A   1      48.623  25.858  31.195  1.00  0.00     0.134 A 
ATOM     65  F   UNL A   1      48.784  27.097  27.785  1.00  0.00    -0.206 F 
ATOM     66  C   UNL A   1      50.446  26.112  29.115  1.00  0.00     0.040 A 
ATOM     67  C   UNL A   1      49.941  25.430  31.367  1.00  0.00     0.040 A 
ATOM     68  F   UNL A   1      47.775  25.708  32.224  1.00  0.00    -0.206 F 
ATOM     69  C   UNL A   1      50.855  25.550  30.322  1.00  0.00     0.006 A 
ENDBRANCH  48  62
BRANCH  49  70
ATOM     70  C   UNL A   1      38.632  29.178  29.057  1.00  0.00     0.057 A 
ATOM     71  C   UNL A   1      37.772  29.113  30.161  1.00  0.00     0.134 A 
ATOM     72  C   UNL A   1      38.088  29.617  27.844  1.00  0.00     0.134 A 
ATOM     73  F   UNL A   1      38.227  28.683  31.347  1.00  0.00    -0.206 F 
ATOM     74  C   UNL A   1      36.417  29.436  30.055  1.00  0.00     0.040 A 
ATOM     75  C   UNL A   1      36.742  29.972  27.731  1.00  0.00     0.040 A 
ATOM     76  F   UNL A   1      38.859  29.711  26.751  1.00  0.00    -0.206 F 
ATOM     77  C   UNL A   1      35.901  29.870  28.837  1.00  0.00     0.006 A 
ENDBRANCH  49  70
BRANCH  61  78
ATOM     78  C   UNL A   1      44.415  32.489  31.068  1.00  0.00     0.057 A 
ATOM     79  C   UNL A   1      44.377  32.894  32.408  1.00  0.00     0.134 A 
ATOM     80  C   UNL A   1      44.732  33.459  30.109  1.00  0.00     0.134 A 
ATOM     81  F   UNL A   1      44.070  32.016  33.376  1.00  0.00    -0.206 F 
ATOM     82  C   UNL A   1      44.609  34.220  32.775  1.00  0.00     0.040 A 
ATOM     83  C   UNL A   1      44.999  34.781  30.467  1.00  0.00     0.040 A 
ATOM     84  F   UNL A   1      44.799  33.137  28.808  1.00  0.00    -0.206 F 
ATOM     85  C   UNL A   1      44.927  35.167  31.803  1.00  0.00     0.006 A 
ENDBRANCH  61  78
ENDBRANCH  35  36
ENDBRANCH  27  30
ENDBRANCH  25  26
ENDBRANCH  24  25
ENDBRANCH   1  24
TORSDOF 13
ENDMDL
MODEL 2
REMARK VINA RESULT:     -11.2      1.522      6.431
REMARK SMILES Cc1cscc1C(=O)Nc1cc(Br)ccc1C(=O)NCCCCNC(=O)c1ccc(-c2c3nc(c(-c4c(F)cccc4F)c4ccc([nH]4)c(-c4c(F)cccc4F)c4nc(c(-c5c(F)cccc5F)c5ccc2[nH]5)C=C4)C=C3)cc1
REMARK SMILES IDX 21 1 20 2 19 3 17 4 18 5 16 7 10 8 11 9 12 10 15 11 13 12
REMARK SMILES IDX 14 13 9 14 7 15 8 16 6 18 1 19 2 20 3 21 4 22 5 23 22 24
REMARK SMILES IDX 23 25 24 26 25 27 26 29 27 30 28 31 80 32 29 33 79 34 30 35
REMARK SMILES IDX 31 36 32 37 73 38 33 39 78 40 72 41 74 42 34 43 77 44 71 45
REMARK SMILES IDX 70 46 35 48 61 49 44 50 60 51 45 52 48 53 59 54 75 55 46 56
REMARK SMILES IDX 47 57 58 59 76 60 49 61 36 62 37 63 42 64 38 65 39 66 41 67
REMARK SMILES IDX 43 68 40 69 62 70 63 71 68 72 64 73 65 74 67 75 69 76 66 77
REMARK SMILES IDX 50 78 51 79 56 80 52 81 53 82 55 83 57 84 54 85
REMARK H PARENT 19 6 9 17 24 28 74 47 48 58
REMARK Flexibility Score: inf
ROOT
ATOM      1  C   UNL A   1      36.139  21.178  24.675  1.00  0.00     0.023 C 
ENDROOT
BRANCH   1   2
ATOM      2  C   UNL A   1      35.131  21.473  25.774  1.00  0.00     0.116 C 
BRANCH   2   3
ATOM      3  N   UNL A   1      33.860  20.799  25.715  1.00  0.00    -0.352 N 
ATOM      4  C   UNL A   1      32.728  21.062  24.977  1.00  0.00     0.253 C 
ATOM      5  O   UNL A   1      31.797  20.267  25.145  1.00  0.00    -0.269 OA
ATOM      6  H   UNL A   1      33.788  20.015  26.305  1.00  0.00     0.163 HD
BRANCH   4   7
ATOM      7  C   UNL A   1      32.497  22.218  24.028  1.00  0.00     0.063 A 
ATOM      8  C   UNL A   1      31.616  23.317  24.129  1.00  0.00     0.055 A 
ATOM      9  C   UNL A   1      31.655  24.364  23.187  1.00  0.00     0.042 A 
ATOM     10  C   UNL A   1      32.498  24.290  22.083  1.00  0.00     0.020 A 
ATOM     11  C   UNL A   1      33.305  22.161  22.867  1.00  0.00     0.017 A 
ATOM     12  Br  UNL A   1      32.514  25.691  20.819  1.00  0.00    -0.051 Br
ATOM     13  C   UNL A   1      33.299  23.174  21.900  1.00  0.00     0.016 A 
BRANCH   8  14
ATOM     14  N   UNL A   1      30.776  23.526  25.209  1.00  0.00    -0.321 N 
ATOM     15  C   UNL A   1      30.807  24.442  26.240  1.00  0.00     0.256 C 
ATOM     16  O   UNL A   1      29.922  24.254  27.086  1.00  0.00    -0.269 OA
ATOM     17  H   UNL A   1      30.013  22.904  25.249  1.00  0.00     0.170 HD
BRANCH  15  18
ATOM     18  C   UNL A   1      31.661  25.660  26.330  1.00  0.00     0.053 A 
ATOM     19  C   UNL A   1      34.226  25.157  25.688  1.00  0.00     0.046 C 
ATOM     20  C   UNL A   1      33.076  25.995  26.134  1.00  0.00    -0.028 A 
ATOM     21  C   UNL A   1      33.329  27.332  26.420  1.00  0.00     0.069 A 
ATOM     22  S   UNL A   1      31.935  28.237  26.734  1.00  0.00    -0.151 S 
ATOM     23  C   UNL A   1      30.970  26.851  26.574  1.00  0.00     0.079 A 
ENDBRANCH  15  18
ENDBRANCH   8  14
ENDBRANCH   4   7
ENDBRANCH   2   3
ENDBRANCH   1   2
BRANCH   1  24
ATOM     24  C   UNL A   1      37.202  20.131  24.974  1.00  0.00     0.023 C 
BRANCH  24  25
ATOM     25  C   UNL A   1      38.545  20.636  25.488  1.00  0.00     0.116 C 
BRANCH  25  26
ATOM     26  N   UNL A   1      39.587  19.621  25.562  1.00  0.00    -0.352 N 
ATOM     27  C   UNL A   1      40.883  19.711  26.019  1.00  0.00     0.251 C 
ATOM     28  H   UNL A   1      39.325  18.731  25.233  1.00  0.00     0.163 HD
ATOM     29  O   UNL A   1      41.638  18.746  25.924  1.00  0.00    -0.269 OA
BRANCH  27  30
ATOM     30  C   UNL A   1      41.393  20.976  26.595  1.00  0.00     0.039 A 
ATOM     31  C   UNL A   1      41.901  21.956  25.736  1.00  0.00     0.014 A 
ATOM     32  C   UNL A   1      41.376  21.205  27.971  1.00  0.00     0.014 A 
ATOM     33  C   UNL A   1      42.316  23.187  26.252  1.00  0.00     0.010 A 
ATOM     34  C   UNL A   1      41.680  22.469  28.469  1.00  0.00     0.010 A 
ATOM     35  C   UNL A   1      42.175  23.468  27.620  1.00  0.00    -0.014 A 
BRANCH  35  36
ATOM     36  C   UNL A   1      42.593  24.778  28.190  1.00  0.00     0.031 A 
ATOM     37  C   UNL A   1      41.569  25.862  28.407  1.00  0.00     0.074 A 
ATOM     38  C   UNL A   1      43.891  25.015  28.468  1.00  0.00     0.049 A 
ATOM     39  N   UNL A   1      41.734  27.085  28.844  1.00  0.00    -0.248 NA
ATOM     40  C   UNL A   1      40.175  25.540  28.054  1.00  0.00     0.031 C 
ATOM     41  C   UNL A   1      44.993  24.074  28.252  1.00  0.00     0.029 A 
ATOM     42  N   UNL A   1      44.505  26.127  28.991  1.00  0.00    -0.354 N 
ATOM     43  C   UNL A   1      40.477  27.676  28.797  1.00  0.00     0.074 A 
ATOM     44  C   UNL A   1      39.573  26.707  28.223  1.00  0.00     0.031 C 
ATOM     45  C   UNL A   1      46.140  24.636  28.670  1.00  0.00     0.029 A 
ATOM     46  C   UNL A   1      45.863  25.986  29.150  1.00  0.00     0.049 A 
ATOM     47  H   UNL A   1      44.017  26.948  29.231  1.00  0.00     0.167 HD
ATOM     48  C   UNL A   1      40.098  28.904  29.225  1.00  0.00     0.037 A 
ATOM     49  C   UNL A   1      46.780  26.848  29.630  1.00  0.00     0.037 A 
ATOM     50  C   UNL A   1      40.989  29.855  29.833  1.00  0.00     0.049 A 
ATOM     51  C   UNL A   1      46.331  28.202  30.113  1.00  0.00     0.074 A 
ATOM     52  C   UNL A   1      40.694  31.103  30.353  1.00  0.00     0.029 A 
ATOM     53  N   UNL A   1      42.351  29.660  30.005  1.00  0.00    -0.354 N 
ATOM     54  N   UNL A   1      45.125  28.720  30.127  1.00  0.00    -0.248 NA
ATOM     55  C   UNL A   1      47.368  29.086  30.662  1.00  0.00     0.031 C 
ATOM     56  C   UNL A   1      41.885  31.683  30.799  1.00  0.00     0.029 A 
ATOM     57  C   UNL A   1      42.913  30.772  30.612  1.00  0.00     0.049 A 
ATOM     58  H   UNL A   1      42.845  28.853  29.737  1.00  0.00     0.167 HD
ATOM     59  C   UNL A   1      45.254  29.968  30.723  1.00  0.00     0.074 A 
ATOM     60  C   UNL A   1      46.653  30.124  31.068  1.00  0.00     0.031 C 
ATOM     61  C   UNL A   1      44.302  30.902  30.966  1.00  0.00     0.037 A 
BRANCH  48  62
ATOM     62  C   UNL A   1      38.652  29.280  29.063  1.00  0.00     0.057 A 
ATOM     63  C   UNL A   1      38.120  29.653  27.820  1.00  0.00     0.134 A 
ATOM     64  C   UNL A   1      37.775  29.237  30.153  1.00  0.00     0.134 A 
ATOM     65  F   UNL A   1      38.908  29.729  26.738  1.00  0.00    -0.206 F 
ATOM     66  C   UNL A   1      36.775  29.999  27.676  1.00  0.00     0.040 A 
ATOM     67  C   UNL A   1      36.421  29.550  30.014  1.00  0.00     0.040 A 
ATOM     68  F   UNL A   1      38.215  28.884  31.370  1.00  0.00    -0.206 F 
ATOM     69  C   UNL A   1      35.919  29.939  28.773  1.00  0.00     0.006 A 
ENDBRANCH  48  62
BRANCH  49  70
ATOM     70  C   UNL A   1      48.211  26.456  29.712  1.00  0.00     0.057 A 
ATOM     71  C   UNL A   1      48.720  25.804  30.843  1.00  0.00     0.134 A 
ATOM     72  C   UNL A   1      49.113  26.755  28.685  1.00  0.00     0.134 A 
ATOM     73  F   UNL A   1      47.911  25.506  31.871  1.00  0.00    -0.206 F 
ATOM     74  C   UNL A   1      50.076  25.493  30.963  1.00  0.00     0.040 A 
ATOM     75  C   UNL A   1      50.466  26.423  28.778  1.00  0.00     0.040 A 
ATOM     76  F   UNL A   1      48.690  27.371  27.570  1.00  0.00    -0.206 F 
ATOM     77  C   UNL A   1      50.953  25.800  29.925  1.00  0.00     0.006 A 
ENDBRANCH  49  70
BRANCH  61  78
ATOM     78  C   UNL A   1      44.727  32.146  31.694  1.00  0.00     0.057 A 
ATOM     79  C   UNL A   1      44.706  32.239  33.092  1.00  0.00     0.134 A 
ATOM     80  C   UNL A   1      45.190  33.259  30.980  1.00  0.00     0.134 A 
ATOM     81  F   UNL A   1      44.266  31.212  33.835  1.00  0.00    -0.206 F 
ATOM     82  C   UNL A   1      45.094  33.406  33.750  1.00  0.00     0.040 A 
ATOM     83  C   UNL A   1      45.611  34.420  31.629  1.00  0.00     0.040 A 
ATOM     84  F   UNL A   1      45.249  33.234  29.640  1.00  0.00    -0.206 F 
ATOM     85  C   UNL A   1      45.553  34.500  33.018  1.00  0.00     0.006 A 
ENDBRANCH  61  78
ENDBRANCH  35  36
ENDBRANCH  27  30
ENDBRANCH  25  26
ENDBRANCH  24  25
ENDBRANCH   1  24
TORSDOF 13
ENDMDL
MODEL 3
REMARK VINA RESULT:     -11.2      1.727      2.302
REMARK SMILES Cc1cscc1C(=O)Nc1cc(Br)ccc1C(=O)NCCCCNC(=O)c1ccc(-c2c3nc(c(-c4c(F)cccc4F)c4ccc([nH]4)c(-c4c(F)cccc4F)c4nc(c(-c5c(F)cccc5F)c5ccc2[nH]5)C=C4)C=C3)cc1
REMARK SMILES IDX 21 1 20 2 19 3 17 4 18 5 16 7 10 8 11 9 12 10 15 11 13 12
REMARK SMILES IDX 14 13 9 14 7 15 8 16 6 18 1 19 2 20 3 21 4 22 5 23 22 24
REMARK SMILES IDX 23 25 24 26 25 27 26 29 27 30 28 31 80 32 29 33 79 34 30 35
REMARK SMILES IDX 31 36 32 37 73 38 33 39 78 40 72 41 74 42 34 43 77 44 71 45
REMARK SMILES IDX 70 46 35 48 61 49 44 50 60 51 45 52 48 53 59 54 75 55 46 56
REMARK SMILES IDX 47 57 58 59 76 60 49 61 36 62 37 63 42 64 38 65 39 66 41 67
REMARK SMILES IDX 43 68 40 69 62 70 63 71 68 72 64 73 65 74 67 75 69 76 66 77
REMARK SMILES IDX 50 78 51 79 56 80 52 81 53 82 55 83 57 84 54 85
REMARK H PARENT 19 6 9 17 24 28 74 47 48 58
REMARK Flexibility Score: inf
ROOT
ATOM      1  C   UNL A   1      38.764  22.307  26.356  1.00  0.00     0.023 C 
ENDROOT
BRANCH   1   2
ATOM      2  C   UNL A   1      37.786  23.299  25.749  1.00  0.00     0.116 C 
BRANCH   2   3
ATOM      3  N   UNL A   1      37.489  23.172  24.346  1.00  0.00    -0.352 N 
ATOM      4  C   UNL A   1      36.292  23.190  23.667  1.00  0.00     0.253 C 
ATOM      5  O   UNL A   1      36.383  23.072  22.439  1.00  0.00    -0.269 OA
ATOM      6  H   UNL A   1      38.280  23.049  23.773  1.00  0.00     0.163 HD
BRANCH   4   7
ATOM      7  C   UNL A   1      34.903  23.301  24.255  1.00  0.00     0.063 A 
ATOM      8  C   UNL A   1      33.779  24.030  23.808  1.00  0.00     0.055 A 
ATOM      9  C   UNL A   1      32.527  23.886  24.437  1.00  0.00     0.042 A 
ATOM     10  C   UNL A   1      32.393  23.096  25.573  1.00  0.00     0.020 A 
ATOM     11  C   UNL A   1      34.733  22.544  25.440  1.00  0.00     0.017 A 
ATOM     12  Br  UNL A   1      30.711  22.940  26.416  1.00  0.00    -0.051 Br
ATOM     13  C   UNL A   1      33.501  22.450  26.099  1.00  0.00     0.016 A 
BRANCH   8  14
ATOM     14  N   UNL A   1      33.777  24.801  22.658  1.00  0.00    -0.321 N 
ATOM     15  C   UNL A   1      33.272  26.056  22.388  1.00  0.00     0.256 C 
ATOM     16  O   UNL A   1      33.381  26.379  21.198  1.00  0.00    -0.269 OA
ATOM     17  H   UNL A   1      34.220  24.374  21.889  1.00  0.00     0.170 HD
BRANCH  15  18
ATOM     18  C   UNL A   1      32.784  27.057  23.379  1.00  0.00     0.053 A 
ATOM     19  C   UNL A   1      30.156  26.789  23.893  1.00  0.00     0.046 C 
ATOM     20  C   UNL A   1      31.507  27.409  24.009  1.00  0.00    -0.028 A 
ATOM     21  C   UNL A   1      31.639  28.508  24.850  1.00  0.00     0.069 A 
ATOM     22  S   UNL A   1      33.236  29.021  25.058  1.00  0.00    -0.151 S 
ATOM     23  C   UNL A   1      33.782  27.839  23.970  1.00  0.00     0.079 A 
ENDBRANCH  15  18
ENDBRANCH   8  14
ENDBRANCH   4   7
ENDBRANCH   2   3
ENDBRANCH   1   2
BRANCH   1  24
ATOM     24  C   UNL A   1      39.156  21.110  25.501  1.00  0.00     0.023 C 
BRANCH  24  25
ATOM     25  C   UNL A   1      39.410  19.794  26.228  1.00  0.00     0.116 C 
BRANCH  25  26
ATOM     26  N   UNL A   1      40.644  19.121  25.850  1.00  0.00    -0.352 N 
ATOM     27  C   UNL A   1      41.948  19.558  25.911  1.00  0.00     0.251 C 
ATOM     28  H   UNL A   1      40.529  18.210  25.493  1.00  0.00     0.163 HD
ATOM     29  O   UNL A   1      42.855  18.859  25.464  1.00  0.00    -0.269 OA
BRANCH  27  30
ATOM     30  C   UNL A   1      42.272  20.887  26.479  1.00  0.00     0.039 A 
ATOM     31  C   UNL A   1      42.644  21.922  25.614  1.00  0.00     0.014 A 
ATOM     32  C   UNL A   1      42.213  21.123  27.852  1.00  0.00     0.014 A 
ATOM     33  C   UNL A   1      42.879  23.203  26.122  1.00  0.00     0.010 A 
ATOM     34  C   UNL A   1      42.333  22.420  28.341  1.00  0.00     0.010 A 
ATOM     35  C   UNL A   1      42.690  23.472  27.486  1.00  0.00    -0.014 A 
BRANCH  35  36
ATOM     36  C   UNL A   1      42.916  24.832  28.048  1.00  0.00     0.031 A 
ATOM     37  C   UNL A   1      44.303  25.250  28.464  1.00  0.00     0.074 A 
ATOM     38  C   UNL A   1      41.878  25.673  28.231  1.00  0.00     0.049 A 
ATOM     39  N   UNL A   1      44.702  26.366  29.020  1.00  0.00    -0.248 NA
ATOM     40  C   UNL A   1      45.382  24.268  28.261  1.00  0.00     0.031 C 
ATOM     41  C   UNL A   1      40.477  25.373  27.925  1.00  0.00     0.029 A 
ATOM     42  N   UNL A   1      41.841  26.954  28.724  1.00  0.00    -0.354 N 
ATOM     43  C   UNL A   1      46.064  26.209  29.246  1.00  0.00     0.074 A 
ATOM     44  C   UNL A   1      46.411  24.868  28.838  1.00  0.00     0.031 C 
ATOM     45  C   UNL A   1      39.725  26.452  28.205  1.00  0.00     0.029 A 
ATOM     46  C   UNL A   1      40.581  27.504  28.743  1.00  0.00     0.049 A 
ATOM     47  H   UNL A   1      42.643  27.434  29.034  1.00  0.00     0.167 HD
ATOM     48  C   UNL A   1      46.957  27.111  29.719  1.00  0.00     0.037 A 
ATOM     49  C   UNL A   1      40.165  28.721  29.146  1.00  0.00     0.037 A 
ATOM     50  C   UNL A   1      46.620  28.460  30.089  1.00  0.00     0.049 A 
ATOM     51  C   UNL A   1      41.180  29.710  29.655  1.00  0.00     0.074 A 
ATOM     52  C   UNL A   1      47.460  29.470  30.524  1.00  0.00     0.029 A 
ATOM     53  N   UNL A   1      45.338  28.988  30.062  1.00  0.00    -0.354 N 
ATOM     54  N   UNL A   1      42.477  29.570  29.797  1.00  0.00    -0.248 NA
ATOM     55  C   UNL A   1      40.675  31.033  30.044  1.00  0.00     0.031 C 
ATOM     56  C   UNL A   1      46.679  30.596  30.805  1.00  0.00     0.029 A 
ATOM     57  C   UNL A   1      45.362  30.306  30.486  1.00  0.00     0.049 A 
ATOM     58  H   UNL A   1      44.531  28.498  29.782  1.00  0.00     0.167 HD
ATOM     59  C   UNL A   1      42.945  30.797  30.250  1.00  0.00     0.074 A 
ATOM     60  C   UNL A   1      41.795  31.673  30.347  1.00  0.00     0.031 C 
ATOM     61  C   UNL A   1      44.212  31.169  30.557  1.00  0.00     0.037 A 
BRANCH  48  62
ATOM     62  C   UNL A   1      48.387  26.670  29.850  1.00  0.00     0.057 A 
ATOM     63  C   UNL A   1      49.328  26.898  28.835  1.00  0.00     0.134 A 
ATOM     64  C   UNL A   1      48.837  26.039  31.016  1.00  0.00     0.134 A 
ATOM     65  F   UNL A   1      48.960  27.484  27.686  1.00  0.00    -0.206 F 
ATOM     66  C   UNL A   1      50.656  26.488  28.964  1.00  0.00     0.040 A 
ATOM     67  C   UNL A   1      50.171  25.653  31.169  1.00  0.00     0.040 A 
ATOM     68  F   UNL A   1      47.994  25.794  32.029  1.00  0.00    -0.206 F 
ATOM     69  C   UNL A   1      51.083  25.871  30.138  1.00  0.00     0.006 A 
ENDBRANCH  48  62
BRANCH  49  70
ATOM     70  C   UNL A   1      38.729  29.091  29.060  1.00  0.00     0.057 A 
ATOM     71  C   UNL A   1      38.175  29.569  27.865  1.00  0.00     0.134 A 
ATOM     72  C   UNL A   1      37.884  29.015  30.173  1.00  0.00     0.134 A 
ATOM     73  F   UNL A   1      38.936  29.683  26.767  1.00  0.00    -0.206 F 
ATOM     74  C   UNL A   1      36.844  29.987  27.789  1.00  0.00     0.040 A 
ATOM     75  C   UNL A   1      36.544  29.402  30.104  1.00  0.00     0.040 A 
ATOM     76  F   UNL A   1      38.348  28.559  31.346  1.00  0.00    -0.206 F 
ATOM     77  C   UNL A   1      36.025  29.900  28.911  1.00  0.00     0.006 A 
ENDBRANCH  49  70
BRANCH  61  78
ATOM     78  C   UNL A   1      44.431  32.599  30.964  1.00  0.00     0.057 A 
ATOM     79  C   UNL A   1      44.397  33.009  32.303  1.00  0.00     0.134 A 
ATOM     80  C   UNL A   1      44.705  33.574  29.997  1.00  0.00     0.134 A 
ATOM     81  F   UNL A   1      44.131  32.126  33.278  1.00  0.00    -0.206 F 
ATOM     82  C   UNL A   1      44.591  34.343  32.662  1.00  0.00     0.040 A 
ATOM     83  C   UNL A   1      44.934  34.906  30.346  1.00  0.00     0.040 A 
ATOM     84  F   UNL A   1      44.765  33.249  28.697  1.00  0.00    -0.206 F 
ATOM     85  C   UNL A   1      44.866  35.295  31.682  1.00  0.00     0.006 A 
ENDBRANCH  61  78
ENDBRANCH  35  36
ENDBRANCH  27  30
ENDBRANCH  25  26
ENDBRANCH  24  25
ENDBRANCH   1  24
TORSDOF 13
ENDMDL
