MODEL 1
REMARK VINA RESULT:     -10.9      0.000      0.000
REMARK SMILES CCCCCCNC(=O)Oc1cccc(-c2ccc(CC(=O)NCCCCNC(=O)c3ccc(-c4c5nc(c(-c6c(F)cccc6F)c6ccc([nH]6)c(-c6c(F)cccc6F)c6nc(c(-c7c(F)cccc7F)c7ccc4[nH]7)C=C6)C=C5)cc3)cc2F)c1
REMARK SMILES IDX 20 1 19 2 16 3 17 4 86 5 18 6 85 7 87 8 15 9 11 10 12 11
REMARK SMILES IDX 88 12 13 13 14 14 10 15 8 16 7 17 9 19 6 20 5 21 4 22 3 23
REMARK SMILES IDX 2 24 1 25 21 26 22 27 23 28 24 30 25 31 26 32 27 33 28 34
REMARK SMILES IDX 29 35 30 37 31 38 32 39 84 40 33 41 83 42 34 43 35 44 36 45
REMARK SMILES IDX 77 46 37 47 82 48 76 49 78 50 38 51 81 52 75 53 74 54 39 56
REMARK SMILES IDX 65 57 48 58 64 59 49 60 52 61 63 62 79 63 50 64 51 65 62 67
REMARK SMILES IDX 80 68 53 69 40 70 41 71 46 72 42 73 43 74 45 75 47 76 44 77
REMARK SMILES IDX 66 78 67 79 72 80 68 81 69 82 71 83 73 84 70 85 54 86 55 87
REMARK SMILES IDX 60 88 56 89 57 90 59 91 61 92 58 93
REMARK H PARENT 7 18 23 29 28 36 78 55 52 66
REMARK Flexibility Score: inf
ROOT
ATOM      1  C   UNL A   1      32.673  22.206  26.155  1.00  0.00     0.135 C 
ENDROOT
BRANCH   1   2
ATOM      2  C   UNL A   1      31.781  23.304  25.631  1.00  0.00    -0.036 A 
ATOM      3  C   UNL A   1      30.194  25.438  24.640  1.00  0.00     0.018 A 
ATOM      4  C   UNL A   1      30.213  25.125  26.009  1.00  0.00     0.012 A 
ATOM      5  C   UNL A   1      30.967  24.641  23.784  1.00  0.00     0.131 A 
ATOM      6  C   UNL A   1      30.993  24.071  26.500  1.00  0.00     0.005 A 
ATOM      7  C   UNL A   1      31.737  23.584  24.261  1.00  0.00     0.044 A 
ATOM      8  F   UNL A   1      31.002  24.895  22.466  1.00  0.00    -0.206 F 
BRANCH   3   9
ATOM      9  C   UNL A   1      29.371  26.541  24.123  1.00  0.00    -0.012 A 
ATOM     10  C   UNL A   1      29.202  28.775  23.186  1.00  0.00     0.133 A 
ATOM     11  C   UNL A   1      27.815  28.676  23.129  1.00  0.00     0.047 A 
ATOM     12  C   UNL A   1      29.975  27.733  23.697  1.00  0.00     0.056 A 
ATOM     13  C   UNL A   1      27.198  27.502  23.555  1.00  0.00     0.004 A 
ATOM     14  C   UNL A   1      27.971  26.441  24.042  1.00  0.00     0.009 A 
BRANCH  10  15
ATOM     15  O   UNL A   1      29.783  29.994  22.808  1.00  0.00    -0.410 OA
BRANCH  15  16
ATOM     16  C   UNL A   1      29.497  31.104  23.590  1.00  0.00     0.412 C 
ATOM     17  N   UNL A   1      30.302  31.218  24.687  1.00  0.00    -0.321 N 
ATOM     18  H   UNL A   1      30.137  31.991  25.275  1.00  0.00     0.167 HD
ATOM     19  O   UNL A   1      28.617  31.935  23.376  1.00  0.00    -0.224 OA
BRANCH  17  20
ATOM     20  C   UNL A   1      31.371  30.323  25.080  1.00  0.00     0.119 C 
BRANCH  20  21
ATOM     21  C   UNL A   1      31.978  30.714  26.427  1.00  0.00     0.021 C 
BRANCH  21  22
ATOM     22  C   UNL A   1      32.401  29.536  27.313  1.00  0.00     0.002 C 
BRANCH  22  23
ATOM     23  C   UNL A   1      32.051  28.143  26.777  1.00  0.00    -0.000 C 
BRANCH  23  24
ATOM     24  C   UNL A   1      33.246  27.240  26.463  1.00  0.00    -0.003 C 
ATOM     25  C   UNL A   1      33.543  27.128  24.975  1.00  0.00     0.004 C 
ENDBRANCH  23  24
ENDBRANCH  22  23
ENDBRANCH  21  22
ENDBRANCH  20  21
ENDBRANCH  17  20
ENDBRANCH  15  16
ENDBRANCH  10  15
ENDBRANCH   3   9
ENDBRANCH   1   2
BRANCH   1  26
ATOM     26  C   UNL A   1      32.762  20.994  25.242  1.00  0.00     0.224 C 
ATOM     27  O   UNL A   1      31.779  20.286  25.019  1.00  0.00    -0.275 OA
ATOM     28  N   UNL A   1      33.939  20.687  24.619  1.00  0.00    -0.356 N 
ATOM     29  H   UNL A   1      33.897  19.941  23.978  1.00  0.00     0.163 HD
BRANCH  28  30
ATOM     30  C   UNL A   1      35.240  21.309  24.771  1.00  0.00     0.116 C 
BRANCH  30  31
ATOM     31  C   UNL A   1      35.343  22.616  23.983  1.00  0.00     0.023 C 
BRANCH  31  32
ATOM     32  C   UNL A   1      36.711  23.302  24.056  1.00  0.00     0.023 C 
BRANCH  32  33
ATOM     33  C   UNL A   1      37.330  23.381  25.446  1.00  0.00     0.116 C 
BRANCH  33  34
ATOM     34  N   UNL A   1      38.568  22.627  25.569  1.00  0.00    -0.352 N 
ATOM     35  C   UNL A   1      39.755  23.009  26.147  1.00  0.00     0.251 C 
ATOM     36  H   UNL A   1      38.555  21.721  25.185  1.00  0.00     0.163 HD
ATOM     37  O   UNL A   1      40.742  22.286  26.074  1.00  0.00    -0.269 OA
BRANCH  35  38
ATOM     38  C   UNL A   1      39.850  24.321  26.825  1.00  0.00     0.039 A 
ATOM     39  C   UNL A   1      39.237  24.477  28.071  1.00  0.00     0.014 A 
ATOM     40  C   UNL A   1      40.561  25.377  26.251  1.00  0.00     0.014 A 
ATOM     41  C   UNL A   1      39.406  25.670  28.779  1.00  0.00     0.010 A 
ATOM     42  C   UNL A   1      40.779  26.541  26.984  1.00  0.00     0.010 A 
ATOM     43  C   UNL A   1      40.213  26.694  28.259  1.00  0.00    -0.014 A 
BRANCH  43  44
ATOM     44  C   UNL A   1      40.505  27.920  29.045  1.00  0.00     0.031 A 
ATOM     45  C   UNL A   1      41.790  28.042  29.813  1.00  0.00     0.074 A 
ATOM     46  C   UNL A   1      39.574  28.890  29.129  1.00  0.00     0.049 A 
ATOM     47  N   UNL A   1      42.182  28.994  30.622  1.00  0.00    -0.248 NA
ATOM     48  C   UNL A   1      42.752  26.938  29.674  1.00  0.00     0.031 C 
ATOM     49  C   UNL A   1      38.268  28.871  28.468  1.00  0.00     0.029 A 
ATOM     50  N   UNL A   1      39.577  30.075  29.822  1.00  0.00    -0.354 N 
ATOM     51  C   UNL A   1      43.422  28.594  31.104  1.00  0.00     0.074 A 
ATOM     52  C   UNL A   1      43.701  27.297  30.527  1.00  0.00     0.031 C 
ATOM     53  C   UNL A   1      37.605  30.001  28.769  1.00  0.00     0.029 A 
ATOM     54  C   UNL A   1      38.421  30.803  29.675  1.00  0.00     0.049 A 
ATOM     55  H   UNL A   1      40.335  30.376  30.371  1.00  0.00     0.167 HD
ATOM     56  C   UNL A   1      44.258  29.257  31.937  1.00  0.00     0.037 A 
ATOM     57  C   UNL A   1      38.053  31.979  30.217  1.00  0.00     0.037 A 
ATOM     58  C   UNL A   1      43.995  30.564  32.480  1.00  0.00     0.049 A 
ATOM     59  C   UNL A   1      38.998  32.688  31.147  1.00  0.00     0.074 A 
ATOM     60  C   UNL A   1      44.820  31.353  33.262  1.00  0.00     0.029 A 
ATOM     61  N   UNL A   1      42.816  31.271  32.302  1.00  0.00    -0.354 N 
ATOM     62  N   UNL A   1      40.201  32.335  31.531  1.00  0.00    -0.248 NA
ATOM     63  C   UNL A   1      38.535  33.960  31.720  1.00  0.00     0.031 C 
ATOM     64  C   UNL A   1      44.123  32.519  33.594  1.00  0.00     0.029 A 
ATOM     65  C   UNL A   1      42.881  32.475  32.984  1.00  0.00     0.049 A 
ATOM     66  H   UNL A   1      42.047  30.963  31.770  1.00  0.00     0.167 HD
ATOM     67  C   UNL A   1      40.647  33.351  32.366  1.00  0.00     0.074 A 
ATOM     68  C   UNL A   1      39.591  34.339  32.425  1.00  0.00     0.031 C 
ATOM     69  C   UNL A   1      41.825  33.454  33.026  1.00  0.00     0.037 A 
BRANCH  56  70
ATOM     70  C   UNL A   1      45.542  28.581  32.315  1.00  0.00     0.057 A 
ATOM     71  C   UNL A   1      46.716  28.755  31.570  1.00  0.00     0.134 A 
ATOM     72  C   UNL A   1      45.620  27.790  33.468  1.00  0.00     0.134 A 
ATOM     73  F   UNL A   1      46.706  29.493  30.449  1.00  0.00    -0.206 F 
ATOM     74  C   UNL A   1      47.915  28.148  31.945  1.00  0.00     0.040 A 
ATOM     75  C   UNL A   1      46.819  27.197  33.867  1.00  0.00     0.040 A 
ATOM     76  F   UNL A   1      44.534  27.589  34.230  1.00  0.00    -0.206 F 
ATOM     77  C   UNL A   1      47.970  27.373  33.102  1.00  0.00     0.006 A 
ENDBRANCH  56  70
BRANCH  57  78
ATOM     78  C   UNL A   1      36.736  32.576  29.886  1.00  0.00     0.057 A 
ATOM     79  C   UNL A   1      36.584  33.401  28.765  1.00  0.00     0.134 A 
ATOM     80  C   UNL A   1      35.609  32.357  30.684  1.00  0.00     0.134 A 
ATOM     81  F   UNL A   1      37.634  33.664  27.973  1.00  0.00    -0.206 F 
ATOM     82  C   UNL A   1      35.362  34.004  28.461  1.00  0.00     0.040 A 
ATOM     83  C   UNL A   1      34.374  32.935  30.381  1.00  0.00     0.040 A 
ATOM     84  F   UNL A   1      35.689  31.573  31.770  1.00  0.00    -0.206 F 
ATOM     85  C   UNL A   1      34.251  33.767  29.269  1.00  0.00     0.006 A 
ENDBRANCH  57  78
BRANCH  69  86
ATOM     86  C   UNL A   1      42.051  34.692  33.841  1.00  0.00     0.057 A 
ATOM     87  C   UNL A   1      41.652  34.775  35.181  1.00  0.00     0.134 A 
ATOM     88  C   UNL A   1      42.708  35.800  33.290  1.00  0.00     0.134 A 
ATOM     89  F   UNL A   1      41.004  33.754  35.762  1.00  0.00    -0.206 F 
ATOM     90  C   UNL A   1      41.885  35.923  35.940  1.00  0.00     0.040 A 
ATOM     91  C   UNL A   1      42.969  36.943  34.046  1.00  0.00     0.040 A 
ATOM     92  F   UNL A   1      43.120  35.781  32.013  1.00  0.00    -0.206 F 
ATOM     93  C   UNL A   1      42.552  37.008  35.374  1.00  0.00     0.006 A 
ENDBRANCH  69  86
ENDBRANCH  43  44
ENDBRANCH  35  38
ENDBRANCH  33  34
ENDBRANCH  32  33
ENDBRANCH  31  32
ENDBRANCH  30  31
ENDBRANCH  28  30
ENDBRANCH   1  26
TORSDOF 20
ENDMDL
MODEL 2
REMARK VINA RESULT:     -10.9      2.196      3.583
REMARK SMILES CCCCCCNC(=O)Oc1cccc(-c2ccc(CC(=O)NCCCCNC(=O)c3ccc(-c4c5nc(c(-c6c(F)cccc6F)c6ccc([nH]6)c(-c6c(F)cccc6F)c6nc(c(-c7c(F)cccc7F)c7ccc4[nH]7)C=C6)C=C5)cc3)cc2F)c1
REMARK SMILES IDX 20 1 19 2 16 3 17 4 86 5 18 6 85 7 87 8 15 9 11 10 12 11
REMARK SMILES IDX 88 12 13 13 14 14 10 15 8 16 7 17 9 19 6 20 5 21 4 22 3 23
REMARK SMILES IDX 2 24 1 25 21 26 22 27 23 28 24 30 25 31 26 32 27 33 28 34
REMARK SMILES IDX 29 35 30 37 31 38 32 39 84 40 33 41 83 42 34 43 35 44 36 45
REMARK SMILES IDX 77 46 37 47 82 48 76 49 78 50 38 51 81 52 75 53 74 54 39 56
REMARK SMILES IDX 65 57 48 58 64 59 49 60 52 61 63 62 79 63 50 64 51 65 62 67
REMARK SMILES IDX 80 68 53 69 40 70 41 71 46 72 42 73 43 74 45 75 47 76 44 77
REMARK SMILES IDX 66 78 67 79 72 80 68 81 69 82 71 83 73 84 70 85 54 86 55 87
REMARK SMILES IDX 60 88 56 89 57 90 59 91 61 92 58 93
REMARK H PARENT 7 18 23 29 28 36 78 55 52 66
REMARK Flexibility Score: inf
ROOT
ATOM      1  C   UNL A   1      32.527  20.324  23.616  1.00  0.00     0.135 C 
ENDROOT
BRANCH   1   2
ATOM      2  C   UNL A   1      32.509  21.796  23.949  1.00  0.00    -0.036 A 
ATOM      3  C   UNL A   1      32.582  24.554  24.611  1.00  0.00     0.018 A 
ATOM      4  C   UNL A   1      31.967  23.621  25.462  1.00  0.00     0.012 A 
ATOM      5  C   UNL A   1      33.133  24.073  23.416  1.00  0.00     0.131 A 
ATOM      6  C   UNL A   1      31.927  22.260  25.136  1.00  0.00     0.005 A 
ATOM      7  C   UNL A   1      33.088  22.724  23.077  1.00  0.00     0.044 A 
ATOM      8  F   UNL A   1      33.746  24.910  22.564  1.00  0.00    -0.206 F 
BRANCH   3   9
ATOM      9  C   UNL A   1      32.620  25.984  24.950  1.00  0.00    -0.012 A 
ATOM     10  C   UNL A   1      31.657  28.207  24.789  1.00  0.00     0.133 A 
ATOM     11  C   UNL A   1      32.670  28.734  25.583  1.00  0.00     0.047 A 
ATOM     12  C   UNL A   1      31.639  26.854  24.454  1.00  0.00     0.056 A 
ATOM     13  C   UNL A   1      33.658  27.886  26.079  1.00  0.00     0.004 A 
ATOM     14  C   UNL A   1      33.629  26.521  25.770  1.00  0.00     0.009 A 
BRANCH  10  15
ATOM     15  O   UNL A   1      30.717  29.101  24.256  1.00  0.00    -0.410 OA
BRANCH  15  16
ATOM     16  C   UNL A   1      30.605  29.158  22.874  1.00  0.00     0.412 C 
ATOM     17  N   UNL A   1      29.470  28.570  22.397  1.00  0.00    -0.321 N 
ATOM     18  H   UNL A   1      29.345  28.584  21.420  1.00  0.00     0.167 HD
ATOM     19  O   UNL A   1      31.415  29.666  22.101  1.00  0.00    -0.224 OA
BRANCH  17  20
ATOM     20  C   UNL A   1      28.429  27.926  23.172  1.00  0.00     0.119 C 
BRANCH  20  21
ATOM     21  C   UNL A   1      27.273  28.878  23.478  1.00  0.00     0.021 C 
BRANCH  21  22
ATOM     22  C   UNL A   1      27.273  30.180  22.670  1.00  0.00     0.002 C 
BRANCH  22  23
ATOM     23  C   UNL A   1      27.663  31.443  23.448  1.00  0.00    -0.000 C 
BRANCH  23  24
ATOM     24  C   UNL A   1      28.524  32.448  22.679  1.00  0.00    -0.003 C 
ATOM     25  C   UNL A   1      28.028  32.710  21.265  1.00  0.00     0.004 C 
ENDBRANCH  23  24
ENDBRANCH  22  23
ENDBRANCH  21  22
ENDBRANCH  20  21
ENDBRANCH  17  20
ENDBRANCH  15  16
ENDBRANCH  10  15
ENDBRANCH   3   9
ENDBRANCH   1   2
BRANCH   1  26
ATOM     26  C   UNL A   1      32.928  19.432  24.779  1.00  0.00     0.224 C 
ATOM     27  O   UNL A   1      32.152  18.593  25.241  1.00  0.00    -0.275 OA
ATOM     28  N   UNL A   1      34.182  19.522  25.314  1.00  0.00    -0.356 N 
ATOM     29  H   UNL A   1      34.396  18.854  26.005  1.00  0.00     0.163 HD
BRANCH  28  30
ATOM     30  C   UNL A   1      35.240  20.463  25.004  1.00  0.00     0.116 C 
BRANCH  30  31
ATOM     31  C   UNL A   1      35.435  21.490  26.122  1.00  0.00     0.023 C 
BRANCH  31  32
ATOM     32  C   UNL A   1      35.798  22.898  25.642  1.00  0.00     0.023 C 
BRANCH  32  33
ATOM     33  C   UNL A   1      37.187  23.386  26.035  1.00  0.00     0.116 C 
BRANCH  33  34
ATOM     34  N   UNL A   1      38.161  22.313  26.156  1.00  0.00    -0.352 N 
ATOM     35  C   UNL A   1      39.491  22.391  26.495  1.00  0.00     0.251 C 
ATOM     36  H   UNL A   1      37.824  21.408  25.968  1.00  0.00     0.163 HD
ATOM     37  O   UNL A   1      40.203  21.394  26.450  1.00  0.00    -0.269 OA
BRANCH  35  38
ATOM     38  C   UNL A   1      40.073  23.697  26.877  1.00  0.00     0.039 A 
ATOM     39  C   UNL A   1      40.104  24.720  25.926  1.00  0.00     0.014 A 
ATOM     40  C   UNL A   1      40.556  23.919  28.168  1.00  0.00     0.014 A 
ATOM     41  C   UNL A   1      40.547  25.993  26.295  1.00  0.00     0.010 A 
ATOM     42  C   UNL A   1      40.939  25.202  28.551  1.00  0.00     0.010 A 
ATOM     43  C   UNL A   1      40.927  26.253  27.621  1.00  0.00    -0.014 A 
BRANCH  43  44
ATOM     44  C   UNL A   1      41.286  27.624  28.064  1.00  0.00     0.031 A 
ATOM     45  C   UNL A   1      42.724  28.059  28.099  1.00  0.00     0.074 A 
ATOM     46  C   UNL A   1      40.321  28.450  28.513  1.00  0.00     0.049 A 
ATOM     47  N   UNL A   1      43.237  29.182  28.536  1.00  0.00    -0.248 NA
ATOM     48  C   UNL A   1      43.719  27.098  27.599  1.00  0.00     0.031 C 
ATOM     49  C   UNL A   1      38.893  28.131  28.573  1.00  0.00     0.029 A 
ATOM     50  N   UNL A   1      40.396  29.724  29.019  1.00  0.00    -0.354 N 
ATOM     51  C   UNL A   1      44.612  29.053  28.385  1.00  0.00     0.074 A 
ATOM     52  C   UNL A   1      44.856  27.730  27.851  1.00  0.00     0.031 C 
ATOM     53  C   UNL A   1      38.226  29.187  29.066  1.00  0.00     0.029 A 
ATOM     54  C   UNL A   1      39.181  30.241  29.394  1.00  0.00     0.049 A 
ATOM     55  H   UNL A   1      41.242  30.220  29.105  1.00  0.00     0.167 HD
ATOM     56  C   UNL A   1      45.580  29.961  28.651  1.00  0.00     0.037 A 
ATOM     57  C   UNL A   1      38.869  31.427  29.950  1.00  0.00     0.037 A 
ATOM     58  C   UNL A   1      45.332  31.290  29.147  1.00  0.00     0.049 A 
ATOM     59  C   UNL A   1      39.966  32.413  30.244  1.00  0.00     0.074 A 
ATOM     60  C   UNL A   1      46.240  32.311  29.364  1.00  0.00     0.029 A 
ATOM     61  N   UNL A   1      44.086  31.779  29.508  1.00  0.00    -0.354 N 
ATOM     62  N   UNL A   1      41.253  32.307  30.022  1.00  0.00    -0.248 NA
ATOM     63  C   UNL A   1      39.566  33.683  30.866  1.00  0.00     0.031 C 
ATOM     64  C   UNL A   1      45.550  33.404  29.897  1.00  0.00     0.029 A 
ATOM     65  C   UNL A   1      44.206  33.078  29.973  1.00  0.00     0.049 A 
ATOM     66  H   UNL A   1      43.241  31.277  29.443  1.00  0.00     0.167 HD
ATOM     67  C   UNL A   1      41.812  33.504  30.451  1.00  0.00     0.074 A 
ATOM     68  C   UNL A   1      40.724  34.326  30.936  1.00  0.00     0.031 C 
ATOM     69  C   UNL A   1      43.111  33.887  30.444  1.00  0.00     0.037 A 
BRANCH  56  70
ATOM     70  C   UNL A   1      47.002  29.552  28.411  1.00  0.00     0.057 A 
ATOM     71  C   UNL A   1      47.790  28.987  29.422  1.00  0.00     0.134 A 
ATOM     72  C   UNL A   1      47.574  29.675  27.138  1.00  0.00     0.134 A 
ATOM     73  F   UNL A   1      47.305  28.852  30.666  1.00  0.00    -0.206 F 
ATOM     74  C   UNL A   1      49.103  28.580  29.183  1.00  0.00     0.040 A 
ATOM     75  C   UNL A   1      48.878  29.249  26.880  1.00  0.00     0.040 A 
ATOM     76  F   UNL A   1      46.872  30.201  26.124  1.00  0.00    -0.206 F 
ATOM     77  C   UNL A   1      49.647  28.703  27.906  1.00  0.00     0.006 A 
ENDBRANCH  56  70
BRANCH  57  78
ATOM     78  C   UNL A   1      37.456  31.763  30.255  1.00  0.00     0.057 A 
ATOM     79  C   UNL A   1      36.666  32.447  29.324  1.00  0.00     0.134 A 
ATOM     80  C   UNL A   1      36.869  31.430  31.479  1.00  0.00     0.134 A 
ATOM     81  F   UNL A   1      37.179  32.811  28.140  1.00  0.00    -0.206 F 
ATOM     82  C   UNL A   1      35.347  32.807  29.608  1.00  0.00     0.040 A 
ATOM     83  C   UNL A   1      35.545  31.763  31.770  1.00  0.00     0.040 A 
ATOM     84  F   UNL A   1      37.573  30.771  32.412  1.00  0.00    -0.206 F 
ATOM     85  C   UNL A   1      34.782  32.460  30.834  1.00  0.00     0.006 A 
ENDBRANCH  57  78
BRANCH  69  86
ATOM     86  C   UNL A   1      43.425  35.265  30.945  1.00  0.00     0.057 A 
ATOM     87  C   UNL A   1      43.508  36.363  30.081  1.00  0.00     0.134 A 
ATOM     88  C   UNL A   1      43.608  35.502  32.314  1.00  0.00     0.134 A 
ATOM     89  F   UNL A   1      43.358  36.199  28.757  1.00  0.00    -0.206 F 
ATOM     90  C   UNL A   1      43.778  37.647  30.557  1.00  0.00     0.040 A 
ATOM     91  C   UNL A   1      43.853  36.785  32.805  1.00  0.00     0.040 A 
ATOM     92  F   UNL A   1      43.534  34.493  33.196  1.00  0.00    -0.206 F 
ATOM     93  C   UNL A   1      43.944  37.861  31.925  1.00  0.00     0.006 A 
ENDBRANCH  69  86
ENDBRANCH  43  44
ENDBRANCH  35  38
ENDBRANCH  33  34
ENDBRANCH  32  33
ENDBRANCH  31  32
ENDBRANCH  30  31
ENDBRANCH  28  30
ENDBRANCH   1  26
TORSDOF 20
ENDMDL
MODEL 3
REMARK VINA RESULT:     -10.8      2.681      4.290
REMARK SMILES CCCCCCNC(=O)Oc1cccc(-c2ccc(CC(=O)NCCCCNC(=O)c3ccc(-c4c5nc(c(-c6c(F)cccc6F)c6ccc([nH]6)c(-c6c(F)cccc6F)c6nc(c(-c7c(F)cccc7F)c7ccc4[nH]7)C=C6)C=C5)cc3)cc2F)c1
REMARK SMILES IDX 20 1 19 2 16 3 17 4 86 5 18 6 85 7 87 8 15 9 11 10 12 11
REMARK SMILES IDX 88 12 13 13 14 14 10 15 8 16 7 17 9 19 6 20 5 21 4 22 3 23
REMARK SMILES IDX 2 24 1 25 21 26 22 27 23 28 24 30 25 31 26 32 27 33 28 34
REMARK SMILES IDX 29 35 30 37 31 38 32 39 84 40 33 41 83 42 34 43 35 44 36 45
REMARK SMILES IDX 77 46 37 47 82 48 76 49 78 50 38 51 81 52 75 53 74 54 39 56
REMARK SMILES IDX 65 57 48 58 64 59 49 60 52 61 63 62 79 63 50 64 51 65 62 67
REMARK SMILES IDX 80 68 53 69 40 70 41 71 46 72 42 73 43 74 45 75 47 76 44 77
REMARK SMILES IDX 66 78 67 79 72 80 68 81 69 82 71 83 73 84 70 85 54 86 55 87
REMARK SMILES IDX 60 88 56 89 57 90 59 91 61 92 58 93
REMARK H PARENT 7 18 23 29 28 36 78 55 52 66
REMARK Flexibility Score: inf
ROOT
ATOM      1  C   UNL A   1      32.690  21.517  26.246  1.00  0.00     0.135 C 
ENDROOT
BRANCH   1   2
ATOM      2  C   UNL A   1      32.537  23.017  26.269  1.00  0.00    -0.036 A 
ATOM      3  C   UNL A   1      32.221  25.836  26.202  1.00  0.00     0.018 A 
ATOM      4  C   UNL A   1      33.496  25.249  26.144  1.00  0.00     0.012 A 
ATOM      5  C   UNL A   1      31.119  24.979  26.319  1.00  0.00     0.131 A 
ATOM      6  C   UNL A   1      33.654  23.858  26.181  1.00  0.00     0.005 A 
ATOM      7  C   UNL A   1      31.267  23.596  26.367  1.00  0.00     0.044 A 
ATOM      8  F   UNL A   1      29.872  25.476  26.366  1.00  0.00    -0.206 F 
BRANCH   3   9
ATOM      9  C   UNL A   1      32.054  27.297  26.169  1.00  0.00    -0.012 A 
ATOM     10  C   UNL A   1      31.417  29.312  24.974  1.00  0.00     0.133 A 
ATOM     11  C   UNL A   1      31.728  30.099  26.078  1.00  0.00     0.047 A 
ATOM     12  C   UNL A   1      31.598  27.930  25.004  1.00  0.00     0.056 A 
ATOM     13  C   UNL A   1      32.190  29.488  27.241  1.00  0.00     0.004 A 
ATOM     14  C   UNL A   1      32.346  28.097  27.288  1.00  0.00     0.009 A 
BRANCH  10  15
ATOM     15  O   UNL A   1      31.016  29.968  23.801  1.00  0.00    -0.410 OA
BRANCH  15  16
ATOM     16  C   UNL A   1      31.595  29.553  22.610  1.00  0.00     0.412 C 
ATOM     17  N   UNL A   1      30.771  29.688  21.530  1.00  0.00    -0.321 N 
ATOM     18  H   UNL A   1      31.137  29.406  20.660  1.00  0.00     0.167 HD
ATOM     19  O   UNL A   1      32.728  29.095  22.475  1.00  0.00    -0.224 OA
BRANCH  17  20
ATOM     20  C   UNL A   1      29.416  30.200  21.525  1.00  0.00     0.119 C 
BRANCH  20  21
ATOM     21  C   UNL A   1      28.462  29.302  22.311  1.00  0.00     0.021 C 
BRANCH  21  22
ATOM     22  C   UNL A   1      27.383  30.043  23.109  1.00  0.00     0.002 C 
BRANCH  22  23
ATOM     23  C   UNL A   1      27.817  31.374  23.735  1.00  0.00    -0.000 C 
BRANCH  23  24
ATOM     24  C   UNL A   1      28.108  32.502  22.743  1.00  0.00    -0.003 C 
ATOM     25  C   UNL A   1      29.164  33.480  23.236  1.00  0.00     0.004 C 
ENDBRANCH  23  24
ENDBRANCH  22  23
ENDBRANCH  21  22
ENDBRANCH  20  21
ENDBRANCH  17  20
ENDBRANCH  15  16
ENDBRANCH  10  15
ENDBRANCH   3   9
ENDBRANCH   1   2
BRANCH   1  26
ATOM     26  C   UNL A   1      33.120  20.959  24.899  1.00  0.00     0.224 C 
ATOM     27  O   UNL A   1      32.294  20.683  24.027  1.00  0.00    -0.275 OA
ATOM     28  N   UNL A   1      34.446  20.787  24.618  1.00  0.00    -0.356 N 
ATOM     29  H   UNL A   1      34.650  20.505  23.697  1.00  0.00     0.163 HD
BRANCH  28  30
ATOM     30  C   UNL A   1      35.593  20.964  25.487  1.00  0.00     0.116 C 
BRANCH  30  31
ATOM     31  C   UNL A   1      36.879  21.201  24.693  1.00  0.00     0.023 C 
BRANCH  31  32
ATOM     32  C   UNL A   1      37.930  20.096  24.832  1.00  0.00     0.023 C 
BRANCH  32  33
ATOM     33  C   UNL A   1      39.054  20.384  25.821  1.00  0.00     0.116 C 
BRANCH  33  34
ATOM     34  N   UNL A   1      40.111  19.384  25.798  1.00  0.00    -0.352 N 
ATOM     35  C   UNL A   1      41.443  19.532  26.107  1.00  0.00     0.251 C 
ATOM     36  H   UNL A   1      39.837  18.480  25.523  1.00  0.00     0.163 HD
ATOM     37  O   UNL A   1      42.226  18.605  25.934  1.00  0.00    -0.269 OA
BRANCH  35  38
ATOM     38  C   UNL A   1      41.937  20.832  26.611  1.00  0.00     0.039 A 
ATOM     39  C   UNL A   1      42.361  21.791  25.687  1.00  0.00     0.014 A 
ATOM     40  C   UNL A   1      41.954  21.114  27.979  1.00  0.00     0.014 A 
ATOM     41  C   UNL A   1      42.727  23.064  26.132  1.00  0.00     0.010 A 
ATOM     42  C   UNL A   1      42.260  22.400  28.414  1.00  0.00     0.010 A 
ATOM     43  C   UNL A   1      42.639  23.390  27.494  1.00  0.00    -0.014 A 
BRANCH  43  44
ATOM     44  C   UNL A   1      42.907  24.769  27.975  1.00  0.00     0.031 A 
ATOM     45  C   UNL A   1      44.298  25.179  28.369  1.00  0.00     0.074 A 
ATOM     46  C   UNL A   1      41.881  25.628  28.133  1.00  0.00     0.049 A 
ATOM     47  N   UNL A   1      44.710  26.307  28.891  1.00  0.00    -0.248 NA
ATOM     48  C   UNL A   1      45.362  24.183  28.172  1.00  0.00     0.031 C 
ATOM     49  C   UNL A   1      40.478  25.337  27.830  1.00  0.00     0.029 A 
ATOM     50  N   UNL A   1      41.857  26.917  28.604  1.00  0.00    -0.354 N 
ATOM     51  C   UNL A   1      46.073  26.148  29.106  1.00  0.00     0.074 A 
ATOM     52  C   UNL A   1      46.412  24.804  28.693  1.00  0.00     0.031 C 
ATOM     53  C   UNL A   1      39.734  26.422  28.103  1.00  0.00     0.029 A 
ATOM     54  C   UNL A   1      40.599  27.469  28.636  1.00  0.00     0.049 A 
ATOM     55  H   UNL A   1      42.664  27.400  28.892  1.00  0.00     0.167 HD
ATOM     56  C   UNL A   1      46.963  27.048  29.587  1.00  0.00     0.037 A 
ATOM     57  C   UNL A   1      40.186  28.679  29.057  1.00  0.00     0.037 A 
ATOM     58  C   UNL A   1      46.631  28.397  29.962  1.00  0.00     0.049 A 
ATOM     59  C   UNL A   1      41.196  29.655  29.596  1.00  0.00     0.074 A 
ATOM     60  C   UNL A   1      47.479  29.409  30.377  1.00  0.00     0.029 A 
ATOM     61  N   UNL A   1      45.347  28.922  29.973  1.00  0.00    -0.354 N 
ATOM     62  N   UNL A   1      42.493  29.518  29.719  1.00  0.00    -0.248 NA
ATOM     63  C   UNL A   1      40.682  30.954  30.055  1.00  0.00     0.031 C 
ATOM     64  C   UNL A   1      46.703  30.533  30.680  1.00  0.00     0.029 A 
ATOM     65  C   UNL A   1      45.377  30.234  30.415  1.00  0.00     0.049 A 
ATOM     66  H   UNL A   1      44.535  28.433  29.706  1.00  0.00     0.167 HD
ATOM     67  C   UNL A   1      42.954  30.720  30.243  1.00  0.00     0.074 A 
ATOM     68  C   UNL A   1      41.799  31.577  30.404  1.00  0.00     0.031 C 
ATOM     69  C   UNL A   1      44.220  31.079  30.562  1.00  0.00     0.037 A 
BRANCH  56  70
ATOM     70  C   UNL A   1      48.388  26.605  29.735  1.00  0.00     0.057 A 
ATOM     71  C   UNL A   1      49.334  26.808  28.722  1.00  0.00     0.134 A 
ATOM     72  C   UNL A   1      48.832  26.017  30.926  1.00  0.00     0.134 A 
ATOM     73  F   UNL A   1      48.971  27.357  27.553  1.00  0.00    -0.206 F 
ATOM     74  C   UNL A   1      50.666  26.421  28.879  1.00  0.00     0.040 A 
ATOM     75  C   UNL A   1      50.166  25.648  31.105  1.00  0.00     0.040 A 
ATOM     76  F   UNL A   1      47.978  25.801  31.939  1.00  0.00    -0.206 F 
ATOM     77  C   UNL A   1      51.086  25.847  30.078  1.00  0.00     0.006 A 
ENDBRANCH  56  70
BRANCH  57  78
ATOM     78  C   UNL A   1      38.752  29.051  28.974  1.00  0.00     0.057 A 
ATOM     79  C   UNL A   1      38.203  29.527  27.778  1.00  0.00     0.134 A 
ATOM     80  C   UNL A   1      37.904  28.961  30.083  1.00  0.00     0.134 A 
ATOM     81  F   UNL A   1      38.971  29.655  26.686  1.00  0.00    -0.206 F 
ATOM     82  C   UNL A   1      36.866  29.919  27.692  1.00  0.00     0.040 A 
ATOM     83  C   UNL A   1      36.559  29.328  30.007  1.00  0.00     0.040 A 
ATOM     84  F   UNL A   1      38.370  28.509  31.257  1.00  0.00    -0.206 F 
ATOM     85  C   UNL A   1      36.039  29.816  28.809  1.00  0.00     0.006 A 
ENDBRANCH  57  78
BRANCH  69  86
ATOM     86  C   UNL A   1      44.429  32.468  31.086  1.00  0.00     0.057 A 
ATOM     87  C   UNL A   1      44.569  33.566  30.230  1.00  0.00     0.134 A 
ATOM     88  C   UNL A   1      44.454  32.713  32.465  1.00  0.00     0.134 A 
ATOM     89  F   UNL A   1      44.570  33.395  28.899  1.00  0.00    -0.206 F 
ATOM     90  C   UNL A   1      44.741  34.859  30.725  1.00  0.00     0.040 A 
ATOM     91  C   UNL A   1      44.600  34.005  32.973  1.00  0.00     0.040 A 
ATOM     92  F   UNL A   1      44.319  31.704  33.340  1.00  0.00    -0.206 F 
ATOM     93  C   UNL A   1      44.749  35.082  32.102  1.00  0.00     0.006 A 
ENDBRANCH  69  86
ENDBRANCH  43  44
ENDBRANCH  35  38
ENDBRANCH  33  34
ENDBRANCH  32  33
ENDBRANCH  31  32
ENDBRANCH  30  31
ENDBRANCH  28  30
ENDBRANCH   1  26
TORSDOF 20
ENDMDL
