MODEL 1
REMARK VINA RESULT:     -11.9      0.000      0.000
REMARK SMILES Cc1ccc(F)cc1-c1ccc(F)cc1C(=O)NCCCCNC(=O)c1ccc(-c2c3nc(c(-c4c(F)cccc4F)c4ccc([nH]4)c(-c4c(F)cccc4F)c4nc(c(-c5c(F)cccc5F)c5ccc2[nH]5)C=C4)C=C3)cc1
REMARK SMILES IDX 21 1 20 2 19 3 18 4 16 5 17 6 15 8 9 9 10 10 11 11 14 12
REMARK SMILES IDX 12 13 13 14 8 15 1 16 2 17 3 18 4 19 7 20 5 21 6 22 22 23
REMARK SMILES IDX 23 24 24 25 25 27 26 28 27 29 79 30 28 31 78 32 29 33 30 34
REMARK SMILES IDX 31 35 72 36 32 37 77 38 71 39 73 40 33 41 76 42 70 43 69 44
REMARK SMILES IDX 34 46 60 47 43 48 59 49 44 50 47 51 58 52 74 53 45 54 46 55
REMARK SMILES IDX 57 57 75 58 48 59 35 60 36 61 41 62 37 63 38 64 40 65 42 66
REMARK SMILES IDX 39 67 61 68 62 69 67 70 63 71 64 72 66 73 68 74 65 75 49 76
REMARK SMILES IDX 50 77 55 78 51 79 52 80 54 81 56 82 53 83
REMARK H PARENT 18 7 23 26 73 45 47 56
REMARK Flexibility Score: inf
ROOT
ATOM      1  C   UNL A   1      33.105  29.385  25.595  1.00  0.00     0.023 C 
ENDROOT
BRANCH   1   2
ATOM      2  C   UNL A   1      33.866  28.576  24.545  1.00  0.00     0.023 C 
BRANCH   2   3
ATOM      3  C   UNL A   1      33.635  28.946  23.088  1.00  0.00     0.116 C 
BRANCH   3   4
ATOM      4  N   UNL A   1      33.819  27.895  22.124  1.00  0.00    -0.352 N 
ATOM      5  C   UNL A   1      33.112  26.728  21.962  1.00  0.00     0.252 C 
ATOM      6  O   UNL A   1      33.386  26.030  20.985  1.00  0.00    -0.269 OA
ATOM      7  H   UNL A   1      34.557  28.031  21.487  1.00  0.00     0.163 HD
BRANCH   5   8
ATOM      8  C   UNL A   1      32.107  26.201  22.937  1.00  0.00     0.050 A 
ATOM      9  C   UNL A   1      32.300  25.203  23.925  1.00  0.00    -0.005 A 
ATOM     10  C   UNL A   1      31.249  24.965  24.848  1.00  0.00     0.012 A 
ATOM     11  C   UNL A   1      30.044  25.663  24.790  1.00  0.00     0.040 A 
ATOM     12  C   UNL A   1      30.883  26.902  22.902  1.00  0.00     0.053 A 
ATOM     13  C   UNL A   1      29.872  26.625  23.813  1.00  0.00     0.124 A 
ATOM     14  F   UNL A   1      28.722  27.309  23.758  1.00  0.00    -0.207 F 
BRANCH   9  15
ATOM     15  C   UNL A   1      33.527  24.409  24.116  1.00  0.00    -0.012 A 
ATOM     16  C   UNL A   1      32.826  22.635  22.368  1.00  0.00     0.045 C 
ATOM     17  C   UNL A   1      33.761  23.190  23.418  1.00  0.00    -0.043 A 
ATOM     18  C   UNL A   1      34.965  22.488  23.624  1.00  0.00     0.007 A 
ATOM     19  C   UNL A   1      35.921  22.965  24.517  1.00  0.00     0.039 A 
ATOM     20  C   UNL A   1      34.498  24.855  25.029  1.00  0.00     0.048 A 
ATOM     21  C   UNL A   1      35.675  24.138  25.216  1.00  0.00     0.123 A 
ATOM     22  F   UNL A   1      36.596  24.597  26.073  1.00  0.00    -0.207 F 
ENDBRANCH   9  15
ENDBRANCH   5   8
ENDBRANCH   3   4
ENDBRANCH   2   3
ENDBRANCH   1   2
BRANCH   1  23
ATOM     23  C   UNL A   1      33.485  29.195  27.062  1.00  0.00     0.116 C 
BRANCH  23  24
ATOM     24  N   UNL A   1      33.676  30.423  27.819  1.00  0.00    -0.352 N 
ATOM     25  C   UNL A   1      34.792  30.921  28.460  1.00  0.00     0.251 C 
ATOM     26  H   UNL A   1      32.877  30.994  27.885  1.00  0.00     0.163 HD
ATOM     27  O   UNL A   1      34.738  32.008  29.021  1.00  0.00    -0.269 OA
BRANCH  25  28
ATOM     28  C   UNL A   1      36.032  30.112  28.545  1.00  0.00     0.039 A 
ATOM     29  C   UNL A   1      36.891  30.099  27.442  1.00  0.00     0.014 A 
ATOM     30  C   UNL A   1      36.385  29.429  29.710  1.00  0.00     0.014 A 
ATOM     31  C   UNL A   1      38.166  29.535  27.561  1.00  0.00     0.010 A 
ATOM     32  C   UNL A   1      37.683  28.940  29.855  1.00  0.00     0.010 A 
ATOM     33  C   UNL A   1      38.599  29.027  28.795  1.00  0.00    -0.014 A 
BRANCH  33  34
ATOM     34  C   UNL A   1      40.027  28.680  29.029  1.00  0.00     0.031 A 
ATOM     35  C   UNL A   1      40.979  29.680  29.619  1.00  0.00     0.074 A 
ATOM     36  C   UNL A   1      40.491  27.484  28.611  1.00  0.00     0.049 A 
ATOM     37  N   UNL A   1      42.275  29.587  29.783  1.00  0.00    -0.248 NA
ATOM     38  C   UNL A   1      40.406  30.961  30.059  1.00  0.00     0.031 C 
ATOM     39  C   UNL A   1      39.686  26.440  27.971  1.00  0.00     0.029 A 
ATOM     40  N   UNL A   1      41.754  26.946  28.650  1.00  0.00    -0.354 N 
ATOM     41  C   UNL A   1      42.674  30.802  30.324  1.00  0.00     0.074 A 
ATOM     42  C   UNL A   1      41.491  31.628  30.427  1.00  0.00     0.031 C 
ATOM     43  C   UNL A   1      40.465  25.381  27.706  1.00  0.00     0.029 A 
ATOM     44  C   UNL A   1      41.833  25.682  28.115  1.00  0.00     0.049 A 
ATOM     45  H   UNL A   1      42.530  27.422  29.024  1.00  0.00     0.167 HD
ATOM     46  C   UNL A   1      43.913  31.186  30.715  1.00  0.00     0.037 A 
ATOM     47  C   UNL A   1      42.887  24.859  27.960  1.00  0.00     0.037 A 
ATOM     48  C   UNL A   1      45.086  30.355  30.644  1.00  0.00     0.049 A 
ATOM     49  C   UNL A   1      44.248  25.305  28.409  1.00  0.00     0.074 A 
ATOM     50  C   UNL A   1      46.370  30.642  31.076  1.00  0.00     0.029 A 
ATOM     51  N   UNL A   1      45.118  29.076  30.113  1.00  0.00    -0.354 N 
ATOM     52  N   UNL A   1      44.601  26.441  28.960  1.00  0.00    -0.248 NA
ATOM     53  C   UNL A   1      45.358  24.361  28.212  1.00  0.00     0.031 C 
ATOM     54  C   UNL A   1      47.186  29.546  30.779  1.00  0.00     0.029 A 
ATOM     55  C   UNL A   1      46.404  28.565  30.193  1.00  0.00     0.049 A 
ATOM     56  H   UNL A   1      44.344  28.602  29.733  1.00  0.00     0.167 HD
ATOM     57  C   UNL A   1      45.966  26.342  29.191  1.00  0.00     0.074 A 
ATOM     58  C   UNL A   1      46.378  25.033  28.730  1.00  0.00     0.031 C 
ATOM     59  C   UNL A   1      46.800  27.259  29.735  1.00  0.00     0.037 A 
BRANCH  46  60
ATOM     60  C   UNL A   1      44.063  32.570  31.272  1.00  0.00     0.057 A 
ATOM     61  C   UNL A   1      43.880  32.817  32.638  1.00  0.00     0.134 A 
ATOM     62  C   UNL A   1      44.339  33.666  30.445  1.00  0.00     0.134 A 
ATOM     63  F   UNL A   1      43.607  31.811  33.482  1.00  0.00    -0.206 F 
ATOM     64  C   UNL A   1      43.964  34.108  33.161  1.00  0.00     0.040 A 
ATOM     65  C   UNL A   1      44.445  34.958  30.961  1.00  0.00     0.040 A 
ATOM     66  F   UNL A   1      44.533  33.493  29.129  1.00  0.00    -0.206 F 
ATOM     67  C   UNL A   1      44.250  35.183  32.322  1.00  0.00     0.006 A 
ENDBRANCH  46  60
BRANCH  47  68
ATOM     68  C   UNL A   1      42.686  23.510  27.376  1.00  0.00     0.057 A 
ATOM     69  C   UNL A   1      42.807  23.278  26.001  1.00  0.00     0.134 A 
ATOM     70  C   UNL A   1      42.343  22.424  28.188  1.00  0.00     0.134 A 
ATOM     71  F   UNL A   1      43.128  24.281  25.171  1.00  0.00    -0.206 F 
ATOM     72  C   UNL A   1      42.582  22.015  25.453  1.00  0.00     0.040 A 
ATOM     73  C   UNL A   1      42.132  21.151  27.656  1.00  0.00     0.040 A 
ATOM     74  F   UNL A   1      42.229  22.584  29.515  1.00  0.00    -0.206 F 
ATOM     75  C   UNL A   1      42.245  20.946  26.282  1.00  0.00     0.006 A 
ENDBRANCH  47  68
BRANCH  59  76
ATOM     76  C   UNL A   1      48.242  26.880  29.883  1.00  0.00     0.057 A 
ATOM     77  C   UNL A   1      49.173  27.214  28.891  1.00  0.00     0.134 A 
ATOM     78  C   UNL A   1      48.692  26.120  30.968  1.00  0.00     0.134 A 
ATOM     79  F   UNL A   1      48.801  27.936  27.823  1.00  0.00    -0.206 F 
ATOM     80  C   UNL A   1      50.501  26.791  28.967  1.00  0.00     0.040 A 
ATOM     81  C   UNL A   1      50.021  25.707  31.064  1.00  0.00     0.040 A 
ATOM     82  F   UNL A   1      47.850  25.780  31.955  1.00  0.00    -0.206 F 
ATOM     83  C   UNL A   1      50.928  26.035  30.057  1.00  0.00     0.006 A 
ENDBRANCH  59  76
ENDBRANCH  33  34
ENDBRANCH  25  28
ENDBRANCH  23  24
ENDBRANCH   1  23
TORSDOF 12
ENDMDL
MODEL 2
REMARK VINA RESULT:     -11.8      3.725      7.346
REMARK SMILES Cc1ccc(F)cc1-c1ccc(F)cc1C(=O)NCCCCNC(=O)c1ccc(-c2c3nc(c(-c4c(F)cccc4F)c4ccc([nH]4)c(-c4c(F)cccc4F)c4nc(c(-c5c(F)cccc5F)c5ccc2[nH]5)C=C4)C=C3)cc1
REMARK SMILES IDX 21 1 20 2 19 3 18 4 16 5 17 6 15 8 9 9 10 10 11 11 14 12
REMARK SMILES IDX 12 13 13 14 8 15 1 16 2 17 3 18 4 19 7 20 5 21 6 22 22 23
REMARK SMILES IDX 23 24 24 25 25 27 26 28 27 29 79 30 28 31 78 32 29 33 30 34
REMARK SMILES IDX 31 35 72 36 32 37 77 38 71 39 73 40 33 41 76 42 70 43 69 44
REMARK SMILES IDX 34 46 60 47 43 48 59 49 44 50 47 51 58 52 74 53 45 54 46 55
REMARK SMILES IDX 57 57 75 58 48 59 35 60 36 61 41 62 37 63 38 64 40 65 42 66
REMARK SMILES IDX 39 67 61 68 62 69 67 70 63 71 64 72 66 73 68 74 65 75 49 76
REMARK SMILES IDX 50 77 55 78 51 79 52 80 54 81 56 82 53 83
REMARK H PARENT 18 7 23 26 73 45 47 56
REMARK Flexibility Score: inf
ROOT
ATOM      1  C   UNL A   1      31.370  31.875  26.862  1.00  0.00     0.023 C 
ENDROOT
BRANCH   1   2
ATOM      2  C   UNL A   1      31.386  30.754  25.824  1.00  0.00     0.023 C 
BRANCH   2   3
ATOM      3  C   UNL A   1      32.612  29.854  25.799  1.00  0.00     0.116 C 
BRANCH   3   4
ATOM      4  N   UNL A   1      33.219  29.634  24.514  1.00  0.00    -0.352 N 
ATOM      5  C   UNL A   1      32.721  28.973  23.417  1.00  0.00     0.252 C 
ATOM      6  O   UNL A   1      33.386  29.014  22.381  1.00  0.00    -0.269 OA
ATOM      7  H   UNL A   1      34.122  30.011  24.404  1.00  0.00     0.163 HD
BRANCH   5   8
ATOM      8  C   UNL A   1      31.483  28.134  23.420  1.00  0.00     0.050 A 
ATOM      9  C   UNL A   1      31.351  26.787  23.843  1.00  0.00    -0.005 A 
ATOM     10  C   UNL A   1      30.047  26.232  23.905  1.00  0.00     0.012 A 
ATOM     11  C   UNL A   1      28.916  26.961  23.543  1.00  0.00     0.040 A 
ATOM     12  C   UNL A   1      30.323  28.858  23.068  1.00  0.00     0.053 A 
ATOM     13  C   UNL A   1      29.067  28.269  23.125  1.00  0.00     0.124 A 
ATOM     14  F   UNL A   1      27.984  28.982  22.788  1.00  0.00    -0.207 F 
BRANCH   9  15
ATOM     15  C   UNL A   1      32.455  25.911  24.274  1.00  0.00    -0.012 A 
ATOM     16  C   UNL A   1      32.151  26.512  26.772  1.00  0.00     0.045 C 
ATOM     17  C   UNL A   1      32.856  25.807  25.637  1.00  0.00    -0.043 A 
ATOM     18  C   UNL A   1      33.902  24.932  25.990  1.00  0.00     0.007 A 
ATOM     19  C   UNL A   1      34.560  24.182  25.019  1.00  0.00     0.039 A 
ATOM     20  C   UNL A   1      33.151  25.160  23.311  1.00  0.00     0.048 A 
ATOM     21  C   UNL A   1      34.184  24.309  23.690  1.00  0.00     0.123 A 
ATOM     22  F   UNL A   1      34.816  23.585  22.757  1.00  0.00    -0.207 F 
ENDBRANCH   9  15
ENDBRANCH   5   8
ENDBRANCH   3   4
ENDBRANCH   2   3
ENDBRANCH   1   2
BRANCH   1  23
ATOM     23  C   UNL A   1      32.210  33.122  26.587  1.00  0.00     0.116 C 
BRANCH  23  24
ATOM     24  N   UNL A   1      32.167  34.141  27.625  1.00  0.00    -0.352 N 
ATOM     25  C   UNL A   1      33.073  34.452  28.618  1.00  0.00     0.251 C 
ATOM     26  H   UNL A   1      31.358  34.701  27.618  1.00  0.00     0.163 HD
ATOM     27  O   UNL A   1      32.846  35.384  29.379  1.00  0.00    -0.269 OA
BRANCH  25  28
ATOM     28  C   UNL A   1      34.280  33.615  28.822  1.00  0.00     0.039 A 
ATOM     29  C   UNL A   1      35.535  34.215  28.680  1.00  0.00     0.014 A 
ATOM     30  C   UNL A   1      34.188  32.278  29.214  1.00  0.00     0.014 A 
ATOM     31  C   UNL A   1      36.684  33.524  29.078  1.00  0.00     0.010 A 
ATOM     32  C   UNL A   1      35.323  31.620  29.687  1.00  0.00     0.010 A 
ATOM     33  C   UNL A   1      36.576  32.253  29.663  1.00  0.00    -0.014 A 
BRANCH  33  34
ATOM     34  C   UNL A   1      37.734  31.616  30.346  1.00  0.00     0.031 A 
ATOM     35  C   UNL A   1      38.576  30.591  29.643  1.00  0.00     0.074 A 
ATOM     36  C   UNL A   1      37.965  31.892  31.646  1.00  0.00     0.049 A 
ATOM     37  N   UNL A   1      39.546  29.852  30.121  1.00  0.00    -0.248 NA
ATOM     38  C   UNL A   1      38.274  30.343  28.226  1.00  0.00     0.031 C 
ATOM     39  C   UNL A   1      37.189  32.826  32.465  1.00  0.00     0.029 A 
ATOM     40  N   UNL A   1      38.912  31.405  32.513  1.00  0.00    -0.354 N 
ATOM     41  C   UNL A   1      39.955  29.040  29.073  1.00  0.00     0.074 A 
ATOM     42  C   UNL A   1      39.104  29.349  27.943  1.00  0.00     0.031 C 
ATOM     43  C   UNL A   1      37.708  32.867  33.702  1.00  0.00     0.029 A 
ATOM     44  C   UNL A   1      38.825  31.932  33.780  1.00  0.00     0.049 A 
ATOM     45  H   UNL A   1      39.589  30.740  32.253  1.00  0.00     0.167 HD
ATOM     46  C   UNL A   1      40.959  28.131  29.049  1.00  0.00     0.037 A 
ATOM     47  C   UNL A   1      39.553  31.686  34.886  1.00  0.00     0.037 A 
ATOM     48  C   UNL A   1      41.827  27.845  30.160  1.00  0.00     0.049 A 
ATOM     49  C   UNL A   1      40.666  30.680  34.831  1.00  0.00     0.074 A 
ATOM     50  C   UNL A   1      42.910  26.984  30.205  1.00  0.00     0.029 A 
ATOM     51  N   UNL A   1      41.715  28.415  31.418  1.00  0.00    -0.354 N 
ATOM     52  N   UNL A   1      41.068  29.953  33.818  1.00  0.00    -0.248 NA
ATOM     53  C   UNL A   1      41.424  30.457  36.071  1.00  0.00     0.031 C 
ATOM     54  C   UNL A   1      43.437  27.011  31.500  1.00  0.00     0.029 A 
ATOM     55  C   UNL A   1      42.702  27.913  32.252  1.00  0.00     0.049 A 
ATOM     56  H   UNL A   1      41.035  29.076  31.682  1.00  0.00     0.167 HD
ATOM     57  C   UNL A   1      42.133  29.200  34.292  1.00  0.00     0.074 A 
ATOM     58  C   UNL A   1      42.323  29.564  35.680  1.00  0.00     0.031 C 
ATOM     59  C   UNL A   1      42.883  28.287  33.631  1.00  0.00     0.037 A 
BRANCH  46  60
ATOM     60  C   UNL A   1      41.185  27.385  27.768  1.00  0.00     0.057 A 
ATOM     61  C   UNL A   1      40.605  26.127  27.560  1.00  0.00     0.134 A 
ATOM     62  C   UNL A   1      42.018  27.891  26.763  1.00  0.00     0.134 A 
ATOM     63  F   UNL A   1      39.803  25.583  28.488  1.00  0.00    -0.206 F 
ATOM     64  C   UNL A   1      40.851  25.397  26.396  1.00  0.00     0.040 A 
ATOM     65  C   UNL A   1      42.253  27.179  25.587  1.00  0.00     0.040 A 
ATOM     66  F   UNL A   1      42.594  29.094  26.900  1.00  0.00    -0.206 F 
ATOM     67  C   UNL A   1      41.674  25.924  25.404  1.00  0.00     0.006 A 
ENDBRANCH  46  60
BRANCH  47  68
ATOM     68  C   UNL A   1      39.267  32.433  36.135  1.00  0.00     0.057 A 
ATOM     69  C   UNL A   1      38.382  31.941  37.100  1.00  0.00     0.134 A 
ATOM     70  C   UNL A   1      39.862  33.677  36.376  1.00  0.00     0.134 A 
ATOM     71  F   UNL A   1      37.776  30.758  36.923  1.00  0.00    -0.206 F 
ATOM     72  C   UNL A   1      38.090  32.665  38.257  1.00  0.00     0.040 A 
ATOM     73  C   UNL A   1      39.593  34.403  37.536  1.00  0.00     0.040 A 
ATOM     74  F   UNL A   1      40.732  34.191  35.492  1.00  0.00    -0.206 F 
ATOM     75  C   UNL A   1      38.698  33.900  38.477  1.00  0.00     0.006 A 
ENDBRANCH  47  68
BRANCH  59  76
ATOM     76  C   UNL A   1      43.993  27.625  34.388  1.00  0.00     0.057 A 
ATOM     77  C   UNL A   1      45.282  28.174  34.389  1.00  0.00     0.134 A 
ATOM     78  C   UNL A   1      43.804  26.407  35.050  1.00  0.00     0.134 A 
ATOM     79  F   UNL A   1      45.528  29.336  33.767  1.00  0.00    -0.206 F 
ATOM     80  C   UNL A   1      46.349  27.524  35.012  1.00  0.00     0.040 A 
ATOM     81  C   UNL A   1      44.859  25.758  35.692  1.00  0.00     0.040 A 
ATOM     82  F   UNL A   1      42.590  25.839  35.095  1.00  0.00    -0.206 F 
ATOM     83  C   UNL A   1      46.139  26.312  35.666  1.00  0.00     0.006 A 
ENDBRANCH  59  76
ENDBRANCH  33  34
ENDBRANCH  25  28
ENDBRANCH  23  24
ENDBRANCH   1  23
TORSDOF 12
ENDMDL
MODEL 3
REMARK VINA RESULT:     -11.8      3.676      7.682
REMARK SMILES Cc1ccc(F)cc1-c1ccc(F)cc1C(=O)NCCCCNC(=O)c1ccc(-c2c3nc(c(-c4c(F)cccc4F)c4ccc([nH]4)c(-c4c(F)cccc4F)c4nc(c(-c5c(F)cccc5F)c5ccc2[nH]5)C=C4)C=C3)cc1
REMARK SMILES IDX 21 1 20 2 19 3 18 4 16 5 17 6 15 8 9 9 10 10 11 11 14 12
REMARK SMILES IDX 12 13 13 14 8 15 1 16 2 17 3 18 4 19 7 20 5 21 6 22 22 23
REMARK SMILES IDX 23 24 24 25 25 27 26 28 27 29 79 30 28 31 78 32 29 33 30 34
REMARK SMILES IDX 31 35 72 36 32 37 77 38 71 39 73 40 33 41 76 42 70 43 69 44
REMARK SMILES IDX 34 46 60 47 43 48 59 49 44 50 47 51 58 52 74 53 45 54 46 55
REMARK SMILES IDX 57 57 75 58 48 59 35 60 36 61 41 62 37 63 38 64 40 65 42 66
REMARK SMILES IDX 39 67 61 68 62 69 67 70 63 71 64 72 66 73 68 74 65 75 49 76
REMARK SMILES IDX 50 77 55 78 51 79 52 80 54 81 56 82 53 83
REMARK H PARENT 18 7 23 26 73 45 47 56
REMARK Flexibility Score: inf
ROOT
ATOM      1  C   UNL A   1      31.415  30.007  26.859  1.00  0.00     0.023 C 
ENDROOT
BRANCH   1   2
ATOM      2  C   UNL A   1      32.252  28.857  27.419  1.00  0.00     0.023 C 
BRANCH   2   3
ATOM      3  C   UNL A   1      32.160  27.522  26.697  1.00  0.00     0.116 C 
BRANCH   3   4
ATOM      4  N   UNL A   1      30.949  26.771  26.892  1.00  0.00    -0.352 N 
ATOM      5  C   UNL A   1      30.406  25.778  26.113  1.00  0.00     0.252 C 
ATOM      6  O   UNL A   1      29.409  25.199  26.548  1.00  0.00    -0.269 OA
ATOM      7  H   UNL A   1      30.435  27.001  27.699  1.00  0.00     0.163 HD
BRANCH   5   8
ATOM      8  C   UNL A   1      30.879  25.419  24.740  1.00  0.00     0.050 A 
ATOM      9  C   UNL A   1      30.732  26.174  23.549  1.00  0.00    -0.005 A 
ATOM     10  C   UNL A   1      31.395  25.714  22.382  1.00  0.00     0.012 A 
ATOM     11  C   UNL A   1      32.155  24.546  22.376  1.00  0.00     0.040 A 
ATOM     12  C   UNL A   1      31.662  24.245  24.715  1.00  0.00     0.053 A 
ATOM     13  C   UNL A   1      32.279  23.821  23.545  1.00  0.00     0.124 A 
ATOM     14  F   UNL A   1      33.018  22.704  23.552  1.00  0.00    -0.207 F 
BRANCH   9  15
ATOM     15  C   UNL A   1      29.980  27.434  23.418  1.00  0.00    -0.012 A 
ATOM     16  C   UNL A   1      32.126  28.873  23.299  1.00  0.00     0.045 C 
ATOM     17  C   UNL A   1      30.626  28.701  23.338  1.00  0.00    -0.043 A 
ATOM     18  C   UNL A   1      29.853  29.869  23.189  1.00  0.00     0.007 A 
ATOM     19  C   UNL A   1      28.463  29.800  23.137  1.00  0.00     0.039 A 
ATOM     20  C   UNL A   1      28.575  27.395  23.387  1.00  0.00     0.048 A 
ATOM     21  C   UNL A   1      27.838  28.567  23.244  1.00  0.00     0.123 A 
ATOM     22  F   UNL A   1      26.501  28.501  23.192  1.00  0.00    -0.207 F 
ENDBRANCH   9  15
ENDBRANCH   5   8
ENDBRANCH   3   4
ENDBRANCH   2   3
ENDBRANCH   1   2
BRANCH   1  23
ATOM     23  C   UNL A   1      32.149  31.183  26.216  1.00  0.00     0.116 C 
BRANCH  23  24
ATOM     24  N   UNL A   1      32.052  32.444  26.936  1.00  0.00    -0.352 N 
ATOM     25  C   UNL A   1      32.983  33.117  27.702  1.00  0.00     0.251 C 
ATOM     26  H   UNL A   1      31.178  32.891  26.866  1.00  0.00     0.163 HD
ATOM     27  O   UNL A   1      32.694  34.197  28.201  1.00  0.00    -0.269 OA
BRANCH  25  28
ATOM     28  C   UNL A   1      34.300  32.503  27.992  1.00  0.00     0.039 A 
ATOM     29  C   UNL A   1      35.412  33.343  28.107  1.00  0.00     0.014 A 
ATOM     30  C   UNL A   1      34.438  31.131  28.216  1.00  0.00     0.014 A 
ATOM     31  C   UNL A   1      36.620  32.833  28.595  1.00  0.00     0.010 A 
ATOM     32  C   UNL A   1      35.616  30.641  28.780  1.00  0.00     0.010 A 
ATOM     33  C   UNL A   1      36.704  31.497  29.015  1.00  0.00    -0.014 A 
BRANCH  33  34
ATOM     34  C   UNL A   1      37.873  31.002  29.790  1.00  0.00     0.031 A 
ATOM     35  C   UNL A   1      38.848  30.035  29.184  1.00  0.00     0.074 A 
ATOM     36  C   UNL A   1      37.999  31.351  31.087  1.00  0.00     0.049 A 
ATOM     37  N   UNL A   1      39.853  29.413  29.749  1.00  0.00    -0.248 NA
ATOM     38  C   UNL A   1      38.656  29.701  27.764  1.00  0.00     0.031 C 
ATOM     39  C   UNL A   1      37.091  32.240  31.816  1.00  0.00     0.029 A 
ATOM     40  N   UNL A   1      38.934  30.994  32.027  1.00  0.00    -0.354 N 
ATOM     41  C   UNL A   1      40.398  28.602  28.763  1.00  0.00     0.074 A 
ATOM     42  C   UNL A   1      39.591  28.781  27.575  1.00  0.00     0.031 C 
ATOM     43  C   UNL A   1      37.529  32.381  33.077  1.00  0.00     0.029 A 
ATOM     44  C   UNL A   1      38.721  31.561  33.261  1.00  0.00     0.049 A 
ATOM     45  H   UNL A   1      39.685  30.387  31.836  1.00  0.00     0.167 HD
ATOM     46  C   UNL A   1      41.482  27.793  28.838  1.00  0.00     0.037 A 
ATOM     47  C   UNL A   1      39.402  31.431  34.416  1.00  0.00     0.037 A 
ATOM     48  C   UNL A   1      42.304  27.637  30.008  1.00  0.00     0.049 A 
ATOM     49  C   UNL A   1      40.605  30.536  34.471  1.00  0.00     0.074 A 
ATOM     50  C   UNL A   1      43.459  26.887  30.153  1.00  0.00     0.029 A 
ATOM     51  N   UNL A   1      42.065  28.245  31.230  1.00  0.00    -0.354 N 
ATOM     52  N   UNL A   1      41.134  29.810  33.516  1.00  0.00    -0.248 NA
ATOM     53  C   UNL A   1      41.305  30.438  35.760  1.00  0.00     0.031 C 
ATOM     54  C   UNL A   1      43.902  27.017  31.473  1.00  0.00     0.029 A 
ATOM     55  C   UNL A   1      43.043  27.874  32.140  1.00  0.00     0.049 A 
ATOM     56  H   UNL A   1      41.312  28.847  31.424  1.00  0.00     0.167 HD
ATOM     57  C   UNL A   1      42.234  29.183  34.083  1.00  0.00     0.074 A 
ATOM     58  C   UNL A   1      42.305  29.619  35.461  1.00  0.00     0.031 C 
ATOM     59  C   UNL A   1      43.105  28.319  33.508  1.00  0.00     0.037 A 
BRANCH  46  60
ATOM     60  C   UNL A   1      41.853  27.020  27.608  1.00  0.00     0.057 A 
ATOM     61  C   UNL A   1      42.647  27.599  26.610  1.00  0.00     0.134 A 
ATOM     62  C   UNL A   1      41.382  25.720  27.391  1.00  0.00     0.134 A 
ATOM     63  F   UNL A   1      43.124  28.845  26.755  1.00  0.00    -0.206 F 
ATOM     64  C   UNL A   1      42.955  26.911  25.436  1.00  0.00     0.040 A 
ATOM     65  C   UNL A   1      41.702  25.015  26.230  1.00  0.00     0.040 A 
ATOM     66  F   UNL A   1      40.625  25.108  28.313  1.00  0.00    -0.206 F 
ATOM     67  C   UNL A   1      42.485  25.613  25.245  1.00  0.00     0.006 A 
ENDBRANCH  46  60
BRANCH  47  68
ATOM     68  C   UNL A   1      38.973  32.198  35.611  1.00  0.00     0.057 A 
ATOM     69  C   UNL A   1      39.337  33.537  35.796  1.00  0.00     0.134 A 
ATOM     70  C   UNL A   1      38.204  31.593  36.611  1.00  0.00     0.134 A 
ATOM     71  F   UNL A   1      40.078  34.170  34.876  1.00  0.00    -0.206 F 
ATOM     72  C   UNL A   1      38.960  34.243  36.939  1.00  0.00     0.040 A 
ATOM     73  C   UNL A   1      37.805  32.291  37.751  1.00  0.00     0.040 A 
ATOM     74  F   UNL A   1      37.812  30.316  36.479  1.00  0.00    -0.206 F 
ATOM     75  C   UNL A   1      38.190  33.619  37.920  1.00  0.00     0.006 A 
ENDBRANCH  47  68
BRANCH  59  76
ATOM     76  C   UNL A   1      44.225  27.799  34.356  1.00  0.00     0.057 A 
ATOM     77  C   UNL A   1      44.067  26.624  35.102  1.00  0.00     0.134 A 
ATOM     78  C   UNL A   1      45.427  28.501  34.494  1.00  0.00     0.134 A 
ATOM     79  F   UNL A   1      42.935  25.910  35.018  1.00  0.00    -0.206 F 
ATOM     80  C   UNL A   1      45.065  26.173  35.968  1.00  0.00     0.040 A 
ATOM     81  C   UNL A   1      46.438  28.050  35.342  1.00  0.00     0.040 A 
ATOM     82  F   UNL A   1      45.640  29.626  33.796  1.00  0.00    -0.206 F 
ATOM     83  C   UNL A   1      46.255  26.888  36.090  1.00  0.00     0.006 A 
ENDBRANCH  59  76
ENDBRANCH  33  34
ENDBRANCH  25  28
ENDBRANCH  23  24
ENDBRANCH   1  23
TORSDOF 12
ENDMDL
