MODEL 1
REMARK VINA RESULT:     -11.9      0.000      0.000
REMARK SMILES CC1(C)[C@H]2CC[C@]1(C)C(=O)N(CC(=O)NCCCCNC(=O)c1ccc(-c3c4nc(c(-c5c(F)cccc5F)c5ccc([nH]5)c(-c5c(F)cccc5F)c5nc(c(-c6c(F)cccc6F)c6ccc3[nH]6)C=C5)C=C4)cc1)C2=O
REMARK SMILES IDX 18 1 17 2 16 3 15 4 13 5 14 6 12 8 11 9 1 10 2 11 4 12 7 13
REMARK SMILES IDX 3 14 5 15 77 16 6 17 9 18 8 19 78 20 10 21 19 22 20 23 21 24
REMARK SMILES IDX 22 26 23 27 24 28 76 29 25 30 75 31 26 32 27 33 28 34 69 35
REMARK SMILES IDX 29 36 74 37 68 38 70 39 30 40 73 41 67 42 66 43 31 45 57 46
REMARK SMILES IDX 40 47 56 48 41 49 44 50 55 51 71 52 42 53 43 54 54 56 72 57
REMARK SMILES IDX 45 58 32 59 33 60 38 61 34 62 35 63 37 64 39 65 36 66 58 67
REMARK SMILES IDX 59 68 64 69 60 70 61 71 63 72 65 73 62 74 46 75 47 76 52 77
REMARK SMILES IDX 48 78 49 79 51 80 53 81 50 82
REMARK H PARENT 15 7 20 25 70 44 44 55
REMARK Flexibility Score: inf
ROOT
ATOM      1  C   UNL A   1      31.401  31.989  26.815  1.00  0.00     0.023 C 
ENDROOT
BRANCH   1   2
ATOM      2  C   UNL A   1      31.920  30.577  26.687  1.00  0.00     0.023 C 
BRANCH   2   3
ATOM      3  C   UNL A   1      31.694  29.808  25.387  1.00  0.00     0.116 C 
BRANCH   3   4
ATOM      4  N   UNL A   1      32.921  29.700  24.605  1.00  0.00    -0.355 N 
ATOM      5  C   UNL A   1      33.221  28.952  23.494  1.00  0.00     0.240 C 
ATOM      6  O   UNL A   1      34.402  28.954  23.131  1.00  0.00    -0.273 OA
ATOM      7  H   UNL A   1      33.662  30.260  24.932  1.00  0.00     0.163 HD
BRANCH   5   8
ATOM      8  C   UNL A   1      32.185  28.033  22.807  1.00  0.00     0.228 C 
BRANCH   8   9
ATOM      9  N   UNL A   1      32.385  26.687  23.333  1.00  0.00    -0.272 N 
ATOM     10  C   UNL A   1      31.073  23.472  23.689  1.00  0.00     0.013 C 
ATOM     11  C   UNL A   1      32.269  23.978  24.518  1.00  0.00    -0.010 C 
ATOM     12  C   UNL A   1      31.980  25.285  25.246  1.00  0.00     0.086 C 
ATOM     13  C   UNL A   1      33.499  24.485  23.688  1.00  0.00     0.053 C 
ATOM     14  C   UNL A   1      32.570  22.883  25.571  1.00  0.00     0.013 C 
ATOM     15  C   UNL A   1      33.371  25.752  25.757  1.00  0.00     0.015 C 
ATOM     16  C   UNL A   1      31.429  26.201  24.167  1.00  0.00     0.233 C 
ATOM     17  C   UNL A   1      34.392  25.117  24.784  1.00  0.00     0.018 C 
ATOM     18  C   UNL A   1      33.189  25.725  22.752  1.00  0.00     0.236 C 
ATOM     19  C   UNL A   1      34.180  23.365  22.913  1.00  0.00     0.022 C 
ATOM     20  O   UNL A   1      30.229  26.331  23.943  1.00  0.00    -0.274 OA
ATOM     21  O   UNL A   1      33.653  25.832  21.620  1.00  0.00    -0.274 OA
ENDBRANCH   8   9
ENDBRANCH   5   8
ENDBRANCH   3   4
ENDBRANCH   2   3
ENDBRANCH   1   2
BRANCH   1  22
ATOM     22  C   UNL A   1      32.472  33.051  26.752  1.00  0.00     0.116 C 
BRANCH  22  23
ATOM     23  N   UNL A   1      32.250  34.203  27.625  1.00  0.00    -0.352 N 
ATOM     24  C   UNL A   1      32.996  34.641  28.697  1.00  0.00     0.251 C 
ATOM     25  H   UNL A   1      31.453  34.743  27.416  1.00  0.00     0.163 HD
ATOM     26  O   UNL A   1      32.640  35.614  29.355  1.00  0.00    -0.269 OA
BRANCH  24  27
ATOM     27  C   UNL A   1      34.203  33.883  29.088  1.00  0.00     0.039 A 
ATOM     28  C   UNL A   1      35.466  34.432  28.852  1.00  0.00     0.014 A 
ATOM     29  C   UNL A   1      34.076  32.687  29.790  1.00  0.00     0.014 A 
ATOM     30  C   UNL A   1      36.590  33.832  29.423  1.00  0.00     0.010 A 
ATOM     31  C   UNL A   1      35.165  32.191  30.485  1.00  0.00     0.010 A 
ATOM     32  C   UNL A   1      36.439  32.741  30.293  1.00  0.00    -0.014 A 
BRANCH  32  33
ATOM     33  C   UNL A   1      37.590  32.112  30.984  1.00  0.00     0.031 A 
ATOM     34  C   UNL A   1      38.372  31.038  30.275  1.00  0.00     0.074 A 
ATOM     35  C   UNL A   1      37.862  32.423  32.267  1.00  0.00     0.049 A 
ATOM     36  N   UNL A   1      39.314  30.257  30.736  1.00  0.00    -0.248 NA
ATOM     37  C   UNL A   1      38.001  30.758  28.875  1.00  0.00     0.031 C 
ATOM     38  C   UNL A   1      37.116  33.379  33.091  1.00  0.00     0.029 A 
ATOM     39  N   UNL A   1      38.835  31.953  33.111  1.00  0.00    -0.354 N 
ATOM     40  C   UNL A   1      39.603  29.370  29.706  1.00  0.00     0.074 A 
ATOM     41  C   UNL A   1      38.695  29.661  28.622  1.00  0.00     0.031 C 
ATOM     42  C   UNL A   1      37.680  33.446  34.310  1.00  0.00     0.029 A 
ATOM     43  C   UNL A   1      38.802  32.515  34.364  1.00  0.00     0.049 A 
ATOM     44  H   UNL A   1      39.497  31.273  32.844  1.00  0.00     0.167 HD
ATOM     45  C   UNL A   1      40.566  28.423  29.654  1.00  0.00     0.037 A 
ATOM     46  C   UNL A   1      39.592  32.302  35.432  1.00  0.00     0.037 A 
ATOM     47  C   UNL A   1      41.528  28.210  30.698  1.00  0.00     0.049 A 
ATOM     48  C   UNL A   1      40.721  31.315  35.312  1.00  0.00     0.074 A 
ATOM     49  C   UNL A   1      42.623  27.366  30.702  1.00  0.00     0.029 A 
ATOM     50  N   UNL A   1      41.518  28.866  31.918  1.00  0.00    -0.354 N 
ATOM     51  N   UNL A   1      41.041  30.548  34.299  1.00  0.00    -0.248 NA
ATOM     52  C   UNL A   1      41.604  31.172  36.478  1.00  0.00     0.031 C 
ATOM     53  C   UNL A   1      43.262  27.492  31.939  1.00  0.00     0.029 A 
ATOM     54  C   UNL A   1      42.583  28.439  32.689  1.00  0.00     0.049 A 
ATOM     55  H   UNL A   1      40.852  29.537  32.195  1.00  0.00     0.167 HD
ATOM     56  C   UNL A   1      42.175  29.850  34.693  1.00  0.00     0.074 A 
ATOM     57  C   UNL A   1      42.496  30.299  36.032  1.00  0.00     0.031 C 
ATOM     58  C   UNL A   1      42.886  28.918  34.013  1.00  0.00     0.037 A 
BRANCH  45  59
ATOM     59  C   UNL A   1      40.645  27.576  28.418  1.00  0.00     0.057 A 
ATOM     60  C   UNL A   1      41.431  27.940  27.318  1.00  0.00     0.134 A 
ATOM     61  C   UNL A   1      39.947  26.365  28.341  1.00  0.00     0.134 A 
ATOM     62  F   UNL A   1      42.110  29.098  27.321  1.00  0.00    -0.206 F 
ATOM     63  C   UNL A   1      41.502  27.143  26.175  1.00  0.00     0.040 A 
ATOM     64  C   UNL A   1      40.032  25.544  27.214  1.00  0.00     0.040 A 
ATOM     65  F   UNL A   1      39.175  25.955  29.359  1.00  0.00    -0.206 F 
ATOM     66  C   UNL A   1      40.807  25.936  26.125  1.00  0.00     0.006 A 
ENDBRANCH  45  59
BRANCH  46  67
ATOM     67  C   UNL A   1      39.374  33.058  36.692  1.00  0.00     0.057 A 
ATOM     68  C   UNL A   1      38.470  32.602  37.660  1.00  0.00     0.134 A 
ATOM     69  C   UNL A   1      40.046  34.256  36.955  1.00  0.00     0.134 A 
ATOM     70  F   UNL A   1      37.784  31.467  37.461  1.00  0.00    -0.206 F 
ATOM     71  C   UNL A   1      38.221  33.324  38.829  1.00  0.00     0.040 A 
ATOM     72  C   UNL A   1      39.825  34.978  38.130  1.00  0.00     0.040 A 
ATOM     73  F   UNL A   1      40.933  34.743  36.074  1.00  0.00    -0.206 F 
ATOM     74  C   UNL A   1      38.903  34.516  39.067  1.00  0.00     0.006 A 
ENDBRANCH  46  67
BRANCH  58  75
ATOM     75  C   UNL A   1      44.092  28.349  34.693  1.00  0.00     0.057 A 
ATOM     76  C   UNL A   1      44.026  27.165  35.437  1.00  0.00     0.134 A 
ATOM     77  C   UNL A   1      45.342  28.967  34.558  1.00  0.00     0.134 A 
ATOM     78  F   UNL A   1      42.855  26.534  35.609  1.00  0.00    -0.206 F 
ATOM     79  C   UNL A   1      45.161  26.624  36.042  1.00  0.00     0.040 A 
ATOM     80  C   UNL A   1      46.487  28.422  35.138  1.00  0.00     0.040 A 
ATOM     81  F   UNL A   1      45.470  30.098  33.849  1.00  0.00    -0.206 F 
ATOM     82  C   UNL A   1      46.397  27.250  35.887  1.00  0.00     0.006 A 
ENDBRANCH  58  75
ENDBRANCH  32  33
ENDBRANCH  24  27
ENDBRANCH  22  23
ENDBRANCH   1  22
TORSDOF 12
ENDMDL
MODEL 2
REMARK VINA RESULT:     -11.8      0.680      6.398
REMARK SMILES CC1(C)[C@H]2CC[C@]1(C)C(=O)N(CC(=O)NCCCCNC(=O)c1ccc(-c3c4nc(c(-c5c(F)cccc5F)c5ccc([nH]5)c(-c5c(F)cccc5F)c5nc(c(-c6c(F)cccc6F)c6ccc3[nH]6)C=C5)C=C4)cc1)C2=O
REMARK SMILES IDX 18 1 17 2 16 3 15 4 13 5 14 6 12 8 11 9 1 10 2 11 4 12 7 13
REMARK SMILES IDX 3 14 5 15 77 16 6 17 9 18 8 19 78 20 10 21 19 22 20 23 21 24
REMARK SMILES IDX 22 26 23 27 24 28 76 29 25 30 75 31 26 32 27 33 28 34 69 35
REMARK SMILES IDX 29 36 74 37 68 38 70 39 30 40 73 41 67 42 66 43 31 45 57 46
REMARK SMILES IDX 40 47 56 48 41 49 44 50 55 51 71 52 42 53 43 54 54 56 72 57
REMARK SMILES IDX 45 58 32 59 33 60 38 61 34 62 35 63 37 64 39 65 36 66 58 67
REMARK SMILES IDX 59 68 64 69 60 70 61 71 63 72 65 73 62 74 46 75 47 76 52 77
REMARK SMILES IDX 48 78 49 79 51 80 53 81 50 82
REMARK H PARENT 15 7 20 25 70 44 44 55
REMARK Flexibility Score: inf
ROOT
ATOM      1  C   UNL A   1      31.650  31.874  26.851  1.00  0.00     0.023 C 
ENDROOT
BRANCH   1   2
ATOM      2  C   UNL A   1      32.038  30.436  26.608  1.00  0.00     0.023 C 
BRANCH   2   3
ATOM      3  C   UNL A   1      31.746  29.798  25.250  1.00  0.00     0.116 C 
BRANCH   3   4
ATOM      4  N   UNL A   1      32.951  29.702  24.431  1.00  0.00    -0.355 N 
ATOM      5  C   UNL A   1      33.231  28.939  23.326  1.00  0.00     0.240 C 
ATOM      6  O   UNL A   1      34.401  28.959  22.925  1.00  0.00    -0.273 OA
ATOM      7  H   UNL A   1      33.688  30.285  24.723  1.00  0.00     0.163 HD
BRANCH   5   8
ATOM      8  C   UNL A   1      32.196  27.983  22.691  1.00  0.00     0.228 C 
BRANCH   8   9
ATOM      9  N   UNL A   1      32.394  26.669  23.291  1.00  0.00    -0.272 N 
ATOM     10  C   UNL A   1      31.074  23.483  23.834  1.00  0.00     0.013 C 
ATOM     11  C   UNL A   1      32.273  24.032  24.630  1.00  0.00    -0.010 C 
ATOM     12  C   UNL A   1      31.991  25.379  25.283  1.00  0.00     0.086 C 
ATOM     13  C   UNL A   1      33.502  24.487  23.768  1.00  0.00     0.053 C 
ATOM     14  C   UNL A   1      32.575  22.998  25.742  1.00  0.00     0.013 C 
ATOM     15  C   UNL A   1      33.385  25.871  25.762  1.00  0.00     0.015 C 
ATOM     16  C   UNL A   1      31.439  26.234  24.155  1.00  0.00     0.233 C 
ATOM     17  C   UNL A   1      34.400  25.178  24.823  1.00  0.00     0.018 C 
ATOM     18  C   UNL A   1      33.193  25.673  22.764  1.00  0.00     0.236 C 
ATOM     19  C   UNL A   1      34.178  23.323  23.056  1.00  0.00     0.022 C 
ATOM     20  O   UNL A   1      30.238  26.355  23.928  1.00  0.00    -0.274 OA
ATOM     21  O   UNL A   1      33.654  25.714  21.626  1.00  0.00    -0.274 OA
ENDBRANCH   8   9
ENDBRANCH   5   8
ENDBRANCH   3   4
ENDBRANCH   2   3
ENDBRANCH   1   2
BRANCH   1  22
ATOM     22  C   UNL A   1      32.799  32.766  27.255  1.00  0.00     0.116 C 
BRANCH  22  23
ATOM     23  N   UNL A   1      32.420  34.129  27.626  1.00  0.00    -0.352 N 
ATOM     24  C   UNL A   1      33.004  34.977  28.543  1.00  0.00     0.251 C 
ATOM     25  H   UNL A   1      31.637  34.493  27.154  1.00  0.00     0.163 HD
ATOM     26  O   UNL A   1      32.527  36.086  28.765  1.00  0.00    -0.269 OA
BRANCH  24  27
ATOM     27  C   UNL A   1      34.179  34.508  29.306  1.00  0.00     0.039 A 
ATOM     28  C   UNL A   1      33.992  33.865  30.532  1.00  0.00     0.014 A 
ATOM     29  C   UNL A   1      35.453  34.604  28.749  1.00  0.00     0.014 A 
ATOM     30  C   UNL A   1      35.072  33.222  31.139  1.00  0.00     0.010 A 
ATOM     31  C   UNL A   1      36.478  33.831  29.266  1.00  0.00     0.010 A 
ATOM     32  C   UNL A   1      36.309  33.151  30.479  1.00  0.00    -0.014 A 
BRANCH  32  33
ATOM     33  C   UNL A   1      37.468  32.416  31.043  1.00  0.00     0.031 A 
ATOM     34  C   UNL A   1      38.056  32.874  32.352  1.00  0.00     0.074 A 
ATOM     35  C   UNL A   1      38.049  31.425  30.339  1.00  0.00     0.049 A 
ATOM     36  N   UNL A   1      39.149  32.478  32.952  1.00  0.00    -0.248 NA
ATOM     37  C   UNL A   1      37.359  33.970  33.050  1.00  0.00     0.031 C 
ATOM     38  C   UNL A   1      37.628  30.956  29.016  1.00  0.00     0.029 A 
ATOM     39  N   UNL A   1      39.135  30.641  30.635  1.00  0.00    -0.354 N 
ATOM     40  C   UNL A   1      39.290  33.308  34.057  1.00  0.00     0.074 A 
ATOM     41  C   UNL A   1      38.216  34.272  34.011  1.00  0.00     0.031 C 
ATOM     42  C   UNL A   1      38.427  29.945  28.631  1.00  0.00     0.029 A 
ATOM     43  C   UNL A   1      39.435  29.719  29.661  1.00  0.00     0.049 A 
ATOM     44  H   UNL A   1      39.653  30.732  31.468  1.00  0.00     0.167 HD
ATOM     45  C   UNL A   1      40.211  33.249  35.045  1.00  0.00     0.037 A 
ATOM     46  C   UNL A   1      40.413  28.796  29.611  1.00  0.00     0.037 A 
ATOM     47  C   UNL A   1      41.214  32.226  35.134  1.00  0.00     0.049 A 
ATOM     48  C   UNL A   1      41.363  28.686  30.772  1.00  0.00     0.074 A 
ATOM     49  C   UNL A   1      42.119  31.993  36.153  1.00  0.00     0.029 A 
ATOM     50  N   UNL A   1      41.428  31.251  34.173  1.00  0.00    -0.354 N 
ATOM     51  N   UNL A   1      41.429  29.418  31.857  1.00  0.00    -0.248 NA
ATOM     52  C   UNL A   1      42.365  27.613  30.709  1.00  0.00     0.031 C 
ATOM     53  C   UNL A   1      42.900  30.891  35.794  1.00  0.00     0.029 A 
ATOM     54  C   UNL A   1      42.458  30.419  34.569  1.00  0.00     0.049 A 
ATOM     55  H   UNL A   1      40.921  31.165  33.332  1.00  0.00     0.167 HD
ATOM     56  C   UNL A   1      42.461  28.883  32.616  1.00  0.00     0.074 A 
ATOM     57  C   UNL A   1      42.980  27.753  31.875  1.00  0.00     0.031 C 
ATOM     58  C   UNL A   1      42.941  29.291  33.816  1.00  0.00     0.037 A 
BRANCH  45  59
ATOM     59  C   UNL A   1      40.152  34.296  36.118  1.00  0.00     0.057 A 
ATOM     60  C   UNL A   1      39.378  34.131  37.273  1.00  0.00     0.134 A 
ATOM     61  C   UNL A   1      40.904  35.472  36.006  1.00  0.00     0.134 A 
ATOM     62  F   UNL A   1      38.620  33.035  37.433  1.00  0.00    -0.206 F 
ATOM     63  C   UNL A   1      39.333  35.108  38.268  1.00  0.00     0.040 A 
ATOM     64  C   UNL A   1      40.890  36.444  37.008  1.00  0.00     0.040 A 
ATOM     65  F   UNL A   1      41.668  35.694  34.926  1.00  0.00    -0.206 F 
ATOM     66  C   UNL A   1      40.098  36.265  38.141  1.00  0.00     0.006 A 
ENDBRANCH  45  59
BRANCH  46  67
ATOM     67  C   UNL A   1      40.525  27.881  28.447  1.00  0.00     0.057 A 
ATOM     68  C   UNL A   1      39.885  26.636  28.442  1.00  0.00     0.134 A 
ATOM     69  C   UNL A   1      41.284  28.217  27.320  1.00  0.00     0.134 A 
ATOM     70  F   UNL A   1      39.154  26.249  29.499  1.00  0.00    -0.206 F 
ATOM     71  C   UNL A   1      40.016  25.747  27.374  1.00  0.00     0.040 A 
ATOM     72  C   UNL A   1      41.406  27.348  26.234  1.00  0.00     0.040 A 
ATOM     73  F   UNL A   1      41.914  29.400  27.256  1.00  0.00    -0.206 F 
ATOM     74  C   UNL A   1      40.778  26.105  26.263  1.00  0.00     0.006 A 
ENDBRANCH  46  67
BRANCH  58  75
ATOM     75  C   UNL A   1      44.059  28.492  34.410  1.00  0.00     0.057 A 
ATOM     76  C   UNL A   1      45.400  28.840  34.204  1.00  0.00     0.134 A 
ATOM     77  C   UNL A   1      43.788  27.396  35.238  1.00  0.00     0.134 A 
ATOM     78  F   UNL A   1      45.721  29.873  33.413  1.00  0.00    -0.206 F 
ATOM     79  C   UNL A   1      46.436  28.110  34.787  1.00  0.00     0.040 A 
ATOM     80  C   UNL A   1      44.815  26.674  35.846  1.00  0.00     0.040 A 
ATOM     81  F   UNL A   1      42.523  27.022  35.481  1.00  0.00    -0.206 F 
ATOM     82  C   UNL A   1      46.143  27.027  35.617  1.00  0.00     0.006 A 
ENDBRANCH  58  75
ENDBRANCH  32  33
ENDBRANCH  24  27
ENDBRANCH  22  23
ENDBRANCH   1  22
TORSDOF 12
ENDMDL
MODEL 3
REMARK VINA RESULT:     -11.8      4.547      8.964
REMARK SMILES CC1(C)[C@H]2CC[C@]1(C)C(=O)N(CC(=O)NCCCCNC(=O)c1ccc(-c3c4nc(c(-c5c(F)cccc5F)c5ccc([nH]5)c(-c5c(F)cccc5F)c5nc(c(-c6c(F)cccc6F)c6ccc3[nH]6)C=C5)C=C4)cc1)C2=O
REMARK SMILES IDX 18 1 17 2 16 3 15 4 13 5 14 6 12 8 11 9 1 10 2 11 4 12 7 13
REMARK SMILES IDX 3 14 5 15 77 16 6 17 9 18 8 19 78 20 10 21 19 22 20 23 21 24
REMARK SMILES IDX 22 26 23 27 24 28 76 29 25 30 75 31 26 32 27 33 28 34 69 35
REMARK SMILES IDX 29 36 74 37 68 38 70 39 30 40 73 41 67 42 66 43 31 45 57 46
REMARK SMILES IDX 40 47 56 48 41 49 44 50 55 51 71 52 42 53 43 54 54 56 72 57
REMARK SMILES IDX 45 58 32 59 33 60 38 61 34 62 35 63 37 64 39 65 36 66 58 67
REMARK SMILES IDX 59 68 64 69 60 70 61 71 63 72 65 73 62 74 46 75 47 76 52 77
REMARK SMILES IDX 48 78 49 79 51 80 53 81 50 82
REMARK H PARENT 15 7 20 25 70 44 44 55
REMARK Flexibility Score: inf
ROOT
ATOM      1  C   UNL A   1      37.772  20.282  24.963  1.00  0.00     0.023 C 
ENDROOT
BRANCH   1   2
ATOM      2  C   UNL A   1      36.728  21.369  25.046  1.00  0.00     0.023 C 
BRANCH   2   3
ATOM      3  C   UNL A   1      35.256  20.987  25.197  1.00  0.00     0.116 C 
BRANCH   3   4
ATOM      4  N   UNL A   1      34.756  21.290  26.535  1.00  0.00    -0.355 N 
ATOM      5  C   UNL A   1      33.522  21.708  26.963  1.00  0.00     0.240 C 
ATOM      6  O   UNL A   1      33.431  22.029  28.154  1.00  0.00    -0.273 OA
ATOM      7  H   UNL A   1      35.420  21.174  27.252  1.00  0.00     0.163 HD
BRANCH   5   8
ATOM      8  C   UNL A   1      32.333  21.917  25.997  1.00  0.00     0.228 C 
BRANCH   8   9
ATOM      9  N   UNL A   1      32.422  23.282  25.490  1.00  0.00    -0.272 N 
ATOM     10  C   UNL A   1      31.152  25.654  23.266  1.00  0.00     0.013 C 
ATOM     11  C   UNL A   1      32.504  25.827  23.982  1.00  0.00    -0.010 C 
ATOM     12  C   UNL A   1      33.441  24.642  23.786  1.00  0.00     0.086 C 
ATOM     13  C   UNL A   1      32.449  25.774  25.549  1.00  0.00     0.053 C 
ATOM     14  C   UNL A   1      33.167  27.087  23.373  1.00  0.00     0.013 C 
ATOM     15  C   UNL A   1      34.587  24.887  24.808  1.00  0.00     0.015 C 
ATOM     16  C   UNL A   1      32.597  23.433  24.151  1.00  0.00     0.233 C 
ATOM     17  C   UNL A   1      33.950  25.746  25.926  1.00  0.00     0.018 C 
ATOM     18  C   UNL A   1      31.930  24.398  26.138  1.00  0.00     0.236 C 
ATOM     19  C   UNL A   1      31.689  26.951  26.146  1.00  0.00     0.022 C 
ATOM     20  O   UNL A   1      31.970  22.776  23.324  1.00  0.00    -0.274 OA
ATOM     21  O   UNL A   1      31.180  24.334  27.108  1.00  0.00    -0.274 OA
ENDBRANCH   8   9
ENDBRANCH   5   8
ENDBRANCH   3   4
ENDBRANCH   2   3
ENDBRANCH   1   2
BRANCH   1  22
ATOM     22  C   UNL A   1      39.016  20.555  25.774  1.00  0.00     0.116 C 
BRANCH  22  23
ATOM     23  N   UNL A   1      40.021  19.493  25.737  1.00  0.00    -0.352 N 
ATOM     24  C   UNL A   1      41.351  19.539  26.093  1.00  0.00     0.251 C 
ATOM     25  H   UNL A   1      39.701  18.620  25.411  1.00  0.00     0.163 HD
ATOM     26  O   UNL A   1      42.072  18.555  25.958  1.00  0.00    -0.269 OA
BRANCH  24  27
ATOM     27  C   UNL A   1      41.918  20.812  26.583  1.00  0.00     0.039 A 
ATOM     28  C   UNL A   1      42.353  21.771  25.665  1.00  0.00     0.014 A 
ATOM     29  C   UNL A   1      41.909  21.098  27.947  1.00  0.00     0.014 A 
ATOM     30  C   UNL A   1      42.670  23.054  26.114  1.00  0.00     0.010 A 
ATOM     31  C   UNL A   1      42.065  22.408  28.366  1.00  0.00     0.010 A 
ATOM     32  C   UNL A   1      42.471  23.397  27.461  1.00  0.00    -0.014 A 
BRANCH  32  33
ATOM     33  C   UNL A   1      42.720  24.765  27.976  1.00  0.00     0.031 A 
ATOM     34  C   UNL A   1      44.113  25.140  28.412  1.00  0.00     0.074 A 
ATOM     35  C   UNL A   1      41.694  25.621  28.152  1.00  0.00     0.049 A 
ATOM     36  N   UNL A   1      44.527  26.219  29.024  1.00  0.00    -0.248 NA
ATOM     37  C   UNL A   1      45.173  24.140  28.189  1.00  0.00     0.031 C 
ATOM     38  C   UNL A   1      40.286  25.338  27.857  1.00  0.00     0.029 A 
ATOM     39  N   UNL A   1      41.676  26.902  28.640  1.00  0.00    -0.354 N 
ATOM     40  C   UNL A   1      45.871  26.000  29.300  1.00  0.00     0.074 A 
ATOM     41  C   UNL A   1      46.189  24.664  28.853  1.00  0.00     0.031 C 
ATOM     42  C   UNL A   1      39.548  26.426  28.139  1.00  0.00     0.029 A 
ATOM     43  C   UNL A   1      40.423  27.467  28.667  1.00  0.00     0.049 A 
ATOM     44  H   UNL A   1      42.485  27.373  28.944  1.00  0.00     0.167 HD
ATOM     45  C   UNL A   1      46.770  26.850  29.842  1.00  0.00     0.037 A 
ATOM     46  C   UNL A   1      40.031  28.689  29.072  1.00  0.00     0.037 A 
ATOM     47  C   UNL A   1      46.468  28.210  30.190  1.00  0.00     0.049 A 
ATOM     48  C   UNL A   1      41.071  29.652  29.577  1.00  0.00     0.074 A 
ATOM     49  C   UNL A   1      47.328  29.199  30.630  1.00  0.00     0.029 A 
ATOM     50  N   UNL A   1      45.205  28.775  30.117  1.00  0.00    -0.354 N 
ATOM     51  N   UNL A   1      42.357  29.463  29.747  1.00  0.00    -0.248 NA
ATOM     52  C   UNL A   1      40.609  31.000  29.934  1.00  0.00     0.031 C 
ATOM     53  C   UNL A   1      46.579  30.358  30.848  1.00  0.00     0.029 A 
ATOM     54  C   UNL A   1      45.259  30.098  30.512  1.00  0.00     0.049 A 
ATOM     55  H   UNL A   1      44.390  28.304  29.826  1.00  0.00     0.167 HD
ATOM     56  C   UNL A   1      42.862  30.672  30.207  1.00  0.00     0.074 A 
ATOM     57  C   UNL A   1      41.746  31.592  30.272  1.00  0.00     0.031 C 
ATOM     58  C   UNL A   1      44.133  30.994  30.550  1.00  0.00     0.037 A 
BRANCH  45  59
ATOM     59  C   UNL A   1      48.167  26.345  30.058  1.00  0.00     0.057 A 
ATOM     60  C   UNL A   1      48.560  25.742  31.259  1.00  0.00     0.134 A 
ATOM     61  C   UNL A   1      49.122  26.438  29.039  1.00  0.00     0.134 A 
ATOM     62  F   UNL A   1      47.698  25.639  32.283  1.00  0.00    -0.206 F 
ATOM     63  C   UNL A   1      49.860  25.271  31.449  1.00  0.00     0.040 A 
ATOM     64  C   UNL A   1      50.418  25.945  29.206  1.00  0.00     0.040 A 
ATOM     65  F   UNL A   1      48.812  27.003  27.862  1.00  0.00    -0.206 F 
ATOM     66  C   UNL A   1      50.790  25.365  30.416  1.00  0.00     0.006 A 
ENDBRANCH  45  59
BRANCH  46  67
ATOM     67  C   UNL A   1      38.604  29.089  28.984  1.00  0.00     0.057 A 
ATOM     68  C   UNL A   1      38.061  29.570  27.787  1.00  0.00     0.134 A 
ATOM     69  C   UNL A   1      37.752  29.016  30.092  1.00  0.00     0.134 A 
ATOM     70  F   UNL A   1      38.829  29.678  26.693  1.00  0.00    -0.206 F 
ATOM     71  C   UNL A   1      36.732  29.991  27.700  1.00  0.00     0.040 A 
ATOM     72  C   UNL A   1      36.415  29.411  30.015  1.00  0.00     0.040 A 
ATOM     73  F   UNL A   1      38.207  28.553  31.267  1.00  0.00    -0.206 F 
ATOM     74  C   UNL A   1      35.904  29.909  28.818  1.00  0.00     0.006 A 
ENDBRANCH  46  67
BRANCH  58  75
ATOM     75  C   UNL A   1      44.385  32.402  30.994  1.00  0.00     0.057 A 
ATOM     76  C   UNL A   1      44.683  33.417  30.078  1.00  0.00     0.134 A 
ATOM     77  C   UNL A   1      44.277  32.751  32.345  1.00  0.00     0.134 A 
ATOM     78  F   UNL A   1      44.809  33.141  28.772  1.00  0.00    -0.206 F 
ATOM     79  C   UNL A   1      44.886  34.734  30.495  1.00  0.00     0.040 A 
ATOM     80  C   UNL A   1      44.453  34.067  32.771  1.00  0.00     0.040 A 
ATOM     81  F   UNL A   1      43.983  31.822  33.268  1.00  0.00    -0.206 F 
ATOM     82  C   UNL A   1      44.764  35.061  31.845  1.00  0.00     0.006 A 
ENDBRANCH  58  75
ENDBRANCH  32  33
ENDBRANCH  24  27
ENDBRANCH  22  23
ENDBRANCH   1  22
TORSDOF 12
ENDMDL
