MODEL 1
REMARK VINA RESULT:     -12.7      0.000      0.000
REMARK SMILES O=C(CCc1cc2n(n1)CC[N@@H+](Cc1ccc3[nH]ccc3c1)C2)NCCCCNC(=O)c1ccc(-c2c3nc(c(-c4c(F)cccc4F)c4ccc([nH]4)c(-c4c(F)cccc4F)c4nc(c(-c5c(F)cccc5F)c5ccc2[nH]5)C=C4)C=C3)cc1
REMARK SMILES IDX 25 1 24 2 1 3 2 4 3 6 4 7 5 8 6 9 9 10 7 11 8 12 23 13 10 14
REMARK SMILES IDX 12 15 11 16 13 18 14 19 15 20 22 21 16 22 21 23 17 24 20 25
REMARK SMILES IDX 18 26 19 27 26 29 27 30 28 31 29 32 30 33 31 35 32 36 33 37
REMARK SMILES IDX 85 38 34 39 84 40 35 41 36 42 37 43 78 44 38 45 83 46 77 47
REMARK SMILES IDX 79 48 39 49 82 50 76 51 75 52 40 54 66 55 49 56 65 57 50 58
REMARK SMILES IDX 53 59 64 60 80 61 51 62 52 63 63 65 81 66 54 67 41 68 42 69
REMARK SMILES IDX 47 70 43 71 44 72 46 73 48 74 45 75 67 76 68 77 73 78 69 79
REMARK SMILES IDX 70 80 72 81 74 82 71 83 55 84 56 85 61 86 57 87 58 88 60 89
REMARK SMILES IDX 62 90 59 91
REMARK H PARENT 24 5 12 17 18 28 29 34 79 53 53 64
REMARK Flexibility Score: inf
ROOT
ATOM      1  C   UNL A   1      39.679  21.296  26.149  1.00  0.00     0.116 C 
ENDROOT
BRANCH   1   2
ATOM      2  N   UNL A   1      38.756  22.427  26.320  1.00  0.00    -0.356 N 
ATOM      3  O   UNL A   1      37.219  21.634  24.803  1.00  0.00    -0.275 OA
ATOM      4  C   UNL A   1      37.551  22.481  25.630  1.00  0.00     0.220 C 
ATOM      5  H   UNL A   1      38.996  23.159  26.934  1.00  0.00     0.163 HD
BRANCH   4   6
ATOM      6  C   UNL A   1      36.645  23.682  25.897  1.00  0.00     0.106 C 
BRANCH   6   7
ATOM      7  C   UNL A   1      35.775  24.113  24.707  1.00  0.00     0.068 C 
BRANCH   7   8
ATOM      8  C   UNL A   1      34.372  23.593  24.742  1.00  0.00     0.063 A 
ATOM      9  C   UNL A   1      33.365  23.706  23.753  1.00  0.00     0.055 A 
ATOM     10  N   UNL A   1      33.897  23.031  25.865  1.00  0.00    -0.177 NA
ATOM     11  C   UNL A   1      32.201  23.437  24.427  1.00  0.00     0.093 A 
ATOM     12  N   UNL A   1      32.564  23.008  25.676  1.00  0.00    -0.258 N 
ATOM     13  C   UNL A   1      30.792  23.778  24.151  1.00  0.00     0.319 C 
ATOM     14  C   UNL A   1      31.654  22.964  26.811  1.00  0.00     0.206 C 
ATOM     15  N   UNL A   1      30.274  24.530  25.305  1.00  0.00    -0.325 N 
ATOM     16  C   UNL A   1      30.316  23.661  26.500  1.00  0.00     0.286 C 
ATOM     17  H   UNL A   1      29.290  24.775  25.195  1.00  0.00     0.348 HD
BRANCH  15  18
ATOM     18  C   UNL A   1      30.933  25.855  25.404  1.00  0.00     0.299 C 
BRANCH  18  19
ATOM     19  C   UNL A   1      30.681  26.891  24.338  1.00  0.00     0.007 A 
ATOM     20  C   UNL A   1      31.784  27.558  23.875  1.00  0.00     0.012 A 
ATOM     21  C   UNL A   1      29.462  27.379  23.834  1.00  0.00     0.020 A 
ATOM     22  C   UNL A   1      31.781  28.025  22.592  1.00  0.00     0.027 A 
ATOM     23  C   UNL A   1      29.475  28.494  22.945  1.00  0.00    -0.000 A 
ATOM     24  C   UNL A   1      30.717  28.889  22.470  1.00  0.00     0.045 A 
ATOM     25  C   UNL A   1      28.550  29.365  22.308  1.00  0.00     0.028 A 
ATOM     26  N   UNL A   1      30.591  30.046  21.764  1.00  0.00    -0.361 N 
ATOM     27  C   UNL A   1      29.265  30.309  21.590  1.00  0.00     0.083 A 
ATOM     28  H   UNL A   1      31.334  30.601  21.433  1.00  0.00     0.166 HD
ENDBRANCH  18  19
ENDBRANCH  15  18
ENDBRANCH   7   8
ENDBRANCH   6   7
ENDBRANCH   4   6
ENDBRANCH   1   2
BRANCH   1  29
ATOM     29  C   UNL A   1      40.762  21.118  27.236  1.00  0.00     0.023 C 
BRANCH  29  30
ATOM     30  C   UNL A   1      41.270  19.694  27.561  1.00  0.00     0.023 C 
BRANCH  30  31
ATOM     31  C   UNL A   1      42.748  19.375  27.230  1.00  0.00     0.116 C 
BRANCH  31  32
ATOM     32  N   UNL A   1      43.124  19.199  25.813  1.00  0.00    -0.352 N 
ATOM     33  C   UNL A   1      43.866  20.004  24.926  1.00  0.00     0.251 C 
ATOM     34  H   UNL A   1      42.795  18.361  25.413  1.00  0.00     0.163 HD
ATOM     35  O   UNL A   1      44.295  19.505  23.895  1.00  0.00    -0.269 OA
BRANCH  33  36
ATOM     36  C   UNL A   1      44.188  21.443  25.204  1.00  0.00     0.039 A 
ATOM     37  C   UNL A   1      45.391  21.899  25.782  1.00  0.00     0.014 A 
ATOM     38  C   UNL A   1      43.267  22.400  24.889  1.00  0.00     0.014 A 
ATOM     39  C   UNL A   1      45.504  23.215  26.339  1.00  0.00     0.010 A 
ATOM     40  C   UNL A   1      43.357  23.638  25.517  1.00  0.00     0.010 A 
ATOM     41  C   UNL A   1      44.403  24.071  26.343  1.00  0.00    -0.014 A 
BRANCH  41  42
ATOM     42  C   UNL A   1      44.192  25.336  27.160  1.00  0.00     0.031 A 
ATOM     43  C   UNL A   1      45.107  26.536  26.887  1.00  0.00     0.074 A 
ATOM     44  C   UNL A   1      43.064  25.616  27.898  1.00  0.00     0.049 A 
ATOM     45  N   UNL A   1      45.728  27.240  27.791  1.00  0.00    -0.248 NA
ATOM     46  C   UNL A   1      45.401  27.038  25.528  1.00  0.00     0.031 C 
ATOM     47  C   UNL A   1      41.889  24.761  28.168  1.00  0.00     0.029 A 
ATOM     48  N   UNL A   1      42.624  26.834  28.407  1.00  0.00    -0.354 N 
ATOM     49  C   UNL A   1      46.364  28.294  27.128  1.00  0.00     0.074 A 
ATOM     50  C   UNL A   1      46.228  28.055  25.733  1.00  0.00     0.031 C 
ATOM     51  C   UNL A   1      40.827  25.523  28.557  1.00  0.00     0.029 A 
ATOM     52  C   UNL A   1      41.247  26.902  28.715  1.00  0.00     0.049 A 
ATOM     53  H   UNL A   1      43.230  27.596  28.543  1.00  0.00     0.167 HD
ATOM     54  C   UNL A   1      46.840  29.406  27.745  1.00  0.00     0.037 A 
ATOM     55  C   UNL A   1      40.505  27.979  29.118  1.00  0.00     0.037 A 
ATOM     56  C   UNL A   1      47.020  29.188  29.146  1.00  0.00     0.049 A 
ATOM     57  C   UNL A   1      41.448  28.905  29.761  1.00  0.00     0.074 A 
ATOM     58  C   UNL A   1      47.710  28.238  29.874  1.00  0.00     0.029 A 
ATOM     59  N   UNL A   1      46.126  29.750  30.018  1.00  0.00    -0.354 N 
ATOM     60  N   UNL A   1      42.031  28.654  30.893  1.00  0.00    -0.248 NA
ATOM     61  C   UNL A   1      42.006  29.990  28.977  1.00  0.00     0.031 C 
ATOM     62  C   UNL A   1      46.826  27.899  30.937  1.00  0.00     0.029 A 
ATOM     63  C   UNL A   1      45.714  28.734  30.841  1.00  0.00     0.049 A 
ATOM     64  H   UNL A   1      45.838  30.691  30.049  1.00  0.00     0.167 HD
ATOM     65  C   UNL A   1      43.292  29.182  30.731  1.00  0.00     0.074 A 
ATOM     66  C   UNL A   1      43.176  30.113  29.607  1.00  0.00     0.031 C 
ATOM     67  C   UNL A   1      44.365  28.590  31.325  1.00  0.00     0.037 A 
BRANCH  54  68
ATOM     68  C   UNL A   1      46.904  30.766  27.103  1.00  0.00     0.057 A 
ATOM     69  C   UNL A   1      48.113  31.479  27.110  1.00  0.00     0.134 A 
ATOM     70  C   UNL A   1      45.768  31.507  26.708  1.00  0.00     0.134 A 
ATOM     71  F   UNL A   1      49.257  30.888  27.487  1.00  0.00    -0.206 F 
ATOM     72  C   UNL A   1      48.181  32.842  26.796  1.00  0.00     0.040 A 
ATOM     73  C   UNL A   1      45.833  32.854  26.341  1.00  0.00     0.040 A 
ATOM     74  F   UNL A   1      44.531  30.990  26.746  1.00  0.00    -0.206 F 
ATOM     75  C   UNL A   1      47.039  33.535  26.413  1.00  0.00     0.006 A 
ENDBRANCH  54  68
BRANCH  55  76
ATOM     76  C   UNL A   1      39.072  28.396  29.049  1.00  0.00     0.057 A 
ATOM     77  C   UNL A   1      38.233  28.398  30.182  1.00  0.00     0.134 A 
ATOM     78  C   UNL A   1      38.607  29.151  27.962  1.00  0.00     0.134 A 
ATOM     79  F   UNL A   1      38.604  27.767  31.304  1.00  0.00    -0.206 F 
ATOM     80  C   UNL A   1      37.023  29.113  30.233  1.00  0.00     0.040 A 
ATOM     81  C   UNL A   1      37.395  29.865  27.995  1.00  0.00     0.040 A 
ATOM     82  F   UNL A   1      39.386  29.321  26.888  1.00  0.00    -0.206 F 
ATOM     83  C   UNL A   1      36.603  29.859  29.139  1.00  0.00     0.006 A 
ENDBRANCH  55  76
BRANCH  67  84
ATOM     84  C   UNL A   1      44.135  27.501  32.347  1.00  0.00     0.057 A 
ATOM     85  C   UNL A   1      44.194  26.123  32.083  1.00  0.00     0.134 A 
ATOM     86  C   UNL A   1      44.065  27.868  33.695  1.00  0.00     0.134 A 
ATOM     87  F   UNL A   1      44.331  25.650  30.844  1.00  0.00    -0.206 F 
ATOM     88  C   UNL A   1      44.185  25.164  33.101  1.00  0.00     0.040 A 
ATOM     89  C   UNL A   1      44.090  26.922  34.724  1.00  0.00     0.040 A 
ATOM     90  F   UNL A   1      44.041  29.165  34.040  1.00  0.00    -0.206 F 
ATOM     91  C   UNL A   1      44.152  25.563  34.428  1.00  0.00     0.006 A 
ENDBRANCH  67  84
ENDBRANCH  41  42
ENDBRANCH  33  36
ENDBRANCH  31  32
ENDBRANCH  30  31
ENDBRANCH  29  30
ENDBRANCH   1  29
TORSDOF 15
ENDMDL
MODEL 2
REMARK VINA RESULT:     -12.4      4.299      9.686
REMARK SMILES O=C(CCc1cc2n(n1)CC[N@@H+](Cc1ccc3[nH]ccc3c1)C2)NCCCCNC(=O)c1ccc(-c2c3nc(c(-c4c(F)cccc4F)c4ccc([nH]4)c(-c4c(F)cccc4F)c4nc(c(-c5c(F)cccc5F)c5ccc2[nH]5)C=C4)C=C3)cc1
REMARK SMILES IDX 25 1 24 2 1 3 2 4 3 6 4 7 5 8 6 9 9 10 7 11 8 12 23 13 10 14
REMARK SMILES IDX 12 15 11 16 13 18 14 19 15 20 22 21 16 22 21 23 17 24 20 25
REMARK SMILES IDX 18 26 19 27 26 29 27 30 28 31 29 32 30 33 31 35 32 36 33 37
REMARK SMILES IDX 85 38 34 39 84 40 35 41 36 42 37 43 78 44 38 45 83 46 77 47
REMARK SMILES IDX 79 48 39 49 82 50 76 51 75 52 40 54 66 55 49 56 65 57 50 58
REMARK SMILES IDX 53 59 64 60 80 61 51 62 52 63 63 65 81 66 54 67 41 68 42 69
REMARK SMILES IDX 47 70 43 71 44 72 46 73 48 74 45 75 67 76 68 77 73 78 69 79
REMARK SMILES IDX 70 80 72 81 74 82 71 83 55 84 56 85 61 86 57 87 58 88 60 89
REMARK SMILES IDX 62 90 59 91
REMARK H PARENT 24 5 12 17 18 28 29 34 79 53 53 64
REMARK Flexibility Score: inf
ROOT
ATOM      1  C   UNL A   1      34.747  31.567  27.663  1.00  0.00     0.116 C 
ENDROOT
BRANCH   1   2
ATOM      2  N   UNL A   1      33.400  31.022  27.440  1.00  0.00    -0.356 N 
ATOM      3  O   UNL A   1      34.126  28.854  27.174  1.00  0.00    -0.275 OA
ATOM      4  C   UNL A   1      33.200  29.662  27.239  1.00  0.00     0.220 C 
ATOM      5  H   UNL A   1      32.627  31.631  27.433  1.00  0.00     0.163 HD
BRANCH   4   6
ATOM      6  C   UNL A   1      31.761  29.186  27.046  1.00  0.00     0.106 C 
BRANCH   6   7
ATOM      7  C   UNL A   1      31.576  27.662  27.050  1.00  0.00     0.068 C 
BRANCH   7   8
ATOM      8  C   UNL A   1      31.195  27.078  25.726  1.00  0.00     0.063 A 
ATOM      9  C   UNL A   1      30.427  25.918  25.463  1.00  0.00     0.055 A 
ATOM     10  N   UNL A   1      31.697  27.602  24.597  1.00  0.00    -0.177 NA
ATOM     11  C   UNL A   1      30.717  25.614  24.157  1.00  0.00     0.093 A 
ATOM     12  N   UNL A   1      31.452  26.660  23.666  1.00  0.00    -0.258 N 
ATOM     13  C   UNL A   1      30.623  24.359  23.385  1.00  0.00     0.319 C 
ATOM     14  C   UNL A   1      32.257  26.584  22.456  1.00  0.00     0.206 C 
ATOM     15  N   UNL A   1      31.960  24.058  22.849  1.00  0.00    -0.325 N 
ATOM     16  C   UNL A   1      32.362  25.142  21.927  1.00  0.00     0.286 C 
ATOM     17  H   UNL A   1      31.964  23.214  22.276  1.00  0.00     0.348 HD
BRANCH  15  18
ATOM     18  C   UNL A   1      32.898  23.715  23.945  1.00  0.00     0.299 C 
BRANCH  18  19
ATOM     19  C   UNL A   1      33.201  22.268  24.239  1.00  0.00     0.007 A 
ATOM     20  C   UNL A   1      34.522  21.954  24.413  1.00  0.00     0.012 A 
ATOM     21  C   UNL A   1      32.342  21.154  24.230  1.00  0.00     0.020 A 
ATOM     22  C   UNL A   1      34.847  20.908  25.229  1.00  0.00     0.027 A 
ATOM     23  C   UNL A   1      32.898  19.848  24.371  1.00  0.00    -0.000 A 
ATOM     24  C   UNL A   1      34.238  19.783  24.721  1.00  0.00     0.045 A 
ATOM     25  C   UNL A   1      32.474  18.493  24.305  1.00  0.00     0.028 A 
ATOM     26  N   UNL A   1      34.664  18.492  24.667  1.00  0.00    -0.361 N 
ATOM     27  C   UNL A   1      33.581  17.682  24.490  1.00  0.00     0.083 A 
ATOM     28  H   UNL A   1      35.598  18.191  24.744  1.00  0.00     0.166 HD
ENDBRANCH  18  19
ENDBRANCH  15  18
ENDBRANCH   7   8
ENDBRANCH   6   7
ENDBRANCH   4   6
ENDBRANCH   1   2
BRANCH   1  29
ATOM     29  C   UNL A   1      34.827  32.988  28.261  1.00  0.00     0.023 C 
BRANCH  29  30
ATOM     30  C   UNL A   1      33.544  33.851  28.316  1.00  0.00     0.023 C 
BRANCH  30  31
ATOM     31  C   UNL A   1      33.591  35.138  29.175  1.00  0.00     0.116 C 
BRANCH  31  32
ATOM     32  N   UNL A   1      32.757  35.197  30.391  1.00  0.00    -0.352 N 
ATOM     33  C   UNL A   1      33.063  35.025  31.757  1.00  0.00     0.251 C 
ATOM     34  H   UNL A   1      31.807  35.394  30.217  1.00  0.00     0.163 HD
ATOM     35  O   UNL A   1      32.264  35.418  32.595  1.00  0.00    -0.269 OA
BRANCH  33  36
ATOM     36  C   UNL A   1      34.347  34.411  32.234  1.00  0.00     0.039 A 
ATOM     37  C   UNL A   1      35.423  35.135  32.791  1.00  0.00     0.014 A 
ATOM     38  C   UNL A   1      34.514  33.061  32.130  1.00  0.00     0.014 A 
ATOM     39  C   UNL A   1      36.733  34.562  32.901  1.00  0.00     0.010 A 
ATOM     40  C   UNL A   1      35.808  32.550  32.153  1.00  0.00     0.010 A 
ATOM     41  C   UNL A   1      36.976  33.273  32.430  1.00  0.00    -0.014 A 
BRANCH  41  42
ATOM     42  C   UNL A   1      38.314  32.611  32.133  1.00  0.00     0.031 A 
ATOM     43  C   UNL A   1      39.213  32.232  33.315  1.00  0.00     0.074 A 
ATOM     44  C   UNL A   1      38.656  32.037  30.930  1.00  0.00     0.049 A 
ATOM     45  N   UNL A   1      40.486  32.494  33.418  1.00  0.00    -0.248 NA
ATOM     46  C   UNL A   1      38.722  31.514  34.510  1.00  0.00     0.031 C 
ATOM     47  C   UNL A   1      37.907  32.021  29.656  1.00  0.00     0.029 A 
ATOM     48  N   UNL A   1      39.683  31.144  30.640  1.00  0.00    -0.354 N 
ATOM     49  C   UNL A   1      40.939  31.887  34.594  1.00  0.00     0.074 A 
ATOM     50  C   UNL A   1      39.794  31.401  35.282  1.00  0.00     0.031 C 
ATOM     51  C   UNL A   1      38.357  31.015  28.853  1.00  0.00     0.029 A 
ATOM     52  C   UNL A   1      39.518  30.390  29.458  1.00  0.00     0.049 A 
ATOM     53  H   UNL A   1      40.472  31.045  31.220  1.00  0.00     0.167 HD
ATOM     54  C   UNL A   1      42.247  31.665  34.881  1.00  0.00     0.037 A 
ATOM     55  C   UNL A   1      40.286  29.367  28.971  1.00  0.00     0.037 A 
ATOM     56  C   UNL A   1      43.103  32.493  34.090  1.00  0.00     0.049 A 
ATOM     57  C   UNL A   1      41.629  29.565  29.533  1.00  0.00     0.074 A 
ATOM     58  C   UNL A   1      43.168  33.857  33.879  1.00  0.00     0.029 A 
ATOM     59  N   UNL A   1      43.797  31.923  33.057  1.00  0.00    -0.354 N 
ATOM     60  N   UNL A   1      42.404  30.551  29.195  1.00  0.00    -0.248 NA
ATOM     61  C   UNL A   1      41.998  28.842  30.734  1.00  0.00     0.031 C 
ATOM     62  C   UNL A   1      43.389  33.986  32.480  1.00  0.00     0.029 A 
ATOM     63  C   UNL A   1      43.546  32.703  31.958  1.00  0.00     0.049 A 
ATOM     64  H   UNL A   1      44.361  31.116  33.094  1.00  0.00     0.167 HD
ATOM     65  C   UNL A   1      43.033  30.886  30.372  1.00  0.00     0.074 A 
ATOM     66  C   UNL A   1      42.863  29.722  31.243  1.00  0.00     0.031 C 
ATOM     67  C   UNL A   1      43.365  32.183  30.627  1.00  0.00     0.037 A 
BRANCH  54  68
ATOM     68  C   UNL A   1      42.746  30.512  35.710  1.00  0.00     0.057 A 
ATOM     69  C   UNL A   1      43.632  30.754  36.771  1.00  0.00     0.134 A 
ATOM     70  C   UNL A   1      42.592  29.155  35.348  1.00  0.00     0.134 A 
ATOM     71  F   UNL A   1      43.876  32.004  37.191  1.00  0.00    -0.206 F 
ATOM     72  C   UNL A   1      44.352  29.728  37.395  1.00  0.00     0.040 A 
ATOM     73  C   UNL A   1      43.265  28.118  36.000  1.00  0.00     0.040 A 
ATOM     74  F   UNL A   1      41.856  28.778  34.293  1.00  0.00    -0.206 F 
ATOM     75  C   UNL A   1      44.172  28.405  37.008  1.00  0.00     0.006 A 
ENDBRANCH  54  68
BRANCH  55  76
ATOM     76  C   UNL A   1      40.082  28.186  28.078  1.00  0.00     0.057 A 
ATOM     77  C   UNL A   1      40.736  28.061  26.836  1.00  0.00     0.134 A 
ATOM     78  C   UNL A   1      39.543  26.998  28.591  1.00  0.00     0.134 A 
ATOM     79  F   UNL A   1      41.348  29.115  26.279  1.00  0.00    -0.206 F 
ATOM     80  C   UNL A   1      40.856  26.834  26.158  1.00  0.00     0.040 A 
ATOM     81  C   UNL A   1      39.647  25.764  27.921  1.00  0.00     0.040 A 
ATOM     82  F   UNL A   1      39.017  26.982  29.821  1.00  0.00    -0.206 F 
ATOM     83  C   UNL A   1      40.318  25.677  26.705  1.00  0.00     0.006 A 
ENDBRANCH  55  76
BRANCH  67  84
ATOM     84  C   UNL A   1      43.254  33.204  29.519  1.00  0.00     0.057 A 
ATOM     85  C   UNL A   1      42.186  34.101  29.354  1.00  0.00     0.134 A 
ATOM     86  C   UNL A   1      44.379  33.430  28.720  1.00  0.00     0.134 A 
ATOM     87  F   UNL A   1      41.088  34.031  30.105  1.00  0.00    -0.206 F 
ATOM     88  C   UNL A   1      42.233  35.162  28.445  1.00  0.00     0.040 A 
ATOM     89  C   UNL A   1      44.454  34.508  27.832  1.00  0.00     0.040 A 
ATOM     90  F   UNL A   1      45.460  32.643  28.838  1.00  0.00    -0.206 F 
ATOM     91  C   UNL A   1      43.378  35.380  27.693  1.00  0.00     0.006 A 
ENDBRANCH  67  84
ENDBRANCH  41  42
ENDBRANCH  33  36
ENDBRANCH  31  32
ENDBRANCH  30  31
ENDBRANCH  29  30
ENDBRANCH   1  29
TORSDOF 15
ENDMDL
MODEL 3
REMARK VINA RESULT:     -12.4      3.006      8.545
REMARK SMILES O=C(CCc1cc2n(n1)CC[N@@H+](Cc1ccc3[nH]ccc3c1)C2)NCCCCNC(=O)c1ccc(-c2c3nc(c(-c4c(F)cccc4F)c4ccc([nH]4)c(-c4c(F)cccc4F)c4nc(c(-c5c(F)cccc5F)c5ccc2[nH]5)C=C4)C=C3)cc1
REMARK SMILES IDX 25 1 24 2 1 3 2 4 3 6 4 7 5 8 6 9 9 10 7 11 8 12 23 13 10 14
REMARK SMILES IDX 12 15 11 16 13 18 14 19 15 20 22 21 16 22 21 23 17 24 20 25
REMARK SMILES IDX 18 26 19 27 26 29 27 30 28 31 29 32 30 33 31 35 32 36 33 37
REMARK SMILES IDX 85 38 34 39 84 40 35 41 36 42 37 43 78 44 38 45 83 46 77 47
REMARK SMILES IDX 79 48 39 49 82 50 76 51 75 52 40 54 66 55 49 56 65 57 50 58
REMARK SMILES IDX 53 59 64 60 80 61 51 62 52 63 63 65 81 66 54 67 41 68 42 69
REMARK SMILES IDX 47 70 43 71 44 72 46 73 48 74 45 75 67 76 68 77 73 78 69 79
REMARK SMILES IDX 70 80 72 81 74 82 71 83 55 84 56 85 61 86 57 87 58 88 60 89
REMARK SMILES IDX 62 90 59 91
REMARK H PARENT 24 5 12 17 18 28 29 34 79 53 53 64
REMARK Flexibility Score: inf
ROOT
ATOM      1  C   UNL A   1      35.030  30.621  27.626  1.00  0.00     0.116 C 
ENDROOT
BRANCH   1   2
ATOM      2  N   UNL A   1      33.729  29.974  27.854  1.00  0.00    -0.356 N 
ATOM      3  O   UNL A   1      33.071  30.116  25.653  1.00  0.00    -0.275 OA
ATOM      4  C   UNL A   1      32.848  29.743  26.804  1.00  0.00     0.220 C 
ATOM      5  H   UNL A   1      33.479  29.700  28.766  1.00  0.00     0.163 HD
BRANCH   4   6
ATOM      6  C   UNL A   1      31.534  29.038  27.136  1.00  0.00     0.106 C 
BRANCH   6   7
ATOM      7  C   UNL A   1      31.629  27.510  27.248  1.00  0.00     0.068 C 
BRANCH   7   8
ATOM      8  C   UNL A   1      31.232  26.769  26.010  1.00  0.00     0.063 A 
ATOM      9  C   UNL A   1      31.361  25.387  25.731  1.00  0.00     0.055 A 
ATOM     10  N   UNL A   1      30.790  27.448  24.940  1.00  0.00    -0.177 NA
ATOM     11  C   UNL A   1      31.237  25.308  24.367  1.00  0.00     0.093 A 
ATOM     12  N   UNL A   1      30.865  26.554  23.936  1.00  0.00    -0.258 N 
ATOM     13  C   UNL A   1      31.675  24.295  23.386  1.00  0.00     0.319 C 
ATOM     14  C   UNL A   1      30.975  26.997  22.554  1.00  0.00     0.206 C 
ATOM     15  N   UNL A   1      32.545  24.962  22.404  1.00  0.00    -0.325 N 
ATOM     16  C   UNL A   1      31.759  25.991  21.691  1.00  0.00     0.286 C 
ATOM     17  H   UNL A   1      32.863  24.324  21.675  1.00  0.00     0.348 HD
BRANCH  15  18
ATOM     18  C   UNL A   1      33.814  25.394  23.039  1.00  0.00     0.299 C 
BRANCH  18  19
ATOM     19  C   UNL A   1      34.640  24.393  23.805  1.00  0.00     0.007 A 
ATOM     20  C   UNL A   1      34.871  24.687  25.123  1.00  0.00     0.012 A 
ATOM     21  C   UNL A   1      35.330  23.259  23.340  1.00  0.00     0.020 A 
ATOM     22  C   UNL A   1      35.050  23.660  26.004  1.00  0.00     0.027 A 
ATOM     23  C   UNL A   1      36.194  22.558  24.233  1.00  0.00    -0.000 A 
ATOM     24  C   UNL A   1      36.129  22.925  25.569  1.00  0.00     0.045 A 
ATOM     25  C   UNL A   1      37.136  21.495  24.194  1.00  0.00     0.028 A 
ATOM     26  N   UNL A   1      37.108  22.288  26.267  1.00  0.00    -0.361 N 
ATOM     27  C   UNL A   1      37.683  21.352  25.458  1.00  0.00     0.083 A 
ATOM     28  H   UNL A   1      37.359  22.470  27.201  1.00  0.00     0.166 HD
ENDBRANCH  18  19
ENDBRANCH  15  18
ENDBRANCH   7   8
ENDBRANCH   6   7
ENDBRANCH   4   6
ENDBRANCH   1   2
BRANCH   1  29
ATOM     29  C   UNL A   1      35.076  32.155  27.787  1.00  0.00     0.023 C 
BRANCH  29  30
ATOM     30  C   UNL A   1      33.997  32.851  28.649  1.00  0.00     0.023 C 
BRANCH  30  31
ATOM     31  C   UNL A   1      34.487  33.748  29.813  1.00  0.00     0.116 C 
BRANCH  31  32
ATOM     32  N   UNL A   1      34.508  33.175  31.173  1.00  0.00    -0.352 N 
ATOM     33  C   UNL A   1      35.390  32.277  31.806  1.00  0.00     0.251 C 
ATOM     34  H   UNL A   1      33.767  33.479  31.747  1.00  0.00     0.163 HD
ATOM     35  O   UNL A   1      35.368  32.189  33.026  1.00  0.00    -0.269 OA
BRANCH  33  36
ATOM     36  C   UNL A   1      36.386  31.444  31.054  1.00  0.00     0.039 A 
ATOM     37  C   UNL A   1      36.278  30.051  30.854  1.00  0.00     0.014 A 
ATOM     38  C   UNL A   1      37.486  32.049  30.518  1.00  0.00     0.014 A 
ATOM     39  C   UNL A   1      37.404  29.263  30.444  1.00  0.00     0.010 A 
ATOM     40  C   UNL A   1      38.593  31.263  30.214  1.00  0.00     0.010 A 
ATOM     41  C   UNL A   1      38.649  29.863  30.259  1.00  0.00    -0.014 A 
BRANCH  41  42
ATOM     42  C   UNL A   1      40.015  29.199  30.169  1.00  0.00     0.031 A 
ATOM     43  C   UNL A   1      40.751  28.877  31.474  1.00  0.00     0.074 A 
ATOM     44  C   UNL A   1      40.512  28.575  29.047  1.00  0.00     0.049 A 
ATOM     45  N   UNL A   1      42.000  29.151  31.731  1.00  0.00    -0.248 NA
ATOM     46  C   UNL A   1      40.108  28.208  32.625  1.00  0.00     0.031 C 
ATOM     47  C   UNL A   1      39.936  28.499  27.688  1.00  0.00     0.029 A 
ATOM     48  N   UNL A   1      41.569  27.678  28.934  1.00  0.00    -0.354 N 
ATOM     49  C   UNL A   1      42.295  28.599  32.981  1.00  0.00     0.074 A 
ATOM     50  C   UNL A   1      41.070  28.136  33.535  1.00  0.00     0.031 C 
ATOM     51  C   UNL A   1      40.488  27.463  26.996  1.00  0.00     0.029 A 
ATOM     52  C   UNL A   1      41.561  26.872  27.774  1.00  0.00     0.049 A 
ATOM     53  H   UNL A   1      42.275  27.609  29.615  1.00  0.00     0.167 HD
ATOM     54  C   UNL A   1      43.555  28.399  33.447  1.00  0.00     0.037 A 
ATOM     55  C   UNL A   1      42.387  25.834  27.438  1.00  0.00     0.037 A 
ATOM     56  C   UNL A   1      44.506  29.198  32.740  1.00  0.00     0.049 A 
ATOM     57  C   UNL A   1      43.645  26.066  28.161  1.00  0.00     0.074 A 
ATOM     58  C   UNL A   1      44.596  30.552  32.479  1.00  0.00     0.029 A 
ATOM     59  N   UNL A   1      45.330  28.587  31.831  1.00  0.00    -0.354 N 
ATOM     60  N   UNL A   1      44.457  27.041  27.884  1.00  0.00    -0.248 NA
ATOM     61  C   UNL A   1      43.854  25.398  29.431  1.00  0.00     0.031 C 
ATOM     62  C   UNL A   1      44.999  30.622  31.116  1.00  0.00     0.029 A 
ATOM     63  C   UNL A   1      45.224  29.318  30.677  1.00  0.00     0.049 A 
ATOM     64  H   UNL A   1      45.885  27.787  31.978  1.00  0.00     0.167 HD
ATOM     65  C   UNL A   1      44.925  27.431  29.118  1.00  0.00     0.074 A 
ATOM     66  C   UNL A   1      44.644  26.304  30.009  1.00  0.00     0.031 C 
ATOM     67  C   UNL A   1      45.219  28.739  29.357  1.00  0.00     0.037 A 
BRANCH  54  68
ATOM     68  C   UNL A   1      43.941  27.286  34.383  1.00  0.00     0.057 A 
ATOM     69  C   UNL A   1      44.322  27.589  35.700  1.00  0.00     0.134 A 
ATOM     70  C   UNL A   1      44.200  25.960  33.970  1.00  0.00     0.134 A 
ATOM     71  F   UNL A   1      44.147  28.822  36.199  1.00  0.00    -0.206 F 
ATOM     72  C   UNL A   1      44.960  26.658  36.529  1.00  0.00     0.040 A 
ATOM     73  C   UNL A   1      44.786  25.007  34.808  1.00  0.00     0.040 A 
ATOM     74  F   UNL A   1      43.981  25.550  32.712  1.00  0.00    -0.206 F 
ATOM     75  C   UNL A   1      45.196  25.363  36.084  1.00  0.00     0.006 A 
ENDBRANCH  54  68
BRANCH  55  76
ATOM     76  C   UNL A   1      42.303  24.615  26.578  1.00  0.00     0.057 A 
ATOM     77  C   UNL A   1      43.141  24.422  25.461  1.00  0.00     0.134 A 
ATOM     78  C   UNL A   1      41.668  23.459  27.053  1.00  0.00     0.134 A 
ATOM     79  F   UNL A   1      43.853  25.441  24.961  1.00  0.00    -0.206 F 
ATOM     80  C   UNL A   1      43.343  23.163  24.867  1.00  0.00     0.040 A 
ATOM     81  C   UNL A   1      41.851  22.193  26.464  1.00  0.00     0.040 A 
ATOM     82  F   UNL A   1      40.954  23.508  28.183  1.00  0.00    -0.206 F 
ATOM     83  C   UNL A   1      42.703  22.040  25.374  1.00  0.00     0.006 A 
ENDBRANCH  55  76
BRANCH  67  84
ATOM     84  C   UNL A   1      45.254  29.711  28.201  1.00  0.00     0.057 A 
ATOM     85  C   UNL A   1      44.183  30.528  27.803  1.00  0.00     0.134 A 
ATOM     86  C   UNL A   1      46.491  29.984  27.608  1.00  0.00     0.134 A 
ATOM     87  F   UNL A   1      42.971  30.411  28.345  1.00  0.00    -0.206 F 
ATOM     88  C   UNL A   1      44.333  31.557  26.868  1.00  0.00     0.040 A 
ATOM     89  C   UNL A   1      46.663  31.031  26.699  1.00  0.00     0.040 A 
ATOM     90  F   UNL A   1      47.576  29.275  27.957  1.00  0.00    -0.206 F 
ATOM     91  C   UNL A   1      45.581  31.824  26.327  1.00  0.00     0.006 A 
ENDBRANCH  67  84
ENDBRANCH  41  42
ENDBRANCH  33  36
ENDBRANCH  31  32
ENDBRANCH  30  31
ENDBRANCH  29  30
ENDBRANCH   1  29
TORSDOF 15
ENDMDL
