MODEL 1
REMARK VINA RESULT:     -12.3      0.000      0.000
REMARK SMILES O=C(NCCCCNC(=O)[C@@H]1CN(c2ncccn2)CCN1C(=O)C1CCOCC1)c1ccc(-c2c3nc(c(-c4c(F)cccc4F)c4ccc([nH]4)c(-c4c(F)cccc4F)c4nc(c(-c5c(F)cccc5F)c5ccc2[nH]5)C=C4)C=C3)cc1
REMARK SMILES IDX 5 1 4 2 3 3 1 4 2 5 31 7 32 8 84 9 33 10 83 11 34 12 35 13
REMARK SMILES IDX 36 14 77 15 37 16 82 17 76 18 78 19 38 20 81 21 75 22 74 23
REMARK SMILES IDX 39 25 65 26 48 27 64 28 49 29 52 30 63 31 79 32 50 33 51 34
REMARK SMILES IDX 62 36 80 37 53 38 40 39 41 40 46 41 42 42 43 43 45 44 47 45
REMARK SMILES IDX 44 46 66 47 67 48 72 49 68 50 69 51 71 52 73 53 70 54 54 55
REMARK SMILES IDX 55 56 60 57 56 58 57 59 59 60 61 61 58 62 6 63 7 64 8 65
REMARK SMILES IDX 9 66 10 68 11 69 12 70 22 71 13 72 21 73 20 74 23 75 24 76
REMARK SMILES IDX 25 77 26 78 30 79 27 80 29 81 28 82 14 83 15 84 19 85 16 86
REMARK SMILES IDX 18 87 17 88
REMARK H PARENT 3 6 78 24 52 35 8 67
REMARK Flexibility Score: inf
ROOT
ATOM      1  C   UNL A   1      38.219  19.283  25.096  1.00  0.00     0.023 C 
ENDROOT
BRANCH   1   2
ATOM      2  C   UNL A   1      39.405  19.823  25.881  1.00  0.00     0.116 C 
BRANCH   2   3
ATOM      3  N   UNL A   1      40.488  18.854  25.973  1.00  0.00    -0.352 N 
ATOM      4  O   UNL A   1      42.645  18.179  25.970  1.00  0.00    -0.269 OA
ATOM      5  C   UNL A   1      41.835  19.088  26.112  1.00  0.00     0.251 C 
ATOM      6  H   UNL A   1      40.220  17.909  25.930  1.00  0.00     0.163 HD
BRANCH   5   7
ATOM      7  C   UNL A   1      42.294  20.456  26.420  1.00  0.00     0.039 A 
ATOM      8  C   UNL A   1      42.314  20.902  27.743  1.00  0.00     0.014 A 
ATOM      9  C   UNL A   1      42.684  21.300  25.378  1.00  0.00     0.014 A 
ATOM     10  C   UNL A   1      42.592  22.234  28.013  1.00  0.00     0.010 A 
ATOM     11  C   UNL A   1      43.055  22.616  25.664  1.00  0.00     0.010 A 
ATOM     12  C   UNL A   1      42.990  23.099  26.981  1.00  0.00    -0.014 A 
BRANCH  12  13
ATOM     13  C   UNL A   1      43.414  24.478  27.322  1.00  0.00     0.031 A 
ATOM     14  C   UNL A   1      42.430  25.507  27.798  1.00  0.00     0.074 A 
ATOM     15  C   UNL A   1      44.721  24.785  27.213  1.00  0.00     0.049 A 
ATOM     16  N   UNL A   1      42.644  26.753  28.136  1.00  0.00    -0.248 NA
ATOM     17  C   UNL A   1      41.023  25.091  27.899  1.00  0.00     0.031 C 
ATOM     18  C   UNL A   1      45.764  23.867  26.748  1.00  0.00     0.029 A 
ATOM     19  N   UNL A   1      45.399  25.941  27.495  1.00  0.00    -0.354 N 
ATOM     20  C   UNL A   1      41.403  27.276  28.472  1.00  0.00     0.074 A 
ATOM     21  C   UNL A   1      40.434  26.219  28.273  1.00  0.00     0.031 C 
ATOM     22  C   UNL A   1      46.953  24.480  26.817  1.00  0.00     0.029 A 
ATOM     23  C   UNL A   1      46.750  25.852  27.264  1.00  0.00     0.049 A 
ATOM     24  H   UNL A   1      44.962  26.757  27.831  1.00  0.00     0.167 HD
ATOM     25  C   UNL A   1      41.104  28.524  28.909  1.00  0.00     0.037 A 
ATOM     26  C   UNL A   1      47.718  26.778  27.375  1.00  0.00     0.037 A 
ATOM     27  C   UNL A   1      42.080  29.565  29.114  1.00  0.00     0.049 A 
ATOM     28  C   UNL A   1      47.355  28.156  27.839  1.00  0.00     0.074 A 
ATOM     29  C   UNL A   1      41.883  30.849  29.595  1.00  0.00     0.029 A 
ATOM     30  N   UNL A   1      43.436  29.445  28.845  1.00  0.00    -0.354 N 
ATOM     31  N   UNL A   1      46.182  28.625  28.187  1.00  0.00    -0.248 NA
ATOM     32  C   UNL A   1      48.447  29.133  27.922  1.00  0.00     0.031 C 
ATOM     33  C   UNL A   1      43.109  31.521  29.569  1.00  0.00     0.029 A 
ATOM     34  C   UNL A   1      44.082  30.639  29.123  1.00  0.00     0.049 A 
ATOM     35  H   UNL A   1      43.875  28.631  28.507  1.00  0.00     0.167 HD
ATOM     36  C   UNL A   1      46.395  29.949  28.546  1.00  0.00     0.074 A 
ATOM     37  C   UNL A   1      47.814  30.198  28.394  1.00  0.00     0.031 C 
ATOM     38  C   UNL A   1      45.495  30.873  28.963  1.00  0.00     0.037 A 
BRANCH  25  39
ATOM     39  C   UNL A   1      39.662  28.845  29.174  1.00  0.00     0.057 A 
ATOM     40  C   UNL A   1      38.802  29.300  28.164  1.00  0.00     0.134 A 
ATOM     41  C   UNL A   1      39.109  28.644  30.446  1.00  0.00     0.134 A 
ATOM     42  F   UNL A   1      39.267  29.522  26.926  1.00  0.00    -0.206 F 
ATOM     43  C   UNL A   1      37.454  29.562  28.415  1.00  0.00     0.040 A 
ATOM     44  C   UNL A   1      37.757  28.878  30.703  1.00  0.00     0.040 A 
ATOM     45  F   UNL A   1      39.872  28.203  31.458  1.00  0.00    -0.206 F 
ATOM     46  C   UNL A   1      36.925  29.343  29.687  1.00  0.00     0.006 A 
ENDBRANCH  25  39
BRANCH  26  47
ATOM     47  C   UNL A   1      49.117  26.423  27.028  1.00  0.00     0.057 A 
ATOM     48  C   UNL A   1      49.974  25.846  27.970  1.00  0.00     0.134 A 
ATOM     49  C   UNL A   1      49.620  26.633  25.738  1.00  0.00     0.134 A 
ATOM     50  F   UNL A   1      49.553  25.633  29.225  1.00  0.00    -0.206 F 
ATOM     51  C   UNL A   1      51.287  25.502  27.646  1.00  0.00     0.040 A 
ATOM     52  C   UNL A   1      50.921  26.267  25.393  1.00  0.00     0.040 A 
ATOM     53  F   UNL A   1      48.843  27.172  24.787  1.00  0.00    -0.206 F 
ATOM     54  C   UNL A   1      51.760  25.706  26.352  1.00  0.00     0.006 A 
ENDBRANCH  26  47
BRANCH  38  55
ATOM     55  C   UNL A   1      46.029  32.233  29.307  1.00  0.00     0.057 A 
ATOM     56  C   UNL A   1      46.482  32.544  30.595  1.00  0.00     0.134 A 
ATOM     57  C   UNL A   1      46.110  33.233  28.331  1.00  0.00     0.134 A 
ATOM     58  F   UNL A   1      46.416  31.634  31.578  1.00  0.00    -0.206 F 
ATOM     59  C   UNL A   1      46.975  33.812  30.906  1.00  0.00     0.040 A 
ATOM     60  C   UNL A   1      46.627  34.497  28.624  1.00  0.00     0.040 A 
ATOM     61  F   UNL A   1      45.698  32.999  27.077  1.00  0.00    -0.206 F 
ATOM     62  C   UNL A   1      47.054  34.791  29.917  1.00  0.00     0.006 A 
ENDBRANCH  38  55
ENDBRANCH  12  13
ENDBRANCH   5   7
ENDBRANCH   2   3
ENDBRANCH   1   2
BRANCH   1  63
ATOM     63  C   UNL A   1      37.433  20.351  24.335  1.00  0.00     0.023 C 
BRANCH  63  64
ATOM     64  C   UNL A   1      37.362  21.699  25.049  1.00  0.00     0.116 C 
BRANCH  64  65
ATOM     65  N   UNL A   1      36.834  22.718  24.159  1.00  0.00    -0.354 N 
ATOM     66  C   UNL A   1      35.547  22.970  23.787  1.00  0.00     0.244 C 
ATOM     67  H   UNL A   1      37.508  23.316  23.765  1.00  0.00     0.163 HD
ATOM     68  O   UNL A   1      35.371  23.609  22.749  1.00  0.00    -0.273 OA
BRANCH  66  69
ATOM     69  C   UNL A   1      34.390  22.456  24.653  1.00  0.00     0.193 C 
ATOM     70  C   UNL A   1      33.979  21.177  23.871  1.00  0.00     0.155 C 
ATOM     71  N   UNL A   1      33.143  23.229  25.014  1.00  0.00    -0.327 N 
ATOM     72  N   UNL A   1      33.036  20.398  24.652  1.00  0.00    -0.336 N 
ATOM     73  C   UNL A   1      32.175  22.378  25.762  1.00  0.00     0.142 C 
ATOM     74  C   UNL A   1      31.810  21.057  25.050  1.00  0.00     0.141 C 
BRANCH  71  75
ATOM     75  C   UNL A   1      32.943  24.595  25.162  1.00  0.00     0.226 C 
ATOM     76  O   UNL A   1      32.984  25.107  26.293  1.00  0.00    -0.275 OA
BRANCH  75  77
ATOM     77  C   UNL A   1      32.631  25.555  24.016  1.00  0.00     0.083 C 
ATOM     78  C   UNL A   1      32.126  24.874  22.745  1.00  0.00     0.042 C 
ATOM     79  C   UNL A   1      33.702  26.633  23.880  1.00  0.00     0.042 C 
ATOM     80  C   UNL A   1      32.406  25.648  21.460  1.00  0.00     0.161 C 
ATOM     81  C   UNL A   1      33.679  27.315  22.527  1.00  0.00     0.161 C 
ATOM     82  O   UNL A   1      33.650  26.346  21.489  1.00  0.00    -0.381 OA
ENDBRANCH  75  77
ENDBRANCH  71  75
BRANCH  72  83
ATOM     83  C   UNL A   1      33.267  19.071  24.842  1.00  0.00     0.225 A 
ATOM     84  N   UNL A   1      34.417  18.538  24.409  1.00  0.00    -0.221 NA
ATOM     85  N   UNL A   1      32.314  18.364  25.475  1.00  0.00    -0.221 NA
ATOM     86  C   UNL A   1      34.630  17.238  24.689  1.00  0.00     0.117 A 
ATOM     87  C   UNL A   1      32.546  17.056  25.678  1.00  0.00     0.117 A 
ATOM     88  C   UNL A   1      33.713  16.435  25.319  1.00  0.00     0.040 A 
ENDBRANCH  72  83
ENDBRANCH  66  69
ENDBRANCH  64  65
ENDBRANCH  63  64
ENDBRANCH   1  63
TORSDOF 14
ENDMDL
MODEL 2
REMARK VINA RESULT:     -12.3      0.333      6.066
REMARK SMILES O=C(NCCCCNC(=O)[C@@H]1CN(c2ncccn2)CCN1C(=O)C1CCOCC1)c1ccc(-c2c3nc(c(-c4c(F)cccc4F)c4ccc([nH]4)c(-c4c(F)cccc4F)c4nc(c(-c5c(F)cccc5F)c5ccc2[nH]5)C=C4)C=C3)cc1
REMARK SMILES IDX 5 1 4 2 3 3 1 4 2 5 31 7 32 8 84 9 33 10 83 11 34 12 35 13
REMARK SMILES IDX 36 14 77 15 37 16 82 17 76 18 78 19 38 20 81 21 75 22 74 23
REMARK SMILES IDX 39 25 65 26 48 27 64 28 49 29 52 30 63 31 79 32 50 33 51 34
REMARK SMILES IDX 62 36 80 37 53 38 40 39 41 40 46 41 42 42 43 43 45 44 47 45
REMARK SMILES IDX 44 46 66 47 67 48 72 49 68 50 69 51 71 52 73 53 70 54 54 55
REMARK SMILES IDX 55 56 60 57 56 58 57 59 59 60 61 61 58 62 6 63 7 64 8 65
REMARK SMILES IDX 9 66 10 68 11 69 12 70 22 71 13 72 21 73 20 74 23 75 24 76
REMARK SMILES IDX 25 77 26 78 30 79 27 80 29 81 28 82 14 83 15 84 19 85 16 86
REMARK SMILES IDX 18 87 17 88
REMARK H PARENT 3 6 78 24 52 35 8 67
REMARK Flexibility Score: inf
ROOT
ATOM      1  C   UNL A   1      38.157  19.234  25.001  1.00  0.00     0.023 C 
ENDROOT
BRANCH   1   2
ATOM      2  C   UNL A   1      39.357  19.822  25.730  1.00  0.00     0.116 C 
BRANCH   2   3
ATOM      3  N   UNL A   1      40.436  18.855  25.878  1.00  0.00    -0.352 N 
ATOM      4  O   UNL A   1      42.592  18.182  25.984  1.00  0.00    -0.269 OA
ATOM      5  C   UNL A   1      41.773  19.090  26.083  1.00  0.00     0.251 C 
ATOM      6  H   UNL A   1      40.171  17.909  25.825  1.00  0.00     0.163 HD
BRANCH   5   7
ATOM      7  C   UNL A   1      42.215  20.460  26.409  1.00  0.00     0.039 A 
ATOM      8  C   UNL A   1      42.277  20.872  27.742  1.00  0.00     0.014 A 
ATOM      9  C   UNL A   1      42.547  21.339  25.376  1.00  0.00     0.014 A 
ATOM     10  C   UNL A   1      42.537  22.203  28.036  1.00  0.00     0.010 A 
ATOM     11  C   UNL A   1      42.901  22.655  25.682  1.00  0.00     0.010 A 
ATOM     12  C   UNL A   1      42.876  23.103  27.014  1.00  0.00    -0.014 A 
BRANCH  12  13
ATOM     13  C   UNL A   1      43.284  24.482  27.374  1.00  0.00     0.031 A 
ATOM     14  C   UNL A   1      44.716  24.922  27.296  1.00  0.00     0.074 A 
ATOM     15  C   UNL A   1      42.325  25.347  27.759  1.00  0.00     0.049 A 
ATOM     16  N   UNL A   1      45.232  26.093  27.576  1.00  0.00    -0.248 NA
ATOM     17  C   UNL A   1      45.702  23.921  26.858  1.00  0.00     0.031 C 
ATOM     18  C   UNL A   1      40.901  25.023  27.883  1.00  0.00     0.029 A 
ATOM     19  N   UNL A   1      42.395  26.671  28.102  1.00  0.00    -0.354 N 
ATOM     20  C   UNL A   1      46.599  25.967  27.367  1.00  0.00     0.074 A 
ATOM     21  C   UNL A   1      46.838  24.598  26.961  1.00  0.00     0.031 C 
ATOM     22  C   UNL A   1      40.227  26.126  28.232  1.00  0.00     0.029 A 
ATOM     23  C   UNL A   1      41.176  27.216  28.423  1.00  0.00     0.049 A 
ATOM     24  H   UNL A   1      43.236  27.183  28.117  1.00  0.00     0.167 HD
ATOM     25  C   UNL A   1      47.562  26.911  27.501  1.00  0.00     0.037 A 
ATOM     26  C   UNL A   1      40.856  28.451  28.849  1.00  0.00     0.037 A 
ATOM     27  C   UNL A   1      47.309  28.275  27.895  1.00  0.00     0.049 A 
ATOM     28  C   UNL A   1      41.946  29.468  29.009  1.00  0.00     0.074 A 
ATOM     29  C   UNL A   1      48.212  29.318  28.017  1.00  0.00     0.029 A 
ATOM     30  N   UNL A   1      46.065  28.784  28.237  1.00  0.00    -0.354 N 
ATOM     31  N   UNL A   1      43.229  29.345  28.773  1.00  0.00    -0.248 NA
ATOM     32  C   UNL A   1      41.544  30.793  29.497  1.00  0.00     0.031 C 
ATOM     33  C   UNL A   1      47.523  30.443  28.482  1.00  0.00     0.029 A 
ATOM     34  C   UNL A   1      46.180  30.117  28.597  1.00  0.00     0.049 A 
ATOM     35  H   UNL A   1      45.223  28.274  28.226  1.00  0.00     0.167 HD
ATOM     36  C   UNL A   1      43.789  30.580  29.069  1.00  0.00     0.074 A 
ATOM     37  C   UNL A   1      42.699  31.443  29.479  1.00  0.00     0.031 C 
ATOM     38  C   UNL A   1      45.087  30.963  29.007  1.00  0.00     0.037 A 
BRANCH  25  39
ATOM     39  C   UNL A   1      48.983  26.502  27.242  1.00  0.00     0.057 A 
ATOM     40  C   UNL A   1      49.818  26.026  28.262  1.00  0.00     0.134 A 
ATOM     41  C   UNL A   1      49.507  26.532  25.942  1.00  0.00     0.134 A 
ATOM     42  F   UNL A   1      49.383  25.979  29.529  1.00  0.00    -0.206 F 
ATOM     43  C   UNL A   1      51.127  25.615  28.002  1.00  0.00     0.040 A 
ATOM     44  C   UNL A   1      50.806  26.100  25.667  1.00  0.00     0.040 A 
ATOM     45  F   UNL A   1      48.761  26.969  24.917  1.00  0.00    -0.206 F 
ATOM     46  C   UNL A   1      51.622  25.643  26.699  1.00  0.00     0.006 A 
ENDBRANCH  25  39
BRANCH  26  47
ATOM     47  C   UNL A   1      39.443  28.776  29.161  1.00  0.00     0.057 A 
ATOM     48  C   UNL A   1      38.924  28.593  30.447  1.00  0.00     0.134 A 
ATOM     49  C   UNL A   1      38.585  29.300  28.185  1.00  0.00     0.134 A 
ATOM     50  F   UNL A   1      39.692  28.083  31.420  1.00  0.00    -0.206 F 
ATOM     51  C   UNL A   1      37.597  28.906  30.749  1.00  0.00     0.040 A 
ATOM     52  C   UNL A   1      37.267  29.644  28.481  1.00  0.00     0.040 A 
ATOM     53  F   UNL A   1      39.029  29.510  26.937  1.00  0.00    -0.206 F 
ATOM     54  C   UNL A   1      36.768  29.441  29.765  1.00  0.00     0.006 A 
ENDBRANCH  26  47
BRANCH  38  55
ATOM     55  C   UNL A   1      45.393  32.386  29.369  1.00  0.00     0.057 A 
ATOM     56  C   UNL A   1      45.756  32.756  30.670  1.00  0.00     0.134 A 
ATOM     57  C   UNL A   1      45.344  33.393  28.397  1.00  0.00     0.134 A 
ATOM     58  F   UNL A   1      45.805  31.842  31.649  1.00  0.00    -0.206 F 
ATOM     59  C   UNL A   1      46.036  34.084  30.997  1.00  0.00     0.040 A 
ATOM     60  C   UNL A   1      45.649  34.720  28.706  1.00  0.00     0.040 A 
ATOM     61  F   UNL A   1      45.009  33.105  27.131  1.00  0.00    -0.206 F 
ATOM     62  C   UNL A   1      45.989  35.069  30.012  1.00  0.00     0.006 A 
ENDBRANCH  38  55
ENDBRANCH  12  13
ENDBRANCH   5   7
ENDBRANCH   2   3
ENDBRANCH   1   2
BRANCH   1  63
ATOM     63  C   UNL A   1      37.083  20.258  24.636  1.00  0.00     0.023 C 
BRANCH  63  64
ATOM     64  C   UNL A   1      37.364  21.667  25.155  1.00  0.00     0.116 C 
BRANCH  64  65
ATOM     65  N   UNL A   1      36.857  22.661  24.225  1.00  0.00    -0.354 N 
ATOM     66  C   UNL A   1      35.581  22.897  23.809  1.00  0.00     0.244 C 
ATOM     67  H   UNL A   1      37.539  23.253  23.836  1.00  0.00     0.163 HD
ATOM     68  O   UNL A   1      35.432  23.508  22.751  1.00  0.00    -0.273 OA
BRANCH  66  69
ATOM     69  C   UNL A   1      34.401  22.397  24.654  1.00  0.00     0.193 C 
ATOM     70  C   UNL A   1      33.980  21.130  23.858  1.00  0.00     0.155 C 
ATOM     71  N   UNL A   1      33.162  23.190  24.999  1.00  0.00    -0.327 N 
ATOM     72  N   UNL A   1      33.012  20.363  24.618  1.00  0.00    -0.336 N 
ATOM     73  C   UNL A   1      32.168  22.351  25.727  1.00  0.00     0.142 C 
ATOM     74  C   UNL A   1      31.791  21.041  25.001  1.00  0.00     0.141 C 
BRANCH  71  75
ATOM     75  C   UNL A   1      32.983  24.557  25.153  1.00  0.00     0.226 C 
ATOM     76  O   UNL A   1      33.063  25.070  26.282  1.00  0.00    -0.275 OA
BRANCH  75  77
ATOM     77  C   UNL A   1      32.648  25.521  24.016  1.00  0.00     0.083 C 
ATOM     78  C   UNL A   1      32.165  24.841  22.737  1.00  0.00     0.042 C 
ATOM     79  C   UNL A   1      33.691  26.628  23.895  1.00  0.00     0.042 C 
ATOM     80  C   UNL A   1      32.428  25.636  21.461  1.00  0.00     0.161 C 
ATOM     81  C   UNL A   1      33.653  27.324  22.549  1.00  0.00     0.161 C 
ATOM     82  O   UNL A   1      33.653  26.366  21.501  1.00  0.00    -0.381 OA
ENDBRANCH  75  77
ENDBRANCH  71  75
BRANCH  72  83
ATOM     83  C   UNL A   1      33.217  19.032  24.804  1.00  0.00     0.225 A 
ATOM     84  N   UNL A   1      34.290  18.451  24.251  1.00  0.00    -0.221 NA
ATOM     85  N   UNL A   1      32.320  18.368  25.554  1.00  0.00    -0.221 NA
ATOM     86  C   UNL A   1      34.489  17.147  24.527  1.00  0.00     0.117 A 
ATOM     87  C   UNL A   1      32.528  17.055  25.752  1.00  0.00     0.117 A 
ATOM     88  C   UNL A   1      33.624  16.387  25.273  1.00  0.00     0.040 A 
ENDBRANCH  72  83
ENDBRANCH  66  69
ENDBRANCH  64  65
ENDBRANCH  63  64
ENDBRANCH   1  63
TORSDOF 14
ENDMDL
MODEL 3
REMARK VINA RESULT:     -12.2      1.902      4.164
REMARK SMILES O=C(NCCCCNC(=O)[C@@H]1CN(c2ncccn2)CCN1C(=O)C1CCOCC1)c1ccc(-c2c3nc(c(-c4c(F)cccc4F)c4ccc([nH]4)c(-c4c(F)cccc4F)c4nc(c(-c5c(F)cccc5F)c5ccc2[nH]5)C=C4)C=C3)cc1
REMARK SMILES IDX 5 1 4 2 3 3 1 4 2 5 31 7 32 8 84 9 33 10 83 11 34 12 35 13
REMARK SMILES IDX 36 14 77 15 37 16 82 17 76 18 78 19 38 20 81 21 75 22 74 23
REMARK SMILES IDX 39 25 65 26 48 27 64 28 49 29 52 30 63 31 79 32 50 33 51 34
REMARK SMILES IDX 62 36 80 37 53 38 40 39 41 40 46 41 42 42 43 43 45 44 47 45
REMARK SMILES IDX 44 46 66 47 67 48 72 49 68 50 69 51 71 52 73 53 70 54 54 55
REMARK SMILES IDX 55 56 60 57 56 58 57 59 59 60 61 61 58 62 6 63 7 64 8 65
REMARK SMILES IDX 9 66 10 68 11 69 12 70 22 71 13 72 21 73 20 74 23 75 24 76
REMARK SMILES IDX 25 77 26 78 30 79 27 80 29 81 28 82 14 83 15 84 19 85 16 86
REMARK SMILES IDX 18 87 17 88
REMARK H PARENT 3 6 78 24 52 35 8 67
REMARK Flexibility Score: inf
ROOT
ATOM      1  C   UNL A   1      37.956  19.663  24.995  1.00  0.00     0.023 C 
ENDROOT
BRANCH   1   2
ATOM      2  C   UNL A   1      39.059  20.104  25.946  1.00  0.00     0.116 C 
BRANCH   2   3
ATOM      3  N   UNL A   1      40.199  19.199  25.920  1.00  0.00    -0.352 N 
ATOM      4  O   UNL A   1      42.394  18.662  25.846  1.00  0.00    -0.269 OA
ATOM      5  C   UNL A   1      41.529  19.493  26.099  1.00  0.00     0.251 C 
ATOM      6  H   UNL A   1      39.990  18.253  25.751  1.00  0.00     0.163 HD
BRANCH   5   7
ATOM      7  C   UNL A   1      41.904  20.835  26.587  1.00  0.00     0.039 A 
ATOM      8  C   UNL A   1      41.850  21.118  27.954  1.00  0.00     0.014 A 
ATOM      9  C   UNL A   1      42.289  21.816  25.672  1.00  0.00     0.014 A 
ATOM     10  C   UNL A   1      42.046  22.419  28.392  1.00  0.00     0.010 A 
ATOM     11  C   UNL A   1      42.579  23.104  26.128  1.00  0.00     0.010 A 
ATOM     12  C   UNL A   1      42.437  23.421  27.489  1.00  0.00    -0.014 A 
BRANCH  12  13
ATOM     13  C   UNL A   1      42.775  24.767  28.009  1.00  0.00     0.031 A 
ATOM     14  C   UNL A   1      41.714  25.798  28.266  1.00  0.00     0.074 A 
ATOM     15  C   UNL A   1      44.068  25.041  28.269  1.00  0.00     0.049 A 
ATOM     16  N   UNL A   1      41.848  27.018  28.721  1.00  0.00    -0.248 NA
ATOM     17  C   UNL A   1      40.325  25.418  27.966  1.00  0.00     0.031 C 
ATOM     18  C   UNL A   1      45.184  24.118  28.044  1.00  0.00     0.029 A 
ATOM     19  N   UNL A   1      44.663  26.161  28.787  1.00  0.00    -0.354 N 
ATOM     20  C   UNL A   1      40.570  27.559  28.745  1.00  0.00     0.074 A 
ATOM     21  C   UNL A   1      39.674  26.542  28.235  1.00  0.00     0.031 C 
ATOM     22  C   UNL A   1      46.320  24.692  28.462  1.00  0.00     0.029 A 
ATOM     23  C   UNL A   1      46.025  26.044  28.918  1.00  0.00     0.049 A 
ATOM     24  H   UNL A   1      44.164  26.970  29.042  1.00  0.00     0.167 HD
ATOM     25  C   UNL A   1      40.183  28.790  29.158  1.00  0.00     0.037 A 
ATOM     26  C   UNL A   1      46.942  26.935  29.336  1.00  0.00     0.037 A 
ATOM     27  C   UNL A   1      41.084  29.790  29.675  1.00  0.00     0.049 A 
ATOM     28  C   UNL A   1      46.487  28.297  29.765  1.00  0.00     0.074 A 
ATOM     29  C   UNL A   1      40.784  31.052  30.161  1.00  0.00     0.029 A 
ATOM     30  N   UNL A   1      42.461  29.645  29.769  1.00  0.00    -0.354 N 
ATOM     31  N   UNL A   1      45.270  28.781  29.817  1.00  0.00    -0.248 NA
ATOM     32  C   UNL A   1      47.531  29.236  30.192  1.00  0.00     0.031 C 
ATOM     33  C   UNL A   1      41.983  31.689  30.499  1.00  0.00     0.029 A 
ATOM     34  C   UNL A   1      43.026  30.804  30.278  1.00  0.00     0.049 A 
ATOM     35  H   UNL A   1      42.963  28.838  29.513  1.00  0.00     0.167 HD
ATOM     36  C   UNL A   1      45.399  30.078  30.296  1.00  0.00     0.074 A 
ATOM     37  C   UNL A   1      46.811  30.293  30.540  1.00  0.00     0.031 C 
ATOM     38  C   UNL A   1      44.434  31.005  30.511  1.00  0.00     0.037 A 
BRANCH  25  39
ATOM     39  C   UNL A   1      38.727  29.139  29.050  1.00  0.00     0.057 A 
ATOM     40  C   UNL A   1      37.859  29.060  30.147  1.00  0.00     0.134 A 
ATOM     41  C   UNL A   1      38.197  29.616  27.843  1.00  0.00     0.134 A 
ATOM     42  F   UNL A   1      38.299  28.604  31.330  1.00  0.00    -0.206 F 
ATOM     43  C   UNL A   1      36.514  29.422  30.043  1.00  0.00     0.040 A 
ATOM     44  C   UNL A   1      36.861  30.004  27.733  1.00  0.00     0.040 A 
ATOM     45  F   UNL A   1      38.973  29.725  26.754  1.00  0.00    -0.206 F 
ATOM     46  C   UNL A   1      36.013  29.904  28.834  1.00  0.00     0.006 A 
ENDBRANCH  25  39
BRANCH  26  47
ATOM     47  C   UNL A   1      48.377  26.558  29.351  1.00  0.00     0.057 A 
ATOM     48  C   UNL A   1      48.937  25.882  30.440  1.00  0.00     0.134 A 
ATOM     49  C   UNL A   1      49.216  26.847  28.268  1.00  0.00     0.134 A 
ATOM     50  F   UNL A   1      48.187  25.589  31.512  1.00  0.00    -0.206 F 
ATOM     51  C   UNL A   1      50.284  25.517  30.456  1.00  0.00     0.040 A 
ATOM     52  C   UNL A   1      50.556  26.462  28.259  1.00  0.00     0.040 A 
ATOM     53  F   UNL A   1      48.734  27.483  27.190  1.00  0.00    -0.206 F 
ATOM     54  C   UNL A   1      51.095  25.801  29.359  1.00  0.00     0.006 A 
ENDBRANCH  26  47
BRANCH  38  55
ATOM     55  C   UNL A   1      44.876  32.328  31.063  1.00  0.00     0.057 A 
ATOM     56  C   UNL A   1      44.982  32.556  32.441  1.00  0.00     0.134 A 
ATOM     57  C   UNL A   1      45.221  33.378  30.204  1.00  0.00     0.134 A 
ATOM     58  F   UNL A   1      44.651  31.596  33.317  1.00  0.00    -0.206 F 
ATOM     59  C   UNL A   1      45.392  33.791  32.945  1.00  0.00     0.040 A 
ATOM     60  C   UNL A   1      45.658  34.609  30.695  1.00  0.00     0.040 A 
ATOM     61  F   UNL A   1      45.147  33.224  28.873  1.00  0.00    -0.206 F 
ATOM     62  C   UNL A   1      45.737  34.820  32.071  1.00  0.00     0.006 A 
ENDBRANCH  38  55
ENDBRANCH  12  13
ENDBRANCH   5   7
ENDBRANCH   2   3
ENDBRANCH   1   2
BRANCH   1  63
ATOM     63  C   UNL A   1      37.120  20.811  24.430  1.00  0.00     0.023 C 
BRANCH  63  64
ATOM     64  C   UNL A   1      36.614  21.791  25.487  1.00  0.00     0.116 C 
BRANCH  64  65
ATOM     65  N   UNL A   1      35.575  21.175  26.294  1.00  0.00    -0.354 N 
ATOM     66  C   UNL A   1      34.219  21.277  26.198  1.00  0.00     0.244 C 
ATOM     67  H   UNL A   1      35.900  20.596  27.021  1.00  0.00     0.163 HD
ATOM     68  O   UNL A   1      33.557  20.996  27.198  1.00  0.00    -0.273 OA
BRANCH  66  69
ATOM     69  C   UNL A   1      33.582  21.734  24.880  1.00  0.00     0.193 C 
ATOM     70  C   UNL A   1      32.747  22.954  25.359  1.00  0.00     0.155 C 
ATOM     71  N   UNL A   1      32.726  20.885  23.970  1.00  0.00    -0.327 N 
ATOM     72  N   UNL A   1      32.236  23.688  24.217  1.00  0.00    -0.336 N 
ATOM     73  C   UNL A   1      32.171  21.688  22.843  1.00  0.00     0.142 C 
ATOM     74  C   UNL A   1      31.407  22.955  23.283  1.00  0.00     0.141 C 
BRANCH  71  75
ATOM     75  C   UNL A   1      32.729  19.514  23.752  1.00  0.00     0.226 C 
ATOM     76  O   UNL A   1      32.196  19.047  22.732  1.00  0.00    -0.275 OA
BRANCH  75  77
ATOM     77  C   UNL A   1      33.325  18.486  24.713  1.00  0.00     0.083 C 
ATOM     78  C   UNL A   1      34.687  17.942  24.287  1.00  0.00     0.042 C 
ATOM     79  C   UNL A   1      32.271  17.494  25.195  1.00  0.00     0.042 C 
ATOM     80  C   UNL A   1      35.001  16.544  24.812  1.00  0.00     0.161 C 
ATOM     81  C   UNL A   1      32.876  16.229  25.771  1.00  0.00     0.161 C 
ATOM     82  O   UNL A   1      33.851  15.703  24.883  1.00  0.00    -0.381 OA
ENDBRANCH  75  77
ENDBRANCH  71  75
BRANCH  72  83
ATOM     83  C   UNL A   1      32.425  25.033  24.153  1.00  0.00     0.225 A 
ATOM     84  N   UNL A   1      31.448  25.809  23.666  1.00  0.00    -0.221 NA
ATOM     85  N   UNL A   1      33.599  25.513  24.600  1.00  0.00    -0.221 NA
ATOM     86  C   UNL A   1      31.655  27.140  23.695  1.00  0.00     0.117 A 
ATOM     87  C   UNL A   1      33.783  26.843  24.553  1.00  0.00     0.117 A 
ATOM     88  C   UNL A   1      32.823  27.720  24.123  1.00  0.00     0.040 A 
ENDBRANCH  72  83
ENDBRANCH  66  69
ENDBRANCH  64  65
ENDBRANCH  63  64
ENDBRANCH   1  63
TORSDOF 14
ENDMDL
