MODEL 1
REMARK VINA RESULT:     -11.2      0.000      0.000
REMARK SMILES CCOC(=O)[C@H]1CCCN(C(=O)N[C@](C)(CC)C(=O)NCCCCNC(=O)c2ccc(-c3c4nc(c(-c5c(F)cccc5F)c5ccc([nH]5)c(-c5c(F)cccc5F)c5nc(c(-c6c(F)cccc6F)c6ccc3[nH]6)C=C5)C=C4)cc2)C1
REMARK SMILES IDX 21 1 20 2 18 3 19 4 14 6 15 7 13 8 11 9 12 10 10 12 6 13
REMARK SMILES IDX 7 14 82 15 8 16 9 17 4 18 5 19 3 20 2 21 1 22 16 23 17 24
REMARK SMILES IDX 22 25 23 26 24 27 25 28 26 29 27 31 28 32 29 33 81 34 30 35
REMARK SMILES IDX 80 36 31 37 32 38 33 39 74 40 34 41 79 42 73 43 75 44 35 45
REMARK SMILES IDX 78 46 72 47 71 48 36 50 62 51 45 52 61 53 46 54 49 55 60 56
REMARK SMILES IDX 76 57 47 58 48 59 59 61 77 62 50 63 37 64 38 65 43 66 39 67
REMARK SMILES IDX 40 68 42 69 44 70 41 71 63 72 64 73 69 74 65 75 66 76 68 77
REMARK SMILES IDX 70 78 67 79 51 80 52 81 57 82 53 83 54 84 56 85 58 86 55 87
REMARK H PARENT 20 5 13 11 25 30 75 49 49 60
REMARK Flexibility Score: inf
ROOT
ATOM      1  C   UNL A   1      32.427  30.029  25.778  1.00  0.00     0.116 C 
ENDROOT
BRANCH   1   2
ATOM      2  N   UNL A   1      32.354  29.300  27.028  1.00  0.00    -0.354 N 
ATOM      3  C   UNL A   1      31.896  28.034  27.250  1.00  0.00     0.245 C 
ATOM      4  O   UNL A   1      31.383  27.811  28.352  1.00  0.00    -0.272 OA
ATOM      5  H   UNL A   1      32.680  29.782  27.822  1.00  0.00     0.163 HD
BRANCH   3   6
ATOM      6  C   UNL A   1      31.987  26.944  26.128  1.00  0.00     0.117 C 
ATOM      7  C   UNL A   1      31.191  27.228  24.827  1.00  0.00     0.045 C 
BRANCH   6   8
ATOM      8  N   UNL A   1      31.493  25.651  26.706  1.00  0.00    -0.324 N 
ATOM      9  C   UNL A   1      31.532  24.333  26.364  1.00  0.00     0.318 C 
ATOM     10  O   UNL A   1      31.037  23.571  27.202  1.00  0.00    -0.249 OA
ATOM     11  H   UNL A   1      31.017  25.792  27.556  1.00  0.00     0.166 HD
BRANCH   9  12
ATOM     12  N   UNL A   1      32.044  23.850  25.180  1.00  0.00    -0.324 N 
ATOM     13  C   UNL A   1      34.231  23.717  23.931  1.00  0.00     0.119 C 
ATOM     14  C   UNL A   1      33.419  23.618  22.626  1.00  0.00     0.019 C 
ATOM     15  C   UNL A   1      33.409  23.239  25.149  1.00  0.00     0.136 C 
ATOM     16  C   UNL A   1      32.113  24.335  22.768  1.00  0.00     0.023 C 
ATOM     17  C   UNL A   1      31.357  23.716  23.911  1.00  0.00     0.121 C 
BRANCH  13  18
ATOM     18  C   UNL A   1      35.562  22.998  23.727  1.00  0.00     0.310 C 
ATOM     19  O   UNL A   1      36.253  23.029  22.727  1.00  0.00    -0.252 OA
BRANCH  18  20
ATOM     20  O   UNL A   1      35.778  22.199  24.814  1.00  0.00    -0.466 OA
BRANCH  20  21
ATOM     21  C   UNL A   1      37.006  22.256  25.539  1.00  0.00     0.229 C 
ATOM     22  C   UNL A   1      37.327  23.707  25.834  1.00  0.00     0.049 C 
ENDBRANCH  20  21
ENDBRANCH  18  20
ENDBRANCH  13  18
ENDBRANCH   9  12
ENDBRANCH   6   8
BRANCH   6  23
ATOM     23  C   UNL A   1      33.499  26.903  25.726  1.00  0.00     0.035 C 
ATOM     24  C   UNL A   1      33.732  27.229  24.241  1.00  0.00     0.007 C 
ENDBRANCH   6  23
ENDBRANCH   3   6
ENDBRANCH   1   2
BRANCH   1  25
ATOM     25  C   UNL A   1      31.333  31.094  25.786  1.00  0.00     0.023 C 
BRANCH  25  26
ATOM     26  C   UNL A   1      31.374  31.973  27.039  1.00  0.00     0.023 C 
BRANCH  26  27
ATOM     27  C   UNL A   1      32.663  32.770  27.183  1.00  0.00     0.116 C 
BRANCH  27  28
ATOM     28  N   UNL A   1      32.399  34.167  27.491  1.00  0.00    -0.352 N 
ATOM     29  C   UNL A   1      32.951  34.944  28.476  1.00  0.00     0.251 C 
ATOM     30  H   UNL A   1      31.734  34.613  26.916  1.00  0.00     0.163 HD
ATOM     31  O   UNL A   1      32.457  36.025  28.772  1.00  0.00    -0.269 OA
BRANCH  29  32
ATOM     32  C   UNL A   1      34.140  34.443  29.188  1.00  0.00     0.039 A 
ATOM     33  C   UNL A   1      33.973  33.802  30.416  1.00  0.00     0.014 A 
ATOM     34  C   UNL A   1      35.410  34.571  28.615  1.00  0.00     0.014 A 
ATOM     35  C   UNL A   1      35.079  33.227  31.041  1.00  0.00     0.010 A 
ATOM     36  C   UNL A   1      36.494  33.929  29.199  1.00  0.00     0.010 A 
ATOM     37  C   UNL A   1      36.338  33.249  30.416  1.00  0.00    -0.014 A 
BRANCH  37  38
ATOM     38  C   UNL A   1      37.496  32.540  31.012  1.00  0.00     0.031 A 
ATOM     39  C   UNL A   1      38.095  33.016  32.304  1.00  0.00     0.074 A 
ATOM     40  C   UNL A   1      38.044  31.502  30.350  1.00  0.00     0.049 A 
ATOM     41  N   UNL A   1      39.134  32.552  32.952  1.00  0.00    -0.248 NA
ATOM     42  C   UNL A   1      37.459  34.180  32.942  1.00  0.00     0.031 C 
ATOM     43  C   UNL A   1      37.582  30.981  29.062  1.00  0.00     0.029 A 
ATOM     44  N   UNL A   1      39.113  30.703  30.667  1.00  0.00    -0.354 N 
ATOM     45  C   UNL A   1      39.278  33.368  34.066  1.00  0.00     0.074 A 
ATOM     46  C   UNL A   1      38.260  34.392  33.977  1.00  0.00     0.031 C 
ATOM     47  C   UNL A   1      38.344  29.933  28.713  1.00  0.00     0.029 A 
ATOM     48  C   UNL A   1      39.375  29.737  29.727  1.00  0.00     0.049 A 
ATOM     49  H   UNL A   1      39.642  30.811  31.490  1.00  0.00     0.167 HD
ATOM     50  C   UNL A   1      40.166  33.261  35.083  1.00  0.00     0.037 A 
ATOM     51  C   UNL A   1      40.344  28.804  29.680  1.00  0.00     0.037 A 
ATOM     52  C   UNL A   1      41.173  32.235  35.169  1.00  0.00     0.049 A 
ATOM     53  C   UNL A   1      41.337  28.725  30.807  1.00  0.00     0.074 A 
ATOM     54  C   UNL A   1      42.082  32.003  36.187  1.00  0.00     0.029 A 
ATOM     55  N   UNL A   1      41.411  31.276  34.195  1.00  0.00    -0.354 N 
ATOM     56  N   UNL A   1      41.413  29.453  31.894  1.00  0.00    -0.248 NA
ATOM     57  C   UNL A   1      42.378  27.694  30.700  1.00  0.00     0.031 C 
ATOM     58  C   UNL A   1      42.909  30.943  35.802  1.00  0.00     0.029 A 
ATOM     59  C   UNL A   1      42.476  30.473  34.572  1.00  0.00     0.049 A 
ATOM     60  H   UNL A   1      40.899  31.180  33.359  1.00  0.00     0.167 HD
ATOM     61  C   UNL A   1      42.493  28.956  32.612  1.00  0.00     0.074 A 
ATOM     62  C   UNL A   1      43.027  27.848  31.845  1.00  0.00     0.031 C 
ATOM     63  C   UNL A   1      43.000  29.378  33.796  1.00  0.00     0.037 A 
BRANCH  50  64
ATOM     64  C   UNL A   1      40.091  34.280  36.182  1.00  0.00     0.057 A 
ATOM     65  C   UNL A   1      40.796  35.491  36.121  1.00  0.00     0.134 A 
ATOM     66  C   UNL A   1      39.271  34.069  37.299  1.00  0.00     0.134 A 
ATOM     67  F   UNL A   1      41.607  35.752  35.085  1.00  0.00    -0.206 F 
ATOM     68  C   UNL A   1      40.711  36.438  37.142  1.00  0.00     0.040 A 
ATOM     69  C   UNL A   1      39.154  35.023  38.311  1.00  0.00     0.040 A 
ATOM     70  F   UNL A   1      38.563  32.936  37.420  1.00  0.00    -0.206 F 
ATOM     71  C   UNL A   1      39.881  36.209  38.238  1.00  0.00     0.006 A 
ENDBRANCH  50  64
BRANCH  51  72
ATOM     72  C   UNL A   1      40.421  27.866  28.532  1.00  0.00     0.057 A 
ATOM     73  C   UNL A   1      39.787  26.618  28.573  1.00  0.00     0.134 A 
ATOM     74  C   UNL A   1      41.137  28.185  27.371  1.00  0.00     0.134 A 
ATOM     75  F   UNL A   1      39.101  26.245  29.663  1.00  0.00    -0.206 F 
ATOM     76  C   UNL A   1      39.880  25.714  27.512  1.00  0.00     0.040 A 
ATOM     77  C   UNL A   1      41.214  27.305  26.292  1.00  0.00     0.040 A 
ATOM     78  F   UNL A   1      41.760  29.368  27.264  1.00  0.00    -0.206 F 
ATOM     79  C   UNL A   1      40.592  26.060  26.365  1.00  0.00     0.006 A 
ENDBRANCH  51  72
BRANCH  63  80
ATOM     80  C   UNL A   1      44.181  28.628  34.343  1.00  0.00     0.057 A 
ATOM     81  C   UNL A   1      44.026  27.485  35.139  1.00  0.00     0.134 A 
ATOM     82  C   UNL A   1      45.487  29.035  34.044  1.00  0.00     0.134 A 
ATOM     83  F   UNL A   1      42.802  27.050  35.475  1.00  0.00    -0.206 F 
ATOM     84  C   UNL A   1      45.130  26.790  35.638  1.00  0.00     0.040 A 
ATOM     85  C   UNL A   1      46.597  28.329  34.510  1.00  0.00     0.040 A 
ATOM     86  F   UNL A   1      45.707  30.115  33.280  1.00  0.00    -0.206 F 
ATOM     87  C   UNL A   1      46.420  27.208  35.317  1.00  0.00     0.006 A 
ENDBRANCH  63  80
ENDBRANCH  37  38
ENDBRANCH  29  32
ENDBRANCH  27  28
ENDBRANCH  26  27
ENDBRANCH  25  26
ENDBRANCH   1  25
TORSDOF 17
ENDMDL
MODEL 2
REMARK VINA RESULT:     -10.9      4.199      9.101
REMARK SMILES CCOC(=O)[C@H]1CCCN(C(=O)N[C@](C)(CC)C(=O)NCCCCNC(=O)c2ccc(-c3c4nc(c(-c5c(F)cccc5F)c5ccc([nH]5)c(-c5c(F)cccc5F)c5nc(c(-c6c(F)cccc6F)c6ccc3[nH]6)C=C5)C=C4)cc2)C1
REMARK SMILES IDX 21 1 20 2 18 3 19 4 14 6 15 7 13 8 11 9 12 10 10 12 6 13
REMARK SMILES IDX 7 14 82 15 8 16 9 17 4 18 5 19 3 20 2 21 1 22 16 23 17 24
REMARK SMILES IDX 22 25 23 26 24 27 25 28 26 29 27 31 28 32 29 33 81 34 30 35
REMARK SMILES IDX 80 36 31 37 32 38 33 39 74 40 34 41 79 42 73 43 75 44 35 45
REMARK SMILES IDX 78 46 72 47 71 48 36 50 62 51 45 52 61 53 46 54 49 55 60 56
REMARK SMILES IDX 76 57 47 58 48 59 59 61 77 62 50 63 37 64 38 65 43 66 39 67
REMARK SMILES IDX 40 68 42 69 44 70 41 71 63 72 64 73 69 74 65 75 66 76 68 77
REMARK SMILES IDX 70 78 67 79 51 80 52 81 57 82 53 83 54 84 56 85 58 86 55 87
REMARK H PARENT 20 5 13 11 25 30 75 49 49 60
REMARK Flexibility Score: inf
ROOT
ATOM      1  C   UNL A   1      35.191  21.780  24.506  1.00  0.00     0.116 C 
ENDROOT
BRANCH   1   2
ATOM      2  N   UNL A   1      33.877  21.183  24.391  1.00  0.00    -0.354 N 
ATOM      3  C   UNL A   1      32.684  21.651  24.860  1.00  0.00     0.245 C 
ATOM      4  O   UNL A   1      31.840  20.807  25.181  1.00  0.00    -0.272 OA
ATOM      5  H   UNL A   1      33.839  20.325  23.909  1.00  0.00     0.163 HD
BRANCH   3   6
ATOM      6  C   UNL A   1      32.437  23.190  25.017  1.00  0.00     0.117 C 
ATOM      7  C   UNL A   1      33.641  24.031  25.517  1.00  0.00     0.045 C 
BRANCH   6   8
ATOM      8  N   UNL A   1      31.303  23.375  25.981  1.00  0.00    -0.324 N 
ATOM      9  C   UNL A   1      30.507  24.402  26.391  1.00  0.00     0.318 C 
ATOM     10  O   UNL A   1      29.618  24.076  27.185  1.00  0.00    -0.249 OA
ATOM     11  H   UNL A   1      31.074  22.533  26.437  1.00  0.00     0.166 HD
BRANCH   9  12
ATOM     12  N   UNL A   1      30.663  25.714  25.998  1.00  0.00    -0.324 N 
ATOM     13  C   UNL A   1      30.622  27.124  23.909  1.00  0.00     0.119 C 
ATOM     14  C   UNL A   1      31.537  28.129  24.633  1.00  0.00     0.019 C 
ATOM     15  C   UNL A   1      29.805  26.276  24.910  1.00  0.00     0.136 C 
ATOM     16  C   UNL A   1      32.395  27.425  25.637  1.00  0.00     0.023 C 
ATOM     17  C   UNL A   1      31.494  26.726  26.618  1.00  0.00     0.121 C 
BRANCH  13  18
ATOM     18  C   UNL A   1      29.790  27.884  22.878  1.00  0.00     0.310 C 
ATOM     19  O   UNL A   1      30.202  28.396  21.855  1.00  0.00    -0.252 OA
BRANCH  18  20
ATOM     20  O   UNL A   1      28.522  28.009  23.371  1.00  0.00    -0.466 OA
BRANCH  20  21
ATOM     21  C   UNL A   1      27.574  28.882  22.757  1.00  0.00     0.229 C 
ATOM     22  C   UNL A   1      27.717  30.259  23.371  1.00  0.00     0.049 C 
ENDBRANCH  20  21
ENDBRANCH  18  20
ENDBRANCH  13  18
ENDBRANCH   9  12
ENDBRANCH   6   8
BRANCH   6  23
ATOM     23  C   UNL A   1      32.109  23.696  23.573  1.00  0.00     0.035 C 
ATOM     24  C   UNL A   1      33.170  24.663  23.022  1.00  0.00     0.007 C 
ENDBRANCH   6  23
ENDBRANCH   3   6
ENDBRANCH   1   2
BRANCH   1  25
ATOM     25  C   UNL A   1      36.061  20.853  25.352  1.00  0.00     0.023 C 
BRANCH  25  26
ATOM     26  C   UNL A   1      37.422  20.571  24.708  1.00  0.00     0.023 C 
BRANCH  26  27
ATOM     27  C   UNL A   1      38.603  20.861  25.626  1.00  0.00     0.116 C 
BRANCH  27  28
ATOM     28  N   UNL A   1      39.523  19.737  25.686  1.00  0.00    -0.352 N 
ATOM     29  C   UNL A   1      40.861  19.745  25.986  1.00  0.00     0.251 C 
ATOM     30  H   UNL A   1      39.134  18.854  25.486  1.00  0.00     0.163 HD
ATOM     31  O   UNL A   1      41.559  18.763  25.759  1.00  0.00    -0.269 OA
BRANCH  29  32
ATOM     32  C   UNL A   1      41.449  20.965  26.565  1.00  0.00     0.039 A 
ATOM     33  C   UNL A   1      42.050  21.896  25.717  1.00  0.00     0.014 A 
ATOM     34  C   UNL A   1      41.363  21.203  27.941  1.00  0.00     0.014 A 
ATOM     35  C   UNL A   1      42.507  23.102  26.243  1.00  0.00     0.010 A 
ATOM     36  C   UNL A   1      41.748  22.437  28.449  1.00  0.00     0.010 A 
ATOM     37  C   UNL A   1      42.321  23.399  27.604  1.00  0.00    -0.014 A 
BRANCH  37  38
ATOM     38  C   UNL A   1      42.695  24.725  28.153  1.00  0.00     0.031 A 
ATOM     39  C   UNL A   1      41.651  25.785  28.354  1.00  0.00     0.074 A 
ATOM     40  C   UNL A   1      43.991  24.989  28.411  1.00  0.00     0.049 A 
ATOM     41  N   UNL A   1      41.796  27.015  28.779  1.00  0.00    -0.248 NA
ATOM     42  C   UNL A   1      40.265  25.427  28.011  1.00  0.00     0.031 C 
ATOM     43  C   UNL A   1      45.101  24.056  28.208  1.00  0.00     0.029 A 
ATOM     44  N   UNL A   1      44.593  26.121  28.895  1.00  0.00    -0.354 N 
ATOM     45  C   UNL A   1      40.526  27.576  28.749  1.00  0.00     0.074 A 
ATOM     46  C   UNL A   1      39.632  26.575  28.209  1.00  0.00     0.031 C 
ATOM     47  C   UNL A   1      46.245  24.644  28.591  1.00  0.00     0.029 A 
ATOM     48  C   UNL A   1      45.957  26.008  29.022  1.00  0.00     0.049 A 
ATOM     49  H   UNL A   1      44.097  26.939  29.130  1.00  0.00     0.167 HD
ATOM     50  C   UNL A   1      40.137  28.808  29.156  1.00  0.00     0.037 A 
ATOM     51  C   UNL A   1      46.874  26.905  29.429  1.00  0.00     0.037 A 
ATOM     52  C   UNL A   1      41.030  29.797  29.700  1.00  0.00     0.049 A 
ATOM     53  C   UNL A   1      46.419  28.276  29.847  1.00  0.00     0.074 A 
ATOM     54  C   UNL A   1      40.725  31.053  30.197  1.00  0.00     0.029 A 
ATOM     55  N   UNL A   1      42.405  29.648  29.808  1.00  0.00    -0.354 N 
ATOM     56  N   UNL A   1      45.204  28.767  29.890  1.00  0.00    -0.248 NA
ATOM     57  C   UNL A   1      47.463  29.218  30.274  1.00  0.00     0.031 C 
ATOM     58  C   UNL A   1      41.922  31.686  30.550  1.00  0.00     0.029 A 
ATOM     59  C   UNL A   1      42.967  30.802  30.331  1.00  0.00     0.049 A 
ATOM     60  H   UNL A   1      42.908  28.841  29.553  1.00  0.00     0.167 HD
ATOM     61  C   UNL A   1      45.333  30.064  30.368  1.00  0.00     0.074 A 
ATOM     62  C   UNL A   1      46.744  30.275  30.624  1.00  0.00     0.031 C 
ATOM     63  C   UNL A   1      44.373  30.999  30.574  1.00  0.00     0.037 A 
BRANCH  50  64
ATOM     64  C   UNL A   1      38.682  29.155  29.025  1.00  0.00     0.057 A 
ATOM     65  C   UNL A   1      37.798  29.068  30.110  1.00  0.00     0.134 A 
ATOM     66  C   UNL A   1      38.164  29.620  27.809  1.00  0.00     0.134 A 
ATOM     67  F   UNL A   1      38.225  28.619  31.299  1.00  0.00    -0.206 F 
ATOM     68  C   UNL A   1      36.449  29.403  29.982  1.00  0.00     0.040 A 
ATOM     69  C   UNL A   1      36.824  29.989  27.678  1.00  0.00     0.040 A 
ATOM     70  F   UNL A   1      38.955  29.735  26.731  1.00  0.00    -0.206 F 
ATOM     71  C   UNL A   1      35.961  29.874  28.765  1.00  0.00     0.006 A 
ENDBRANCH  50  64
BRANCH  51  72
ATOM     72  C   UNL A   1      48.311  26.536  29.469  1.00  0.00     0.057 A 
ATOM     73  C   UNL A   1      49.148  26.762  28.369  1.00  0.00     0.134 A 
ATOM     74  C   UNL A   1      48.883  25.941  30.601  1.00  0.00     0.134 A 
ATOM     75  F   UNL A   1      48.656  27.312  27.249  1.00  0.00    -0.206 F 
ATOM     76  C   UNL A   1      50.494  26.390  28.384  1.00  0.00     0.040 A 
ATOM     77  C   UNL A   1      50.233  25.591  30.641  1.00  0.00     0.040 A 
ATOM     78  F   UNL A   1      48.139  25.706  31.691  1.00  0.00    -0.206 F 
ATOM     79  C   UNL A   1      51.041  25.806  29.526  1.00  0.00     0.006 A 
ENDBRANCH  51  72
BRANCH  63  80
ATOM     80  C   UNL A   1      44.814  32.327  31.121  1.00  0.00     0.057 A 
ATOM     81  C   UNL A   1      45.122  33.407  30.283  1.00  0.00     0.134 A 
ATOM     82  C   UNL A   1      44.900  32.537  32.503  1.00  0.00     0.134 A 
ATOM     83  F   UNL A   1      45.074  33.267  28.949  1.00  0.00    -0.206 F 
ATOM     84  C   UNL A   1      45.525  34.639  30.800  1.00  0.00     0.040 A 
ATOM     85  C   UNL A   1      45.269  33.774  33.032  1.00  0.00     0.040 A 
ATOM     86  F   UNL A   1      44.610  31.549  33.363  1.00  0.00    -0.206 F 
ATOM     87  C   UNL A   1      45.591  34.828  32.179  1.00  0.00     0.006 A 
ENDBRANCH  63  80
ENDBRANCH  37  38
ENDBRANCH  29  32
ENDBRANCH  27  28
ENDBRANCH  26  27
ENDBRANCH  25  26
ENDBRANCH   1  25
TORSDOF 17
ENDMDL
MODEL 3
REMARK VINA RESULT:     -10.9      5.066      9.609
REMARK SMILES CCOC(=O)[C@H]1CCCN(C(=O)N[C@](C)(CC)C(=O)NCCCCNC(=O)c2ccc(-c3c4nc(c(-c5c(F)cccc5F)c5ccc([nH]5)c(-c5c(F)cccc5F)c5nc(c(-c6c(F)cccc6F)c6ccc3[nH]6)C=C5)C=C4)cc2)C1
REMARK SMILES IDX 21 1 20 2 18 3 19 4 14 6 15 7 13 8 11 9 12 10 10 12 6 13
REMARK SMILES IDX 7 14 82 15 8 16 9 17 4 18 5 19 3 20 2 21 1 22 16 23 17 24
REMARK SMILES IDX 22 25 23 26 24 27 25 28 26 29 27 31 28 32 29 33 81 34 30 35
REMARK SMILES IDX 80 36 31 37 32 38 33 39 74 40 34 41 79 42 73 43 75 44 35 45
REMARK SMILES IDX 78 46 72 47 71 48 36 50 62 51 45 52 61 53 46 54 49 55 60 56
REMARK SMILES IDX 76 57 47 58 48 59 59 61 77 62 50 63 37 64 38 65 43 66 39 67
REMARK SMILES IDX 40 68 42 69 44 70 41 71 63 72 64 73 69 74 65 75 66 76 68 77
REMARK SMILES IDX 70 78 67 79 51 80 52 81 57 82 53 83 54 84 56 85 58 86 55 87
REMARK H PARENT 20 5 13 11 25 30 75 49 49 60
REMARK Flexibility Score: inf
ROOT
ATOM      1  C   UNL A   1      35.830  21.304  24.614  1.00  0.00     0.116 C 
ENDROOT
BRANCH   1   2
ATOM      2  N   UNL A   1      35.385  21.165  25.986  1.00  0.00    -0.354 N 
ATOM      3  C   UNL A   1      34.161  21.452  26.518  1.00  0.00     0.245 C 
ATOM      4  O   UNL A   1      34.137  21.819  27.697  1.00  0.00    -0.272 OA
ATOM      5  H   UNL A   1      36.054  20.815  26.618  1.00  0.00     0.163 HD
BRANCH   3   6
ATOM      6  C   UNL A   1      32.867  21.355  25.640  1.00  0.00     0.117 C 
ATOM      7  C   UNL A   1      32.950  21.978  24.222  1.00  0.00     0.045 C 
BRANCH   6   8
ATOM      8  N   UNL A   1      31.758  22.035  26.386  1.00  0.00    -0.324 N 
ATOM      9  C   UNL A   1      31.283  23.306  26.517  1.00  0.00     0.318 C 
ATOM     10  O   UNL A   1      30.263  23.403  27.208  1.00  0.00    -0.249 OA
ATOM     11  H   UNL A   1      31.234  21.395  26.920  1.00  0.00     0.166 HD
BRANCH   9  12
ATOM     12  N   UNL A   1      31.877  24.420  25.965  1.00  0.00    -0.324 N 
ATOM     13  C   UNL A   1      32.130  25.572  23.736  1.00  0.00     0.119 C 
ATOM     14  C   UNL A   1      33.435  26.195  24.266  1.00  0.00     0.019 C 
ATOM     15  C   UNL A   1      31.175  25.186  24.890  1.00  0.00     0.136 C 
ATOM     16  C   UNL A   1      34.072  25.293  25.274  1.00  0.00     0.023 C 
ATOM     17  C   UNL A   1      33.095  25.075  26.397  1.00  0.00     0.121 C 
BRANCH  13  18
ATOM     18  C   UNL A   1      31.534  26.514  22.693  1.00  0.00     0.310 C 
ATOM     19  O   UNL A   1      31.395  26.282  21.507  1.00  0.00    -0.252 OA
BRANCH  18  20
ATOM     20  O   UNL A   1      31.307  27.719  23.295  1.00  0.00    -0.466 OA
BRANCH  20  21
ATOM     21  C   UNL A   1      30.754  28.815  22.568  1.00  0.00     0.229 C 
ATOM     22  C   UNL A   1      29.910  29.645  23.513  1.00  0.00     0.049 C 
ENDBRANCH  20  21
ENDBRANCH  18  20
ENDBRANCH  13  18
ENDBRANCH   9  12
ENDBRANCH   6   8
BRANCH   6  23
ATOM     23  C   UNL A   1      32.628  19.822  25.440  1.00  0.00     0.035 C 
ATOM     24  C   UNL A   1      32.545  19.417  23.958  1.00  0.00     0.007 C 
ENDBRANCH   6  23
ENDBRANCH   3   6
ENDBRANCH   1   2
BRANCH   1  25
ATOM     25  C   UNL A   1      37.351  21.440  24.621  1.00  0.00     0.023 C 
BRANCH  25  26
ATOM     26  C   UNL A   1      38.058  20.138  25.006  1.00  0.00     0.023 C 
BRANCH  26  27
ATOM     27  C   UNL A   1      39.150  20.322  26.052  1.00  0.00     0.116 C 
BRANCH  27  28
ATOM     28  N   UNL A   1      40.079  19.203  26.060  1.00  0.00    -0.352 N 
ATOM     29  C   UNL A   1      41.449  19.231  26.098  1.00  0.00     0.251 C 
ATOM     30  H   UNL A   1      39.670  18.307  26.033  1.00  0.00     0.163 HD
ATOM     31  O   UNL A   1      42.104  18.225  25.853  1.00  0.00    -0.269 OA
BRANCH  29  32
ATOM     32  C   UNL A   1      42.121  20.503  26.420  1.00  0.00     0.039 A 
ATOM     33  C   UNL A   1      42.609  21.293  25.379  1.00  0.00     0.014 A 
ATOM     34  C   UNL A   1      42.225  20.928  27.749  1.00  0.00     0.014 A 
ATOM     35  C   UNL A   1      43.144  22.547  25.667  1.00  0.00     0.010 A 
ATOM     36  C   UNL A   1      42.686  22.208  28.026  1.00  0.00     0.010 A 
ATOM     37  C   UNL A   1      43.147  23.031  26.987  1.00  0.00    -0.014 A 
BRANCH  37  38
ATOM     38  C   UNL A   1      43.603  24.408  27.293  1.00  0.00     0.031 A 
ATOM     39  C   UNL A   1      42.618  25.457  27.723  1.00  0.00     0.074 A 
ATOM     40  C   UNL A   1      44.902  24.724  27.122  1.00  0.00     0.049 A 
ATOM     41  N   UNL A   1      42.824  26.722  27.988  1.00  0.00    -0.248 NA
ATOM     42  C   UNL A   1      41.213  25.037  27.848  1.00  0.00     0.031 C 
ATOM     43  C   UNL A   1      45.944  23.804  26.660  1.00  0.00     0.029 A 
ATOM     44  N   UNL A   1      45.566  25.909  27.311  1.00  0.00    -0.354 N 
ATOM     45  C   UNL A   1      41.579  27.248  28.305  1.00  0.00     0.074 A 
ATOM     46  C   UNL A   1      40.614  26.182  28.142  1.00  0.00     0.031 C 
ATOM     47  C   UNL A   1      47.119  24.450  26.629  1.00  0.00     0.029 A 
ATOM     48  C   UNL A   1      46.908  25.840  27.023  1.00  0.00     0.049 A 
ATOM     49  H   UNL A   1      45.124  26.732  27.623  1.00  0.00     0.167 HD
ATOM     50  C   UNL A   1      41.270  28.501  28.717  1.00  0.00     0.037 A 
ATOM     51  C   UNL A   1      47.859  26.791  27.060  1.00  0.00     0.037 A 
ATOM     52  C   UNL A   1      42.237  29.555  28.885  1.00  0.00     0.049 A 
ATOM     53  C   UNL A   1      47.485  28.182  27.492  1.00  0.00     0.074 A 
ATOM     54  C   UNL A   1      42.035  30.842  29.354  1.00  0.00     0.029 A 
ATOM     55  N   UNL A   1      43.585  29.448  28.578  1.00  0.00    -0.354 N 
ATOM     56  N   UNL A   1      46.317  28.645  27.866  1.00  0.00    -0.248 NA
ATOM     57  C   UNL A   1      48.561  29.182  27.506  1.00  0.00     0.031 C 
ATOM     58  C   UNL A   1      43.249  31.531  29.275  1.00  0.00     0.029 A 
ATOM     59  C   UNL A   1      44.221  30.657  28.815  1.00  0.00     0.049 A 
ATOM     60  H   UNL A   1      44.026  28.634  28.243  1.00  0.00     0.167 HD
ATOM     61  C   UNL A   1      46.521  29.982  28.182  1.00  0.00     0.074 A 
ATOM     62  C   UNL A   1      47.931  30.248  27.977  1.00  0.00     0.031 C 
ATOM     63  C   UNL A   1      45.624  30.908  28.601  1.00  0.00     0.037 A 
BRANCH  50  64
ATOM     64  C   UNL A   1      39.829  28.800  29.011  1.00  0.00     0.057 A 
ATOM     65  C   UNL A   1      39.299  28.697  30.305  1.00  0.00     0.134 A 
ATOM     66  C   UNL A   1      38.967  29.236  27.996  1.00  0.00     0.134 A 
ATOM     67  F   UNL A   1      40.066  28.274  31.321  1.00  0.00    -0.206 F 
ATOM     68  C   UNL A   1      37.961  28.988  30.572  1.00  0.00     0.040 A 
ATOM     69  C   UNL A   1      37.635  29.560  28.257  1.00  0.00     0.040 A 
ATOM     70  F   UNL A   1      39.409  29.364  26.735  1.00  0.00    -0.206 F 
ATOM     71  C   UNL A   1      37.126  29.430  29.547  1.00  0.00     0.006 A 
ENDBRANCH  50  64
BRANCH  51  72
ATOM     72  C   UNL A   1      49.258  26.461  26.687  1.00  0.00     0.057 A 
ATOM     73  C   UNL A   1      49.729  26.671  25.385  1.00  0.00     0.134 A 
ATOM     74  C   UNL A   1      50.156  25.920  27.615  1.00  0.00     0.134 A 
ATOM     75  F   UNL A   1      48.912  27.169  24.444  1.00  0.00    -0.206 F 
ATOM     76  C   UNL A   1      51.032  26.335  25.014  1.00  0.00     0.040 A 
ATOM     77  C   UNL A   1      51.470  25.607  27.267  1.00  0.00     0.040 A 
ATOM     78  F   UNL A   1      49.771  25.704  28.882  1.00  0.00    -0.206 F 
ATOM     79  C   UNL A   1      51.909  25.805  25.960  1.00  0.00     0.006 A 
ENDBRANCH  51  72
BRANCH  63  80
ATOM     80  C   UNL A   1      46.143  32.289  28.883  1.00  0.00     0.057 A 
ATOM     81  C   UNL A   1      46.655  32.644  30.139  1.00  0.00     0.134 A 
ATOM     82  C   UNL A   1      46.163  33.264  27.878  1.00  0.00     0.134 A 
ATOM     83  F   UNL A   1      46.652  31.761  31.149  1.00  0.00    -0.206 F 
ATOM     84  C   UNL A   1      47.142  33.928  30.390  1.00  0.00     0.040 A 
ATOM     85  C   UNL A   1      46.677  34.540  28.109  1.00  0.00     0.040 A 
ATOM     86  F   UNL A   1      45.697  32.989  26.651  1.00  0.00    -0.206 F 
ATOM     87  C   UNL A   1      47.161  34.878  29.371  1.00  0.00     0.006 A 
ENDBRANCH  63  80
ENDBRANCH  37  38
ENDBRANCH  29  32
ENDBRANCH  27  28
ENDBRANCH  26  27
ENDBRANCH  25  26
ENDBRANCH   1  25
TORSDOF 17
ENDMDL
