MODEL 1
REMARK VINA RESULT:     -12.7      0.000      0.000
REMARK SMILES Cc1ccc(CN(CC(=O)NCCCCNC(=O)c2ccc(-c3c4nc(c(-c5c(F)cccc5F)c5ccc([nH]5)c(-c5c(F)cccc5F)c5nc(c(-c6c(F)cccc6F)c6ccc3[nH]6)C=C5)C=C4)cc2)C(=O)c2cc3c(s2)CCOC3)cc1
REMARK SMILES IDX 13 1 12 2 11 3 9 4 10 5 8 7 7 8 6 9 5 10 1 11 2 12 3 13
REMARK SMILES IDX 85 14 4 15 84 16 73 17 74 18 75 19 76 20 79 21 77 22 78 23
REMARK SMILES IDX 83 24 80 25 82 26 81 27 14 28 15 29 16 30 17 31 18 33 19 34
REMARK SMILES IDX 20 35 72 36 21 37 71 38 22 39 23 40 24 41 65 42 25 43 70 44
REMARK SMILES IDX 64 45 66 46 26 47 69 48 63 49 62 50 27 52 53 53 36 54 52 55
REMARK SMILES IDX 37 56 40 57 51 58 67 59 38 60 39 61 50 63 68 64 41 65 28 66
REMARK SMILES IDX 29 67 34 68 30 69 31 70 33 71 35 72 32 73 54 74 55 75 60 76
REMARK SMILES IDX 56 77 57 78 59 79 61 80 58 81 42 82 43 83 48 84 44 85 45 86
REMARK SMILES IDX 47 87 49 88 46 89
REMARK H PARENT 11 6 16 32 66 51 40 62
REMARK Flexibility Score: inf
ROOT
ATOM      1  C   UNL A   1      32.236  28.442  27.301  1.00  0.00     0.023 C 
ENDROOT
BRANCH   1   2
ATOM      2  C   UNL A   1      32.385  27.288  26.301  1.00  0.00     0.116 C 
BRANCH   2   3
ATOM      3  N   UNL A   1      31.547  26.129  26.548  1.00  0.00    -0.355 N 
ATOM      4  C   UNL A   1      31.852  24.803  26.634  1.00  0.00     0.239 C 
ATOM      5  O   UNL A   1      31.040  24.093  27.239  1.00  0.00    -0.273 OA
ATOM      6  H   UNL A   1      30.593  26.337  26.675  1.00  0.00     0.163 HD
BRANCH   4   7
ATOM      7  C   UNL A   1      33.168  24.191  26.118  1.00  0.00     0.220 C 
BRANCH   7   8
ATOM      8  N   UNL A   1      33.233  23.899  24.687  1.00  0.00    -0.324 N 
BRANCH   8   9
ATOM      9  C   UNL A   1      34.466  24.241  23.983  1.00  0.00     0.156 C 
BRANCH   9  10
ATOM     10  C   UNL A   1      35.695  23.540  24.505  1.00  0.00    -0.029 A 
ATOM     11  C   UNL A   1      39.221  21.624  26.088  1.00  0.00     0.044 C 
ATOM     12  C   UNL A   1      37.988  22.287  25.551  1.00  0.00    -0.051 A 
ATOM     13  C   UNL A   1      37.200  21.643  24.589  1.00  0.00     0.004 A 
ATOM     14  C   UNL A   1      37.623  23.563  25.987  1.00  0.00     0.004 A 
ATOM     15  C   UNL A   1      36.059  22.263  24.070  1.00  0.00     0.006 A 
ATOM     16  C   UNL A   1      36.488  24.182  25.469  1.00  0.00     0.006 A 
ENDBRANCH   9  10
ENDBRANCH   8   9
BRANCH   8  17
ATOM     17  C   UNL A   1      32.218  23.235  23.968  1.00  0.00     0.264 C 
ATOM     18  O   UNL A   1      31.375  23.878  23.341  1.00  0.00    -0.268 OA
BRANCH  17  19
ATOM     19  C   UNL A   1      32.215  21.778  23.966  1.00  0.00     0.093 A 
ATOM     20  C   UNL A   1      32.273  20.869  25.008  1.00  0.00     0.032 A 
ATOM     21  S   UNL A   1      32.092  20.974  22.451  1.00  0.00    -0.135 S 
ATOM     22  C   UNL A   1      32.461  19.533  24.546  1.00  0.00    -0.008 A 
ATOM     23  C   UNL A   1      32.334  19.463  23.176  1.00  0.00     0.013 A 
ATOM     24  C   UNL A   1      32.803  18.318  25.356  1.00  0.00     0.196 C 
ATOM     25  C   UNL A   1      32.426  18.174  22.428  1.00  0.00     0.075 C 
ATOM     26  O   UNL A   1      32.703  17.089  24.604  1.00  0.00    -0.376 OA
ATOM     27  C   UNL A   1      33.259  17.203  23.280  1.00  0.00     0.166 C 
ENDBRANCH  17  19
ENDBRANCH   8  17
ENDBRANCH   7   8
ENDBRANCH   4   7
ENDBRANCH   2   3
ENDBRANCH   1   2
BRANCH   1  28
ATOM     28  C   UNL A   1      33.519  29.076  27.828  1.00  0.00     0.023 C 
BRANCH  28  29
ATOM     29  C   UNL A   1      33.827  30.444  27.251  1.00  0.00     0.116 C 
BRANCH  29  30
ATOM     30  N   UNL A   1      34.424  31.393  28.182  1.00  0.00    -0.352 N 
ATOM     31  C   UNL A   1      35.556  31.245  28.971  1.00  0.00     0.251 C 
ATOM     32  H   UNL A   1      33.961  32.258  28.261  1.00  0.00     0.163 HD
ATOM     33  O   UNL A   1      35.892  32.132  29.742  1.00  0.00    -0.269 OA
BRANCH  31  34
ATOM     34  C   UNL A   1      36.441  30.070  28.762  1.00  0.00     0.039 A 
ATOM     35  C   UNL A   1      36.664  29.224  29.855  1.00  0.00     0.014 A 
ATOM     36  C   UNL A   1      37.228  29.957  27.620  1.00  0.00     0.014 A 
ATOM     37  C   UNL A   1      37.846  28.492  29.916  1.00  0.00     0.010 A 
ATOM     38  C   UNL A   1      38.451  29.325  27.724  1.00  0.00     0.010 A 
ATOM     39  C   UNL A   1      38.791  28.665  28.908  1.00  0.00    -0.014 A 
BRANCH  39  40
ATOM     40  C   UNL A   1      40.197  28.316  29.071  1.00  0.00     0.031 A 
ATOM     41  C   UNL A   1      40.714  27.034  28.555  1.00  0.00     0.074 A 
ATOM     42  C   UNL A   1      41.035  29.208  29.645  1.00  0.00     0.049 A 
ATOM     43  N   UNL A   1      41.814  26.488  28.948  1.00  0.00    -0.248 NA
ATOM     44  C   UNL A   1      39.971  26.208  27.610  1.00  0.00     0.031 C 
ATOM     45  C   UNL A   1      42.495  29.178  29.661  1.00  0.00     0.029 A 
ATOM     46  N   UNL A   1      40.699  30.233  30.544  1.00  0.00    -0.354 N 
ATOM     47  C   UNL A   1      42.069  25.416  28.125  1.00  0.00     0.074 A 
ATOM     48  C   UNL A   1      40.832  25.206  27.417  1.00  0.00     0.031 C 
ATOM     49  C   UNL A   1      42.932  29.905  30.701  1.00  0.00     0.029 A 
ATOM     50  C   UNL A   1      41.765  30.304  31.467  1.00  0.00     0.049 A 
ATOM     51  H   UNL A   1      39.886  30.788  30.532  1.00  0.00     0.167 HD
ATOM     52  C   UNL A   1      43.344  24.936  28.054  1.00  0.00     0.037 A 
ATOM     53  C   UNL A   1      41.576  30.040  32.793  1.00  0.00     0.037 A 
ATOM     54  C   UNL A   1      44.155  25.478  29.150  1.00  0.00     0.049 A 
ATOM     55  C   UNL A   1      42.397  28.883  33.314  1.00  0.00     0.074 A 
ATOM     56  C   UNL A   1      45.132  26.457  29.217  1.00  0.00     0.029 A 
ATOM     57  N   UNL A   1      43.804  25.185  30.467  1.00  0.00    -0.354 N 
ATOM     58  N   UNL A   1      42.980  28.002  32.548  1.00  0.00    -0.248 NA
ATOM     59  C   UNL A   1      42.595  28.604  34.735  1.00  0.00     0.031 C 
ATOM     60  C   UNL A   1      45.296  26.818  30.581  1.00  0.00     0.029 A 
ATOM     61  C   UNL A   1      44.449  26.034  31.344  1.00  0.00     0.049 A 
ATOM     62  H   UNL A   1      43.181  24.471  30.734  1.00  0.00     0.167 HD
ATOM     63  C   UNL A   1      43.574  27.041  33.324  1.00  0.00     0.074 A 
ATOM     64  C   UNL A   1      43.332  27.480  34.686  1.00  0.00     0.031 C 
ATOM     65  C   UNL A   1      44.195  25.955  32.779  1.00  0.00     0.037 A 
BRANCH  52  66
ATOM     66  C   UNL A   1      43.941  24.176  26.874  1.00  0.00     0.057 A 
ATOM     67  C   UNL A   1      43.707  22.790  26.736  1.00  0.00     0.134 A 
ATOM     68  C   UNL A   1      44.842  24.688  25.917  1.00  0.00     0.134 A 
ATOM     69  F   UNL A   1      42.851  22.138  27.535  1.00  0.00    -0.206 F 
ATOM     70  C   UNL A   1      44.355  21.987  25.782  1.00  0.00     0.040 A 
ATOM     71  C   UNL A   1      45.479  23.901  24.946  1.00  0.00     0.040 A 
ATOM     72  F   UNL A   1      45.194  25.972  25.862  1.00  0.00    -0.206 F 
ATOM     73  C   UNL A   1      45.253  22.540  24.885  1.00  0.00     0.006 A 
ENDBRANCH  52  66
BRANCH  53  74
ATOM     74  C   UNL A   1      40.225  30.421  33.282  1.00  0.00     0.057 A 
ATOM     75  C   UNL A   1      39.949  31.784  33.494  1.00  0.00     0.134 A 
ATOM     76  C   UNL A   1      39.132  29.558  33.178  1.00  0.00     0.134 A 
ATOM     77  F   UNL A   1      40.955  32.667  33.600  1.00  0.00    -0.206 F 
ATOM     78  C   UNL A   1      38.645  32.282  33.486  1.00  0.00     0.040 A 
ATOM     79  C   UNL A   1      37.820  30.046  33.179  1.00  0.00     0.040 A 
ATOM     80  F   UNL A   1      39.315  28.250  32.950  1.00  0.00    -0.206 F 
ATOM     81  C   UNL A   1      37.575  31.415  33.293  1.00  0.00     0.006 A 
ENDBRANCH  53  74
BRANCH  65  82
ATOM     82  C   UNL A   1      44.683  24.752  33.545  1.00  0.00     0.057 A 
ATOM     83  C   UNL A   1      46.032  24.380  33.657  1.00  0.00     0.134 A 
ATOM     84  C   UNL A   1      43.787  23.997  34.334  1.00  0.00     0.134 A 
ATOM     85  F   UNL A   1      47.003  25.076  33.051  1.00  0.00    -0.206 F 
ATOM     86  C   UNL A   1      46.452  23.300  34.447  1.00  0.00     0.040 A 
ATOM     87  C   UNL A   1      44.201  22.951  35.165  1.00  0.00     0.040 A 
ATOM     88  F   UNL A   1      42.471  24.259  34.346  1.00  0.00    -0.206 F 
ATOM     89  C   UNL A   1      45.538  22.588  35.213  1.00  0.00     0.006 A 
ENDBRANCH  65  82
ENDBRANCH  39  40
ENDBRANCH  31  34
ENDBRANCH  29  30
ENDBRANCH  28  29
ENDBRANCH   1  28
TORSDOF 16
ENDMDL
MODEL 2
REMARK VINA RESULT:     -12.6      3.977      9.333
REMARK SMILES Cc1ccc(CN(CC(=O)NCCCCNC(=O)c2ccc(-c3c4nc(c(-c5c(F)cccc5F)c5ccc([nH]5)c(-c5c(F)cccc5F)c5nc(c(-c6c(F)cccc6F)c6ccc3[nH]6)C=C5)C=C4)cc2)C(=O)c2cc3c(s2)CCOC3)cc1
REMARK SMILES IDX 13 1 12 2 11 3 9 4 10 5 8 7 7 8 6 9 5 10 1 11 2 12 3 13
REMARK SMILES IDX 85 14 4 15 84 16 73 17 74 18 75 19 76 20 79 21 77 22 78 23
REMARK SMILES IDX 83 24 80 25 82 26 81 27 14 28 15 29 16 30 17 31 18 33 19 34
REMARK SMILES IDX 20 35 72 36 21 37 71 38 22 39 23 40 24 41 65 42 25 43 70 44
REMARK SMILES IDX 64 45 66 46 26 47 69 48 63 49 62 50 27 52 53 53 36 54 52 55
REMARK SMILES IDX 37 56 40 57 51 58 67 59 38 60 39 61 50 63 68 64 41 65 28 66
REMARK SMILES IDX 29 67 34 68 30 69 31 70 33 71 35 72 32 73 54 74 55 75 60 76
REMARK SMILES IDX 56 77 57 78 59 79 61 80 58 81 42 82 43 83 48 84 44 85 45 86
REMARK SMILES IDX 47 87 49 88 46 89
REMARK H PARENT 11 6 16 32 66 51 40 62
REMARK Flexibility Score: inf
ROOT
ATOM      1  C   UNL A   1      37.031  22.940  24.656  1.00  0.00     0.023 C 
ENDROOT
BRANCH   1   2
ATOM      2  C   UNL A   1      35.592  23.471  24.693  1.00  0.00     0.116 C 
BRANCH   2   3
ATOM      3  N   UNL A   1      34.758  23.109  23.562  1.00  0.00    -0.355 N 
ATOM      4  C   UNL A   1      33.902  23.852  22.804  1.00  0.00     0.239 C 
ATOM      5  O   UNL A   1      33.638  23.406  21.681  1.00  0.00    -0.273 OA
ATOM      6  H   UNL A   1      34.822  22.164  23.296  1.00  0.00     0.163 HD
BRANCH   4   7
ATOM      7  C   UNL A   1      33.353  25.227  23.230  1.00  0.00     0.220 C 
BRANCH   7   8
ATOM      8  N   UNL A   1      32.188  25.216  24.114  1.00  0.00    -0.324 N 
BRANCH   8   9
ATOM      9  C   UNL A   1      32.431  25.324  25.551  1.00  0.00     0.156 C 
BRANCH   9  10
ATOM     10  C   UNL A   1      32.683  26.729  26.036  1.00  0.00    -0.029 A 
ATOM     11  C   UNL A   1      33.291  30.747  27.482  1.00  0.00     0.044 C 
ATOM     12  C   UNL A   1      33.079  29.345  26.994  1.00  0.00    -0.051 A 
ATOM     13  C   UNL A   1      34.140  28.624  26.432  1.00  0.00     0.004 A 
ATOM     14  C   UNL A   1      31.818  28.750  27.074  1.00  0.00     0.004 A 
ATOM     15  C   UNL A   1      33.945  27.323  25.957  1.00  0.00     0.006 A 
ATOM     16  C   UNL A   1      31.623  27.455  26.600  1.00  0.00     0.006 A 
ENDBRANCH   9  10
ENDBRANCH   8   9
BRANCH   8  17
ATOM     17  C   UNL A   1      30.853  25.194  23.664  1.00  0.00     0.264 C 
ATOM     18  O   UNL A   1      30.279  24.122  23.467  1.00  0.00    -0.268 OA
BRANCH  17  19
ATOM     19  C   UNL A   1      30.171  26.466  23.469  1.00  0.00     0.093 A 
ATOM     20  C   UNL A   1      28.884  26.865  23.787  1.00  0.00     0.032 A 
ATOM     21  S   UNL A   1      31.056  27.754  22.751  1.00  0.00    -0.135 S 
ATOM     22  C   UNL A   1      28.560  28.135  23.224  1.00  0.00    -0.008 A 
ATOM     23  C   UNL A   1      29.675  28.731  22.678  1.00  0.00     0.013 A 
ATOM     24  C   UNL A   1      27.212  28.789  23.145  1.00  0.00     0.196 C 
ATOM     25  C   UNL A   1      29.637  30.094  22.070  1.00  0.00     0.075 C 
ATOM     26  O   UNL A   1      27.276  30.166  22.710  1.00  0.00    -0.376 OA
ATOM     27  C   UNL A   1      28.193  30.358  21.616  1.00  0.00     0.166 C 
ENDBRANCH  17  19
ENDBRANCH   8  17
ENDBRANCH   7   8
ENDBRANCH   4   7
ENDBRANCH   2   3
ENDBRANCH   1   2
BRANCH   1  28
ATOM     28  C   UNL A   1      38.070  23.689  25.484  1.00  0.00     0.023 C 
BRANCH  28  29
ATOM     29  C   UNL A   1      38.808  22.829  26.492  1.00  0.00     0.116 C 
BRANCH  29  30
ATOM     30  N   UNL A   1      40.248  23.046  26.560  1.00  0.00    -0.352 N 
ATOM     31  C   UNL A   1      40.942  24.230  26.765  1.00  0.00     0.251 C 
ATOM     32  H   UNL A   1      40.804  22.242  26.444  1.00  0.00     0.163 HD
ATOM     33  O   UNL A   1      42.164  24.242  26.742  1.00  0.00    -0.269 OA
BRANCH  31  34
ATOM     34  C   UNL A   1      40.196  25.452  27.164  1.00  0.00     0.039 A 
ATOM     35  C   UNL A   1      40.403  26.613  26.410  1.00  0.00     0.014 A 
ATOM     36  C   UNL A   1      39.532  25.522  28.385  1.00  0.00     0.014 A 
ATOM     37  C   UNL A   1      40.220  27.854  27.012  1.00  0.00     0.010 A 
ATOM     38  C   UNL A   1      39.456  26.743  29.024  1.00  0.00     0.010 A 
ATOM     39  C   UNL A   1      39.883  27.898  28.363  1.00  0.00    -0.014 A 
BRANCH  39  40
ATOM     40  C   UNL A   1      40.088  29.078  29.194  1.00  0.00     0.031 A 
ATOM     41  C   UNL A   1      39.040  30.112  29.297  1.00  0.00     0.074 A 
ATOM     42  C   UNL A   1      41.225  29.185  29.917  1.00  0.00     0.049 A 
ATOM     43  N   UNL A   1      39.252  31.319  29.698  1.00  0.00    -0.248 NA
ATOM     44  C   UNL A   1      37.667  29.887  28.858  1.00  0.00     0.031 C 
ATOM     45  C   UNL A   1      41.510  30.125  30.998  1.00  0.00     0.029 A 
ATOM     46  N   UNL A   1      42.463  28.579  29.650  1.00  0.00    -0.354 N 
ATOM     47  C   UNL A   1      38.031  31.933  29.846  1.00  0.00     0.074 A 
ATOM     48  C   UNL A   1      37.105  31.056  29.179  1.00  0.00     0.031 C 
ATOM     49  C   UNL A   1      42.839  30.260  31.116  1.00  0.00     0.029 A 
ATOM     50  C   UNL A   1      43.445  29.522  30.022  1.00  0.00     0.049 A 
ATOM     51  H   UNL A   1      42.615  27.680  29.279  1.00  0.00     0.167 HD
ATOM     52  C   UNL A   1      37.950  33.040  30.640  1.00  0.00     0.037 A 
ATOM     53  C   UNL A   1      44.303  30.056  29.103  1.00  0.00     0.037 A 
ATOM     54  C   UNL A   1      39.291  33.558  30.934  1.00  0.00     0.049 A 
ATOM     55  C   UNL A   1      44.207  31.558  28.970  1.00  0.00     0.074 A 
ATOM     56  C   UNL A   1      40.104  33.512  32.053  1.00  0.00     0.029 A 
ATOM     57  N   UNL A   1      40.093  34.006  29.885  1.00  0.00    -0.354 N 
ATOM     58  N   UNL A   1      43.207  32.265  29.419  1.00  0.00    -0.248 NA
ATOM     59  C   UNL A   1      45.208  32.377  28.290  1.00  0.00     0.031 C 
ATOM     60  C   UNL A   1      41.425  33.844  31.647  1.00  0.00     0.029 A 
ATOM     61  C   UNL A   1      41.406  34.129  30.293  1.00  0.00     0.049 A 
ATOM     62  H   UNL A   1      39.767  34.207  28.978  1.00  0.00     0.167 HD
ATOM     63  C   UNL A   1      43.382  33.579  29.071  1.00  0.00     0.074 A 
ATOM     64  C   UNL A   1      44.664  33.603  28.393  1.00  0.00     0.031 C 
ATOM     65  C   UNL A   1      42.444  34.531  29.350  1.00  0.00     0.037 A 
BRANCH  52  66
ATOM     66  C   UNL A   1      36.695  33.526  31.358  1.00  0.00     0.057 A 
ATOM     67  C   UNL A   1      36.495  33.214  32.721  1.00  0.00     0.134 A 
ATOM     68  C   UNL A   1      35.593  34.182  30.769  1.00  0.00     0.134 A 
ATOM     69  F   UNL A   1      37.449  32.622  33.454  1.00  0.00    -0.206 F 
ATOM     70  C   UNL A   1      35.297  33.474  33.408  1.00  0.00     0.040 A 
ATOM     71  C   UNL A   1      34.400  34.467  31.450  1.00  0.00     0.040 A 
ATOM     72  F   UNL A   1      35.576  34.574  29.495  1.00  0.00    -0.206 F 
ATOM     73  C   UNL A   1      34.238  34.097  32.770  1.00  0.00     0.006 A 
ENDBRANCH  52  66
BRANCH  53  74
ATOM     74  C   UNL A   1      44.642  29.118  28.002  1.00  0.00     0.057 A 
ATOM     75  C   UNL A   1      45.582  28.101  28.253  1.00  0.00     0.134 A 
ATOM     76  C   UNL A   1      43.820  28.962  26.885  1.00  0.00     0.134 A 
ATOM     77  F   UNL A   1      46.402  28.188  29.313  1.00  0.00    -0.206 F 
ATOM     78  C   UNL A   1      45.622  26.929  27.495  1.00  0.00     0.040 A 
ATOM     79  C   UNL A   1      43.858  27.795  26.111  1.00  0.00     0.040 A 
ATOM     80  F   UNL A   1      42.882  29.876  26.595  1.00  0.00    -0.206 F 
ATOM     81  C   UNL A   1      44.732  26.759  26.440  1.00  0.00     0.006 A 
ENDBRANCH  53  74
BRANCH  65  82
ATOM     82  C   UNL A   1      42.450  35.944  28.824  1.00  0.00     0.057 A 
ATOM     83  C   UNL A   1      43.166  37.002  29.405  1.00  0.00     0.134 A 
ATOM     84  C   UNL A   1      41.826  36.248  27.593  1.00  0.00     0.134 A 
ATOM     85  F   UNL A   1      43.895  36.826  30.516  1.00  0.00    -0.206 F 
ATOM     86  C   UNL A   1      43.210  38.283  28.837  1.00  0.00     0.040 A 
ATOM     87  C   UNL A   1      41.907  37.508  26.991  1.00  0.00     0.040 A 
ATOM     88  F   UNL A   1      41.130  35.326  26.912  1.00  0.00    -0.206 F 
ATOM     89  C   UNL A   1      42.589  38.538  27.622  1.00  0.00     0.006 A 
ENDBRANCH  65  82
ENDBRANCH  39  40
ENDBRANCH  31  34
ENDBRANCH  29  30
ENDBRANCH  28  29
ENDBRANCH   1  28
TORSDOF 16
ENDMDL
MODEL 3
REMARK VINA RESULT:     -12.4      2.160      3.870
REMARK SMILES Cc1ccc(CN(CC(=O)NCCCCNC(=O)c2ccc(-c3c4nc(c(-c5c(F)cccc5F)c5ccc([nH]5)c(-c5c(F)cccc5F)c5nc(c(-c6c(F)cccc6F)c6ccc3[nH]6)C=C5)C=C4)cc2)C(=O)c2cc3c(s2)CCOC3)cc1
REMARK SMILES IDX 13 1 12 2 11 3 9 4 10 5 8 7 7 8 6 9 5 10 1 11 2 12 3 13
REMARK SMILES IDX 85 14 4 15 84 16 73 17 74 18 75 19 76 20 79 21 77 22 78 23
REMARK SMILES IDX 83 24 80 25 82 26 81 27 14 28 15 29 16 30 17 31 18 33 19 34
REMARK SMILES IDX 20 35 72 36 21 37 71 38 22 39 23 40 24 41 65 42 25 43 70 44
REMARK SMILES IDX 64 45 66 46 26 47 69 48 63 49 62 50 27 52 53 53 36 54 52 55
REMARK SMILES IDX 37 56 40 57 51 58 67 59 38 60 39 61 50 63 68 64 41 65 28 66
REMARK SMILES IDX 29 67 34 68 30 69 31 70 33 71 35 72 32 73 54 74 55 75 60 76
REMARK SMILES IDX 56 77 57 78 59 79 61 80 58 81 42 82 43 83 48 84 44 85 45 86
REMARK SMILES IDX 47 87 49 88 46 89
REMARK H PARENT 11 6 16 32 66 51 40 62
REMARK Flexibility Score: inf
ROOT
ATOM      1  C   UNL A   1      32.160  29.536  26.718  1.00  0.00     0.023 C 
ENDROOT
BRANCH   1   2
ATOM      2  C   UNL A   1      32.113  28.264  27.575  1.00  0.00     0.116 C 
BRANCH   2   3
ATOM      3  N   UNL A   1      31.175  27.246  27.138  1.00  0.00    -0.355 N 
ATOM      4  C   UNL A   1      31.338  26.169  26.318  1.00  0.00     0.239 C 
ATOM      5  O   UNL A   1      30.506  25.262  26.435  1.00  0.00    -0.273 OA
ATOM      6  H   UNL A   1      30.264  27.353  27.494  1.00  0.00     0.163 HD
BRANCH   4   7
ATOM      7  C   UNL A   1      32.532  25.993  25.361  1.00  0.00     0.220 C 
BRANCH   7   8
ATOM      8  N   UNL A   1      32.223  25.498  24.020  1.00  0.00    -0.324 N 
BRANCH   8   9
ATOM      9  C   UNL A   1      32.154  24.051  23.833  1.00  0.00     0.156 C 
BRANCH   9  10
ATOM     10  C   UNL A   1      33.468  23.336  24.021  1.00  0.00    -0.029 A 
ATOM     11  C   UNL A   1      37.286  21.388  24.503  1.00  0.00     0.044 C 
ATOM     12  C   UNL A   1      35.964  22.077  24.345  1.00  0.00    -0.051 A 
ATOM     13  C   UNL A   1      34.825  21.578  24.990  1.00  0.00     0.004 A 
ATOM     14  C   UNL A   1      35.847  23.209  23.536  1.00  0.00     0.004 A 
ATOM     15  C   UNL A   1      33.585  22.204  24.831  1.00  0.00     0.006 A 
ATOM     16  C   UNL A   1      34.612  23.832  23.376  1.00  0.00     0.006 A 
ENDBRANCH   9  10
ENDBRANCH   8   9
BRANCH   8  17
ATOM     17  C   UNL A   1      31.906  26.327  22.924  1.00  0.00     0.264 C 
ATOM     18  O   UNL A   1      32.495  26.194  21.851  1.00  0.00    -0.268 OA
BRANCH  17  19
ATOM     19  C   UNL A   1      30.850  27.316  23.092  1.00  0.00     0.093 A 
ATOM     20  C   UNL A   1      29.494  27.166  23.328  1.00  0.00     0.032 A 
ATOM     21  S   UNL A   1      31.285  28.979  23.025  1.00  0.00    -0.135 S 
ATOM     22  C   UNL A   1      28.788  28.400  23.211  1.00  0.00    -0.008 A 
ATOM     23  C   UNL A   1      29.662  29.459  23.092  1.00  0.00     0.013 A 
ATOM     24  C   UNL A   1      27.304  28.610  23.163  1.00  0.00     0.196 C 
ATOM     25  C   UNL A   1      29.197  30.874  23.011  1.00  0.00     0.075 C 
ATOM     26  O   UNL A   1      26.925  30.001  23.262  1.00  0.00    -0.376 OA
ATOM     27  C   UNL A   1      27.761  30.860  22.464  1.00  0.00     0.166 C 
ENDBRANCH  17  19
ENDBRANCH   8  17
ENDBRANCH   7   8
ENDBRANCH   4   7
ENDBRANCH   2   3
ENDBRANCH   1   2
BRANCH   1  28
ATOM     28  C   UNL A   1      32.972  30.708  27.260  1.00  0.00     0.023 C 
BRANCH  28  29
ATOM     29  C   UNL A   1      34.423  30.383  27.558  1.00  0.00     0.116 C 
BRANCH  29  30
ATOM     30  N   UNL A   1      35.095  31.305  28.465  1.00  0.00    -0.352 N 
ATOM     31  C   UNL A   1      36.267  31.120  29.185  1.00  0.00     0.251 C 
ATOM     32  H   UNL A   1      34.657  32.178  28.583  1.00  0.00     0.163 HD
ATOM     33  O   UNL A   1      36.667  31.988  29.947  1.00  0.00    -0.269 OA
BRANCH  31  34
ATOM     34  C   UNL A   1      37.111  29.929  28.908  1.00  0.00     0.039 A 
ATOM     35  C   UNL A   1      37.260  28.988  29.933  1.00  0.00     0.014 A 
ATOM     36  C   UNL A   1      37.935  29.876  27.787  1.00  0.00     0.014 A 
ATOM     37  C   UNL A   1      38.409  28.203  29.972  1.00  0.00     0.010 A 
ATOM     38  C   UNL A   1      39.126  29.186  27.878  1.00  0.00     0.010 A 
ATOM     39  C   UNL A   1      39.397  28.417  29.013  1.00  0.00    -0.014 A 
BRANCH  39  40
ATOM     40  C   UNL A   1      40.780  27.996  29.193  1.00  0.00     0.031 A 
ATOM     41  C   UNL A   1      41.242  26.699  28.663  1.00  0.00     0.074 A 
ATOM     42  C   UNL A   1      41.651  28.836  29.797  1.00  0.00     0.049 A 
ATOM     43  N   UNL A   1      42.307  26.092  29.064  1.00  0.00    -0.248 NA
ATOM     44  C   UNL A   1      40.475  25.927  27.692  1.00  0.00     0.031 C 
ATOM     45  C   UNL A   1      43.107  28.733  29.837  1.00  0.00     0.029 A 
ATOM     46  N   UNL A   1      41.351  29.861  30.709  1.00  0.00    -0.354 N 
ATOM     47  C   UNL A   1      42.522  25.023  28.226  1.00  0.00     0.074 A 
ATOM     48  C   UNL A   1      41.290  24.887  27.495  1.00  0.00     0.031 C 
ATOM     49  C   UNL A   1      43.562  29.419  30.896  1.00  0.00     0.029 A 
ATOM     50  C   UNL A   1      42.403  29.863  31.651  1.00  0.00     0.049 A 
ATOM     51  H   UNL A   1      40.567  30.456  30.694  1.00  0.00     0.167 HD
ATOM     52  C   UNL A   1      43.773  24.482  28.168  1.00  0.00     0.037 A 
ATOM     53  C   UNL A   1      42.178  29.585  32.968  1.00  0.00     0.037 A 
ATOM     54  C   UNL A   1      44.592  24.964  29.287  1.00  0.00     0.049 A 
ATOM     55  C   UNL A   1      42.932  28.381  33.481  1.00  0.00     0.074 A 
ATOM     56  C   UNL A   1      45.614  25.892  29.387  1.00  0.00     0.029 A 
ATOM     57  N   UNL A   1      44.204  24.667  30.592  1.00  0.00    -0.354 N 
ATOM     58  N   UNL A   1      43.484  27.485  32.710  1.00  0.00    -0.248 NA
ATOM     59  C   UNL A   1      43.091  28.068  34.900  1.00  0.00     0.031 C 
ATOM     60  C   UNL A   1      45.772  26.221  30.760  1.00  0.00     0.029 A 
ATOM     61  C   UNL A   1      44.874  25.467  31.495  1.00  0.00     0.049 A 
ATOM     62  H   UNL A   1      43.541  23.980  30.836  1.00  0.00     0.167 HD
ATOM     63  C   UNL A   1      44.016  26.483  33.478  1.00  0.00     0.074 A 
ATOM     64  C   UNL A   1      43.772  26.910  34.843  1.00  0.00     0.031 C 
ATOM     65  C   UNL A   1      44.592  25.376  32.924  1.00  0.00     0.037 A 
BRANCH  52  66
ATOM     66  C   UNL A   1      44.353  23.713  26.985  1.00  0.00     0.057 A 
ATOM     67  C   UNL A   1      43.865  22.424  26.673  1.00  0.00     0.134 A 
ATOM     68  C   UNL A   1      45.453  24.100  26.192  1.00  0.00     0.134 A 
ATOM     69  F   UNL A   1      42.800  21.905  27.299  1.00  0.00    -0.206 F 
ATOM     70  C   UNL A   1      44.456  21.584  25.714  1.00  0.00     0.040 A 
ATOM     71  C   UNL A   1      46.039  23.279  25.216  1.00  0.00     0.040 A 
ATOM     72  F   UNL A   1      46.059  25.281  26.315  1.00  0.00    -0.206 F 
ATOM     73  C   UNL A   1      45.554  22.007  24.984  1.00  0.00     0.006 A 
ENDBRANCH  52  66
BRANCH  53  74
ATOM     74  C   UNL A   1      40.840  30.025  33.441  1.00  0.00     0.057 A 
ATOM     75  C   UNL A   1      40.643  31.389  33.724  1.00  0.00     0.134 A 
ATOM     76  C   UNL A   1      39.698  29.241  33.258  1.00  0.00     0.134 A 
ATOM     77  F   UNL A   1      41.699  32.198  33.908  1.00  0.00    -0.206 F 
ATOM     78  C   UNL A   1      39.374  31.970  33.710  1.00  0.00     0.040 A 
ATOM     79  C   UNL A   1      38.420  29.812  33.253  1.00  0.00     0.040 A 
ATOM     80  F   UNL A   1      39.806  27.939  32.961  1.00  0.00    -0.206 F 
ATOM     81  C   UNL A   1      38.258  31.185  33.438  1.00  0.00     0.006 A 
ENDBRANCH  53  74
BRANCH  65  82
ATOM     82  C   UNL A   1      45.007  24.137  33.676  1.00  0.00     0.057 A 
ATOM     83  C   UNL A   1      44.157  23.052  33.941  1.00  0.00     0.134 A 
ATOM     84  C   UNL A   1      46.359  23.942  34.038  1.00  0.00     0.134 A 
ATOM     85  F   UNL A   1      42.875  23.056  33.552  1.00  0.00    -0.206 F 
ATOM     86  C   UNL A   1      44.604  21.883  34.573  1.00  0.00     0.040 A 
ATOM     87  C   UNL A   1      46.826  22.760  34.621  1.00  0.00     0.040 A 
ATOM     88  F   UNL A   1      47.287  24.885  33.820  1.00  0.00    -0.206 F 
ATOM     89  C   UNL A   1      45.944  21.728  34.905  1.00  0.00     0.006 A 
ENDBRANCH  65  82
ENDBRANCH  39  40
ENDBRANCH  31  34
ENDBRANCH  29  30
ENDBRANCH  28  29
ENDBRANCH   1  28
TORSDOF 16
ENDMDL
