MODEL 1
REMARK VINA RESULT:      -9.8      0.000      0.000
REMARK SMILES CCOC(=O)[C@H]1CCCN(c2cc(C(=O)NCCCCNC(=O)c3ccc(-c4c5nc(c(-c6c(F)cccc6F)c6ccc([nH]6)c(-c6c(F)cccc6F)c6nc(c(-c7c(F)cccc7F)c7ccc4[nH]7)C=C6)C=C5)cc3)c3cc(NC(=O)c4ccc(Cl)cc4)ccc3n2)C1
REMARK SMILES IDX 17 1 16 2 14 3 15 4 13 6 11 7 12 8 94 9 93 10 78 11 92 12
REMARK SMILES IDX 79 13 91 14 80 15 10 16 6 17 7 18 95 19 8 20 9 21 4 22 5 23
REMARK SMILES IDX 3 24 2 25 1 26 81 27 82 28 83 30 84 31 85 32 90 33 86 34
REMARK SMILES IDX 89 35 87 36 88 37 18 38 19 39 20 40 21 41 22 42 23 44 24 45
REMARK SMILES IDX 25 46 77 47 26 48 76 49 27 50 28 51 29 52 70 53 30 54 75 55
REMARK SMILES IDX 69 56 71 57 31 58 74 59 68 60 67 61 32 63 58 64 41 65 57 66
REMARK SMILES IDX 42 67 45 68 56 69 72 70 43 71 44 72 55 74 73 75 46 76 33 77
REMARK SMILES IDX 34 78 39 79 35 80 36 81 38 82 40 83 37 84 59 85 60 86 65 87
REMARK SMILES IDX 61 88 62 89 64 90 66 91 63 92 47 93 48 94 53 95 49 96 50 97
REMARK SMILES IDX 52 98 54 99 51 100
REMARK H PARENT 16 5 81 29 21 43 71 62 45 73
REMARK Flexibility Score: inf
ROOT
ATOM      1  C   UNL A   1      39.911  25.659  28.162  1.00  0.00     0.116 C 
ENDROOT
BRANCH   1   2
ATOM      2  N   UNL A   1      40.209  26.758  27.251  1.00  0.00    -0.352 N 
ATOM      3  C   UNL A   1      40.573  28.083  27.427  1.00  0.00     0.252 C 
ATOM      4  O   UNL A   1      40.773  28.723  26.390  1.00  0.00    -0.269 OA
ATOM      5  H   UNL A   1      40.135  26.502  26.303  1.00  0.00     0.163 HD
BRANCH   3   6
ATOM      6  C   UNL A   1      40.709  28.826  28.731  1.00  0.00     0.052 A 
ATOM      7  C   UNL A   1      39.824  30.648  30.078  1.00  0.00     0.130 A 
ATOM      8  C   UNL A   1      39.726  29.805  28.977  1.00  0.00     0.061 A 
ATOM      9  N   UNL A   1      40.763  30.431  31.018  1.00  0.00    -0.231 NA
ATOM     10  C   UNL A   1      41.720  29.523  30.806  1.00  0.00     0.074 A 
ATOM     11  C   UNL A   1      41.798  28.772  29.624  1.00  0.00     0.015 A 
ATOM     12  C   UNL A   1      42.721  29.390  31.762  1.00  0.00     0.031 A 
ATOM     13  C   UNL A   1      43.010  28.117  29.367  1.00  0.00     0.037 A 
ATOM     14  C   UNL A   1      43.883  28.652  31.517  1.00  0.00     0.028 A 
ATOM     15  C   UNL A   1      44.074  28.094  30.263  1.00  0.00     0.042 A 
BRANCH   7  16
ATOM     16  N   UNL A   1      39.068  31.793  30.184  1.00  0.00    -0.356 N 
ATOM     17  C   UNL A   1      37.370  32.998  28.902  1.00  0.00     0.118 C 
ATOM     18  C   UNL A   1      37.979  34.315  29.417  1.00  0.00     0.019 C 
ATOM     19  C   UNL A   1      37.644  31.852  29.882  1.00  0.00     0.133 C 
ATOM     20  C   UNL A   1      39.454  34.155  29.791  1.00  0.00     0.022 C 
ATOM     21  C   UNL A   1      39.668  32.991  30.763  1.00  0.00     0.118 C 
BRANCH  17  22
ATOM     22  C   UNL A   1      35.890  33.206  28.634  1.00  0.00     0.310 C 
ATOM     23  O   UNL A   1      35.454  33.642  27.576  1.00  0.00    -0.252 OA
BRANCH  22  24
ATOM     24  O   UNL A   1      35.116  32.846  29.693  1.00  0.00    -0.466 OA
BRANCH  24  25
ATOM     25  C   UNL A   1      34.408  33.910  30.349  1.00  0.00     0.229 C 
ATOM     26  C   UNL A   1      35.050  34.226  31.687  1.00  0.00     0.049 C 
ENDBRANCH  24  25
ENDBRANCH  22  24
ENDBRANCH  17  22
ENDBRANCH   7  16
BRANCH  15  27
ATOM     27  N   UNL A   1      45.329  27.548  29.943  1.00  0.00    -0.322 N 
ATOM     28  C   UNL A   1      46.060  26.542  30.546  1.00  0.00     0.255 C 
ATOM     29  H   UNL A   1      45.761  27.952  29.155  1.00  0.00     0.170 HD
ATOM     30  O   UNL A   1      47.238  26.373  30.242  1.00  0.00    -0.269 OA
BRANCH  28  31
ATOM     31  C   UNL A   1      45.453  25.623  31.542  1.00  0.00     0.040 A 
ATOM     32  C   UNL A   1      44.630  24.599  31.068  1.00  0.00     0.015 A 
ATOM     33  C   UNL A   1      45.737  25.707  32.912  1.00  0.00     0.015 A 
ATOM     34  C   UNL A   1      44.172  23.605  31.939  1.00  0.00     0.021 A 
ATOM     35  C   UNL A   1      45.300  24.696  33.777  1.00  0.00     0.021 A 
ATOM     36  C   UNL A   1      44.534  23.642  33.283  1.00  0.00     0.041 A 
ATOM     37  Cl  UNL A   1      44.042  22.369  34.328  1.00  0.00    -0.084 Cl
ENDBRANCH  28  31
ENDBRANCH  15  27
ENDBRANCH   3   6
ENDBRANCH   1   2
BRANCH   1  38
ATOM     38  C   UNL A   1      39.016  24.551  27.604  1.00  0.00     0.023 C 
BRANCH  38  39
ATOM     39  C   UNL A   1      39.678  23.259  27.105  1.00  0.00     0.023 C 
BRANCH  39  40
ATOM     40  C   UNL A   1      41.160  22.989  27.398  1.00  0.00     0.116 C 
BRANCH  40  41
ATOM     41  N   UNL A   1      41.899  22.220  26.412  1.00  0.00    -0.352 N 
ATOM     42  C   UNL A   1      43.057  22.579  25.740  1.00  0.00     0.251 C 
ATOM     43  H   UNL A   1      41.534  21.333  26.195  1.00  0.00     0.163 HD
ATOM     44  O   UNL A   1      43.555  21.824  24.919  1.00  0.00    -0.269 OA
BRANCH  42  45
ATOM     45  C   UNL A   1      43.654  23.920  25.965  1.00  0.00     0.039 A 
ATOM     46  C   UNL A   1      44.413  24.125  27.121  1.00  0.00     0.014 A 
ATOM     47  C   UNL A   1      43.521  24.950  25.032  1.00  0.00     0.014 A 
ATOM     48  C   UNL A   1      45.145  25.307  27.271  1.00  0.00     0.010 A 
ATOM     49  C   UNL A   1      44.280  26.113  25.161  1.00  0.00     0.010 A 
ATOM     50  C   UNL A   1      45.136  26.280  26.258  1.00  0.00    -0.014 A 
BRANCH  50  51
ATOM     51  C   UNL A   1      46.113  27.400  26.263  1.00  0.00     0.031 A 
ATOM     52  C   UNL A   1      47.590  27.151  26.162  1.00  0.00     0.074 A 
ATOM     53  C   UNL A   1      45.654  28.653  26.450  1.00  0.00     0.049 A 
ATOM     54  N   UNL A   1      48.576  28.011  26.212  1.00  0.00    -0.248 NA
ATOM     55  C   UNL A   1      48.017  25.753  26.004  1.00  0.00     0.031 C 
ATOM     56  C   UNL A   1      44.246  29.021  26.620  1.00  0.00     0.029 A 
ATOM     57  N   UNL A   1      46.320  29.851  26.542  1.00  0.00    -0.354 N 
ATOM     58  C   UNL A   1      49.739  27.265  26.087  1.00  0.00     0.074 A 
ATOM     59  C   UNL A   1      49.338  25.875  26.006  1.00  0.00     0.031 C 
ATOM     60  C   UNL A   1      44.152  30.352  26.769  1.00  0.00     0.029 A 
ATOM     61  C   UNL A   1      45.491  30.929  26.741  1.00  0.00     0.049 A 
ATOM     62  H   UNL A   1      47.298  29.930  26.471  1.00  0.00     0.167 HD
ATOM     63  C   UNL A   1      51.021  27.699  26.026  1.00  0.00     0.037 A 
ATOM     64  C   UNL A   1      45.776  32.237  26.886  1.00  0.00     0.037 A 
ATOM     65  C   UNL A   1      51.419  29.081  26.107  1.00  0.00     0.049 A 
ATOM     66  C   UNL A   1      47.208  32.689  26.825  1.00  0.00     0.074 A 
ATOM     67  C   UNL A   1      52.694  29.619  26.034  1.00  0.00     0.029 A 
ATOM     68  N   UNL A   1      50.548  30.146  26.278  1.00  0.00    -0.354 N 
ATOM     69  N   UNL A   1      48.292  31.975  26.646  1.00  0.00    -0.248 NA
ATOM     70  C   UNL A   1      47.455  34.129  26.979  1.00  0.00     0.031 C 
ATOM     71  C   UNL A   1      52.595  31.006  26.188  1.00  0.00     0.029 A 
ATOM     72  C   UNL A   1      51.256  31.336  26.319  1.00  0.00     0.049 A 
ATOM     73  H   UNL A   1      49.569  30.067  26.359  1.00  0.00     0.167 HD
ATOM     74  C   UNL A   1      49.343  32.880  26.627  1.00  0.00     0.074 A 
ATOM     75  C   UNL A   1      48.769  34.197  26.809  1.00  0.00     0.031 C 
ATOM     76  C   UNL A   1      50.668  32.641  26.473  1.00  0.00     0.037 A 
BRANCH  63  77
ATOM     77  C   UNL A   1      52.092  26.664  25.849  1.00  0.00     0.057 A 
ATOM     78  C   UNL A   1      52.465  26.209  24.577  1.00  0.00     0.134 A 
ATOM     79  C   UNL A   1      52.790  26.151  26.949  1.00  0.00     0.134 A 
ATOM     80  F   UNL A   1      51.830  26.657  23.484  1.00  0.00    -0.206 F 
ATOM     81  C   UNL A   1      53.477  25.265  24.406  1.00  0.00     0.040 A 
ATOM     82  C   UNL A   1      53.822  25.223  26.790  1.00  0.00     0.040 A 
ATOM     83  F   UNL A   1      52.491  26.552  28.194  1.00  0.00    -0.206 F 
ATOM     84  C   UNL A   1      54.164  24.773  25.515  1.00  0.00     0.006 A 
ENDBRANCH  63  77
BRANCH  64  85
ATOM     85  C   UNL A   1      44.683  33.224  27.072  1.00  0.00     0.057 A 
ATOM     86  C   UNL A   1      44.115  33.880  25.973  1.00  0.00     0.134 A 
ATOM     87  C   UNL A   1      44.196  33.551  28.341  1.00  0.00     0.134 A 
ATOM     88  F   UNL A   1      44.553  33.620  24.732  1.00  0.00    -0.206 F 
ATOM     89  C   UNL A   1      43.120  34.845  26.132  1.00  0.00     0.040 A 
ATOM     90  C   UNL A   1      43.184  34.498  28.514  1.00  0.00     0.040 A 
ATOM     91  F   UNL A   1      44.692  32.950  29.433  1.00  0.00    -0.206 F 
ATOM     92  C   UNL A   1      42.650  35.154  27.406  1.00  0.00     0.006 A 
ENDBRANCH  64  85
BRANCH  76  93
ATOM     93  C   UNL A   1      51.580  33.830  26.437  1.00  0.00     0.057 A 
ATOM     94  C   UNL A   1      52.092  34.407  27.605  1.00  0.00     0.134 A 
ATOM     95  C   UNL A   1      51.982  34.377  25.212  1.00  0.00     0.134 A 
ATOM     96  F   UNL A   1      51.732  33.936  28.809  1.00  0.00    -0.206 F 
ATOM     97  C   UNL A   1      52.961  35.498  27.558  1.00  0.00     0.040 A 
ATOM     98  C   UNL A   1      52.867  35.454  25.151  1.00  0.00     0.040 A 
ATOM     99  F   UNL A   1      51.530  33.867  24.057  1.00  0.00    -0.206 F 
ATOM    100  C   UNL A   1      53.356  36.020  26.327  1.00  0.00     0.006 A 
ENDBRANCH  76  93
ENDBRANCH  50  51
ENDBRANCH  42  45
ENDBRANCH  40  41
ENDBRANCH  39  40
ENDBRANCH  38  39
ENDBRANCH   1  38
TORSDOF 17
ENDMDL
MODEL 2
REMARK VINA RESULT:      -9.8      6.860     13.297
REMARK SMILES CCOC(=O)[C@H]1CCCN(c2cc(C(=O)NCCCCNC(=O)c3ccc(-c4c5nc(c(-c6c(F)cccc6F)c6ccc([nH]6)c(-c6c(F)cccc6F)c6nc(c(-c7c(F)cccc7F)c7ccc4[nH]7)C=C6)C=C5)cc3)c3cc(NC(=O)c4ccc(Cl)cc4)ccc3n2)C1
REMARK SMILES IDX 17 1 16 2 14 3 15 4 13 6 11 7 12 8 94 9 93 10 78 11 92 12
REMARK SMILES IDX 79 13 91 14 80 15 10 16 6 17 7 18 95 19 8 20 9 21 4 22 5 23
REMARK SMILES IDX 3 24 2 25 1 26 81 27 82 28 83 30 84 31 85 32 90 33 86 34
REMARK SMILES IDX 89 35 87 36 88 37 18 38 19 39 20 40 21 41 22 42 23 44 24 45
REMARK SMILES IDX 25 46 77 47 26 48 76 49 27 50 28 51 29 52 70 53 30 54 75 55
REMARK SMILES IDX 69 56 71 57 31 58 74 59 68 60 67 61 32 63 58 64 41 65 57 66
REMARK SMILES IDX 42 67 45 68 56 69 72 70 43 71 44 72 55 74 73 75 46 76 33 77
REMARK SMILES IDX 34 78 39 79 35 80 36 81 38 82 40 83 37 84 59 85 60 86 65 87
REMARK SMILES IDX 61 88 62 89 64 90 66 91 63 92 47 93 48 94 53 95 49 96 50 97
REMARK SMILES IDX 52 98 54 99 51 100
REMARK H PARENT 16 5 81 29 21 43 71 62 45 73
REMARK Flexibility Score: inf
ROOT
ATOM      1  C   UNL A   1      33.163  28.192  27.250  1.00  0.00     0.116 C 
ENDROOT
BRANCH   1   2
ATOM      2  N   UNL A   1      33.839  27.709  26.052  1.00  0.00    -0.352 N 
ATOM      3  C   UNL A   1      33.915  26.480  25.418  1.00  0.00     0.252 C 
ATOM      4  O   UNL A   1      34.581  26.456  24.378  1.00  0.00    -0.269 OA
ATOM      5  H   UNL A   1      34.354  28.410  25.593  1.00  0.00     0.163 HD
BRANCH   3   6
ATOM      6  C   UNL A   1      33.311  25.178  25.877  1.00  0.00     0.052 A 
ATOM      7  C   UNL A   1      33.772  22.838  26.357  1.00  0.00     0.130 A 
ATOM      8  C   UNL A   1      34.223  24.121  26.069  1.00  0.00     0.061 A 
ATOM      9  N   UNL A   1      32.471  22.621  26.628  1.00  0.00    -0.231 NA
ATOM     10  C   UNL A   1      31.579  23.596  26.438  1.00  0.00     0.074 A 
ATOM     11  C   UNL A   1      31.939  24.864  25.956  1.00  0.00     0.015 A 
ATOM     12  C   UNL A   1      30.236  23.306  26.646  1.00  0.00     0.031 A 
ATOM     13  C   UNL A   1      30.905  25.678  25.475  1.00  0.00     0.037 A 
ATOM     14  C   UNL A   1      29.220  24.179  26.242  1.00  0.00     0.028 A 
ATOM     15  C   UNL A   1      29.559  25.333  25.553  1.00  0.00     0.042 A 
BRANCH   7  16
ATOM     16  N   UNL A   1      34.594  21.739  26.251  1.00  0.00    -0.356 N 
ATOM     17  C   UNL A   1      36.754  21.149  25.270  1.00  0.00     0.118 C 
ATOM     18  C   UNL A   1      36.185  19.750  24.968  1.00  0.00     0.019 C 
ATOM     19  C   UNL A   1      36.034  21.783  26.465  1.00  0.00     0.133 C 
ATOM     20  C   UNL A   1      34.661  19.769  24.839  1.00  0.00     0.022 C 
ATOM     21  C   UNL A   1      33.998  20.421  26.055  1.00  0.00     0.118 C 
BRANCH  17  22
ATOM     22  C   UNL A   1      38.255  21.043  25.472  1.00  0.00     0.310 C 
ATOM     23  O   UNL A   1      38.880  20.000  25.328  1.00  0.00    -0.252 OA
BRANCH  22  24
ATOM     24  O   UNL A   1      38.816  22.232  25.821  1.00  0.00    -0.466 OA
BRANCH  24  25
ATOM     25  C   UNL A   1      39.828  22.180  26.838  1.00  0.00     0.229 C 
ATOM     26  C   UNL A   1      41.207  22.115  26.209  1.00  0.00     0.049 C 
ENDBRANCH  24  25
ENDBRANCH  22  24
ENDBRANCH  17  22
ENDBRANCH   7  16
BRANCH  15  27
ATOM     27  N   UNL A   1      28.541  26.093  24.953  1.00  0.00    -0.322 N 
ATOM     28  C   UNL A   1      28.602  27.154  24.069  1.00  0.00     0.255 C 
ATOM     29  H   UNL A   1      27.628  25.824  25.207  1.00  0.00     0.170 HD
ATOM     30  O   UNL A   1      27.597  27.823  23.843  1.00  0.00    -0.269 OA
BRANCH  28  31
ATOM     31  C   UNL A   1      29.852  27.500  23.347  1.00  0.00     0.040 A 
ATOM     32  C   UNL A   1      30.440  28.739  23.616  1.00  0.00     0.015 A 
ATOM     33  C   UNL A   1      30.489  26.605  22.476  1.00  0.00     0.015 A 
ATOM     34  C   UNL A   1      31.702  29.044  23.098  1.00  0.00     0.021 A 
ATOM     35  C   UNL A   1      31.764  26.902  21.982  1.00  0.00     0.021 A 
ATOM     36  C   UNL A   1      32.371  28.113  22.308  1.00  0.00     0.041 A 
ATOM     37  Cl  UNL A   1      33.960  28.460  21.751  1.00  0.00    -0.084 Cl
ENDBRANCH  28  31
ENDBRANCH  15  27
ENDBRANCH   3   6
ENDBRANCH   1   2
BRANCH   1  38
ATOM     38  C   UNL A   1      31.892  29.011  27.018  1.00  0.00     0.023 C 
BRANCH  38  39
ATOM     39  C   UNL A   1      32.035  30.445  26.487  1.00  0.00     0.023 C 
BRANCH  39  40
ATOM     40  C   UNL A   1      33.004  31.423  27.163  1.00  0.00     0.116 C 
BRANCH  40  41
ATOM     41  N   UNL A   1      32.535  32.782  27.371  1.00  0.00    -0.352 N 
ATOM     42  C   UNL A   1      33.110  33.776  28.146  1.00  0.00     0.251 C 
ATOM     43  H   UNL A   1      31.706  33.028  26.902  1.00  0.00     0.163 HD
ATOM     44  O   UNL A   1      32.582  34.874  28.236  1.00  0.00    -0.269 OA
BRANCH  42  45
ATOM     45  C   UNL A   1      34.337  33.483  28.930  1.00  0.00     0.039 A 
ATOM     46  C   UNL A   1      34.194  32.925  30.204  1.00  0.00     0.014 A 
ATOM     47  C   UNL A   1      35.613  33.698  28.406  1.00  0.00     0.014 A 
ATOM     48  C   UNL A   1      35.322  32.460  30.889  1.00  0.00     0.010 A 
ATOM     49  C   UNL A   1      36.734  33.201  29.070  1.00  0.00     0.010 A 
ATOM     50  C   UNL A   1      36.592  32.534  30.294  1.00  0.00    -0.014 A 
BRANCH  50  51
ATOM     51  C   UNL A   1      37.751  31.801  30.869  1.00  0.00     0.031 A 
ATOM     52  C   UNL A   1      38.272  32.114  32.242  1.00  0.00     0.074 A 
ATOM     53  C   UNL A   1      38.389  30.899  30.097  1.00  0.00     0.049 A 
ATOM     54  N   UNL A   1      39.308  31.609  32.864  1.00  0.00    -0.248 NA
ATOM     55  C   UNL A   1      37.549  33.140  33.007  1.00  0.00     0.031 C 
ATOM     56  C   UNL A   1      38.016  30.547  28.724  1.00  0.00     0.029 A 
ATOM     57  N   UNL A   1      39.493  30.122  30.347  1.00  0.00    -0.354 N 
ATOM     58  C   UNL A   1      39.361  32.249  34.094  1.00  0.00     0.074 A 
ATOM     59  C   UNL A   1      38.280  33.214  34.112  1.00  0.00     0.031 C 
ATOM     60  C   UNL A   1      38.858  29.609  28.265  1.00  0.00     0.029 A 
ATOM     61  C   UNL A   1      39.851  29.317  29.292  1.00  0.00     0.049 A 
ATOM     62  H   UNL A   1      39.982  30.141  31.200  1.00  0.00     0.167 HD
ATOM     63  C   UNL A   1      40.220  32.039  35.121  1.00  0.00     0.037 A 
ATOM     64  C   UNL A   1      40.866  28.441  29.165  1.00  0.00     0.037 A 
ATOM     65  C   UNL A   1      41.294  31.080  35.103  1.00  0.00     0.049 A 
ATOM     66  C   UNL A   1      41.809  28.236  30.317  1.00  0.00     0.074 A 
ATOM     67  C   UNL A   1      42.203  30.782  36.105  1.00  0.00     0.029 A 
ATOM     68  N   UNL A   1      41.605  30.262  34.028  1.00  0.00    -0.354 N 
ATOM     69  N   UNL A   1      41.808  28.807  31.496  1.00  0.00    -0.248 NA
ATOM     70  C   UNL A   1      42.889  27.259  30.123  1.00  0.00     0.031 C 
ATOM     71  C   UNL A   1      43.080  29.803  35.626  1.00  0.00     0.029 A 
ATOM     72  C   UNL A   1      42.694  29.464  34.339  1.00  0.00     0.049 A 
ATOM     73  H   UNL A   1      41.123  30.250  33.169  1.00  0.00     0.167 HD
ATOM     74  C   UNL A   1      42.860  28.233  32.196  1.00  0.00     0.074 A 
ATOM     75  C   UNL A   1      43.476  27.265  31.312  1.00  0.00     0.031 C 
ATOM     76  C   UNL A   1      43.279  28.486  33.459  1.00  0.00     0.037 A 
BRANCH  63  77
ATOM     77  C   UNL A   1      40.022  32.856  36.364  1.00  0.00     0.057 A 
ATOM     78  C   UNL A   1      40.763  34.022  36.597  1.00  0.00     0.134 A 
ATOM     79  C   UNL A   1      39.055  32.505  37.313  1.00  0.00     0.134 A 
ATOM     80  F   UNL A   1      41.710  34.409  35.729  1.00  0.00    -0.206 F 
ATOM     81  C   UNL A   1      40.565  34.798  37.739  1.00  0.00     0.040 A 
ATOM     82  C   UNL A   1      38.830  33.286  38.449  1.00  0.00     0.040 A 
ATOM     83  F   UNL A   1      38.303  31.406  37.146  1.00  0.00    -0.206 F 
ATOM     84  C   UNL A   1      39.592  34.433  38.667  1.00  0.00     0.006 A 
ENDBRANCH  63  77
BRANCH  64  85
ATOM     85  C   UNL A   1      41.029  27.663  27.911  1.00  0.00     0.057 A 
ATOM     86  C   UNL A   1      40.382  26.433  27.741  1.00  0.00     0.134 A 
ATOM     87  C   UNL A   1      41.845  28.113  26.868  1.00  0.00     0.134 A 
ATOM     88  F   UNL A   1      39.601  25.942  28.714  1.00  0.00    -0.206 F 
ATOM     89  C   UNL A   1      40.562  25.666  26.589  1.00  0.00     0.040 A 
ATOM     90  C   UNL A   1      42.015  27.368  25.700  1.00  0.00     0.040 A 
ATOM     91  F   UNL A   1      42.483  29.289  26.967  1.00  0.00    -0.206 F 
ATOM     92  C   UNL A   1      41.379  26.135  25.563  1.00  0.00     0.006 A 
ENDBRANCH  64  85
BRANCH  76  93
ATOM     93  C   UNL A   1      44.420  27.666  33.981  1.00  0.00     0.057 A 
ATOM     94  C   UNL A   1      45.746  28.105  33.899  1.00  0.00     0.134 A 
ATOM     95  C   UNL A   1      44.180  26.438  34.610  1.00  0.00     0.134 A 
ATOM     96  F   UNL A   1      46.041  29.266  33.295  1.00  0.00    -0.206 F 
ATOM     97  C   UNL A   1      46.798  27.344  34.411  1.00  0.00     0.040 A 
ATOM     98  C   UNL A   1      45.221  25.678  35.146  1.00  0.00     0.040 A 
ATOM     99  F   UNL A   1      42.930  25.963  34.724  1.00  0.00    -0.206 F 
ATOM    100  C   UNL A   1      46.535  26.129  35.043  1.00  0.00     0.006 A 
ENDBRANCH  76  93
ENDBRANCH  50  51
ENDBRANCH  42  45
ENDBRANCH  40  41
ENDBRANCH  39  40
ENDBRANCH  38  39
ENDBRANCH   1  38
TORSDOF 17
ENDMDL
MODEL 3
REMARK VINA RESULT:      -9.7      4.408      9.742
REMARK SMILES CCOC(=O)[C@H]1CCCN(c2cc(C(=O)NCCCCNC(=O)c3ccc(-c4c5nc(c(-c6c(F)cccc6F)c6ccc([nH]6)c(-c6c(F)cccc6F)c6nc(c(-c7c(F)cccc7F)c7ccc4[nH]7)C=C6)C=C5)cc3)c3cc(NC(=O)c4ccc(Cl)cc4)ccc3n2)C1
REMARK SMILES IDX 17 1 16 2 14 3 15 4 13 6 11 7 12 8 94 9 93 10 78 11 92 12
REMARK SMILES IDX 79 13 91 14 80 15 10 16 6 17 7 18 95 19 8 20 9 21 4 22 5 23
REMARK SMILES IDX 3 24 2 25 1 26 81 27 82 28 83 30 84 31 85 32 90 33 86 34
REMARK SMILES IDX 89 35 87 36 88 37 18 38 19 39 20 40 21 41 22 42 23 44 24 45
REMARK SMILES IDX 25 46 77 47 26 48 76 49 27 50 28 51 29 52 70 53 30 54 75 55
REMARK SMILES IDX 69 56 71 57 31 58 74 59 68 60 67 61 32 63 58 64 41 65 57 66
REMARK SMILES IDX 42 67 45 68 56 69 72 70 43 71 44 72 55 74 73 75 46 76 33 77
REMARK SMILES IDX 34 78 39 79 35 80 36 81 38 82 40 83 37 84 59 85 60 86 65 87
REMARK SMILES IDX 61 88 62 89 64 90 66 91 63 92 47 93 48 94 53 95 49 96 50 97
REMARK SMILES IDX 52 98 54 99 51 100
REMARK H PARENT 16 5 81 29 21 43 71 62 45 73
REMARK Flexibility Score: inf
ROOT
ATOM      1  C   UNL A   1      42.328  32.672  33.538  1.00  0.00     0.116 C 
ENDROOT
BRANCH   1   2
ATOM      2  N   UNL A   1      41.278  33.629  33.865  1.00  0.00    -0.352 N 
ATOM      3  C   UNL A   1      40.341  34.324  33.118  1.00  0.00     0.252 C 
ATOM      4  O   UNL A   1      39.575  35.047  33.762  1.00  0.00    -0.269 OA
ATOM      5  H   UNL A   1      41.223  33.824  34.828  1.00  0.00     0.163 HD
BRANCH   3   6
ATOM      6  C   UNL A   1      40.186  34.320  31.619  1.00  0.00     0.052 A 
ATOM      7  C   UNL A   1      41.213  34.990  29.517  1.00  0.00     0.130 A 
ATOM      8  C   UNL A   1      41.289  34.815  30.895  1.00  0.00     0.061 A 
ATOM      9  N   UNL A   1      40.149  34.531  28.833  1.00  0.00    -0.231 NA
ATOM     10  C   UNL A   1      39.080  34.074  29.491  1.00  0.00     0.074 A 
ATOM     11  C   UNL A   1      39.009  34.053  30.892  1.00  0.00     0.015 A 
ATOM     12  C   UNL A   1      37.968  33.691  28.750  1.00  0.00     0.031 A 
ATOM     13  C   UNL A   1      37.740  33.884  31.461  1.00  0.00     0.037 A 
ATOM     14  C   UNL A   1      36.731  33.435  29.351  1.00  0.00     0.028 A 
ATOM     15  C   UNL A   1      36.592  33.636  30.715  1.00  0.00     0.042 A 
BRANCH   7  16
ATOM     16  N   UNL A   1      42.139  35.741  28.830  1.00  0.00    -0.356 N 
ATOM     17  C   UNL A   1      42.565  38.086  28.285  1.00  0.00     0.118 C 
ATOM     18  C   UNL A   1      43.117  37.624  26.924  1.00  0.00     0.019 C 
ATOM     19  C   UNL A   1      42.713  36.980  29.336  1.00  0.00     0.133 C 
ATOM     20  C   UNL A   1      42.532  36.276  26.497  1.00  0.00     0.022 C 
ATOM     21  C   UNL A   1      42.700  35.215  27.589  1.00  0.00     0.118 C 
BRANCH  17  22
ATOM     22  C   UNL A   1      43.250  39.380  28.687  1.00  0.00     0.310 C 
ATOM     23  O   UNL A   1      44.430  39.613  28.459  1.00  0.00    -0.252 OA
BRANCH  22  24
ATOM     24  O   UNL A   1      42.405  40.240  29.316  1.00  0.00    -0.466 OA
BRANCH  24  25
ATOM     25  C   UNL A   1      42.775  40.629  30.649  1.00  0.00     0.229 C 
ATOM     26  C   UNL A   1      41.958  41.826  31.096  1.00  0.00     0.049 C 
ENDBRANCH  24  25
ENDBRANCH  22  24
ENDBRANCH  17  22
ENDBRANCH   7  16
BRANCH  15  27
ATOM     27  N   UNL A   1      35.307  33.599  31.282  1.00  0.00    -0.322 N 
ATOM     28  C   UNL A   1      34.874  33.163  32.520  1.00  0.00     0.255 C 
ATOM     29  H   UNL A   1      34.593  33.941  30.696  1.00  0.00     0.170 HD
ATOM     30  O   UNL A   1      33.674  33.007  32.730  1.00  0.00    -0.269 OA
BRANCH  28  31
ATOM     31  C   UNL A   1      35.822  32.902  33.633  1.00  0.00     0.040 A 
ATOM     32  C   UNL A   1      36.639  31.773  33.542  1.00  0.00     0.015 A 
ATOM     33  C   UNL A   1      35.970  33.781  34.715  1.00  0.00     0.015 A 
ATOM     34  C   UNL A   1      37.665  31.572  34.472  1.00  0.00     0.021 A 
ATOM     35  C   UNL A   1      37.015  33.593  35.627  1.00  0.00     0.021 A 
ATOM     36  C   UNL A   1      37.867  32.498  35.492  1.00  0.00     0.041 A 
ATOM     37  Cl  UNL A   1      39.186  32.292  36.575  1.00  0.00    -0.084 Cl
ENDBRANCH  28  31
ENDBRANCH  15  27
ENDBRANCH   3   6
ENDBRANCH   1   2
BRANCH   1  38
ATOM     38  C   UNL A   1      43.740  33.245  33.406  1.00  0.00     0.023 C 
BRANCH  38  39
ATOM     39  C   UNL A   1      43.971  34.713  33.795  1.00  0.00     0.023 C 
BRANCH  39  40
ATOM     40  C   UNL A   1      43.965  35.805  32.718  1.00  0.00     0.116 C 
BRANCH  40  41
ATOM     41  N   UNL A   1      45.221  36.486  32.459  1.00  0.00    -0.352 N 
ATOM     42  C   UNL A   1      46.276  36.063  31.666  1.00  0.00     0.251 C 
ATOM     43  H   UNL A   1      45.338  37.357  32.900  1.00  0.00     0.163 HD
ATOM     44  O   UNL A   1      47.284  36.745  31.560  1.00  0.00    -0.269 OA
BRANCH  42  45
ATOM     45  C   UNL A   1      46.211  34.737  30.999  1.00  0.00     0.039 A 
ATOM     46  C   UNL A   1      46.755  33.632  31.661  1.00  0.00     0.014 A 
ATOM     47  C   UNL A   1      45.577  34.565  29.767  1.00  0.00     0.014 A 
ATOM     48  C   UNL A   1      46.542  32.346  31.154  1.00  0.00     0.010 A 
ATOM     49  C   UNL A   1      45.331  33.281  29.281  1.00  0.00     0.010 A 
ATOM     50  C   UNL A   1      45.770  32.158  29.996  1.00  0.00    -0.014 A 
BRANCH  50  51
ATOM     51  C   UNL A   1      45.297  30.806  29.602  1.00  0.00     0.031 A 
ATOM     52  C   UNL A   1      46.248  29.759  29.098  1.00  0.00     0.074 A 
ATOM     53  C   UNL A   1      43.972  30.556  29.621  1.00  0.00     0.049 A 
ATOM     54  N   UNL A   1      45.988  28.554  28.659  1.00  0.00    -0.248 NA
ATOM     55  C   UNL A   1      47.673  30.120  29.066  1.00  0.00     0.031 C 
ATOM     56  C   UNL A   1      42.938  31.509  30.035  1.00  0.00     0.029 A 
ATOM     57  N   UNL A   1      43.263  29.433  29.274  1.00  0.00    -0.354 N 
ATOM     58  C   UNL A   1      47.213  28.008  28.301  1.00  0.00     0.074 A 
ATOM     59  C   UNL A   1      48.212  29.032  28.532  1.00  0.00     0.031 C 
ATOM     60  C   UNL A   1      41.735  30.923  29.941  1.00  0.00     0.029 A 
ATOM     61  C   UNL A   1      41.904  29.568  29.429  1.00  0.00     0.049 A 
ATOM     62  H   UNL A   1      43.687  28.609  28.944  1.00  0.00     0.167 HD
ATOM     63  C   UNL A   1      47.483  26.761  27.842  1.00  0.00     0.037 A 
ATOM     64  C   UNL A   1      40.904  28.700  29.186  1.00  0.00     0.037 A 
ATOM     65  C   UNL A   1      46.490  25.744  27.612  1.00  0.00     0.049 A 
ATOM     66  C   UNL A   1      41.232  27.328  28.667  1.00  0.00     0.074 A 
ATOM     67  C   UNL A   1      46.671  24.445  27.167  1.00  0.00     0.029 A 
ATOM     68  N   UNL A   1      45.128  25.910  27.811  1.00  0.00    -0.354 N 
ATOM     69  N   UNL A   1      42.403  26.808  28.391  1.00  0.00    -0.248 NA
ATOM     70  C   UNL A   1      40.100  26.420  28.432  1.00  0.00     0.031 C 
ATOM     71  C   UNL A   1      45.416  23.833  27.072  1.00  0.00     0.029 A 
ATOM     72  C   UNL A   1      44.457  24.740  27.493  1.00  0.00     0.049 A 
ATOM     73  H   UNL A   1      44.700  26.737  28.131  1.00  0.00     0.167 HD
ATOM     74  C   UNL A   1      42.152  25.504  27.988  1.00  0.00     0.074 A 
ATOM     75  C   UNL A   1      40.719  25.309  28.058  1.00  0.00     0.031 C 
ATOM     76  C   UNL A   1      43.033  24.552  27.594  1.00  0.00     0.037 A 
BRANCH  63  77
ATOM     77  C   UNL A   1      48.918  26.423  27.568  1.00  0.00     0.057 A 
ATOM     78  C   UNL A   1      49.761  25.943  28.580  1.00  0.00     0.134 A 
ATOM     79  C   UNL A   1      49.454  26.531  26.279  1.00  0.00     0.134 A 
ATOM     80  F   UNL A   1      49.311  25.823  29.838  1.00  0.00    -0.206 F 
ATOM     81  C   UNL A   1      51.090  25.604  28.324  1.00  0.00     0.040 A 
ATOM     82  C   UNL A   1      50.775  26.173  26.005  1.00  0.00     0.040 A 
ATOM     83  F   UNL A   1      48.698  26.974  25.262  1.00  0.00    -0.206 F 
ATOM     84  C   UNL A   1      51.599  25.713  27.031  1.00  0.00     0.006 A 
ENDBRANCH  63  77
BRANCH  64  85
ATOM     85  C   UNL A   1      39.497  29.083  29.461  1.00  0.00     0.057 A 
ATOM     86  C   UNL A   1      38.965  28.983  30.752  1.00  0.00     0.134 A 
ATOM     87  C   UNL A   1      38.648  29.537  28.446  1.00  0.00     0.134 A 
ATOM     88  F   UNL A   1      39.727  28.538  31.762  1.00  0.00    -0.206 F 
ATOM     89  C   UNL A   1      37.631  29.293  31.020  1.00  0.00     0.040 A 
ATOM     90  C   UNL A   1      37.318  29.874  28.704  1.00  0.00     0.040 A 
ATOM     91  F   UNL A   1      39.100  29.665  27.191  1.00  0.00    -0.206 F 
ATOM     92  C   UNL A   1      36.804  29.744  29.993  1.00  0.00     0.006 A 
ENDBRANCH  64  85
BRANCH  76  93
ATOM     93  C   UNL A   1      42.478  23.199  27.264  1.00  0.00     0.057 A 
ATOM     94  C   UNL A   1      42.291  22.778  25.943  1.00  0.00     0.134 A 
ATOM     95  C   UNL A   1      42.167  22.293  28.285  1.00  0.00     0.134 A 
ATOM     96  F   UNL A   1      42.556  23.606  24.921  1.00  0.00    -0.206 F 
ATOM     97  C   UNL A   1      41.798  21.506  25.647  1.00  0.00     0.040 A 
ATOM     98  C   UNL A   1      41.695  21.011  28.003  1.00  0.00     0.040 A 
ATOM     99  F   UNL A   1      42.329  22.635  29.572  1.00  0.00    -0.206 F 
ATOM    100  C   UNL A   1      41.505  20.616  26.680  1.00  0.00     0.006 A 
ENDBRANCH  76  93
ENDBRANCH  50  51
ENDBRANCH  42  45
ENDBRANCH  40  41
ENDBRANCH  39  40
ENDBRANCH  38  39
ENDBRANCH   1  38
TORSDOF 17
ENDMDL
