MODEL 1
REMARK VINA RESULT:     -12.0      0.000      0.000
REMARK SMILES CC[C@](C)([NH3+])C(=O)Nc1ccc(C(F)(F)F)cc1C(=O)NCCCCNC(=O)c1ccc(-c2c3nc(c(-c4c(F)cccc4F)c4ccc([nH]4)c(-c4c(F)cccc4F)c4nc(c(-c5c(F)cccc5F)c5ccc2[nH]5)C=C4)C=C3)cc1
REMARK SMILES IDX 23 1 22 2 21 3 19 4 20 5 18 7 9 8 10 9 11 10 17 11 12 12
REMARK SMILES IDX 8 13 6 14 7 15 3 17 4 18 2 19 1 20 5 21 13 25 14 26 15 27
REMARK SMILES IDX 16 28 24 29 25 30 26 31 27 32 28 34 29 35 30 36 82 37 31 38
REMARK SMILES IDX 81 39 32 40 33 41 34 42 75 43 35 44 80 45 74 46 76 47 36 48
REMARK SMILES IDX 79 49 73 50 72 51 37 53 63 54 46 55 62 56 47 57 50 58 61 59
REMARK SMILES IDX 77 60 48 61 49 62 60 64 78 65 51 66 38 67 39 68 44 69 40 70
REMARK SMILES IDX 41 71 43 72 45 73 42 74 64 75 65 76 70 77 66 78 67 79 69 80
REMARK SMILES IDX 71 81 68 82 52 83 53 84 58 85 54 86 55 87 57 88 59 89 56 90
REMARK H PARENT 21 6 8 16 5 22 5 23 5 24 26 33 76 52 50 63
REMARK Flexibility Score: inf
ROOT
ATOM      1  C   UNL A   1      31.438  30.294  26.248  1.00  0.00     0.023 C 
ENDROOT
BRANCH   1   2
ATOM      2  C   UNL A   1      32.904  29.949  26.011  1.00  0.00     0.116 C 
BRANCH   2   3
ATOM      3  N   UNL A   1      33.278  29.703  24.637  1.00  0.00    -0.352 N 
ATOM      4  C   UNL A   1      32.630  29.020  23.629  1.00  0.00     0.253 C 
ATOM      5  O   UNL A   1      33.224  28.951  22.548  1.00  0.00    -0.269 OA
ATOM      6  H   UNL A   1      34.144  30.090  24.376  1.00  0.00     0.163 HD
BRANCH   4   7
ATOM      7  C   UNL A   1      31.326  28.273  23.769  1.00  0.00     0.063 A 
ATOM      8  C   UNL A   1      31.095  26.987  24.286  1.00  0.00     0.054 A 
ATOM      9  C   UNL A   1      29.847  26.368  24.078  1.00  0.00     0.027 A 
ATOM     10  C   UNL A   1      28.763  27.081  23.574  1.00  0.00     0.015 A 
ATOM     11  C   UNL A   1      30.196  28.991  23.296  1.00  0.00     0.029 A 
ATOM     12  C   UNL A   1      28.908  28.428  23.246  1.00  0.00     0.056 A 
BRANCH   8  13
ATOM     13  N   UNL A   1      31.977  26.193  25.022  1.00  0.00    -0.320 N 
ATOM     14  C   UNL A   1      32.591  25.001  24.754  1.00  0.00     0.285 C 
ATOM     15  O   UNL A   1      33.180  24.494  25.723  1.00  0.00    -0.267 OA
ATOM     16  H   UNL A   1      32.202  26.565  25.905  1.00  0.00     0.170 HD
BRANCH  14  17
ATOM     17  C   UNL A   1      32.765  24.406  23.324  1.00  0.00     0.171 C 
ATOM     18  C   UNL A   1      33.697  23.182  23.414  1.00  0.00     0.090 C 
BRANCH  17  19
ATOM     19  C   UNL A   1      33.340  25.486  22.381  1.00  0.00     0.075 C 
ATOM     20  C   UNL A   1      32.493  25.769  21.144  1.00  0.00     0.011 C 
ENDBRANCH  17  19
BRANCH  17  21
ATOM     21  N   UNL A   1      31.507  23.904  22.752  1.00  0.00    -0.345 N 
ATOM     22  H   UNL A   1      31.671  23.001  22.307  1.00  0.00     0.345 HD
ATOM     23  H   UNL A   1      31.161  24.566  22.057  1.00  0.00     0.345 HD
ATOM     24  H   UNL A   1      30.815  23.797  23.492  1.00  0.00     0.345 HD
ENDBRANCH  17  21
ENDBRANCH  14  17
ENDBRANCH   8  13
BRANCH  12  25
ATOM     25  C   UNL A   1      27.696  29.238  22.847  1.00  0.00     0.416 C 
ATOM     26  F   UNL A   1      26.528  28.595  23.111  1.00  0.00    -0.166 F 
ATOM     27  F   UNL A   1      27.630  30.423  23.519  1.00  0.00    -0.166 F 
ATOM     28  F   UNL A   1      27.667  29.561  21.527  1.00  0.00    -0.166 F 
ENDBRANCH  12  25
ENDBRANCH   4   7
ENDBRANCH   2   3
ENDBRANCH   1   2
BRANCH   1  29
ATOM     29  C   UNL A   1      31.155  31.709  26.773  1.00  0.00     0.023 C 
BRANCH  29  30
ATOM     30  C   UNL A   1      32.209  32.789  26.501  1.00  0.00     0.116 C 
BRANCH  30  31
ATOM     31  N   UNL A   1      32.159  33.931  27.405  1.00  0.00    -0.352 N 
ATOM     32  C   UNL A   1      33.016  34.317  28.415  1.00  0.00     0.251 C 
ATOM     33  H   UNL A   1      31.386  34.527  27.272  1.00  0.00     0.163 HD
ATOM     34  O   UNL A   1      32.754  35.275  29.130  1.00  0.00    -0.269 OA
BRANCH  32  35
ATOM     35  C   UNL A   1      34.249  33.540  28.666  1.00  0.00     0.039 A 
ATOM     36  C   UNL A   1      35.488  34.171  28.527  1.00  0.00     0.014 A 
ATOM     37  C   UNL A   1      34.180  32.207  29.078  1.00  0.00     0.014 A 
ATOM     38  C   UNL A   1      36.647  33.512  28.944  1.00  0.00     0.010 A 
ATOM     39  C   UNL A   1      35.325  31.577  29.556  1.00  0.00     0.010 A 
ATOM     40  C   UNL A   1      36.562  32.240  29.535  1.00  0.00    -0.014 A 
BRANCH  40  41
ATOM     41  C   UNL A   1      37.722  31.633  30.237  1.00  0.00     0.031 A 
ATOM     42  C   UNL A   1      38.575  30.598  29.567  1.00  0.00     0.074 A 
ATOM     43  C   UNL A   1      37.934  31.940  31.534  1.00  0.00     0.049 A 
ATOM     44  N   UNL A   1      39.549  29.880  30.068  1.00  0.00    -0.248 NA
ATOM     45  C   UNL A   1      38.281  30.317  28.156  1.00  0.00     0.031 C 
ATOM     46  C   UNL A   1      37.151  32.899  32.316  1.00  0.00     0.029 A 
ATOM     47  N   UNL A   1      38.862  31.465  32.427  1.00  0.00    -0.354 N 
ATOM     48  C   UNL A   1      39.976  29.053  29.039  1.00  0.00     0.074 A 
ATOM     49  C   UNL A   1      39.125  29.328  27.898  1.00  0.00     0.031 C 
ATOM     50  C   UNL A   1      37.648  32.962  33.560  1.00  0.00     0.029 A 
ATOM     51  C   UNL A   1      38.749  32.013  33.682  1.00  0.00     0.049 A 
ATOM     52  H   UNL A   1      39.544  30.796  32.190  1.00  0.00     0.167 HD
ATOM     53  C   UNL A   1      40.994  28.160  29.038  1.00  0.00     0.037 A 
ATOM     54  C   UNL A   1      39.441  31.769  34.809  1.00  0.00     0.037 A 
ATOM     55  C   UNL A   1      41.846  27.895  30.169  1.00  0.00     0.049 A 
ATOM     56  C   UNL A   1      40.527  30.732  34.800  1.00  0.00     0.074 A 
ATOM     57  C   UNL A   1      42.952  27.065  30.241  1.00  0.00     0.029 A 
ATOM     58  N   UNL A   1      41.678  28.446  31.430  1.00  0.00    -0.354 N 
ATOM     59  N   UNL A   1      40.964  30.004  33.802  1.00  0.00    -0.248 NA
ATOM     60  C   UNL A   1      41.203  30.471  36.079  1.00  0.00     0.031 C 
ATOM     61  C   UNL A   1      43.425  27.079  31.559  1.00  0.00     0.029 A 
ATOM     62  C   UNL A   1      42.637  27.947  32.298  1.00  0.00     0.049 A 
ATOM     63  H   UNL A   1      40.980  29.097  31.674  1.00  0.00     0.167 HD
ATOM     64  C   UNL A   1      41.977  29.213  34.324  1.00  0.00     0.074 A 
ATOM     65  C   UNL A   1      42.097  29.556  35.727  1.00  0.00     0.031 C 
ATOM     66  C   UNL A   1      42.739  28.287  33.694  1.00  0.00     0.037 A 
BRANCH  53  67
ATOM     67  C   UNL A   1      41.234  27.398  27.768  1.00  0.00     0.057 A 
ATOM     68  C   UNL A   1      42.049  27.907  26.748  1.00  0.00     0.134 A 
ATOM     69  C   UNL A   1      40.653  26.141  27.566  1.00  0.00     0.134 A 
ATOM     70  F   UNL A   1      42.627  29.111  26.876  1.00  0.00    -0.206 F 
ATOM     71  C   UNL A   1      42.248  27.207  25.557  1.00  0.00     0.040 A 
ATOM     72  C   UNL A   1      40.866  25.421  26.389  1.00  0.00     0.040 A 
ATOM     73  F   UNL A   1      39.869  25.592  28.505  1.00  0.00    -0.206 F 
ATOM     74  C   UNL A   1      41.658  25.959  25.376  1.00  0.00     0.006 A 
ENDBRANCH  53  67
BRANCH  54  75
ATOM     75  C   UNL A   1      39.138  32.536  36.041  1.00  0.00     0.057 A 
ATOM     76  C   UNL A   1      38.290  32.006  37.021  1.00  0.00     0.134 A 
ATOM     77  C   UNL A   1      39.694  33.799  36.281  1.00  0.00     0.134 A 
ATOM     78  F   UNL A   1      37.714  30.810  36.836  1.00  0.00    -0.206 F 
ATOM     79  C   UNL A   1      38.003  32.705  38.194  1.00  0.00     0.040 A 
ATOM     80  C   UNL A   1      39.430  34.500  37.458  1.00  0.00     0.040 A 
ATOM     81  F   UNL A   1      40.518  34.358  35.382  1.00  0.00    -0.206 F 
ATOM     82  C   UNL A   1      38.579  33.954  38.417  1.00  0.00     0.006 A 
ENDBRANCH  54  75
BRANCH  66  83
ATOM     83  C   UNL A   1      43.778  27.583  34.514  1.00  0.00     0.057 A 
ATOM     84  C   UNL A   1      43.520  26.347  35.121  1.00  0.00     0.134 A 
ATOM     85  C   UNL A   1      45.061  28.124  34.666  1.00  0.00     0.134 A 
ATOM     86  F   UNL A   1      42.306  25.785  35.029  1.00  0.00    -0.206 F 
ATOM     87  C   UNL A   1      44.500  25.678  35.858  1.00  0.00     0.040 A 
ATOM     88  C   UNL A   1      46.054  27.455  35.382  1.00  0.00     0.040 A 
ATOM     89  F   UNL A   1      45.372  29.303  34.107  1.00  0.00    -0.206 F 
ATOM     90  C   UNL A   1      45.774  26.230  35.983  1.00  0.00     0.006 A 
ENDBRANCH  66  83
ENDBRANCH  40  41
ENDBRANCH  32  35
ENDBRANCH  30  31
ENDBRANCH  29  30
ENDBRANCH   1  29
TORSDOF 16
ENDMDL
MODEL 2
REMARK VINA RESULT:     -11.9      1.159      6.296
REMARK SMILES CC[C@](C)([NH3+])C(=O)Nc1ccc(C(F)(F)F)cc1C(=O)NCCCCNC(=O)c1ccc(-c2c3nc(c(-c4c(F)cccc4F)c4ccc([nH]4)c(-c4c(F)cccc4F)c4nc(c(-c5c(F)cccc5F)c5ccc2[nH]5)C=C4)C=C3)cc1
REMARK SMILES IDX 23 1 22 2 21 3 19 4 20 5 18 7 9 8 10 9 11 10 17 11 12 12
REMARK SMILES IDX 8 13 6 14 7 15 3 17 4 18 2 19 1 20 5 21 13 25 14 26 15 27
REMARK SMILES IDX 16 28 24 29 25 30 26 31 27 32 28 34 29 35 30 36 82 37 31 38
REMARK SMILES IDX 81 39 32 40 33 41 34 42 75 43 35 44 80 45 74 46 76 47 36 48
REMARK SMILES IDX 79 49 73 50 72 51 37 53 63 54 46 55 62 56 47 57 50 58 61 59
REMARK SMILES IDX 77 60 48 61 49 62 60 64 78 65 51 66 38 67 39 68 44 69 40 70
REMARK SMILES IDX 41 71 43 72 45 73 42 74 64 75 65 76 70 77 66 78 67 79 69 80
REMARK SMILES IDX 71 81 68 82 52 83 53 84 58 85 54 86 55 87 57 88 59 89 56 90
REMARK H PARENT 21 6 8 16 5 22 5 23 5 24 26 33 76 52 50 63
REMARK Flexibility Score: inf
ROOT
ATOM      1  C   UNL A   1      31.817  30.177  26.908  1.00  0.00     0.023 C 
ENDROOT
BRANCH   1   2
ATOM      2  C   UNL A   1      33.083  29.434  26.495  1.00  0.00     0.116 C 
BRANCH   2   3
ATOM      3  N   UNL A   1      33.409  29.484  25.088  1.00  0.00    -0.352 N 
ATOM      4  C   UNL A   1      32.722  29.034  23.981  1.00  0.00     0.253 C 
ATOM      5  O   UNL A   1      33.279  29.193  22.890  1.00  0.00    -0.269 OA
ATOM      6  H   UNL A   1      34.271  29.913  24.886  1.00  0.00     0.163 HD
BRANCH   4   7
ATOM      7  C   UNL A   1      31.414  28.280  24.003  1.00  0.00     0.063 A 
ATOM      8  C   UNL A   1      31.157  26.967  24.433  1.00  0.00     0.054 A 
ATOM      9  C   UNL A   1      29.926  26.360  24.119  1.00  0.00     0.027 A 
ATOM     10  C   UNL A   1      28.870  27.100  23.594  1.00  0.00     0.015 A 
ATOM     11  C   UNL A   1      30.311  29.023  23.506  1.00  0.00     0.029 A 
ATOM     12  C   UNL A   1      29.030  28.463  23.350  1.00  0.00     0.056 A 
BRANCH   8  13
ATOM     13  N   UNL A   1      31.999  26.133  25.175  1.00  0.00    -0.320 N 
ATOM     14  C   UNL A   1      32.654  24.973  24.868  1.00  0.00     0.285 C 
ATOM     15  O   UNL A   1      33.179  24.405  25.839  1.00  0.00    -0.267 OA
ATOM     16  H   UNL A   1      32.149  26.441  26.097  1.00  0.00     0.170 HD
BRANCH  14  17
ATOM     17  C   UNL A   1      32.945  24.488  23.416  1.00  0.00     0.171 C 
ATOM     18  C   UNL A   1      33.916  23.293  23.485  1.00  0.00     0.090 C 
BRANCH  17  19
ATOM     19  C   UNL A   1      33.541  25.652  22.592  1.00  0.00     0.075 C 
ATOM     20  C   UNL A   1      32.786  25.972  21.305  1.00  0.00     0.011 C 
ENDBRANCH  17  19
BRANCH  17  21
ATOM     21  N   UNL A   1      31.749  23.986  22.724  1.00  0.00    -0.345 N 
ATOM     22  H   UNL A   1      31.982  23.135  22.214  1.00  0.00     0.345 HD
ATOM     23  H   UNL A   1      31.412  24.693  22.070  1.00  0.00     0.345 HD
ATOM     24  H   UNL A   1      31.020  23.784  23.408  1.00  0.00     0.345 HD
ENDBRANCH  17  21
ENDBRANCH  14  17
ENDBRANCH   8  13
BRANCH  12  25
ATOM     25  C   UNL A   1      27.840  29.294  22.927  1.00  0.00     0.416 C 
ATOM     26  F   UNL A   1      27.884  29.638  21.613  1.00  0.00    -0.166 F 
ATOM     27  F   UNL A   1      26.664  28.626  23.099  1.00  0.00    -0.166 F 
ATOM     28  F   UNL A   1      27.710  30.454  23.625  1.00  0.00    -0.166 F 
ENDBRANCH  12  25
ENDBRANCH   4   7
ENDBRANCH   2   3
ENDBRANCH   1   2
BRANCH   1  29
ATOM     29  C   UNL A   1      31.800  31.687  26.630  1.00  0.00     0.023 C 
BRANCH  29  30
ATOM     30  C   UNL A   1      32.860  32.547  27.328  1.00  0.00     0.116 C 
BRANCH  30  31
ATOM     31  N   UNL A   1      32.448  33.919  27.602  1.00  0.00    -0.352 N 
ATOM     32  C   UNL A   1      32.952  34.848  28.488  1.00  0.00     0.251 C 
ATOM     33  H   UNL A   1      31.684  34.233  27.067  1.00  0.00     0.163 HD
ATOM     34  O   UNL A   1      32.408  35.935  28.636  1.00  0.00    -0.269 OA
BRANCH  32  35
ATOM     35  C   UNL A   1      34.142  34.516  29.300  1.00  0.00     0.039 A 
ATOM     36  C   UNL A   1      33.970  34.172  30.644  1.00  0.00     0.014 A 
ATOM     37  C   UNL A   1      35.415  34.504  28.727  1.00  0.00     0.014 A 
ATOM     38  C   UNL A   1      35.054  33.673  31.371  1.00  0.00     0.010 A 
ATOM     39  C   UNL A   1      36.477  33.942  29.430  1.00  0.00     0.010 A 
ATOM     40  C   UNL A   1      36.296  33.480  30.743  1.00  0.00    -0.014 A 
BRANCH  40  41
ATOM     41  C   UNL A   1      37.381  32.701  31.393  1.00  0.00     0.031 A 
ATOM     42  C   UNL A   1      37.968  33.137  32.702  1.00  0.00     0.074 A 
ATOM     43  C   UNL A   1      37.916  31.652  30.735  1.00  0.00     0.049 A 
ATOM     44  N   UNL A   1      38.994  32.647  33.351  1.00  0.00    -0.248 NA
ATOM     45  C   UNL A   1      37.332  34.289  33.357  1.00  0.00     0.031 C 
ATOM     46  C   UNL A   1      37.466  31.149  29.435  1.00  0.00     0.029 A 
ATOM     47  N   UNL A   1      38.965  30.830  31.062  1.00  0.00    -0.354 N 
ATOM     48  C   UNL A   1      39.136  33.437  34.483  1.00  0.00     0.074 A 
ATOM     49  C   UNL A   1      38.118  34.465  34.409  1.00  0.00     0.031 C 
ATOM     50  C   UNL A   1      38.214  30.091  29.089  1.00  0.00     0.029 A 
ATOM     51  C   UNL A   1      39.229  29.870  30.113  1.00  0.00     0.049 A 
ATOM     52  H   UNL A   1      39.480  30.919  31.896  1.00  0.00     0.167 HD
ATOM     53  C   UNL A   1      40.022  33.308  35.499  1.00  0.00     0.037 A 
ATOM     54  C   UNL A   1      40.189  28.929  30.064  1.00  0.00     0.037 A 
ATOM     55  C   UNL A   1      41.027  32.278  35.577  1.00  0.00     0.049 A 
ATOM     56  C   UNL A   1      41.197  28.842  31.174  1.00  0.00     0.074 A 
ATOM     57  C   UNL A   1      41.919  32.019  36.604  1.00  0.00     0.029 A 
ATOM     58  N   UNL A   1      41.283  31.347  34.582  1.00  0.00    -0.354 N 
ATOM     59  N   UNL A   1      41.279  29.553  32.271  1.00  0.00    -0.248 NA
ATOM     60  C   UNL A   1      42.254  27.832  31.029  1.00  0.00     0.031 C 
ATOM     61  C   UNL A   1      42.745  30.959  36.210  1.00  0.00     0.029 A 
ATOM     62  C   UNL A   1      42.342  30.535  34.954  1.00  0.00     0.049 A 
ATOM     63  H   UNL A   1      40.785  31.274  33.737  1.00  0.00     0.167 HD
ATOM     64  C   UNL A   1      42.383  29.067  32.957  1.00  0.00     0.074 A 
ATOM     65  C   UNL A   1      42.935  27.993  32.156  1.00  0.00     0.031 C 
ATOM     66  C   UNL A   1      42.890  29.476  34.145  1.00  0.00     0.037 A 
BRANCH  53  67
ATOM     67  C   UNL A   1      39.943  34.315  36.609  1.00  0.00     0.057 A 
ATOM     68  C   UNL A   1      39.165  34.090  37.752  1.00  0.00     0.134 A 
ATOM     69  C   UNL A   1      40.656  35.516  36.538  1.00  0.00     0.134 A 
ATOM     70  F   UNL A   1      38.449  32.962  37.877  1.00  0.00    -0.206 F 
ATOM     71  C   UNL A   1      39.071  35.041  38.769  1.00  0.00     0.040 A 
ATOM     72  C   UNL A   1      40.590  36.465  37.561  1.00  0.00     0.040 A 
ATOM     73  F   UNL A   1      41.426  35.791  35.475  1.00  0.00    -0.206 F 
ATOM     74  C   UNL A   1      39.788  36.232  38.676  1.00  0.00     0.006 A 
ENDBRANCH  53  67
BRANCH  54  75
ATOM     75  C   UNL A   1      40.232  27.979  28.927  1.00  0.00     0.057 A 
ATOM     76  C   UNL A   1      39.534  26.766  28.984  1.00  0.00     0.134 A 
ATOM     77  C   UNL A   1      40.948  28.258  27.756  1.00  0.00     0.134 A 
ATOM     78  F   UNL A   1      38.848  26.437  30.087  1.00  0.00    -0.206 F 
ATOM     79  C   UNL A   1      39.549  25.864  27.920  1.00  0.00     0.040 A 
ATOM     80  C   UNL A   1      40.955  27.374  26.678  1.00  0.00     0.040 A 
ATOM     81  F   UNL A   1      41.632  29.406  27.639  1.00  0.00    -0.206 F 
ATOM     82  C   UNL A   1      40.257  26.170  26.759  1.00  0.00     0.006 A 
ENDBRANCH  54  75
BRANCH  66  83
ATOM     83  C   UNL A   1      44.100  28.754  34.657  1.00  0.00     0.057 A 
ATOM     84  C   UNL A   1      45.395  29.228  34.413  1.00  0.00     0.134 A 
ATOM     85  C   UNL A   1      43.969  27.597  35.435  1.00  0.00     0.134 A 
ATOM     86  F   UNL A   1      45.588  30.321  33.660  1.00  0.00    -0.206 F 
ATOM     87  C   UNL A   1      46.519  28.571  34.919  1.00  0.00     0.040 A 
ATOM     88  C   UNL A   1      45.083  26.943  35.962  1.00  0.00     0.040 A 
ATOM     89  F   UNL A   1      42.755  27.093  35.706  1.00  0.00    -0.206 F 
ATOM     90  C   UNL A   1      46.362  27.429  35.703  1.00  0.00     0.006 A 
ENDBRANCH  66  83
ENDBRANCH  40  41
ENDBRANCH  32  35
ENDBRANCH  30  31
ENDBRANCH  29  30
ENDBRANCH   1  29
TORSDOF 16
ENDMDL
MODEL 3
REMARK VINA RESULT:     -11.9      5.401      9.449
REMARK SMILES CC[C@](C)([NH3+])C(=O)Nc1ccc(C(F)(F)F)cc1C(=O)NCCCCNC(=O)c1ccc(-c2c3nc(c(-c4c(F)cccc4F)c4ccc([nH]4)c(-c4c(F)cccc4F)c4nc(c(-c5c(F)cccc5F)c5ccc2[nH]5)C=C4)C=C3)cc1
REMARK SMILES IDX 23 1 22 2 21 3 19 4 20 5 18 7 9 8 10 9 11 10 17 11 12 12
REMARK SMILES IDX 8 13 6 14 7 15 3 17 4 18 2 19 1 20 5 21 13 25 14 26 15 27
REMARK SMILES IDX 16 28 24 29 25 30 26 31 27 32 28 34 29 35 30 36 82 37 31 38
REMARK SMILES IDX 81 39 32 40 33 41 34 42 75 43 35 44 80 45 74 46 76 47 36 48
REMARK SMILES IDX 79 49 73 50 72 51 37 53 63 54 46 55 62 56 47 57 50 58 61 59
REMARK SMILES IDX 77 60 48 61 49 62 60 64 78 65 51 66 38 67 39 68 44 69 40 70
REMARK SMILES IDX 41 71 43 72 45 73 42 74 64 75 65 76 70 77 66 78 67 79 69 80
REMARK SMILES IDX 71 81 68 82 52 83 53 84 58 85 54 86 55 87 57 88 59 89 56 90
REMARK H PARENT 21 6 8 16 5 22 5 23 5 24 26 33 76 52 50 63
REMARK Flexibility Score: inf
ROOT
ATOM      1  C   UNL A   1      37.157  21.541  24.495  1.00  0.00     0.023 C 
ENDROOT
BRANCH   1   2
ATOM      2  C   UNL A   1      36.872  22.626  25.529  1.00  0.00     0.116 C 
BRANCH   2   3
ATOM      3  N   UNL A   1      35.932  22.272  26.567  1.00  0.00    -0.352 N 
ATOM      4  C   UNL A   1      34.646  21.779  26.498  1.00  0.00     0.253 C 
ATOM      5  O   UNL A   1      34.071  21.600  27.576  1.00  0.00    -0.269 OA
ATOM      6  H   UNL A   1      36.268  22.405  27.483  1.00  0.00     0.163 HD
BRANCH   4   7
ATOM      7  C   UNL A   1      33.860  21.546  25.230  1.00  0.00     0.063 A 
ATOM      8  C   UNL A   1      33.326  22.488  24.335  1.00  0.00     0.054 A 
ATOM      9  C   UNL A   1      32.396  22.073  23.362  1.00  0.00     0.027 A 
ATOM     10  C   UNL A   1      32.163  20.724  23.115  1.00  0.00     0.015 A 
ATOM     11  C   UNL A   1      33.637  20.175  24.933  1.00  0.00     0.029 A 
ATOM     12  C   UNL A   1      32.842  19.755  23.852  1.00  0.00     0.056 A 
BRANCH   8  13
ATOM     13  N   UNL A   1      33.607  23.855  24.268  1.00  0.00    -0.320 N 
ATOM     14  C   UNL A   1      32.850  24.967  24.509  1.00  0.00     0.285 C 
ATOM     15  O   UNL A   1      33.383  26.037  24.174  1.00  0.00    -0.267 OA
ATOM     16  H   UNL A   1      34.531  24.056  23.994  1.00  0.00     0.170 HD
BRANCH  14  17
ATOM     17  C   UNL A   1      31.531  24.967  25.339  1.00  0.00     0.171 C 
ATOM     18  C   UNL A   1      31.171  26.425  25.685  1.00  0.00     0.090 C 
BRANCH  17  19
ATOM     19  C   UNL A   1      31.724  24.116  26.615  1.00  0.00     0.075 C 
ATOM     20  C   UNL A   1      30.668  23.034  26.824  1.00  0.00     0.011 C 
ENDBRANCH  17  19
BRANCH  17  21
ATOM     21  N   UNL A   1      30.379  24.441  24.593  1.00  0.00    -0.345 N 
ATOM     22  H   UNL A   1      30.576  24.476  23.593  1.00  0.00     0.345 HD
ATOM     23  H   UNL A   1      29.555  25.006  24.797  1.00  0.00     0.345 HD
ATOM     24  H   UNL A   1      30.206  23.476  24.872  1.00  0.00     0.345 HD
ENDBRANCH  17  21
ENDBRANCH  14  17
ENDBRANCH   8  13
BRANCH  12  25
ATOM     25  C   UNL A   1      32.705  18.296  23.480  1.00  0.00     0.416 C 
ATOM     26  F   UNL A   1      33.907  17.693  23.281  1.00  0.00    -0.166 F 
ATOM     27  F   UNL A   1      32.082  17.576  24.456  1.00  0.00    -0.166 F 
ATOM     28  F   UNL A   1      31.978  18.088  22.349  1.00  0.00    -0.166 F 
ENDBRANCH  12  25
ENDBRANCH   4   7
ENDBRANCH   2   3
ENDBRANCH   1   2
BRANCH   1  29
ATOM     29  C   UNL A   1      37.908  20.304  25.007  1.00  0.00     0.023 C 
BRANCH  29  30
ATOM     30  C   UNL A   1      39.220  20.535  25.765  1.00  0.00     0.116 C 
BRANCH  30  31
ATOM     31  N   UNL A   1      40.094  19.371  25.842  1.00  0.00    -0.352 N 
ATOM     32  C   UNL A   1      41.440  19.274  26.125  1.00  0.00     0.251 C 
ATOM     33  H   UNL A   1      39.649  18.511  25.664  1.00  0.00     0.163 HD
ATOM     34  O   UNL A   1      42.021  18.199  26.057  1.00  0.00    -0.269 OA
BRANCH  32  35
ATOM     35  C   UNL A   1      42.204  20.490  26.476  1.00  0.00     0.039 A 
ATOM     36  C   UNL A   1      42.915  21.157  25.475  1.00  0.00     0.014 A 
ATOM     37  C   UNL A   1      42.184  20.993  27.779  1.00  0.00     0.014 A 
ATOM     38  C   UNL A   1      43.481  22.406  25.746  1.00  0.00     0.010 A 
ATOM     39  C   UNL A   1      42.688  22.266  28.030  1.00  0.00     0.010 A 
ATOM     40  C   UNL A   1      43.301  23.003  27.005  1.00  0.00    -0.014 A 
BRANCH  40  41
ATOM     41  C   UNL A   1      43.640  24.430  27.241  1.00  0.00     0.031 A 
ATOM     42  C   UNL A   1      45.063  24.903  27.197  1.00  0.00     0.074 A 
ATOM     43  C   UNL A   1      42.662  25.281  27.611  1.00  0.00     0.049 A 
ATOM     44  N   UNL A   1      45.550  26.082  27.494  1.00  0.00    -0.248 NA
ATOM     45  C   UNL A   1      46.071  23.917  26.788  1.00  0.00     0.031 C 
ATOM     46  C   UNL A   1      41.243  24.939  27.734  1.00  0.00     0.029 A 
ATOM     47  N   UNL A   1      42.714  26.606  27.968  1.00  0.00    -0.354 N 
ATOM     48  C   UNL A   1      46.923  25.976  27.320  1.00  0.00     0.074 A 
ATOM     49  C   UNL A   1      47.194  24.606  26.934  1.00  0.00     0.031 C 
ATOM     50  C   UNL A   1      40.557  26.029  28.109  1.00  0.00     0.029 A 
ATOM     51  C   UNL A   1      41.490  27.133  28.305  1.00  0.00     0.049 A 
ATOM     52  H   UNL A   1      43.548  27.128  27.981  1.00  0.00     0.167 HD
ATOM     53  C   UNL A   1      47.868  26.937  27.452  1.00  0.00     0.037 A 
ATOM     54  C   UNL A   1      41.156  28.363  28.738  1.00  0.00     0.037 A 
ATOM     55  C   UNL A   1      47.597  28.302  27.825  1.00  0.00     0.049 A 
ATOM     56  C   UNL A   1      42.230  29.394  28.934  1.00  0.00     0.074 A 
ATOM     57  C   UNL A   1      48.479  29.365  27.909  1.00  0.00     0.029 A 
ATOM     58  N   UNL A   1      46.350  28.787  28.189  1.00  0.00    -0.354 N 
ATOM     59  N   UNL A   1      43.516  29.300  28.702  1.00  0.00    -0.248 NA
ATOM     60  C   UNL A   1      41.806  30.696  29.467  1.00  0.00     0.031 C 
ATOM     61  C   UNL A   1      47.774  30.484  28.369  1.00  0.00     0.029 A 
ATOM     62  C   UNL A   1      46.445  30.126  28.534  1.00  0.00     0.049 A 
ATOM     63  H   UNL A   1      45.520  28.259  28.200  1.00  0.00     0.167 HD
ATOM     64  C   UNL A   1      44.054  30.533  29.042  1.00  0.00     0.074 A 
ATOM     65  C   UNL A   1      42.953  31.363  29.488  1.00  0.00     0.031 C 
ATOM     66  C   UNL A   1      45.345  30.939  28.988  1.00  0.00     0.037 A 
BRANCH  53  67
ATOM     67  C   UNL A   1      49.292  26.536  27.195  1.00  0.00     0.057 A 
ATOM     68  C   UNL A   1      49.844  26.570  25.908  1.00  0.00     0.134 A 
ATOM     69  C   UNL A   1      50.119  26.119  28.244  1.00  0.00     0.134 A 
ATOM     70  F   UNL A   1      49.101  26.950  24.858  1.00  0.00    -0.206 F 
ATOM     71  C   UNL A   1      51.160  26.170  25.669  1.00  0.00     0.040 A 
ATOM     72  C   UNL A   1      51.444  25.741  28.021  1.00  0.00     0.040 A 
ATOM     73  F   UNL A   1      49.655  26.071  29.501  1.00  0.00    -0.206 F 
ATOM     74  C   UNL A   1      51.965  25.756  26.728  1.00  0.00     0.006 A 
ENDBRANCH  53  67
BRANCH  54  75
ATOM     75  C   UNL A   1      39.734  28.691  29.001  1.00  0.00     0.057 A 
ATOM     76  C   UNL A   1      38.923  29.208  27.985  1.00  0.00     0.134 A 
ATOM     77  C   UNL A   1      39.147  28.483  30.256  1.00  0.00     0.134 A 
ATOM     78  F   UNL A   1      39.435  29.446  26.770  1.00  0.00    -0.206 F 
ATOM     79  C   UNL A   1      37.579  29.511  28.207  1.00  0.00     0.040 A 
ATOM     80  C   UNL A   1      37.801  28.763  30.485  1.00  0.00     0.040 A 
ATOM     81  F   UNL A   1      39.873  27.985  31.268  1.00  0.00    -0.206 F 
ATOM     82  C   UNL A   1      37.012  29.282  29.460  1.00  0.00     0.006 A 
ENDBRANCH  54  75
BRANCH  66  83
ATOM     83  C   UNL A   1      45.639  32.346  29.412  1.00  0.00     0.057 A 
ATOM     84  C   UNL A   1      46.030  32.650  30.722  1.00  0.00     0.134 A 
ATOM     85  C   UNL A   1      45.571  33.402  28.494  1.00  0.00     0.134 A 
ATOM     86  F   UNL A   1      46.096  31.687  31.653  1.00  0.00    -0.206 F 
ATOM     87  C   UNL A   1      46.334  33.958  31.107  1.00  0.00     0.040 A 
ATOM     88  C   UNL A   1      45.893  34.709  28.861  1.00  0.00     0.040 A 
ATOM     89  F   UNL A   1      45.206  33.175  27.223  1.00  0.00    -0.206 F 
ATOM     90  C   UNL A   1      46.273  34.990  30.172  1.00  0.00     0.006 A 
ENDBRANCH  66  83
ENDBRANCH  40  41
ENDBRANCH  32  35
ENDBRANCH  30  31
ENDBRANCH  29  30
ENDBRANCH   1  29
TORSDOF 16
ENDMDL
