MODEL 1
REMARK VINA RESULT:     -11.1      0.000      0.000
REMARK SMILES Cc1ccc(O)c(C[C@H](NC=O)C(=O)NCCCCNC(=O)c2ccc(-c3c4nc(c(-c5c(F)cccc5F)c5ccc([nH]5)c(-c5c(F)cccc5F)c5nc(c(-c6c(F)cccc6F)c6ccc3[nH]6)C=C5)C=C4)cc2)n1
REMARK SMILES IDX 17 1 16 2 15 3 13 4 14 5 9 7 8 8 7 9 1 10 2 11 3 12 77 13
REMARK SMILES IDX 4 14 5 15 6 16 10 18 11 19 12 21 18 22 19 23 20 24 21 25
REMARK SMILES IDX 22 27 23 28 24 29 76 30 25 31 75 32 26 33 27 34 28 35 69 36
REMARK SMILES IDX 29 37 74 38 68 39 70 40 30 41 73 42 67 43 66 44 31 46 57 47
REMARK SMILES IDX 40 48 56 49 41 50 44 51 55 52 71 53 42 54 43 55 54 57 72 58
REMARK SMILES IDX 45 59 32 60 33 61 38 62 34 63 35 64 37 65 39 66 36 67 58 68
REMARK SMILES IDX 59 69 64 70 60 71 61 72 63 73 65 74 62 75 46 76 47 77 52 78
REMARK SMILES IDX 48 79 49 80 51 81 53 82 50 83
REMARK H PARENT 15 6 6 17 10 20 20 26 70 45 44 56
REMARK Flexibility Score: inf
ROOT
ATOM      1  C   UNL A   1      36.715  19.956  25.002  1.00  0.00     0.023 C 
ENDROOT
BRANCH   1   2
ATOM      2  C   UNL A   1      36.318  21.390  25.326  1.00  0.00     0.116 C 
BRANCH   2   3
ATOM      3  N   UNL A   1      35.388  21.929  24.348  1.00  0.00    -0.354 N 
ATOM      4  C   UNL A   1      34.030  22.073  24.443  1.00  0.00     0.242 C 
ATOM      5  O   UNL A   1      33.459  22.767  23.598  1.00  0.00    -0.273 OA
ATOM      6  H   UNL A   1      35.789  22.232  23.502  1.00  0.00     0.163 HD
BRANCH   4   7
ATOM      7  C   UNL A   1      33.239  21.366  25.561  1.00  0.00     0.177 C 
BRANCH   7   8
ATOM      8  C   UNL A   1      32.151  20.384  25.083  1.00  0.00     0.095 C 
BRANCH   8   9
ATOM      9  C   UNL A   1      32.663  19.181  24.331  1.00  0.00     0.085 A 
ATOM     10  C   UNL A   1      34.526  16.184  25.375  1.00  0.00     0.067 C 
ATOM     11  C   UNL A   1      33.837  17.166  24.477  1.00  0.00     0.038 A 
ATOM     12  C   UNL A   1      33.670  16.923  23.123  1.00  0.00     0.027 A 
ATOM     13  N   UNL A   1      33.375  18.290  25.068  1.00  0.00    -0.254 NA
ATOM     14  C   UNL A   1      32.982  17.861  22.356  1.00  0.00     0.050 A 
ATOM     15  C   UNL A   1      32.463  19.000  22.967  1.00  0.00     0.137 A 
BRANCH  15  16
ATOM     16  O   UNL A   1      31.778  19.925  22.238  1.00  0.00    -0.506 OA
ATOM     17  H   UNL A   1      32.220  20.683  21.910  1.00  0.00     0.293 HD
ENDBRANCH  15  16
ENDBRANCH   8   9
ENDBRANCH   7   8
BRANCH   7  18
ATOM     18  N   UNL A   1      32.711  22.424  26.435  1.00  0.00    -0.347 N 
ATOM     19  C   UNL A   1      31.424  22.844  26.503  1.00  0.00     0.337 C 
ATOM     20  H   UNL A   1      33.356  22.872  27.029  1.00  0.00     0.164 HD
ATOM     21  O   UNL A   1      31.069  23.746  27.251  1.00  0.00    -0.279 OA
ENDBRANCH   7  18
ENDBRANCH   4   7
ENDBRANCH   2   3
ENDBRANCH   1   2
BRANCH   1  22
ATOM     22  C   UNL A   1      38.184  19.778  24.622  1.00  0.00     0.023 C 
BRANCH  22  23
ATOM     23  C   UNL A   1      39.178  20.042  25.749  1.00  0.00     0.116 C 
BRANCH  23  24
ATOM     24  N   UNL A   1      40.209  19.019  25.845  1.00  0.00    -0.352 N 
ATOM     25  C   UNL A   1      41.557  19.163  26.067  1.00  0.00     0.251 C 
ATOM     26  H   UNL A   1      39.895  18.092  25.734  1.00  0.00     0.163 HD
ATOM     27  O   UNL A   1      42.311  18.202  25.959  1.00  0.00    -0.269 OA
BRANCH  25  28
ATOM     28  C   UNL A   1      42.100  20.492  26.411  1.00  0.00     0.039 A 
ATOM     29  C   UNL A   1      42.477  21.356  25.381  1.00  0.00     0.014 A 
ATOM     30  C   UNL A   1      42.211  20.892  27.746  1.00  0.00     0.014 A 
ATOM     31  C   UNL A   1      42.897  22.651  25.689  1.00  0.00     0.010 A 
ATOM     32  C   UNL A   1      42.552  22.208  28.045  1.00  0.00     0.010 A 
ATOM     33  C   UNL A   1      42.897  23.102  27.020  1.00  0.00    -0.014 A 
BRANCH  33  34
ATOM     34  C   UNL A   1      43.248  24.505  27.356  1.00  0.00     0.031 A 
ATOM     35  C   UNL A   1      44.682  24.955  27.328  1.00  0.00     0.074 A 
ATOM     36  C   UNL A   1      42.280  25.360  27.743  1.00  0.00     0.049 A 
ATOM     37  N   UNL A   1      45.190  26.120  27.642  1.00  0.00    -0.248 NA
ATOM     38  C   UNL A   1      45.682  23.958  26.914  1.00  0.00     0.031 C 
ATOM     39  C   UNL A   1      40.858  25.035  27.855  1.00  0.00     0.029 A 
ATOM     40  N   UNL A   1      42.349  26.678  28.122  1.00  0.00    -0.354 N 
ATOM     41  C   UNL A   1      46.563  25.992  27.473  1.00  0.00     0.074 A 
ATOM     42  C   UNL A   1      46.815  24.621  27.087  1.00  0.00     0.031 C 
ATOM     43  C   UNL A   1      40.185  26.129  28.246  1.00  0.00     0.029 A 
ATOM     44  C   UNL A   1      41.132  27.220  28.454  1.00  0.00     0.049 A 
ATOM     45  H   UNL A   1      43.192  27.186  28.151  1.00  0.00     0.167 HD
ATOM     46  C   UNL A   1      47.524  26.937  27.600  1.00  0.00     0.037 A 
ATOM     47  C   UNL A   1      40.814  28.455  28.888  1.00  0.00     0.037 A 
ATOM     48  C   UNL A   1      47.269  28.306  27.971  1.00  0.00     0.049 A 
ATOM     49  C   UNL A   1      41.905  29.479  29.051  1.00  0.00     0.074 A 
ATOM     50  C   UNL A   1      48.169  29.351  28.080  1.00  0.00     0.029 A 
ATOM     51  N   UNL A   1      46.022  28.816  28.299  1.00  0.00    -0.354 N 
ATOM     52  N   UNL A   1      43.191  29.363  28.819  1.00  0.00    -0.248 NA
ATOM     53  C   UNL A   1      41.499  30.807  29.530  1.00  0.00     0.031 C 
ATOM     54  C   UNL A   1      47.476  30.481  28.524  1.00  0.00     0.029 A 
ATOM     55  C   UNL A   1      46.134  30.156  28.636  1.00  0.00     0.049 A 
ATOM     56  H   UNL A   1      45.182  28.304  28.294  1.00  0.00     0.167 HD
ATOM     57  C   UNL A   1      43.741  30.608  29.095  1.00  0.00     0.074 A 
ATOM     58  C   UNL A   1      42.646  31.469  29.494  1.00  0.00     0.031 C 
ATOM     59  C   UNL A   1      45.036  31.004  29.023  1.00  0.00     0.037 A 
BRANCH  46  60
ATOM     60  C   UNL A   1      48.943  26.523  27.335  1.00  0.00     0.057 A 
ATOM     61  C   UNL A   1      49.490  26.544  26.044  1.00  0.00     0.134 A 
ATOM     62  C   UNL A   1      49.785  26.135  28.384  1.00  0.00     0.134 A 
ATOM     63  F   UNL A   1      48.735  26.896  24.992  1.00  0.00    -0.206 F 
ATOM     64  C   UNL A   1      50.812  26.168  25.804  1.00  0.00     0.040 A 
ATOM     65  C   UNL A   1      51.118  25.785  28.160  1.00  0.00     0.040 A 
ATOM     66  F   UNL A   1      49.330  26.099  29.645  1.00  0.00    -0.206 F 
ATOM     67  C   UNL A   1      51.633  25.794  26.866  1.00  0.00     0.006 A 
ENDBRANCH  46  60
BRANCH  47  68
ATOM     68  C   UNL A   1      39.401  28.804  29.185  1.00  0.00     0.057 A 
ATOM     69  C   UNL A   1      38.573  29.362  28.203  1.00  0.00     0.134 A 
ATOM     70  C   UNL A   1      38.850  28.611  30.457  1.00  0.00     0.134 A 
ATOM     71  F   UNL A   1      39.047  29.589  26.969  1.00  0.00    -0.206 F 
ATOM     72  C   UNL A   1      37.258  29.738  28.481  1.00  0.00     0.040 A 
ATOM     73  C   UNL A   1      37.528  28.955  30.742  1.00  0.00     0.040 A 
ATOM     74  F   UNL A   1      39.587  28.074  31.440  1.00  0.00    -0.206 F 
ATOM     75  C   UNL A   1      36.730  29.531  29.753  1.00  0.00     0.006 A 
ENDBRANCH  47  68
BRANCH  59  76
ATOM     76  C   UNL A   1      45.336  32.440  29.346  1.00  0.00     0.057 A 
ATOM     77  C   UNL A   1      45.280  33.447  28.375  1.00  0.00     0.134 A 
ATOM     78  C   UNL A   1      45.648  32.822  30.658  1.00  0.00     0.134 A 
ATOM     79  F   UNL A   1      45.000  33.147  27.098  1.00  0.00    -0.206 F 
ATOM     80  C   UNL A   1      45.550  34.780  28.692  1.00  0.00     0.040 A 
ATOM     81  C   UNL A   1      45.889  34.156  30.992  1.00  0.00     0.040 A 
ATOM     82  F   UNL A   1      45.708  31.910  31.638  1.00  0.00    -0.206 F 
ATOM     83  C   UNL A   1      45.848  35.138  30.006  1.00  0.00     0.006 A 
ENDBRANCH  59  76
ENDBRANCH  33  34
ENDBRANCH  25  28
ENDBRANCH  23  24
ENDBRANCH  22  23
ENDBRANCH   1  22
TORSDOF 15
ENDMDL
MODEL 2
REMARK VINA RESULT:     -11.1      5.884     10.631
REMARK SMILES Cc1ccc(O)c(C[C@H](NC=O)C(=O)NCCCCNC(=O)c2ccc(-c3c4nc(c(-c5c(F)cccc5F)c5ccc([nH]5)c(-c5c(F)cccc5F)c5nc(c(-c6c(F)cccc6F)c6ccc3[nH]6)C=C5)C=C4)cc2)n1
REMARK SMILES IDX 17 1 16 2 15 3 13 4 14 5 9 7 8 8 7 9 1 10 2 11 3 12 77 13
REMARK SMILES IDX 4 14 5 15 6 16 10 18 11 19 12 21 18 22 19 23 20 24 21 25
REMARK SMILES IDX 22 27 23 28 24 29 76 30 25 31 75 32 26 33 27 34 28 35 69 36
REMARK SMILES IDX 29 37 74 38 68 39 70 40 30 41 73 42 67 43 66 44 31 46 57 47
REMARK SMILES IDX 40 48 56 49 41 50 44 51 55 52 71 53 42 54 43 55 54 57 72 58
REMARK SMILES IDX 45 59 32 60 33 61 38 62 34 63 35 64 37 65 39 66 36 67 58 68
REMARK SMILES IDX 59 69 64 70 60 71 61 72 63 73 65 74 62 75 46 76 47 77 52 78
REMARK SMILES IDX 48 79 49 80 51 81 53 82 50 83
REMARK H PARENT 15 6 6 17 10 20 20 26 70 45 44 56
REMARK Flexibility Score: inf
ROOT
ATOM      1  C   UNL A   1      31.684  30.074  26.399  1.00  0.00     0.023 C 
ENDROOT
BRANCH   1   2
ATOM      2  C   UNL A   1      32.370  29.719  25.086  1.00  0.00     0.116 C 
BRANCH   2   3
ATOM      3  N   UNL A   1      32.983  28.402  25.133  1.00  0.00    -0.354 N 
ATOM      4  C   UNL A   1      32.987  27.423  24.176  1.00  0.00     0.242 C 
ATOM      5  O   UNL A   1      33.762  26.473  24.321  1.00  0.00    -0.273 OA
ATOM      6  H   UNL A   1      33.460  28.185  25.966  1.00  0.00     0.163 HD
BRANCH   4   7
ATOM      7  C   UNL A   1      32.033  27.496  22.969  1.00  0.00     0.177 C 
BRANCH   7   8
ATOM      8  C   UNL A   1      30.651  26.845  23.175  1.00  0.00     0.095 C 
BRANCH   8   9
ATOM      9  C   UNL A   1      29.482  27.796  23.120  1.00  0.00     0.085 A 
ATOM     10  C   UNL A   1      29.161  31.307  22.063  1.00  0.00     0.067 C 
ATOM     11  C   UNL A   1      28.778  29.965  22.606  1.00  0.00     0.038 A 
ATOM     12  C   UNL A   1      27.470  29.666  22.955  1.00  0.00     0.027 A 
ATOM     13  N   UNL A   1      29.775  29.060  22.719  1.00  0.00    -0.254 NA
ATOM     14  C   UNL A   1      27.177  28.384  23.414  1.00  0.00     0.050 A 
ATOM     15  C   UNL A   1      28.192  27.433  23.489  1.00  0.00     0.137 A 
BRANCH  15  16
ATOM     16  O   UNL A   1      27.926  26.169  23.925  1.00  0.00    -0.506 OA
ATOM     17  H   UNL A   1      27.507  25.555  23.356  1.00  0.00     0.293 HD
ENDBRANCH  15  16
ENDBRANCH   8   9
ENDBRANCH   7   8
BRANCH   7  18
ATOM     18  N   UNL A   1      32.764  26.937  21.821  1.00  0.00    -0.347 N 
ATOM     19  C   UNL A   1      32.367  25.900  21.044  1.00  0.00     0.337 C 
ATOM     20  H   UNL A   1      33.626  27.356  21.597  1.00  0.00     0.164 HD
ATOM     21  O   UNL A   1      33.046  25.484  20.113  1.00  0.00    -0.279 OA
ENDBRANCH   7  18
ENDBRANCH   4   7
ENDBRANCH   2   3
ENDBRANCH   1   2
BRANCH   1  22
ATOM     22  C   UNL A   1      31.495  31.573  26.627  1.00  0.00     0.023 C 
BRANCH  22  23
ATOM     23  C   UNL A   1      32.772  32.342  26.948  1.00  0.00     0.116 C 
BRANCH  23  24
ATOM     24  N   UNL A   1      32.516  33.708  27.381  1.00  0.00    -0.352 N 
ATOM     25  C   UNL A   1      33.109  34.425  28.392  1.00  0.00     0.251 C 
ATOM     26  H   UNL A   1      31.817  34.186  26.878  1.00  0.00     0.163 HD
ATOM     27  O   UNL A   1      32.661  35.515  28.727  1.00  0.00    -0.269 OA
BRANCH  25  28
ATOM     28  C   UNL A   1      34.279  33.860  29.094  1.00  0.00     0.039 A 
ATOM     29  C   UNL A   1      34.072  32.908  30.095  1.00  0.00     0.014 A 
ATOM     30  C   UNL A   1      35.575  34.251  28.747  1.00  0.00     0.014 A 
ATOM     31  C   UNL A   1      35.172  32.293  30.696  1.00  0.00     0.010 A 
ATOM     32  C   UNL A   1      36.666  33.579  29.290  1.00  0.00     0.010 A 
ATOM     33  C   UNL A   1      36.476  32.593  30.269  1.00  0.00    -0.014 A 
BRANCH  33  34
ATOM     34  C   UNL A   1      37.651  31.878  30.830  1.00  0.00     0.031 A 
ATOM     35  C   UNL A   1      38.178  32.239  32.192  1.00  0.00     0.074 A 
ATOM     36  C   UNL A   1      38.280  30.944  30.089  1.00  0.00     0.049 A 
ATOM     37  N   UNL A   1      39.223  31.769  32.825  1.00  0.00    -0.248 NA
ATOM     38  C   UNL A   1      37.449  33.282  32.930  1.00  0.00     0.031 C 
ATOM     39  C   UNL A   1      37.896  30.535  28.738  1.00  0.00     0.029 A 
ATOM     40  N   UNL A   1      39.382  30.174  30.368  1.00  0.00    -0.354 N 
ATOM     41  C   UNL A   1      39.279  32.463  34.027  1.00  0.00     0.074 A 
ATOM     42  C   UNL A   1      38.202  33.428  34.010  1.00  0.00     0.031 C 
ATOM     43  C   UNL A   1      38.729  29.571  28.316  1.00  0.00     0.029 A 
ATOM     44  C   UNL A   1      39.731  29.324  29.347  1.00  0.00     0.049 A 
ATOM     45  H   UNL A   1      39.874  30.225  31.219  1.00  0.00     0.167 HD
ATOM     46  C   UNL A   1      40.134  32.293  35.064  1.00  0.00     0.037 A 
ATOM     47  C   UNL A   1      40.751  28.449  29.249  1.00  0.00     0.037 A 
ATOM     48  C   UNL A   1      41.198  31.323  35.085  1.00  0.00     0.049 A 
ATOM     49  C   UNL A   1      41.706  28.302  30.402  1.00  0.00     0.074 A 
ATOM     50  C   UNL A   1      42.087  31.041  36.107  1.00  0.00     0.029 A 
ATOM     51  N   UNL A   1      41.519  30.479  34.032  1.00  0.00    -0.354 N 
ATOM     52  N   UNL A   1      41.705  28.916  31.561  1.00  0.00    -0.248 NA
ATOM     53  C   UNL A   1      42.800  27.336  30.236  1.00  0.00     0.031 C 
ATOM     54  C   UNL A   1      42.979  30.065  35.655  1.00  0.00     0.029 A 
ATOM     55  C   UNL A   1      42.610  29.695  34.372  1.00  0.00     0.049 A 
ATOM     56  H   UNL A   1      41.043  30.442  33.171  1.00  0.00     0.167 HD
ATOM     57  C   UNL A   1      42.776  28.390  32.271  1.00  0.00     0.074 A 
ATOM     58  C   UNL A   1      43.393  27.394  31.419  1.00  0.00     0.031 C 
ATOM     59  C   UNL A   1      43.210  28.702  33.518  1.00  0.00     0.037 A 
BRANCH  46  60
ATOM     60  C   UNL A   1      39.953  33.179  36.264  1.00  0.00     0.057 A 
ATOM     61  C   UNL A   1      39.093  32.832  37.315  1.00  0.00     0.134 A 
ATOM     62  C   UNL A   1      40.673  34.373  36.389  1.00  0.00     0.134 A 
ATOM     63  F   UNL A   1      38.364  31.707  37.253  1.00  0.00    -0.206 F 
ATOM     64  C   UNL A   1      38.935  33.653  38.432  1.00  0.00     0.040 A 
ATOM     65  C   UNL A   1      40.547  35.188  37.516  1.00  0.00     0.040 A 
ATOM     66  F   UNL A   1      41.520  34.763  35.424  1.00  0.00    -0.206 F 
ATOM     67  C   UNL A   1      39.670  34.833  38.538  1.00  0.00     0.006 A 
ENDBRANCH  46  60
BRANCH  47  68
ATOM     68  C   UNL A   1      40.919  27.629  28.020  1.00  0.00     0.057 A 
ATOM     69  C   UNL A   1      41.651  28.107  26.927  1.00  0.00     0.134 A 
ATOM     70  C   UNL A   1      40.335  26.362  27.900  1.00  0.00     0.134 A 
ATOM     71  F   UNL A   1      42.219  29.321  26.973  1.00  0.00    -0.206 F 
ATOM     72  C   UNL A   1      41.776  27.367  25.750  1.00  0.00     0.040 A 
ATOM     73  C   UNL A   1      40.477  25.598  26.741  1.00  0.00     0.040 A 
ATOM     74  F   UNL A   1      39.627  25.843  28.915  1.00  0.00    -0.206 F 
ATOM     75  C   UNL A   1      41.191  26.106  25.657  1.00  0.00     0.006 A 
ENDBRANCH  47  68
BRANCH  59  76
ATOM     76  C   UNL A   1      44.384  27.932  34.051  1.00  0.00     0.057 A 
ATOM     77  C   UNL A   1      45.697  28.409  33.943  1.00  0.00     0.134 A 
ATOM     78  C   UNL A   1      44.192  26.712  34.714  1.00  0.00     0.134 A 
ATOM     79  F   UNL A   1      45.951  29.563  33.308  1.00  0.00    -0.206 F 
ATOM     80  C   UNL A   1      46.779  27.688  34.453  1.00  0.00     0.040 A 
ATOM     81  C   UNL A   1      45.263  25.999  35.255  1.00  0.00     0.040 A 
ATOM     82  F   UNL A   1      42.961  26.203  34.862  1.00  0.00    -0.206 F 
ATOM     83  C   UNL A   1      46.561  26.483  35.118  1.00  0.00     0.006 A 
ENDBRANCH  59  76
ENDBRANCH  33  34
ENDBRANCH  25  28
ENDBRANCH  23  24
ENDBRANCH  22  23
ENDBRANCH   1  22
TORSDOF 15
ENDMDL
MODEL 3
REMARK VINA RESULT:     -10.9      6.246     10.623
REMARK SMILES Cc1ccc(O)c(C[C@H](NC=O)C(=O)NCCCCNC(=O)c2ccc(-c3c4nc(c(-c5c(F)cccc5F)c5ccc([nH]5)c(-c5c(F)cccc5F)c5nc(c(-c6c(F)cccc6F)c6ccc3[nH]6)C=C5)C=C4)cc2)n1
REMARK SMILES IDX 17 1 16 2 15 3 13 4 14 5 9 7 8 8 7 9 1 10 2 11 3 12 77 13
REMARK SMILES IDX 4 14 5 15 6 16 10 18 11 19 12 21 18 22 19 23 20 24 21 25
REMARK SMILES IDX 22 27 23 28 24 29 76 30 25 31 75 32 26 33 27 34 28 35 69 36
REMARK SMILES IDX 29 37 74 38 68 39 70 40 30 41 73 42 67 43 66 44 31 46 57 47
REMARK SMILES IDX 40 48 56 49 41 50 44 51 55 52 71 53 42 54 43 55 54 57 72 58
REMARK SMILES IDX 45 59 32 60 33 61 38 62 34 63 35 64 37 65 39 66 36 67 58 68
REMARK SMILES IDX 59 69 64 70 60 71 61 72 63 73 65 74 62 75 46 76 47 77 52 78
REMARK SMILES IDX 48 79 49 80 51 81 53 82 50 83
REMARK H PARENT 15 6 6 17 10 20 20 26 70 45 44 56
REMARK Flexibility Score: inf
ROOT
ATOM      1  C   UNL A   1      31.380  31.171  25.753  1.00  0.00     0.023 C 
ENDROOT
BRANCH   1   2
ATOM      2  C   UNL A   1      32.241  29.915  25.717  1.00  0.00     0.116 C 
BRANCH   2   3
ATOM      3  N   UNL A   1      31.439  28.705  25.797  1.00  0.00    -0.354 N 
ATOM      4  C   UNL A   1      31.274  27.723  24.859  1.00  0.00     0.242 C 
ATOM      5  O   UNL A   1      30.740  26.667  25.211  1.00  0.00    -0.273 OA
ATOM      6  H   UNL A   1      30.948  28.575  26.640  1.00  0.00     0.163 HD
BRANCH   4   7
ATOM      7  C   UNL A   1      31.719  27.942  23.400  1.00  0.00     0.177 C 
BRANCH   7   8
ATOM      8  C   UNL A   1      30.587  27.935  22.353  1.00  0.00     0.095 C 
BRANCH   8   9
ATOM      9  C   UNL A   1      29.421  28.838  22.669  1.00  0.00     0.085 A 
ATOM     10  C   UNL A   1      28.877  32.456  22.268  1.00  0.00     0.067 C 
ATOM     11  C   UNL A   1      28.614  31.031  22.650  1.00  0.00     0.038 A 
ATOM     12  C   UNL A   1      27.398  30.632  23.182  1.00  0.00     0.027 A 
ATOM     13  N   UNL A   1      29.623  30.159  22.429  1.00  0.00    -0.254 NA
ATOM     14  C   UNL A   1      27.208  29.283  23.475  1.00  0.00     0.050 A 
ATOM     15  C   UNL A   1      28.227  28.372  23.207  1.00  0.00     0.137 A 
BRANCH  15  16
ATOM     16  O   UNL A   1      28.059  27.046  23.476  1.00  0.00    -0.506 OA
ATOM     17  H   UNL A   1      28.752  26.557  23.873  1.00  0.00     0.293 HD
ENDBRANCH  15  16
ENDBRANCH   8   9
ENDBRANCH   7   8
BRANCH   7  18
ATOM     18  N   UNL A   1      32.760  26.940  23.124  1.00  0.00    -0.347 N 
ATOM     19  C   UNL A   1      33.024  26.364  21.925  1.00  0.00     0.337 C 
ATOM     20  H   UNL A   1      33.320  26.660  23.884  1.00  0.00     0.164 HD
ATOM     21  O   UNL A   1      33.903  25.523  21.784  1.00  0.00    -0.279 OA
ENDBRANCH   7  18
ENDBRANCH   4   7
ENDBRANCH   2   3
ENDBRANCH   1   2
BRANCH   1  22
ATOM     22  C   UNL A   1      31.443  31.942  27.071  1.00  0.00     0.023 C 
BRANCH  22  23
ATOM     23  C   UNL A   1      32.688  32.804  27.254  1.00  0.00     0.116 C 
BRANCH  23  24
ATOM     24  N   UNL A   1      32.374  34.189  27.574  1.00  0.00    -0.352 N 
ATOM     25  C   UNL A   1      32.933  35.009  28.524  1.00  0.00     0.251 C 
ATOM     26  H   UNL A   1      31.659  34.595  27.033  1.00  0.00     0.163 HD
ATOM     27  O   UNL A   1      32.439  36.104  28.769  1.00  0.00    -0.269 OA
BRANCH  25  28
ATOM     28  C   UNL A   1      34.121  34.551  29.272  1.00  0.00     0.039 A 
ATOM     29  C   UNL A   1      33.960  34.086  30.578  1.00  0.00     0.014 A 
ATOM     30  C   UNL A   1      35.384  34.559  28.674  1.00  0.00     0.014 A 
ATOM     31  C   UNL A   1      35.057  33.557  31.260  1.00  0.00     0.010 A 
ATOM     32  C   UNL A   1      36.458  33.957  29.325  1.00  0.00     0.010 A 
ATOM     33  C   UNL A   1      36.306  33.450  30.624  1.00  0.00    -0.014 A 
BRANCH  33  34
ATOM     34  C   UNL A   1      37.459  32.803  31.300  1.00  0.00     0.031 A 
ATOM     35  C   UNL A   1      38.122  31.602  30.684  1.00  0.00     0.074 A 
ATOM     36  C   UNL A   1      37.872  33.260  32.498  1.00  0.00     0.049 A 
ATOM     37  N   UNL A   1      39.102  30.869  31.149  1.00  0.00    -0.248 NA
ATOM     38  C   UNL A   1      37.601  31.151  29.384  1.00  0.00     0.031 C 
ATOM     39  C   UNL A   1      37.284  34.388  33.223  1.00  0.00     0.029 A 
ATOM     40  N   UNL A   1      38.881  32.827  33.323  1.00  0.00    -0.354 N 
ATOM     41  C   UNL A   1      39.307  29.870  30.206  1.00  0.00     0.074 A 
ATOM     42  C   UNL A   1      38.312  30.053  29.173  1.00  0.00     0.031 C 
ATOM     43  C   UNL A   1      37.959  34.576  34.368  1.00  0.00     0.029 A 
ATOM     44  C   UNL A   1      38.998  33.557  34.481  1.00  0.00     0.049 A 
ATOM     45  H   UNL A   1      39.466  32.066  33.104  1.00  0.00     0.167 HD
ATOM     46  C   UNL A   1      40.256  28.904  30.188  1.00  0.00     0.037 A 
ATOM     47  C   UNL A   1      39.841  33.416  35.522  1.00  0.00     0.037 A 
ATOM     48  C   UNL A   1      41.255  28.731  31.211  1.00  0.00     0.049 A 
ATOM     49  C   UNL A   1      40.866  32.315  35.492  1.00  0.00     0.074 A 
ATOM     50  C   UNL A   1      42.289  27.813  31.259  1.00  0.00     0.029 A 
ATOM     51  N   UNL A   1      41.341  29.492  32.368  1.00  0.00    -0.354 N 
ATOM     52  N   UNL A   1      41.093  31.420  34.560  1.00  0.00    -0.248 NA
ATOM     53  C   UNL A   1      41.756  32.207  36.655  1.00  0.00     0.031 C 
ATOM     54  C   UNL A   1      42.968  27.982  32.470  1.00  0.00     0.029 A 
ATOM     55  C   UNL A   1      42.395  29.045  33.149  1.00  0.00     0.049 A 
ATOM     56  H   UNL A   1      40.742  30.237  32.600  1.00  0.00     0.167 HD
ATOM     57  C   UNL A   1      42.168  30.665  35.011  1.00  0.00     0.074 A 
ATOM     58  C   UNL A   1      42.559  31.219  36.291  1.00  0.00     0.031 C 
ATOM     59  C   UNL A   1      42.778  29.609  34.418  1.00  0.00     0.037 A 
BRANCH  46  60
ATOM     60  C   UNL A   1      40.259  27.956  29.022  1.00  0.00     0.057 A 
ATOM     61  C   UNL A   1      41.007  28.212  27.864  1.00  0.00     0.134 A 
ATOM     62  C   UNL A   1      39.536  26.758  29.070  1.00  0.00     0.134 A 
ATOM     63  F   UNL A   1      41.713  29.347  27.748  1.00  0.00    -0.206 F 
ATOM     64  C   UNL A   1      41.014  27.324  26.787  1.00  0.00     0.040 A 
ATOM     65  C   UNL A   1      39.559  25.848  28.011  1.00  0.00     0.040 A 
ATOM     66  F   UNL A   1      38.804  26.446  30.150  1.00  0.00    -0.206 F 
ATOM     67  C   UNL A   1      40.293  26.133  26.863  1.00  0.00     0.006 A 
ENDBRANCH  46  60
BRANCH  47  68
ATOM     68  C   UNL A   1      39.768  34.348  36.676  1.00  0.00     0.057 A 
ATOM     69  C   UNL A   1      39.055  34.011  37.833  1.00  0.00     0.134 A 
ATOM     70  C   UNL A   1      40.388  35.603  36.645  1.00  0.00     0.134 A 
ATOM     71  F   UNL A   1      38.424  32.831  37.917  1.00  0.00    -0.206 F 
ATOM     72  C   UNL A   1      38.939  34.897  38.906  1.00  0.00     0.040 A 
ATOM     73  C   UNL A   1      40.306  36.487  37.722  1.00  0.00     0.040 A 
ATOM     74  F   UNL A   1      41.094  35.984  35.569  1.00  0.00    -0.206 F 
ATOM     75  C   UNL A   1      39.570  36.138  38.853  1.00  0.00     0.006 A 
ENDBRANCH  47  68
BRANCH  59  76
ATOM     76  C   UNL A   1      43.956  29.007  35.128  1.00  0.00     0.057 A 
ATOM     77  C   UNL A   1      43.817  27.948  36.034  1.00  0.00     0.134 A 
ATOM     78  C   UNL A   1      45.254  29.472  34.871  1.00  0.00     0.134 A 
ATOM     79  F   UNL A   1      42.602  27.466  36.334  1.00  0.00    -0.206 F 
ATOM     80  C   UNL A   1      44.922  27.391  36.680  1.00  0.00     0.040 A 
ATOM     81  C   UNL A   1      46.368  28.901  35.487  1.00  0.00     0.040 A 
ATOM     82  F   UNL A   1      45.460  30.476  34.007  1.00  0.00    -0.206 F 
ATOM     83  C   UNL A   1      46.204  27.862  36.400  1.00  0.00     0.006 A 
ENDBRANCH  59  76
ENDBRANCH  33  34
ENDBRANCH  25  28
ENDBRANCH  23  24
ENDBRANCH  22  23
ENDBRANCH   1  22
TORSDOF 15
ENDMDL
