MODEL 1
REMARK VINA RESULT:     -10.1      0.000      0.000
REMARK SMILES CC(C)N1C(=O)C[C@@H](C(=O)NCCCCNC(=O)c2ccc(-c3c4nc(c(-c5c(F)cccc5F)c5ccc([nH]5)c(-c5c(F)cccc5F)c5nc(c(-c6c(F)cccc6F)c6ccc3[nH]6)C=C5)C=C4)cc2)[C@H]1c1ccccc1
REMARK SMILES IDX 14 1 13 2 12 3 11 4 9 5 10 6 8 8 4 9 5 10 73 11 6 12 7 13
REMARK SMILES IDX 2 14 1 15 3 16 74 17 75 18 79 19 76 20 78 21 77 22 15 23
REMARK SMILES IDX 16 24 17 25 18 27 19 28 20 29 72 30 21 31 71 32 22 33 23 34
REMARK SMILES IDX 24 35 65 36 25 37 70 38 64 39 66 40 26 41 69 42 63 43 62 44
REMARK SMILES IDX 27 46 53 47 36 48 52 49 37 50 40 51 51 52 67 53 38 54 39 55
REMARK SMILES IDX 50 57 68 58 41 59 28 60 29 61 34 62 30 63 31 64 33 65 35 66
REMARK SMILES IDX 32 67 54 68 55 69 60 70 56 71 57 72 59 73 61 74 58 75 42 76
REMARK SMILES IDX 43 77 48 78 44 79 45 80 47 81 49 82 46 83
REMARK H PARENT 11 7 16 26 66 45 40 56
REMARK Flexibility Score: inf
ROOT
ATOM      1  C   UNL A   1      33.490  33.857  28.000  1.00  0.00     0.023 C 
ENDROOT
BRANCH   1   2
ATOM      2  C   UNL A   1      33.898  35.085  28.822  1.00  0.00     0.023 C 
BRANCH   2   3
ATOM      3  C   UNL A   1      33.421  35.063  30.276  1.00  0.00     0.116 C 
BRANCH   3   4
ATOM      4  N   UNL A   1      34.392  35.713  31.133  1.00  0.00    -0.356 N 
ATOM      5  C   UNL A   1      34.897  35.268  32.320  1.00  0.00     0.226 C 
ATOM      6  O   UNL A   1      35.204  36.117  33.152  1.00  0.00    -0.275 OA
ATOM      7  H   UNL A   1      34.729  36.584  30.822  1.00  0.00     0.163 HD
BRANCH   5   8
ATOM      8  C   UNL A   1      34.969  33.771  32.560  1.00  0.00     0.115 C 
ATOM      9  N   UNL A   1      36.939  33.098  33.713  1.00  0.00    -0.332 N 
ATOM     10  C   UNL A   1      35.974  33.354  34.685  1.00  0.00     0.224 C 
ATOM     11  C   UNL A   1      36.335  33.096  32.389  1.00  0.00     0.128 C 
ATOM     12  O   UNL A   1      36.111  33.378  35.899  1.00  0.00    -0.275 OA
ATOM     13  C   UNL A   1      34.628  33.512  34.020  1.00  0.00     0.116 C 
BRANCH   9  14
ATOM     14  C   UNL A   1      38.332  32.664  33.960  1.00  0.00     0.079 C 
ATOM     15  C   UNL A   1      39.133  33.571  34.900  1.00  0.00     0.031 C 
ATOM     16  C   UNL A   1      38.400  31.235  34.517  1.00  0.00     0.031 C 
ENDBRANCH   9  14
BRANCH  11  17
ATOM     17  C   UNL A   1      37.175  33.566  31.217  1.00  0.00    -0.025 A 
ATOM     18  C   UNL A   1      36.986  33.089  29.912  1.00  0.00     0.006 A 
ATOM     19  C   UNL A   1      38.204  34.500  31.431  1.00  0.00     0.006 A 
ATOM     20  C   UNL A   1      37.824  33.485  28.869  1.00  0.00     0.000 A 
ATOM     21  C   UNL A   1      39.020  34.926  30.380  1.00  0.00     0.000 A 
ATOM     22  C   UNL A   1      38.840  34.406  29.102  1.00  0.00     0.000 A 
ENDBRANCH  11  17
ENDBRANCH   5   8
ENDBRANCH   3   4
ENDBRANCH   2   3
ENDBRANCH   1   2
BRANCH   1  23
ATOM     23  C   UNL A   1      34.408  32.650  28.147  1.00  0.00     0.116 C 
BRANCH  23  24
ATOM     24  N   UNL A   1      33.735  31.398  27.840  1.00  0.00    -0.352 N 
ATOM     25  C   UNL A   1      34.257  30.132  27.764  1.00  0.00     0.251 C 
ATOM     26  H   UNL A   1      32.769  31.470  27.662  1.00  0.00     0.163 HD
ATOM     27  O   UNL A   1      33.572  29.209  27.335  1.00  0.00    -0.269 OA
BRANCH  25  28
ATOM     28  C   UNL A   1      35.655  29.886  28.177  1.00  0.00     0.039 A 
ATOM     29  C   UNL A   1      35.906  29.443  29.478  1.00  0.00     0.014 A 
ATOM     30  C   UNL A   1      36.713  30.087  27.287  1.00  0.00     0.014 A 
ATOM     31  C   UNL A   1      37.214  29.153  29.870  1.00  0.00     0.010 A 
ATOM     32  C   UNL A   1      38.004  29.721  27.653  1.00  0.00     0.010 A 
ATOM     33  C   UNL A   1      38.271  29.260  28.951  1.00  0.00    -0.014 A 
BRANCH  33  34
ATOM     34  C   UNL A   1      39.664  28.916  29.336  1.00  0.00     0.031 A 
ATOM     35  C   UNL A   1      40.469  29.867  30.178  1.00  0.00     0.074 A 
ATOM     36  C   UNL A   1      40.223  27.776  28.886  1.00  0.00     0.049 A 
ATOM     37  N   UNL A   1      41.717  29.777  30.567  1.00  0.00    -0.248 NA
ATOM     38  C   UNL A   1      39.792  31.097  30.620  1.00  0.00     0.031 C 
ATOM     39  C   UNL A   1      39.563  26.791  28.027  1.00  0.00     0.029 A 
ATOM     40  N   UNL A   1      41.478  27.258  29.079  1.00  0.00    -0.354 N 
ATOM     41  C   UNL A   1      41.974  30.939  31.283  1.00  0.00     0.074 A 
ATOM     42  C   UNL A   1      40.775  31.746  31.226  1.00  0.00     0.031 C 
ATOM     43  C   UNL A   1      40.411  25.777  27.789  1.00  0.00     0.029 A 
ATOM     44  C   UNL A   1      41.685  26.058  28.443  1.00  0.00     0.049 A 
ATOM     45  H   UNL A   1      42.166  27.704  29.625  1.00  0.00     0.167 HD
ATOM     46  C   UNL A   1      43.098  31.291  31.953  1.00  0.00     0.037 A 
ATOM     47  C   UNL A   1      42.780  25.278  28.385  1.00  0.00     0.037 A 
ATOM     48  C   UNL A   1      44.283  30.478  32.024  1.00  0.00     0.049 A 
ATOM     49  C   UNL A   1      44.022  25.698  29.124  1.00  0.00     0.074 A 
ATOM     50  C   UNL A   1      45.456  30.723  32.716  1.00  0.00     0.029 A 
ATOM     51  N   UNL A   1      44.448  29.262  31.378  1.00  0.00    -0.354 N 
ATOM     52  N   UNL A   1      44.231  26.770  29.850  1.00  0.00    -0.248 NA
ATOM     53  C   UNL A   1      45.179  24.796  29.040  1.00  0.00     0.031 C 
ATOM     54  C   UNL A   1      46.349  29.682  32.447  1.00  0.00     0.029 A 
ATOM     55  C   UNL A   1      45.711  28.755  31.638  1.00  0.00     0.049 A 
ATOM     56  H   UNL A   1      43.768  28.824  30.817  1.00  0.00     0.167 HD
ATOM     57  C   UNL A   1      45.525  26.650  30.342  1.00  0.00     0.074 A 
ATOM     58  C   UNL A   1      46.049  25.399  29.838  1.00  0.00     0.031 C 
ATOM     59  C   UNL A   1      46.215  27.500  31.142  1.00  0.00     0.037 A 
BRANCH  46  60
ATOM     60  C   UNL A   1      43.096  32.617  32.659  1.00  0.00     0.057 A 
ATOM     61  C   UNL A   1      42.707  32.743  33.999  1.00  0.00     0.134 A 
ATOM     62  C   UNL A   1      43.519  33.779  32.001  1.00  0.00     0.134 A 
ATOM     63  F   UNL A   1      42.278  31.673  34.687  1.00  0.00    -0.206 F 
ATOM     64  C   UNL A   1      42.708  33.979  34.648  1.00  0.00     0.040 A 
ATOM     65  C   UNL A   1      43.555  35.015  32.649  1.00  0.00     0.040 A 
ATOM     66  F   UNL A   1      43.914  33.732  30.718  1.00  0.00    -0.206 F 
ATOM     67  C   UNL A   1      43.141  35.119  33.975  1.00  0.00     0.006 A 
ENDBRANCH  46  60
BRANCH  47  68
ATOM     68  C   UNL A   1      42.750  24.004  27.619  1.00  0.00     0.057 A 
ATOM     69  C   UNL A   1      42.993  23.985  26.241  1.00  0.00     0.134 A 
ATOM     70  C   UNL A   1      42.462  22.783  28.239  1.00  0.00     0.134 A 
ATOM     71  F   UNL A   1      43.257  25.125  25.584  1.00  0.00    -0.206 F 
ATOM     72  C   UNL A   1      42.926  22.802  25.502  1.00  0.00     0.040 A 
ATOM     73  C   UNL A   1      42.420  21.589  27.519  1.00  0.00     0.040 A 
ATOM     74  F   UNL A   1      42.229  22.732  29.559  1.00  0.00    -0.206 F 
ATOM     75  C   UNL A   1      42.643  21.598  26.143  1.00  0.00     0.006 A 
ENDBRANCH  47  68
BRANCH  59  76
ATOM     76  C   UNL A   1      47.592  27.079  31.570  1.00  0.00     0.057 A 
ATOM     77  C   UNL A   1      48.744  27.477  30.881  1.00  0.00     0.134 A 
ATOM     78  C   UNL A   1      47.766  26.289  32.715  1.00  0.00     0.134 A 
ATOM     79  F   UNL A   1      48.648  28.224  29.770  1.00  0.00    -0.206 F 
ATOM     80  C   UNL A   1      50.017  27.083  31.298  1.00  0.00     0.040 A 
ATOM     81  C   UNL A   1      49.034  25.915  33.160  1.00  0.00     0.040 A 
ATOM     82  F   UNL A   1      46.706  25.881  33.429  1.00  0.00    -0.206 F 
ATOM     83  C   UNL A   1      50.164  26.305  32.445  1.00  0.00     0.006 A 
ENDBRANCH  59  76
ENDBRANCH  33  34
ENDBRANCH  25  28
ENDBRANCH  23  24
ENDBRANCH   1  23
TORSDOF 13
ENDMDL
MODEL 2
REMARK VINA RESULT:     -10.0      0.385      6.251
REMARK SMILES CC(C)N1C(=O)C[C@@H](C(=O)NCCCCNC(=O)c2ccc(-c3c4nc(c(-c5c(F)cccc5F)c5ccc([nH]5)c(-c5c(F)cccc5F)c5nc(c(-c6c(F)cccc6F)c6ccc3[nH]6)C=C5)C=C4)cc2)[C@H]1c1ccccc1
REMARK SMILES IDX 14 1 13 2 12 3 11 4 9 5 10 6 8 8 4 9 5 10 73 11 6 12 7 13
REMARK SMILES IDX 2 14 1 15 3 16 74 17 75 18 79 19 76 20 78 21 77 22 15 23
REMARK SMILES IDX 16 24 17 25 18 27 19 28 20 29 72 30 21 31 71 32 22 33 23 34
REMARK SMILES IDX 24 35 65 36 25 37 70 38 64 39 66 40 26 41 69 42 63 43 62 44
REMARK SMILES IDX 27 46 53 47 36 48 52 49 37 50 40 51 51 52 67 53 38 54 39 55
REMARK SMILES IDX 50 57 68 58 41 59 28 60 29 61 34 62 30 63 31 64 33 65 35 66
REMARK SMILES IDX 32 67 54 68 55 69 60 70 56 71 57 72 59 73 61 74 58 75 42 76
REMARK SMILES IDX 43 77 48 78 44 79 45 80 47 81 49 82 46 83
REMARK H PARENT 11 7 16 26 66 45 40 56
REMARK Flexibility Score: inf
ROOT
ATOM      1  C   UNL A   1      33.621  33.661  28.042  1.00  0.00     0.023 C 
ENDROOT
BRANCH   1   2
ATOM      2  C   UNL A   1      33.857  34.960  28.820  1.00  0.00     0.023 C 
BRANCH   2   3
ATOM      3  C   UNL A   1      33.447  34.902  30.294  1.00  0.00     0.116 C 
BRANCH   3   4
ATOM      4  N   UNL A   1      34.413  35.609  31.111  1.00  0.00    -0.356 N 
ATOM      5  C   UNL A   1      34.941  35.225  32.310  1.00  0.00     0.226 C 
ATOM      6  O   UNL A   1      35.237  36.115  33.102  1.00  0.00    -0.275 OA
ATOM      7  H   UNL A   1      34.725  36.474  30.760  1.00  0.00     0.163 HD
BRANCH   5   8
ATOM      8  C   UNL A   1      35.051  33.742  32.611  1.00  0.00     0.115 C 
ATOM      9  N   UNL A   1      37.032  33.168  33.795  1.00  0.00    -0.332 N 
ATOM     10  C   UNL A   1      36.057  33.438  34.754  1.00  0.00     0.224 C 
ATOM     11  C   UNL A   1      36.434  33.097  32.470  1.00  0.00     0.128 C 
ATOM     12  O   UNL A   1      36.188  33.515  35.966  1.00  0.00    -0.275 OA
ATOM     13  C   UNL A   1      34.711  33.534  34.079  1.00  0.00     0.116 C 
BRANCH   9  14
ATOM     14  C   UNL A   1      38.435  32.780  34.064  1.00  0.00     0.079 C 
ATOM     15  C   UNL A   1      39.221  33.765  34.937  1.00  0.00     0.031 C 
ATOM     16  C   UNL A   1      38.535  31.394  34.716  1.00  0.00     0.031 C 
ENDBRANCH   9  14
BRANCH  11  17
ATOM     17  C   UNL A   1      37.265  33.540  31.283  1.00  0.00    -0.025 A 
ATOM     18  C   UNL A   1      37.083  33.017  29.995  1.00  0.00     0.006 A 
ATOM     19  C   UNL A   1      38.281  34.496  31.466  1.00  0.00     0.006 A 
ATOM     20  C   UNL A   1      37.915  33.392  28.939  1.00  0.00     0.000 A 
ATOM     21  C   UNL A   1      39.090  34.899  30.400  1.00  0.00     0.000 A 
ATOM     22  C   UNL A   1      38.917  34.334  29.140  1.00  0.00     0.000 A 
ENDBRANCH  11  17
ENDBRANCH   5   8
ENDBRANCH   3   4
ENDBRANCH   2   3
ENDBRANCH   1   2
BRANCH   1  23
ATOM     23  C   UNL A   1      34.377  32.448  28.570  1.00  0.00     0.116 C 
BRANCH  23  24
ATOM     24  N   UNL A   1      33.823  31.194  28.086  1.00  0.00    -0.352 N 
ATOM     25  C   UNL A   1      34.458  30.000  27.858  1.00  0.00     0.251 C 
ATOM     26  H   UNL A   1      32.857  31.204  27.896  1.00  0.00     0.163 HD
ATOM     27  O   UNL A   1      33.864  29.085  27.295  1.00  0.00    -0.269 OA
BRANCH  25  28
ATOM     28  C   UNL A   1      35.868  29.824  28.269  1.00  0.00     0.039 A 
ATOM     29  C   UNL A   1      36.142  29.392  29.569  1.00  0.00     0.014 A 
ATOM     30  C   UNL A   1      36.913  30.082  27.378  1.00  0.00     0.014 A 
ATOM     31  C   UNL A   1      37.464  29.168  29.958  1.00  0.00     0.010 A 
ATOM     32  C   UNL A   1      38.222  29.781  27.742  1.00  0.00     0.010 A 
ATOM     33  C   UNL A   1      38.513  29.332  29.038  1.00  0.00    -0.014 A 
BRANCH  33  34
ATOM     34  C   UNL A   1      39.922  29.059  29.422  1.00  0.00     0.031 A 
ATOM     35  C   UNL A   1      40.607  27.812  28.933  1.00  0.00     0.074 A 
ATOM     36  C   UNL A   1      40.567  29.900  30.252  1.00  0.00     0.049 A 
ATOM     37  N   UNL A   1      41.807  27.364  29.206  1.00  0.00    -0.248 NA
ATOM     38  C   UNL A   1      39.830  26.936  28.040  1.00  0.00     0.031 C 
ATOM     39  C   UNL A   1      40.000  31.120  30.831  1.00  0.00     0.029 A 
ATOM     40  N   UNL A   1      41.840  29.853  30.763  1.00  0.00    -0.354 N 
ATOM     41  C   UNL A   1      41.921  26.156  28.533  1.00  0.00     0.074 A 
ATOM     42  C   UNL A   1      40.651  25.908  27.887  1.00  0.00     0.031 C 
ATOM     43  C   UNL A   1      40.929  31.717  31.596  1.00  0.00     0.029 A 
ATOM     44  C   UNL A   1      42.141  30.903  31.596  1.00  0.00     0.049 A 
ATOM     45  H   UNL A   1      42.478  29.133  30.552  1.00  0.00     0.167 HD
ATOM     46  C   UNL A   1      42.997  25.336  28.437  1.00  0.00     0.037 A 
ATOM     47  C   UNL A   1      43.263  31.176  32.288  1.00  0.00     0.037 A 
ATOM     48  C   UNL A   1      44.266  25.594  29.065  1.00  0.00     0.049 A 
ATOM     49  C   UNL A   1      44.438  30.243  32.177  1.00  0.00     0.074 A 
ATOM     50  C   UNL A   1      45.431  24.852  28.988  1.00  0.00     0.029 A 
ATOM     51  N   UNL A   1      44.536  26.678  29.888  1.00  0.00    -0.354 N 
ATOM     52  N   UNL A   1      44.555  29.135  31.485  1.00  0.00    -0.248 NA
ATOM     53  C   UNL A   1      45.642  30.603  32.940  1.00  0.00     0.031 C 
ATOM     54  C   UNL A   1      46.390  25.457  29.807  1.00  0.00     0.029 A 
ATOM     55  C   UNL A   1      45.843  26.612  30.342  1.00  0.00     0.049 A 
ATOM     56  H   UNL A   1      43.893  27.388  30.115  1.00  0.00     0.167 HD
ATOM     57  C   UNL A   1      45.854  28.689  31.696  1.00  0.00     0.074 A 
ATOM     58  C   UNL A   1      46.488  29.650  32.572  1.00  0.00     0.031 C 
ATOM     59  C   UNL A   1      46.466  27.584  31.204  1.00  0.00     0.037 A 
BRANCH  46  60
ATOM     60  C   UNL A   1      42.842  24.083  27.623  1.00  0.00     0.057 A 
ATOM     61  C   UNL A   1      42.471  22.863  28.203  1.00  0.00     0.134 A 
ATOM     62  C   UNL A   1      43.037  24.102  26.235  1.00  0.00     0.134 A 
ATOM     63  F   UNL A   1      42.280  22.770  29.528  1.00  0.00    -0.206 F 
ATOM     64  C   UNL A   1      42.329  21.703  27.440  1.00  0.00     0.040 A 
ATOM     65  C   UNL A   1      42.867  22.956  25.457  1.00  0.00     0.040 A 
ATOM     66  F   UNL A   1      43.386  25.238  25.611  1.00  0.00    -0.206 F 
ATOM     67  C   UNL A   1      42.519  21.749  26.061  1.00  0.00     0.006 A 
ENDBRANCH  46  60
BRANCH  47  68
ATOM     68  C   UNL A   1      43.343  32.397  33.130  1.00  0.00     0.057 A 
ATOM     69  C   UNL A   1      43.868  33.591  32.623  1.00  0.00     0.134 A 
ATOM     70  C   UNL A   1      42.913  32.397  34.462  1.00  0.00     0.134 A 
ATOM     71  F   UNL A   1      44.315  33.651  31.359  1.00  0.00    -0.206 F 
ATOM     72  C   UNL A   1      43.988  34.734  33.417  1.00  0.00     0.040 A 
ATOM     73  C   UNL A   1      43.000  33.540  35.259  1.00  0.00     0.040 A 
ATOM     74  F   UNL A   1      42.391  31.288  35.006  1.00  0.00    -0.206 F 
ATOM     75  C   UNL A   1      43.548  34.711  34.738  1.00  0.00     0.006 A 
ENDBRANCH  47  68
BRANCH  59  76
ATOM     76  C   UNL A   1      47.914  27.384  31.555  1.00  0.00     0.057 A 
ATOM     77  C   UNL A   1      48.317  26.609  32.648  1.00  0.00     0.134 A 
ATOM     78  C   UNL A   1      48.919  27.950  30.759  1.00  0.00     0.134 A 
ATOM     79  F   UNL A   1      47.405  26.047  33.458  1.00  0.00    -0.206 F 
ATOM     80  C   UNL A   1      49.667  26.426  32.956  1.00  0.00     0.040 A 
ATOM     81  C   UNL A   1      50.272  27.749  31.037  1.00  0.00     0.040 A 
ATOM     82  F   UNL A   1      48.603  28.696  29.689  1.00  0.00    -0.206 F 
ATOM     83  C   UNL A   1      50.649  26.992  32.144  1.00  0.00     0.006 A 
ENDBRANCH  59  76
ENDBRANCH  33  34
ENDBRANCH  25  28
ENDBRANCH  23  24
ENDBRANCH   1  23
TORSDOF 13
ENDMDL
MODEL 3
REMARK VINA RESULT:      -9.6      3.810      7.435
REMARK SMILES CC(C)N1C(=O)C[C@@H](C(=O)NCCCCNC(=O)c2ccc(-c3c4nc(c(-c5c(F)cccc5F)c5ccc([nH]5)c(-c5c(F)cccc5F)c5nc(c(-c6c(F)cccc6F)c6ccc3[nH]6)C=C5)C=C4)cc2)[C@H]1c1ccccc1
REMARK SMILES IDX 14 1 13 2 12 3 11 4 9 5 10 6 8 8 4 9 5 10 73 11 6 12 7 13
REMARK SMILES IDX 2 14 1 15 3 16 74 17 75 18 79 19 76 20 78 21 77 22 15 23
REMARK SMILES IDX 16 24 17 25 18 27 19 28 20 29 72 30 21 31 71 32 22 33 23 34
REMARK SMILES IDX 24 35 65 36 25 37 70 38 64 39 66 40 26 41 69 42 63 43 62 44
REMARK SMILES IDX 27 46 53 47 36 48 52 49 37 50 40 51 51 52 67 53 38 54 39 55
REMARK SMILES IDX 50 57 68 58 41 59 28 60 29 61 34 62 30 63 31 64 33 65 35 66
REMARK SMILES IDX 32 67 54 68 55 69 60 70 56 71 57 72 59 73 61 74 58 75 42 76
REMARK SMILES IDX 43 77 48 78 44 79 45 80 47 81 49 82 46 83
REMARK H PARENT 11 7 16 26 66 45 40 56
REMARK Flexibility Score: inf
ROOT
ATOM      1  C   UNL A   1      31.397  32.290  26.607  1.00  0.00     0.023 C 
ENDROOT
BRANCH   1   2
ATOM      2  C   UNL A   1      31.406  30.759  26.525  1.00  0.00     0.023 C 
BRANCH   2   3
ATOM      3  C   UNL A   1      32.800  30.129  26.576  1.00  0.00     0.116 C 
BRANCH   3   4
ATOM      4  N   UNL A   1      33.249  29.794  25.240  1.00  0.00    -0.356 N 
ATOM      5  C   UNL A   1      33.529  28.559  24.731  1.00  0.00     0.226 C 
ATOM      6  O   UNL A   1      34.404  28.491  23.873  1.00  0.00    -0.275 OA
ATOM      7  H   UNL A   1      33.368  30.550  24.622  1.00  0.00     0.163 HD
BRANCH   5   8
ATOM      8  C   UNL A   1      32.806  27.357  25.311  1.00  0.00     0.115 C 
ATOM      9  N   UNL A   1      32.459  25.616  23.728  1.00  0.00    -0.332 N 
ATOM     10  C   UNL A   1      33.683  25.359  24.343  1.00  0.00     0.224 C 
ATOM     11  C   UNL A   1      31.753  26.677  24.430  1.00  0.00     0.128 C 
ATOM     12  O   UNL A   1      34.508  24.504  24.059  1.00  0.00    -0.275 OA
ATOM     13  C   UNL A   1      33.832  26.259  25.546  1.00  0.00     0.116 C 
BRANCH   9  14
ATOM     14  C   UNL A   1      31.832  24.804  22.661  1.00  0.00     0.079 C 
ATOM     15  C   UNL A   1      32.648  24.699  21.367  1.00  0.00     0.031 C 
ATOM     16  C   UNL A   1      31.515  23.378  23.132  1.00  0.00     0.031 C 
ENDBRANCH   9  14
BRANCH  11  17
ATOM     17  C   UNL A   1      30.856  27.597  23.623  1.00  0.00    -0.025 A 
ATOM     18  C   UNL A   1      31.358  28.512  22.687  1.00  0.00     0.006 A 
ATOM     19  C   UNL A   1      29.465  27.562  23.826  1.00  0.00     0.006 A 
ATOM     20  C   UNL A   1      30.512  29.396  22.016  1.00  0.00     0.000 A 
ATOM     21  C   UNL A   1      28.613  28.421  23.127  1.00  0.00     0.000 A 
ATOM     22  C   UNL A   1      29.140  29.350  22.234  1.00  0.00     0.000 A 
ENDBRANCH  11  17
ENDBRANCH   5   8
ENDBRANCH   3   4
ENDBRANCH   2   3
ENDBRANCH   1   2
BRANCH   1  23
ATOM     23  C   UNL A   1      32.711  32.920  27.050  1.00  0.00     0.116 C 
BRANCH  23  24
ATOM     24  N   UNL A   1      32.528  34.239  27.632  1.00  0.00    -0.352 N 
ATOM     25  C   UNL A   1      33.168  34.808  28.704  1.00  0.00     0.251 C 
ATOM     26  H   UNL A   1      31.849  34.804  27.195  1.00  0.00     0.163 HD
ATOM     27  O   UNL A   1      32.773  35.877  29.159  1.00  0.00    -0.269 OA
BRANCH  25  28
ATOM     28  C   UNL A   1      34.318  34.118  29.326  1.00  0.00     0.039 A 
ATOM     29  C   UNL A   1      34.077  33.174  30.326  1.00  0.00     0.014 A 
ATOM     30  C   UNL A   1      35.627  34.399  28.924  1.00  0.00     0.014 A 
ATOM     31  C   UNL A   1      35.146  32.472  30.887  1.00  0.00     0.010 A 
ATOM     32  C   UNL A   1      36.681  33.643  29.425  1.00  0.00     0.010 A 
ATOM     33  C   UNL A   1      36.455  32.680  30.420  1.00  0.00    -0.014 A 
BRANCH  33  34
ATOM     34  C   UNL A   1      37.600  31.913  30.975  1.00  0.00     0.031 A 
ATOM     35  C   UNL A   1      38.112  32.219  32.356  1.00  0.00     0.074 A 
ATOM     36  C   UNL A   1      38.214  30.982  30.220  1.00  0.00     0.049 A 
ATOM     37  N   UNL A   1      39.135  31.706  32.993  1.00  0.00    -0.248 NA
ATOM     38  C   UNL A   1      37.396  33.258  33.113  1.00  0.00     0.031 C 
ATOM     39  C   UNL A   1      37.842  30.623  28.850  1.00  0.00     0.029 A 
ATOM     40  N   UNL A   1      39.288  30.174  30.494  1.00  0.00    -0.354 N 
ATOM     41  C   UNL A   1      39.192  32.368  34.212  1.00  0.00     0.074 A 
ATOM     42  C   UNL A   1      38.140  33.361  34.205  1.00  0.00     0.031 C 
ATOM     43  C   UNL A   1      38.659  29.649  28.414  1.00  0.00     0.029 A 
ATOM     44  C   UNL A   1      39.635  29.345  29.455  1.00  0.00     0.049 A 
ATOM     45  H   UNL A   1      39.765  30.186  31.355  1.00  0.00     0.167 HD
ATOM     46  C   UNL A   1      40.027  32.152  35.257  1.00  0.00     0.037 A 
ATOM     47  C   UNL A   1      40.633  28.447  29.349  1.00  0.00     0.037 A 
ATOM     48  C   UNL A   1      41.062  31.151  35.269  1.00  0.00     0.049 A 
ATOM     49  C   UNL A   1      41.557  28.236  30.517  1.00  0.00     0.074 A 
ATOM     50  C   UNL A   1      41.928  30.821  36.296  1.00  0.00     0.029 A 
ATOM     51  N   UNL A   1      41.371  30.321  34.202  1.00  0.00    -0.354 N 
ATOM     52  N   UNL A   1      41.560  28.825  31.689  1.00  0.00    -0.248 NA
ATOM     53  C   UNL A   1      42.615  27.229  30.350  1.00  0.00     0.031 C 
ATOM     54  C   UNL A   1      42.796  29.827  35.833  1.00  0.00     0.029 A 
ATOM     55  C   UNL A   1      42.430  29.493  34.540  1.00  0.00     0.049 A 
ATOM     56  H   UNL A   1      40.908  30.320  33.334  1.00  0.00     0.167 HD
ATOM     57  C   UNL A   1      42.589  28.233  32.411  1.00  0.00     0.074 A 
ATOM     58  C   UNL A   1      43.182  27.233  31.548  1.00  0.00     0.031 C 
ATOM     59  C   UNL A   1      43.002  28.492  33.676  1.00  0.00     0.037 A 
BRANCH  46  60
ATOM     60  C   UNL A   1      39.855  33.018  36.472  1.00  0.00     0.057 A 
ATOM     61  C   UNL A   1      40.608  34.184  36.665  1.00  0.00     0.134 A 
ATOM     62  C   UNL A   1      38.901  32.701  37.448  1.00  0.00     0.134 A 
ATOM     63  F   UNL A   1      41.548  34.542  35.776  1.00  0.00    -0.206 F 
ATOM     64  C   UNL A   1      40.442  34.984  37.797  1.00  0.00     0.040 A 
ATOM     65  C   UNL A   1      38.704  33.510  38.568  1.00  0.00     0.040 A 
ATOM     66  F   UNL A   1      38.139  31.603  37.325  1.00  0.00    -0.206 F 
ATOM     67  C   UNL A   1      39.481  34.652  38.749  1.00  0.00     0.006 A 
ENDBRANCH  46  60
BRANCH  47  68
ATOM     68  C   UNL A   1      40.800  27.660  28.100  1.00  0.00     0.057 A 
ATOM     69  C   UNL A   1      40.191  26.408  27.948  1.00  0.00     0.134 A 
ATOM     70  C   UNL A   1      41.582  28.129  27.038  1.00  0.00     0.134 A 
ATOM     71  F   UNL A   1      39.445  25.895  28.937  1.00  0.00    -0.206 F 
ATOM     72  C   UNL A   1      40.375  25.640  26.797  1.00  0.00     0.040 A 
ATOM     73  C   UNL A   1      41.750  27.384  25.869  1.00  0.00     0.040 A 
ATOM     74  F   UNL A   1      42.184  29.324  27.116  1.00  0.00    -0.206 F 
ATOM     75  C   UNL A   1      41.153  26.130  25.751  1.00  0.00     0.006 A 
ENDBRANCH  47  68
BRANCH  59  76
ATOM     76  C   UNL A   1      44.113  27.643  34.226  1.00  0.00     0.057 A 
ATOM     77  C   UNL A   1      43.877  26.405  34.835  1.00  0.00     0.134 A 
ATOM     78  C   UNL A   1      45.446  28.061  34.110  1.00  0.00     0.134 A 
ATOM     79  F   UNL A   1      42.623  25.951  34.989  1.00  0.00    -0.206 F 
ATOM     80  C   UNL A   1      44.922  25.625  35.334  1.00  0.00     0.040 A 
ATOM     81  C   UNL A   1      46.502  27.276  34.575  1.00  0.00     0.040 A 
ATOM     82  F   UNL A   1      45.745  29.232  33.527  1.00  0.00    -0.206 F 
ATOM     83  C   UNL A   1      46.240  26.057  35.198  1.00  0.00     0.006 A 
ENDBRANCH  59  76
ENDBRANCH  33  34
ENDBRANCH  25  28
ENDBRANCH  23  24
ENDBRANCH   1  23
TORSDOF 13
ENDMDL
