MODEL 1
REMARK VINA RESULT:     -10.2      0.000      0.000
REMARK SMILES O=C(COCC(=O)/[NH+]=C1\S[C@@H]2CS(=O)(=O)C[C@H]2N1c1ccc(Cl)cc1)NCCCCNC(=O)c1ccc(-c2c3nc(c(-c4c(F)cccc4F)c4ccc([nH]4)c(-c4c(F)cccc4F)c4nc(c(-c5c(F)cccc5F)c5ccc2[nH]5)C=C4)C=C3)cc1
REMARK SMILES IDX 27 1 26 2 2 3 1 4 3 6 4 7 5 8 6 9 7 10 8 11 9 12 10 14 18 15
REMARK SMILES IDX 11 16 17 17 12 18 16 19 13 20 14 21 15 22 19 23 20 24 25 25
REMARK SMILES IDX 21 26 24 27 22 28 23 29 28 30 29 31 30 32 31 33 32 34 33 36
REMARK SMILES IDX 34 37 35 38 87 39 36 40 86 41 37 42 38 43 39 44 80 45 40 46
REMARK SMILES IDX 85 47 79 48 81 49 41 50 84 51 78 52 77 53 42 55 68 56 51 57
REMARK SMILES IDX 67 58 52 59 55 60 66 61 82 62 53 63 54 64 65 66 83 67 56 68
REMARK SMILES IDX 43 69 44 70 49 71 45 72 46 73 48 74 50 75 47 76 69 77 70 78
REMARK SMILES IDX 75 79 71 80 72 81 74 82 76 83 73 84 57 85 58 86 63 87 59 88
REMARK SMILES IDX 60 89 62 90 64 91 61 92
REMARK H PARENT 26 5 8 13 31 35 81 54 55 65
REMARK Flexibility Score: inf
ROOT
ATOM      1  C   UNL A   1      34.370  35.467  33.662  1.00  0.00     0.116 C 
ENDROOT
BRANCH   1   2
ATOM      2  N   UNL A   1      34.744  34.107  33.320  1.00  0.00    -0.354 N 
ATOM      3  C   UNL A   1      35.627  33.283  33.961  1.00  0.00     0.246 C 
ATOM      4  O   UNL A   1      35.785  32.136  33.544  1.00  0.00    -0.272 OA
ATOM      5  H   UNL A   1      34.306  33.729  32.524  1.00  0.00     0.163 HD
BRANCH   3   6
ATOM      6  C   UNL A   1      36.399  33.814  35.172  1.00  0.00     0.260 C 
BRANCH   6   7
ATOM      7  O   UNL A   1      37.249  32.840  35.758  1.00  0.00    -0.359 OA
BRANCH   7   8
ATOM      8  C   UNL A   1      37.580  33.144  37.108  1.00  0.00     0.288 C 
BRANCH   8   9
ATOM      9  C   UNL A   1      37.372  32.033  38.156  1.00  0.00     0.333 C 
ATOM     10  O   UNL A   1      37.415  30.855  37.804  1.00  0.00    -0.244 OA
ATOM     11  N   UNL A   1      37.095  32.374  39.456  1.00  0.00    -0.202 N 
ATOM     12  C   UNL A   1      37.893  33.092  40.175  1.00  0.00     0.319 C 
ATOM     13  H   UNL A   1      36.254  32.058  39.858  1.00  0.00     0.316 HD
ATOM     14  S   UNL A   1      39.394  33.882  39.586  1.00  0.00    -0.029 SA
ATOM     15  N   UNL A   1      37.717  33.427  41.528  1.00  0.00    -0.217 N 
ATOM     16  C   UNL A   1      39.198  35.134  40.869  1.00  0.00     0.120 C 
ATOM     17  C   UNL A   1      38.828  34.239  42.056  1.00  0.00     0.212 C 
ATOM     18  C   UNL A   1      40.355  36.007  41.275  1.00  0.00     0.156 C 
ATOM     19  C   UNL A   1      38.619  35.207  43.194  1.00  0.00     0.188 C 
ATOM     20  S   UNL A   1      40.012  36.327  43.007  1.00  0.00     0.155 S 
ATOM     21  O   UNL A   1      39.524  37.683  43.146  1.00  0.00    -0.229 OA
ATOM     22  O   UNL A   1      41.117  35.815  43.783  1.00  0.00    -0.229 OA
BRANCH  15  23
ATOM     23  C   UNL A   1      36.931  32.671  42.414  1.00  0.00     0.128 A 
ATOM     24  C   UNL A   1      35.560  32.929  42.574  1.00  0.00     0.053 A 
ATOM     25  C   UNL A   1      37.476  31.607  43.155  1.00  0.00     0.053 A 
ATOM     26  C   UNL A   1      34.771  32.181  43.456  1.00  0.00     0.025 A 
ATOM     27  C   UNL A   1      36.691  30.850  44.036  1.00  0.00     0.025 A 
ATOM     28  C   UNL A   1      35.341  31.145  44.186  1.00  0.00     0.041 A 
ATOM     29  Cl  UNL A   1      34.371  30.222  45.264  1.00  0.00    -0.084 Cl
ENDBRANCH  15  23
ENDBRANCH   8   9
ENDBRANCH   7   8
ENDBRANCH   6   7
ENDBRANCH   3   6
ENDBRANCH   1   2
BRANCH   1  30
ATOM     30  C   UNL A   1      34.342  36.394  32.447  1.00  0.00     0.023 C 
BRANCH  30  31
ATOM     31  C   UNL A   1      33.185  36.157  31.474  1.00  0.00     0.023 C 
BRANCH  31  32
ATOM     32  C   UNL A   1      33.486  36.453  30.009  1.00  0.00     0.116 C 
BRANCH  32  33
ATOM     33  N   UNL A   1      32.696  35.651  29.089  1.00  0.00    -0.352 N 
ATOM     34  C   UNL A   1      33.018  34.460  28.482  1.00  0.00     0.251 C 
ATOM     35  H   UNL A   1      31.806  36.011  28.871  1.00  0.00     0.163 HD
ATOM     36  O   UNL A   1      32.274  33.986  27.628  1.00  0.00    -0.269 OA
BRANCH  34  37
ATOM     37  C   UNL A   1      34.278  33.768  28.831  1.00  0.00     0.039 A 
ATOM     38  C   UNL A   1      35.433  34.064  28.100  1.00  0.00     0.014 A 
ATOM     39  C   UNL A   1      34.331  32.846  29.879  1.00  0.00     0.014 A 
ATOM     40  C   UNL A   1      36.652  33.489  28.467  1.00  0.00     0.010 A 
ATOM     41  C   UNL A   1      35.560  32.336  30.293  1.00  0.00     0.010 A 
ATOM     42  C   UNL A   1      36.734  32.653  29.593  1.00  0.00    -0.014 A 
BRANCH  42  43
ATOM     43  C   UNL A   1      38.039  32.114  30.057  1.00  0.00     0.031 A 
ATOM     44  C   UNL A   1      38.554  30.802  29.530  1.00  0.00     0.074 A 
ATOM     45  C   UNL A   1      38.735  32.777  31.002  1.00  0.00     0.049 A 
ATOM     46  N   UNL A   1      39.640  30.148  29.859  1.00  0.00    -0.248 NA
ATOM     47  C   UNL A   1      37.728  30.124  28.519  1.00  0.00     0.031 C 
ATOM     48  C   UNL A   1      38.324  34.034  31.631  1.00  0.00     0.029 A 
ATOM     49  N   UNL A   1      39.933  32.482  31.606  1.00  0.00    -0.354 N 
ATOM     50  C   UNL A   1      39.620  28.980  29.109  1.00  0.00     0.074 A 
ATOM     51  C   UNL A   1      38.389  28.988  28.348  1.00  0.00     0.031 C 
ATOM     52  C   UNL A   1      39.261  34.412  32.515  1.00  0.00     0.029 A 
ATOM     53  C   UNL A   1      40.319  33.406  32.547  1.00  0.00     0.049 A 
ATOM     54  H   UNL A   1      40.464  31.684  31.386  1.00  0.00     0.167 HD
ATOM     55  C   UNL A   1      40.552  27.999  29.041  1.00  0.00     0.037 A 
ATOM     56  C   UNL A   1      41.396  33.437  33.355  1.00  0.00     0.037 A 
ATOM     57  C   UNL A   1      41.783  28.002  29.787  1.00  0.00     0.049 A 
ATOM     58  C   UNL A   1      42.411  32.331  33.271  1.00  0.00     0.074 A 
ATOM     59  C   UNL A   1      42.819  27.085  29.740  1.00  0.00     0.029 A 
ATOM     60  N   UNL A   1      42.143  28.962  30.721  1.00  0.00    -0.354 N 
ATOM     61  N   UNL A   1      42.413  31.268  32.502  1.00  0.00    -0.248 NA
ATOM     62  C   UNL A   1      43.576  32.430  34.162  1.00  0.00     0.031 C 
ATOM     63  C   UNL A   1      43.778  27.457  30.687  1.00  0.00     0.029 A 
ATOM     64  C   UNL A   1      43.372  28.643  31.277  1.00  0.00     0.049 A 
ATOM     65  H   UNL A   1      41.606  29.754  30.953  1.00  0.00     0.167 HD
ATOM     66  C   UNL A   1      43.590  30.590  32.794  1.00  0.00     0.074 A 
ATOM     67  C   UNL A   1      44.283  31.369  33.799  1.00  0.00     0.031 C 
ATOM     68  C   UNL A   1      44.055  29.427  32.275  1.00  0.00     0.037 A 
BRANCH  55  69
ATOM     69  C   UNL A   1      40.275  26.835  28.133  1.00  0.00     0.057 A 
ATOM     70  C   UNL A   1      40.856  26.732  26.861  1.00  0.00     0.134 A 
ATOM     71  C   UNL A   1      39.456  25.779  28.554  1.00  0.00     0.134 A 
ATOM     72  F   UNL A   1      41.642  27.713  26.392  1.00  0.00    -0.206 F 
ATOM     73  C   UNL A   1      40.612  25.636  26.033  1.00  0.00     0.040 A 
ATOM     74  C   UNL A   1      39.230  24.663  27.748  1.00  0.00     0.040 A 
ATOM     75  F   UNL A   1      38.874  25.808  29.763  1.00  0.00    -0.206 F 
ATOM     76  C   UNL A   1      39.804  24.592  26.479  1.00  0.00     0.006 A 
ENDBRANCH  55  69
BRANCH  56  77
ATOM     77  C   UNL A   1      41.577  34.562  34.309  1.00  0.00     0.057 A 
ATOM     78  C   UNL A   1      42.189  35.758  33.913  1.00  0.00     0.134 A 
ATOM     79  C   UNL A   1      41.148  34.469  35.639  1.00  0.00     0.134 A 
ATOM     80  F   UNL A   1      42.637  35.902  32.658  1.00  0.00    -0.206 F 
ATOM     81  C   UNL A   1      42.388  36.809  34.808  1.00  0.00     0.040 A 
ATOM     82  C   UNL A   1      41.314  35.524  36.537  1.00  0.00     0.040 A 
ATOM     83  F   UNL A   1      40.547  33.354  36.079  1.00  0.00    -0.206 F 
ATOM     84  C   UNL A   1      41.944  36.696  36.124  1.00  0.00     0.006 A 
ENDBRANCH  56  77
BRANCH  68  85
ATOM     85  C   UNL A   1      45.394  28.943  32.753  1.00  0.00     0.057 A 
ATOM     86  C   UNL A   1      45.524  28.063  33.836  1.00  0.00     0.134 A 
ATOM     87  C   UNL A   1      46.567  29.332  32.095  1.00  0.00     0.134 A 
ATOM     88  F   UNL A   1      44.442  27.660  34.519  1.00  0.00    -0.206 F 
ATOM     89  C   UNL A   1      46.774  27.610  34.262  1.00  0.00     0.040 A 
ATOM     90  C   UNL A   1      47.820  28.861  32.491  1.00  0.00     0.040 A 
ATOM     91  F   UNL A   1      46.516  30.164  31.044  1.00  0.00    -0.206 F 
ATOM     92  C   UNL A   1      47.927  28.002  33.583  1.00  0.00     0.006 A 
ENDBRANCH  68  85
ENDBRANCH  42  43
ENDBRANCH  34  37
ENDBRANCH  32  33
ENDBRANCH  31  32
ENDBRANCH  30  31
ENDBRANCH   1  30
TORSDOF 15
ENDMDL
MODEL 2
REMARK VINA RESULT:     -10.1      7.211     12.466
REMARK SMILES O=C(COCC(=O)/[NH+]=C1\S[C@@H]2CS(=O)(=O)C[C@H]2N1c1ccc(Cl)cc1)NCCCCNC(=O)c1ccc(-c2c3nc(c(-c4c(F)cccc4F)c4ccc([nH]4)c(-c4c(F)cccc4F)c4nc(c(-c5c(F)cccc5F)c5ccc2[nH]5)C=C4)C=C3)cc1
REMARK SMILES IDX 27 1 26 2 2 3 1 4 3 6 4 7 5 8 6 9 7 10 8 11 9 12 10 14 18 15
REMARK SMILES IDX 11 16 17 17 12 18 16 19 13 20 14 21 15 22 19 23 20 24 25 25
REMARK SMILES IDX 21 26 24 27 22 28 23 29 28 30 29 31 30 32 31 33 32 34 33 36
REMARK SMILES IDX 34 37 35 38 87 39 36 40 86 41 37 42 38 43 39 44 80 45 40 46
REMARK SMILES IDX 85 47 79 48 81 49 41 50 84 51 78 52 77 53 42 55 68 56 51 57
REMARK SMILES IDX 67 58 52 59 55 60 66 61 82 62 53 63 54 64 65 66 83 67 56 68
REMARK SMILES IDX 43 69 44 70 49 71 45 72 46 73 48 74 50 75 47 76 69 77 70 78
REMARK SMILES IDX 75 79 71 80 72 81 74 82 76 83 73 84 57 85 58 86 63 87 59 88
REMARK SMILES IDX 60 89 62 90 64 91 61 92
REMARK H PARENT 26 5 8 13 31 35 81 54 55 65
REMARK Flexibility Score: inf
ROOT
ATOM      1  C   UNL A   1      39.988  27.272  28.109  1.00  0.00     0.116 C 
ENDROOT
BRANCH   1   2
ATOM      2  N   UNL A   1      41.312  27.659  28.561  1.00  0.00    -0.354 N 
ATOM      3  C   UNL A   1      41.683  28.138  29.787  1.00  0.00     0.246 C 
ATOM      4  O   UNL A   1      42.872  28.375  30.001  1.00  0.00    -0.272 OA
ATOM      5  H   UNL A   1      42.035  27.565  27.901  1.00  0.00     0.163 HD
BRANCH   3   6
ATOM      6  C   UNL A   1      40.610  28.375  30.853  1.00  0.00     0.260 C 
BRANCH   6   7
ATOM      7  O   UNL A   1      40.241  29.739  30.975  1.00  0.00    -0.359 OA
BRANCH   7   8
ATOM      8  C   UNL A   1      38.997  30.028  30.348  1.00  0.00     0.288 C 
BRANCH   8   9
ATOM      9  C   UNL A   1      38.676  31.508  30.059  1.00  0.00     0.333 C 
ATOM     10  O   UNL A   1      39.595  32.324  29.998  1.00  0.00    -0.244 OA
ATOM     11  N   UNL A   1      37.368  31.901  29.922  1.00  0.00    -0.202 N 
ATOM     12  C   UNL A   1      36.583  31.413  29.020  1.00  0.00     0.319 C 
ATOM     13  H   UNL A   1      37.014  32.585  30.535  1.00  0.00     0.316 HD
ATOM     14  S   UNL A   1      36.991  30.063  27.909  1.00  0.00    -0.029 SA
ATOM     15  N   UNL A   1      35.258  31.809  28.770  1.00  0.00    -0.217 N 
ATOM     16  C   UNL A   1      35.235  29.660  27.810  1.00  0.00     0.120 C 
ATOM     17  C   UNL A   1      34.650  31.067  27.651  1.00  0.00     0.212 C 
ATOM     18  C   UNL A   1      34.706  28.796  26.696  1.00  0.00     0.156 C 
ATOM     19  C   UNL A   1      33.161  30.838  27.579  1.00  0.00     0.188 C 
ATOM     20  S   UNL A   1      33.041  29.427  26.473  1.00  0.00     0.155 S 
ATOM     21  O   UNL A   1      32.102  28.484  27.044  1.00  0.00    -0.229 OA
ATOM     22  O   UNL A   1      32.927  29.917  25.119  1.00  0.00    -0.229 OA
BRANCH  15  23
ATOM     23  C   UNL A   1      34.751  33.073  29.117  1.00  0.00     0.128 A 
ATOM     24  C   UNL A   1      34.484  33.408  30.454  1.00  0.00     0.053 A 
ATOM     25  C   UNL A   1      34.521  34.064  28.147  1.00  0.00     0.053 A 
ATOM     26  C   UNL A   1      33.978  34.665  30.808  1.00  0.00     0.025 A 
ATOM     27  C   UNL A   1      34.019  35.326  28.494  1.00  0.00     0.025 A 
ATOM     28  C   UNL A   1      33.745  35.619  29.824  1.00  0.00     0.041 A 
ATOM     29  Cl  UNL A   1      33.130  37.165  30.258  1.00  0.00    -0.084 Cl
ENDBRANCH  15  23
ENDBRANCH   8   9
ENDBRANCH   7   8
ENDBRANCH   6   7
ENDBRANCH   3   6
ENDBRANCH   1   2
BRANCH   1  30
ATOM     30  C   UNL A   1      39.521  25.949  28.716  1.00  0.00     0.023 C 
BRANCH  30  31
ATOM     31  C   UNL A   1      39.017  24.913  27.708  1.00  0.00     0.023 C 
BRANCH  31  32
ATOM     32  C   UNL A   1      39.844  24.777  26.434  1.00  0.00     0.116 C 
BRANCH  32  33
ATOM     33  N   UNL A   1      40.615  23.546  26.381  1.00  0.00    -0.352 N 
ATOM     34  C   UNL A   1      41.976  23.380  26.284  1.00  0.00     0.251 C 
ATOM     35  H   UNL A   1      40.088  22.715  26.421  1.00  0.00     0.163 HD
ATOM     36  O   UNL A   1      42.447  22.258  26.120  1.00  0.00    -0.269 OA
BRANCH  34  37
ATOM     37  C   UNL A   1      42.871  24.557  26.339  1.00  0.00     0.039 A 
ATOM     38  C   UNL A   1      43.418  24.928  27.571  1.00  0.00     0.014 A 
ATOM     39  C   UNL A   1      43.183  25.283  25.187  1.00  0.00     0.014 A 
ATOM     40  C   UNL A   1      44.333  25.982  27.633  1.00  0.00     0.010 A 
ATOM     41  C   UNL A   1      44.155  26.280  25.238  1.00  0.00     0.010 A 
ATOM     42  C   UNL A   1      44.742  26.640  26.461  1.00  0.00    -0.014 A 
BRANCH  42  43
ATOM     43  C   UNL A   1      45.789  27.694  26.496  1.00  0.00     0.031 A 
ATOM     44  C   UNL A   1      45.410  29.142  26.644  1.00  0.00     0.074 A 
ATOM     45  C   UNL A   1      47.083  27.353  26.333  1.00  0.00     0.049 A 
ATOM     46  N   UNL A   1      46.178  30.203  26.637  1.00  0.00    -0.248 NA
ATOM     47  C   UNL A   1      43.976  29.440  26.792  1.00  0.00     0.031 C 
ATOM     48  C   UNL A   1      47.581  25.991  26.131  1.00  0.00     0.029 A 
ATOM     49  N   UNL A   1      48.217  28.127  26.301  1.00  0.00    -0.354 N 
ATOM     50  C   UNL A   1      45.322  31.289  26.767  1.00  0.00     0.074 A 
ATOM     51  C   UNL A   1      43.974  30.765  26.795  1.00  0.00     0.031 C 
ATOM     52  C   UNL A   1      48.919  26.022  26.019  1.00  0.00     0.029 A 
ATOM     53  C   UNL A   1      49.371  27.408  26.097  1.00  0.00     0.049 A 
ATOM     54  H   UNL A   1      48.206  29.104  26.414  1.00  0.00     0.167 HD
ATOM     55  C   UNL A   1      45.632  32.604  26.875  1.00  0.00     0.037 A 
ATOM     56  C   UNL A   1      50.648  27.816  25.976  1.00  0.00     0.037 A 
ATOM     57  C   UNL A   1      46.976  33.122  26.864  1.00  0.00     0.049 A 
ATOM     58  C   UNL A   1      50.966  29.282  26.086  1.00  0.00     0.074 A 
ATOM     59  C   UNL A   1      47.394  34.431  27.030  1.00  0.00     0.029 A 
ATOM     60  N   UNL A   1      48.118  32.360  26.668  1.00  0.00    -0.354 N 
ATOM     61  N   UNL A   1      50.152  30.292  26.283  1.00  0.00    -0.248 NA
ATOM     62  C   UNL A   1      52.380  29.666  25.967  1.00  0.00     0.031 C 
ATOM     63  C   UNL A   1      48.783  34.470  26.875  1.00  0.00     0.029 A 
ATOM     64  C   UNL A   1      49.238  33.176  26.679  1.00  0.00     0.049 A 
ATOM     65  H   UNL A   1      48.130  31.383  26.540  1.00  0.00     0.167 HD
ATOM     66  C   UNL A   1      50.957  31.423  26.340  1.00  0.00     0.074 A 
ATOM     67  C   UNL A   1      52.323  30.974  26.173  1.00  0.00     0.031 C 
ATOM     68  C   UNL A   1      50.595  32.718  26.515  1.00  0.00     0.037 A 
BRANCH  55  69
ATOM     69  C   UNL A   1      44.498  33.579  27.011  1.00  0.00     0.057 A 
ATOM     70  C   UNL A   1      44.021  33.994  28.262  1.00  0.00     0.134 A 
ATOM     71  C   UNL A   1      43.905  34.149  25.876  1.00  0.00     0.134 A 
ATOM     72  F   UNL A   1      44.537  33.480  29.390  1.00  0.00    -0.206 F 
ATOM     73  C   UNL A   1      42.982  34.918  28.380  1.00  0.00     0.040 A 
ATOM     74  C   UNL A   1      42.887  35.097  25.981  1.00  0.00     0.040 A 
ATOM     75  F   UNL A   1      44.317  33.803  24.646  1.00  0.00    -0.206 F 
ATOM     76  C   UNL A   1      42.418  35.479  27.236  1.00  0.00     0.006 A 
ENDBRANCH  55  69
BRANCH  56  77
ATOM     77  C   UNL A   1      51.727  26.822  25.743  1.00  0.00     0.057 A 
ATOM     78  C   UNL A   1      52.366  26.181  26.812  1.00  0.00     0.134 A 
ATOM     79  C   UNL A   1      52.150  26.491  24.450  1.00  0.00     0.134 A 
ATOM     80  F   UNL A   1      52.019  26.469  28.075  1.00  0.00    -0.206 F 
ATOM     81  C   UNL A   1      53.399  25.266  26.606  1.00  0.00     0.040 A 
ATOM     82  C   UNL A   1      53.162  25.555  24.228  1.00  0.00     0.040 A 
ATOM     83  F   UNL A   1      51.574  27.061  23.383  1.00  0.00    -0.206 F 
ATOM     84  C   UNL A   1      53.795  24.945  25.309  1.00  0.00     0.006 A 
ENDBRANCH  56  77
BRANCH  68  85
ATOM     85  C   UNL A   1      51.693  33.740  26.576  1.00  0.00     0.057 A 
ATOM     86  C   UNL A   1      52.326  34.083  27.778  1.00  0.00     0.134 A 
ATOM     87  C   UNL A   1      52.151  34.362  25.407  1.00  0.00     0.134 A 
ATOM     88  F   UNL A   1      51.929  33.534  28.936  1.00  0.00    -0.206 F 
ATOM     89  C   UNL A   1      53.355  35.026  27.819  1.00  0.00     0.040 A 
ATOM     90  C   UNL A   1      53.200  35.282  25.430  1.00  0.00     0.040 A 
ATOM     91  F   UNL A   1      51.598  34.073  24.220  1.00  0.00    -0.206 F 
ATOM     92  C   UNL A   1      53.801  35.622  26.640  1.00  0.00     0.006 A 
ENDBRANCH  68  85
ENDBRANCH  42  43
ENDBRANCH  34  37
ENDBRANCH  32  33
ENDBRANCH  31  32
ENDBRANCH  30  31
ENDBRANCH   1  30
TORSDOF 15
ENDMDL
MODEL 3
REMARK VINA RESULT:     -10.1      3.995      9.672
REMARK SMILES O=C(COCC(=O)/[NH+]=C1\S[C@@H]2CS(=O)(=O)C[C@H]2N1c1ccc(Cl)cc1)NCCCCNC(=O)c1ccc(-c2c3nc(c(-c4c(F)cccc4F)c4ccc([nH]4)c(-c4c(F)cccc4F)c4nc(c(-c5c(F)cccc5F)c5ccc2[nH]5)C=C4)C=C3)cc1
REMARK SMILES IDX 27 1 26 2 2 3 1 4 3 6 4 7 5 8 6 9 7 10 8 11 9 12 10 14 18 15
REMARK SMILES IDX 11 16 17 17 12 18 16 19 13 20 14 21 15 22 19 23 20 24 25 25
REMARK SMILES IDX 21 26 24 27 22 28 23 29 28 30 29 31 30 32 31 33 32 34 33 36
REMARK SMILES IDX 34 37 35 38 87 39 36 40 86 41 37 42 38 43 39 44 80 45 40 46
REMARK SMILES IDX 85 47 79 48 81 49 41 50 84 51 78 52 77 53 42 55 68 56 51 57
REMARK SMILES IDX 67 58 52 59 55 60 66 61 82 62 53 63 54 64 65 66 83 67 56 68
REMARK SMILES IDX 43 69 44 70 49 71 45 72 46 73 48 74 50 75 47 76 69 77 70 78
REMARK SMILES IDX 75 79 71 80 72 81 74 82 76 83 73 84 57 85 58 86 63 87 59 88
REMARK SMILES IDX 60 89 62 90 64 91 61 92
REMARK H PARENT 26 5 8 13 31 35 81 54 55 65
REMARK Flexibility Score: inf
ROOT
ATOM      1  C   UNL A   1      38.189  33.548  40.154  1.00  0.00     0.116 C 
ENDROOT
BRANCH   1   2
ATOM      2  N   UNL A   1      37.674  32.289  39.648  1.00  0.00    -0.354 N 
ATOM      3  C   UNL A   1      37.505  31.903  38.347  1.00  0.00     0.246 C 
ATOM      4  O   UNL A   1      37.090  30.769  38.109  1.00  0.00    -0.272 OA
ATOM      5  H   UNL A   1      37.413  31.628  40.328  1.00  0.00     0.163 HD
BRANCH   3   6
ATOM      6  C   UNL A   1      37.827  32.894  37.226  1.00  0.00     0.260 C 
BRANCH   6   7
ATOM      7  O   UNL A   1      37.138  32.610  36.018  1.00  0.00    -0.359 OA
BRANCH   7   8
ATOM      8  C   UNL A   1      38.018  32.419  34.917  1.00  0.00     0.288 C 
BRANCH   8   9
ATOM      9  C   UNL A   1      38.295  30.969  34.473  1.00  0.00     0.333 C 
ATOM     10  O   UNL A   1      38.385  30.085  35.324  1.00  0.00    -0.244 OA
ATOM     11  N   UNL A   1      38.483  30.694  33.142  1.00  0.00    -0.202 N 
ATOM     12  C   UNL A   1      37.590  30.943  32.244  1.00  0.00     0.319 C 
ATOM     13  H   UNL A   1      39.335  30.289  32.860  1.00  0.00     0.316 HD
ATOM     14  S   UNL A   1      36.042  31.807  32.531  1.00  0.00    -0.029 SA
ATOM     15  N   UNL A   1      37.676  30.631  30.877  1.00  0.00    -0.217 N 
ATOM     16  C   UNL A   1      36.059  32.341  30.808  1.00  0.00     0.120 C 
ATOM     17  C   UNL A   1      36.469  31.029  30.130  1.00  0.00     0.212 C 
ATOM     18  C   UNL A   1      34.805  32.846  30.147  1.00  0.00     0.156 C 
ATOM     19  C   UNL A   1      36.534  31.379  28.664  1.00  0.00     0.188 C 
ATOM     20  S   UNL A   1      35.045  32.358  28.436  1.00  0.00     0.155 S 
ATOM     21  O   UNL A   1      35.388  33.530  27.658  1.00  0.00    -0.229 OA
ATOM     22  O   UNL A   1      33.966  31.470  28.070  1.00  0.00    -0.229 OA
BRANCH  15  23
ATOM     23  C   UNL A   1      38.498  29.611  30.369  1.00  0.00     0.128 A 
ATOM     24  C   UNL A   1      39.660  29.906  29.639  1.00  0.00     0.053 A 
ATOM     25  C   UNL A   1      38.209  28.253  30.596  1.00  0.00     0.053 A 
ATOM     26  C   UNL A   1      40.483  28.895  29.128  1.00  0.00     0.025 A 
ATOM     27  C   UNL A   1      39.030  27.235  30.092  1.00  0.00     0.025 A 
ATOM     28  C   UNL A   1      40.163  27.561  29.356  1.00  0.00     0.041 A 
ATOM     29  Cl  UNL A   1      41.177  26.319  28.735  1.00  0.00    -0.084 Cl
ENDBRANCH  15  23
ENDBRANCH   8   9
ENDBRANCH   7   8
ENDBRANCH   6   7
ENDBRANCH   3   6
ENDBRANCH   1   2
BRANCH   1  30
ATOM     30  C   UNL A   1      39.510  33.385  40.906  1.00  0.00     0.023 C 
BRANCH  30  31
ATOM     31  C   UNL A   1      40.751  33.252  40.020  1.00  0.00     0.023 C 
BRANCH  31  32
ATOM     32  C   UNL A   1      41.871  34.248  40.300  1.00  0.00     0.116 C 
BRANCH  32  33
ATOM     33  N   UNL A   1      41.480  35.628  40.067  1.00  0.00    -0.352 N 
ATOM     34  C   UNL A   1      41.469  36.339  38.890  1.00  0.00     0.251 C 
ATOM     35  H   UNL A   1      41.180  36.124  40.863  1.00  0.00     0.163 HD
ATOM     36  O   UNL A   1      41.229  37.542  38.902  1.00  0.00    -0.269 OA
BRANCH  34  37
ATOM     37  C   UNL A   1      41.782  35.660  37.613  1.00  0.00     0.039 A 
ATOM     38  C   UNL A   1      43.123  35.498  37.249  1.00  0.00     0.014 A 
ATOM     39  C   UNL A   1      40.769  35.172  36.785  1.00  0.00     0.014 A 
ATOM     40  C   UNL A   1      43.445  34.785  36.092  1.00  0.00     0.010 A 
ATOM     41  C   UNL A   1      41.093  34.393  35.676  1.00  0.00     0.010 A 
ATOM     42  C   UNL A   1      42.435  34.189  35.318  1.00  0.00    -0.014 A 
BRANCH  42  43
ATOM     43  C   UNL A   1      42.765  33.342  34.142  1.00  0.00     0.031 A 
ATOM     44  C   UNL A   1      42.927  33.959  32.779  1.00  0.00     0.074 A 
ATOM     45  C   UNL A   1      42.861  32.006  34.290  1.00  0.00     0.049 A 
ATOM     46  N   UNL A   1      43.158  33.375  31.630  1.00  0.00    -0.248 NA
ATOM     47  C   UNL A   1      42.785  35.421  32.692  1.00  0.00     0.031 C 
ATOM     48  C   UNL A   1      42.677  31.278  35.547  1.00  0.00     0.029 A 
ATOM     49  N   UNL A   1      43.125  31.019  33.372  1.00  0.00    -0.354 N 
ATOM     50  C   UNL A   1      43.175  34.392  30.686  1.00  0.00     0.074 A 
ATOM     51  C   UNL A   1      42.878  35.624  31.386  1.00  0.00     0.031 C 
ATOM     52  C   UNL A   1      42.856  29.966  35.327  1.00  0.00     0.029 A 
ATOM     53  C   UNL A   1      43.124  29.753  33.907  1.00  0.00     0.049 A 
ATOM     54  H   UNL A   1      43.299  31.201  32.421  1.00  0.00     0.167 HD
ATOM     55  C   UNL A   1      43.437  34.313  29.358  1.00  0.00     0.037 A 
ATOM     56  C   UNL A   1      43.307  28.554  33.322  1.00  0.00     0.037 A 
ATOM     57  C   UNL A   1      43.749  33.089  28.668  1.00  0.00     0.049 A 
ATOM     58  C   UNL A   1      43.584  28.491  31.845  1.00  0.00     0.074 A 
ATOM     59  C   UNL A   1      44.089  32.916  27.337  1.00  0.00     0.029 A 
ATOM     60  N   UNL A   1      43.750  31.829  29.247  1.00  0.00    -0.354 N 
ATOM     61  N   UNL A   1      43.670  29.471  30.977  1.00  0.00    -0.248 NA
ATOM     62  C   UNL A   1      43.796  27.156  31.266  1.00  0.00     0.031 C 
ATOM     63  C   UNL A   1      44.239  31.547  27.098  1.00  0.00     0.029 A 
ATOM     64  C   UNL A   1      44.057  30.871  28.294  1.00  0.00     0.049 A 
ATOM     65  H   UNL A   1      43.562  31.644  30.196  1.00  0.00     0.167 HD
ATOM     66  C   UNL A   1      43.974  28.875  29.760  1.00  0.00     0.074 A 
ATOM     67  C   UNL A   1      44.074  27.451  30.004  1.00  0.00     0.031 C 
ATOM     68  C   UNL A   1      44.157  29.456  28.549  1.00  0.00     0.037 A 
BRANCH  55  69
ATOM     69  C   UNL A   1      43.393  35.586  28.562  1.00  0.00     0.057 A 
ATOM     70  C   UNL A   1      44.552  36.316  28.265  1.00  0.00     0.134 A 
ATOM     71  C   UNL A   1      42.181  36.063  28.043  1.00  0.00     0.134 A 
ATOM     72  F   UNL A   1      45.744  35.921  28.739  1.00  0.00    -0.206 F 
ATOM     73  C   UNL A   1      44.505  37.485  27.504  1.00  0.00     0.040 A 
ATOM     74  C   UNL A   1      42.126  37.213  27.255  1.00  0.00     0.040 A 
ATOM     75  F   UNL A   1      41.034  35.410  28.282  1.00  0.00    -0.206 F 
ATOM     76  C   UNL A   1      43.290  37.932  26.989  1.00  0.00     0.006 A 
ENDBRANCH  55  69
BRANCH  56  77
ATOM     77  C   UNL A   1      43.244  27.313  34.136  1.00  0.00     0.057 A 
ATOM     78  C   UNL A   1      42.018  26.725  34.468  1.00  0.00     0.134 A 
ATOM     79  C   UNL A   1      44.406  26.687  34.606  1.00  0.00     0.134 A 
ATOM     80  F   UNL A   1      40.869  27.286  34.063  1.00  0.00    -0.206 F 
ATOM     81  C   UNL A   1      41.946  25.574  35.254  1.00  0.00     0.040 A 
ATOM     82  C   UNL A   1      44.350  25.520  35.369  1.00  0.00     0.040 A 
ATOM     83  F   UNL A   1      45.612  27.194  34.316  1.00  0.00    -0.206 F 
ATOM     84  C   UNL A   1      43.117  24.964  35.702  1.00  0.00     0.006 A 
ENDBRANCH  56  77
BRANCH  68  85
ATOM     85  C   UNL A   1      44.521  28.560  27.400  1.00  0.00     0.057 A 
ATOM     86  C   UNL A   1      43.565  28.090  26.490  1.00  0.00     0.134 A 
ATOM     87  C   UNL A   1      45.855  28.195  27.178  1.00  0.00     0.134 A 
ATOM     88  F   UNL A   1      42.268  28.392  26.649  1.00  0.00    -0.206 F 
ATOM     89  C   UNL A   1      43.919  27.268  25.418  1.00  0.00     0.040 A 
ATOM     90  C   UNL A   1      46.227  27.401  26.092  1.00  0.00     0.040 A 
ATOM     91  F   UNL A   1      46.824  28.618  28.004  1.00  0.00    -0.206 F 
ATOM     92  C   UNL A   1      45.256  26.928  25.212  1.00  0.00     0.006 A 
ENDBRANCH  68  85
ENDBRANCH  42  43
ENDBRANCH  34  37
ENDBRANCH  32  33
ENDBRANCH  31  32
ENDBRANCH  30  31
ENDBRANCH   1  30
TORSDOF 15
ENDMDL
