MODEL 1
REMARK VINA RESULT:     -11.7      0.000      0.000
REMARK SMILES C[C@@H](CCC(=O)NCCCCNC(=O)c1ccc(-c2c3nc(c(-c4c(F)cccc4F)c4ccc([nH]4)c(-c4c(F)cccc4F)c4nc(c(-c5c(F)cccc5F)c5ccc2[nH]5)C=C4)C=C3)cc1)NC(=O)Nc1ccc(Cl)c(Br)c1
REMARK SMILES IDX 8 1 7 2 5 3 6 4 4 6 3 7 2 8 1 9 69 10 70 11 71 13 72 14
REMARK SMILES IDX 73 16 74 17 80 18 75 19 78 20 76 21 79 22 77 23 9 24 10 25
REMARK SMILES IDX 11 26 12 27 13 28 14 30 15 31 16 32 68 33 17 34 67 35 18 36
REMARK SMILES IDX 19 37 20 38 61 39 21 40 66 41 60 42 62 43 22 44 65 45 59 46
REMARK SMILES IDX 58 47 23 49 49 50 32 51 48 52 33 53 36 54 47 55 63 56 34 57
REMARK SMILES IDX 35 58 46 60 64 61 37 62 24 63 25 64 30 65 26 66 27 67 29 68
REMARK SMILES IDX 31 69 28 70 50 71 51 72 56 73 52 74 53 75 55 76 57 77 54 78
REMARK SMILES IDX 38 79 39 80 44 81 40 82 41 83 43 84 45 85 42 86
REMARK H PARENT 7 5 69 12 72 15 12 29 62 48 36 59
REMARK Flexibility Score: inf
ROOT
ATOM      1  C   UNL A   1      33.282  30.158  26.712  1.00  0.00     0.116 C 
ENDROOT
BRANCH   1   2
ATOM      2  N   UNL A   1      33.646  29.439  25.505  1.00  0.00    -0.356 N 
ATOM      3  C   UNL A   1      33.570  28.116  25.202  1.00  0.00     0.220 C 
ATOM      4  O   UNL A   1      33.921  27.756  24.076  1.00  0.00    -0.275 OA
ATOM      5  H   UNL A   1      34.008  30.004  24.785  1.00  0.00     0.163 HD
BRANCH   3   6
ATOM      6  C   UNL A   1      33.160  27.096  26.239  1.00  0.00     0.102 C 
BRANCH   6   7
ATOM      7  C   UNL A   1      31.665  26.763  26.165  1.00  0.00     0.034 C 
BRANCH   7   8
ATOM      8  C   UNL A   1      31.271  25.385  25.592  1.00  0.00     0.081 C 
ATOM      9  C   UNL A   1      30.616  25.518  24.209  1.00  0.00     0.031 C 
BRANCH   8  10
ATOM     10  N   UNL A   1      30.538  24.583  26.592  1.00  0.00    -0.335 N 
ATOM     11  C   UNL A   1      30.357  23.278  26.871  1.00  0.00     0.319 C 
ATOM     12  H   UNL A   1      30.051  25.158  27.226  1.00  0.00     0.165 HD
ATOM     13  O   UNL A   1      29.482  22.988  27.693  1.00  0.00    -0.248 OA
ATOM     14  N   UNL A   1      30.971  22.276  26.214  1.00  0.00    -0.308 N 
ATOM     15  H   UNL A   1      30.485  21.419  26.230  1.00  0.00     0.171 HD
BRANCH  14  16
ATOM     16  C   UNL A   1      32.175  22.242  25.514  1.00  0.00     0.044 A 
ATOM     17  C   UNL A   1      32.134  21.925  24.158  1.00  0.00     0.028 A 
ATOM     18  C   UNL A   1      33.389  22.544  26.123  1.00  0.00     0.043 A 
ATOM     19  C   UNL A   1      33.275  22.113  23.376  1.00  0.00     0.024 A 
ATOM     20  C   UNL A   1      34.529  22.750  25.343  1.00  0.00     0.038 A 
ATOM     21  C   UNL A   1      34.461  22.568  23.959  1.00  0.00     0.055 A 
ATOM     22  Br  UNL A   1      36.086  23.371  26.233  1.00  0.00    -0.049 Br
ATOM     23  Cl  UNL A   1      35.786  22.920  22.910  1.00  0.00    -0.083 Cl
ENDBRANCH  14  16
ENDBRANCH   8  10
ENDBRANCH   7   8
ENDBRANCH   6   7
ENDBRANCH   3   6
ENDBRANCH   1   2
BRANCH   1  24
ATOM     24  C   UNL A   1      31.810  30.558  26.753  1.00  0.00     0.023 C 
BRANCH  24  25
ATOM     25  C   UNL A   1      31.534  32.056  26.785  1.00  0.00     0.023 C 
BRANCH  25  26
ATOM     26  C   UNL A   1      32.741  32.844  27.237  1.00  0.00     0.116 C 
BRANCH  26  27
ATOM     27  N   UNL A   1      32.396  34.202  27.653  1.00  0.00    -0.352 N 
ATOM     28  C   UNL A   1      33.009  34.974  28.607  1.00  0.00     0.251 C 
ATOM     29  H   UNL A   1      31.631  34.612  27.190  1.00  0.00     0.163 HD
ATOM     30  O   UNL A   1      32.541  36.058  28.938  1.00  0.00    -0.269 OA
BRANCH  28  31
ATOM     31  C   UNL A   1      34.214  34.440  29.269  1.00  0.00     0.039 A 
ATOM     32  C   UNL A   1      34.069  33.688  30.435  1.00  0.00     0.014 A 
ATOM     33  C   UNL A   1      35.467  34.604  28.675  1.00  0.00     0.014 A 
ATOM     34  C   UNL A   1      35.183  33.043  30.970  1.00  0.00     0.010 A 
ATOM     35  C   UNL A   1      36.542  33.864  29.135  1.00  0.00     0.010 A 
ATOM     36  C   UNL A   1      36.417  33.096  30.302  1.00  0.00    -0.014 A 
BRANCH  36  37
ATOM     37  C   UNL A   1      37.613  32.406  30.830  1.00  0.00     0.031 A 
ATOM     38  C   UNL A   1      38.264  32.923  32.083  1.00  0.00     0.074 A 
ATOM     39  C   UNL A   1      38.144  31.372  30.150  1.00  0.00     0.049 A 
ATOM     40  N   UNL A   1      39.359  32.520  32.674  1.00  0.00    -0.248 NA
ATOM     41  C   UNL A   1      37.622  34.077  32.736  1.00  0.00     0.031 C 
ATOM     42  C   UNL A   1      37.633  30.833  28.888  1.00  0.00     0.029 A 
ATOM     43  N   UNL A   1      39.237  30.592  30.426  1.00  0.00    -0.354 N 
ATOM     44  C   UNL A   1      39.545  33.384  33.745  1.00  0.00     0.074 A 
ATOM     45  C   UNL A   1      38.497  34.377  33.682  1.00  0.00     0.031 C 
ATOM     46  C   UNL A   1      38.390  29.787  28.518  1.00  0.00     0.029 A 
ATOM     47  C   UNL A   1      39.457  29.606  29.496  1.00  0.00     0.049 A 
ATOM     48  H   UNL A   1      39.809  30.727  31.216  1.00  0.00     0.167 HD
ATOM     49  C   UNL A   1      40.483  33.332  34.717  1.00  0.00     0.037 A 
ATOM     50  C   UNL A   1      40.414  28.662  29.446  1.00  0.00     0.037 A 
ATOM     51  C   UNL A   1      41.492  32.311  34.794  1.00  0.00     0.049 A 
ATOM     52  C   UNL A   1      41.432  28.608  30.552  1.00  0.00     0.074 A 
ATOM     53  C   UNL A   1      42.451  32.116  35.769  1.00  0.00     0.029 A 
ATOM     54  N   UNL A   1      41.661  31.306  33.853  1.00  0.00    -0.354 N 
ATOM     55  N   UNL A   1      41.554  29.385  31.602  1.00  0.00    -0.248 NA
ATOM     56  C   UNL A   1      42.439  27.541  30.473  1.00  0.00     0.031 C 
ATOM     57  C   UNL A   1      43.227  31.014  35.399  1.00  0.00     0.029 A 
ATOM     58  C   UNL A   1      42.722  30.494  34.217  1.00  0.00     0.049 A 
ATOM     59  H   UNL A   1      41.109  31.187  33.046  1.00  0.00     0.167 HD
ATOM     60  C   UNL A   1      42.632  28.888  32.322  1.00  0.00     0.074 A 
ATOM     61  C   UNL A   1      43.118  27.730  31.596  1.00  0.00     0.031 C 
ATOM     62  C   UNL A   1      43.175  29.344  33.477  1.00  0.00     0.037 A 
BRANCH  49  63
ATOM     63  C   UNL A   1      40.446  34.399  35.772  1.00  0.00     0.057 A 
ATOM     64  C   UNL A   1      39.669  34.267  36.932  1.00  0.00     0.134 A 
ATOM     65  C   UNL A   1      41.200  35.571  35.633  1.00  0.00     0.134 A 
ATOM     66  F   UNL A   1      38.907  33.178  37.120  1.00  0.00    -0.206 F 
ATOM     67  C   UNL A   1      39.616  35.274  37.897  1.00  0.00     0.040 A 
ATOM     68  C   UNL A   1      41.180  36.571  36.606  1.00  0.00     0.040 A 
ATOM     69  F   UNL A   1      41.966  35.764  34.549  1.00  0.00    -0.206 F 
ATOM     70  C   UNL A   1      40.380  36.428  37.738  1.00  0.00     0.006 A 
ENDBRANCH  49  63
BRANCH  50  71
ATOM     71  C   UNL A   1      40.433  27.673  28.339  1.00  0.00     0.057 A 
ATOM     72  C   UNL A   1      39.737  26.462  28.441  1.00  0.00     0.134 A 
ATOM     73  C   UNL A   1      41.139  27.911  27.154  1.00  0.00     0.134 A 
ATOM     74  F   UNL A   1      39.053  26.170  29.556  1.00  0.00    -0.206 F 
ATOM     75  C   UNL A   1      39.761  25.515  27.416  1.00  0.00     0.040 A 
ATOM     76  C   UNL A   1      41.151  26.984  26.110  1.00  0.00     0.040 A 
ATOM     77  F   UNL A   1      41.818  29.056  26.987  1.00  0.00    -0.206 F 
ATOM     78  C   UNL A   1      40.466  25.778  26.244  1.00  0.00     0.006 A 
ENDBRANCH  50  71
BRANCH  62  79
ATOM     79  C   UNL A   1      44.329  28.571  34.042  1.00  0.00     0.057 A 
ATOM     80  C   UNL A   1      45.655  28.908  33.748  1.00  0.00     0.134 A 
ATOM     81  C   UNL A   1      44.108  27.508  34.925  1.00  0.00     0.134 A 
ATOM     82  F   UNL A   1      45.932  29.909  32.899  1.00  0.00    -0.206 F 
ATOM     83  C   UNL A   1      46.724  28.198  34.298  1.00  0.00     0.040 A 
ATOM     84  C   UNL A   1      45.167  26.809  35.504  1.00  0.00     0.040 A 
ATOM     85  F   UNL A   1      42.859  27.143  35.255  1.00  0.00    -0.206 F 
ATOM     86  C   UNL A   1      46.479  27.151  35.186  1.00  0.00     0.006 A 
ENDBRANCH  62  79
ENDBRANCH  36  37
ENDBRANCH  28  31
ENDBRANCH  26  27
ENDBRANCH  25  26
ENDBRANCH  24  25
ENDBRANCH   1  24
TORSDOF 15
ENDMDL
MODEL 2
REMARK VINA RESULT:     -11.6      4.435      9.271
REMARK SMILES C[C@@H](CCC(=O)NCCCCNC(=O)c1ccc(-c2c3nc(c(-c4c(F)cccc4F)c4ccc([nH]4)c(-c4c(F)cccc4F)c4nc(c(-c5c(F)cccc5F)c5ccc2[nH]5)C=C4)C=C3)cc1)NC(=O)Nc1ccc(Cl)c(Br)c1
REMARK SMILES IDX 8 1 7 2 5 3 6 4 4 6 3 7 2 8 1 9 69 10 70 11 71 13 72 14
REMARK SMILES IDX 73 16 74 17 80 18 75 19 78 20 76 21 79 22 77 23 9 24 10 25
REMARK SMILES IDX 11 26 12 27 13 28 14 30 15 31 16 32 68 33 17 34 67 35 18 36
REMARK SMILES IDX 19 37 20 38 61 39 21 40 66 41 60 42 62 43 22 44 65 45 59 46
REMARK SMILES IDX 58 47 23 49 49 50 32 51 48 52 33 53 36 54 47 55 63 56 34 57
REMARK SMILES IDX 35 58 46 60 64 61 37 62 24 63 25 64 30 65 26 66 27 67 29 68
REMARK SMILES IDX 31 69 28 70 50 71 51 72 56 73 52 74 53 75 55 76 57 77 54 78
REMARK SMILES IDX 38 79 39 80 44 81 40 82 41 83 43 84 45 85 42 86
REMARK H PARENT 7 5 69 12 72 15 12 29 62 48 36 59
REMARK Flexibility Score: inf
ROOT
ATOM      1  C   UNL A   1      37.646  23.342  25.721  1.00  0.00     0.116 C 
ENDROOT
BRANCH   1   2
ATOM      2  N   UNL A   1      37.392  23.169  24.302  1.00  0.00    -0.356 N 
ATOM      3  C   UNL A   1      36.224  23.110  23.610  1.00  0.00     0.220 C 
ATOM      4  O   UNL A   1      36.281  22.984  22.385  1.00  0.00    -0.275 OA
ATOM      5  H   UNL A   1      38.201  23.079  23.750  1.00  0.00     0.163 HD
BRANCH   3   6
ATOM      6  C   UNL A   1      34.890  23.101  24.320  1.00  0.00     0.102 C 
BRANCH   6   7
ATOM      7  C   UNL A   1      33.971  24.231  23.843  1.00  0.00     0.034 C 
BRANCH   7   8
ATOM      8  C   UNL A   1      32.827  23.855  22.877  1.00  0.00     0.081 C 
ATOM      9  C   UNL A   1      32.502  22.356  22.947  1.00  0.00     0.031 C 
BRANCH   8  10
ATOM     10  N   UNL A   1      33.062  24.415  21.531  1.00  0.00    -0.335 N 
ATOM     11  C   UNL A   1      32.652  25.483  20.820  1.00  0.00     0.319 C 
ATOM     12  H   UNL A   1      33.688  23.857  21.014  1.00  0.00     0.165 HD
ATOM     13  O   UNL A   1      32.921  25.501  19.615  1.00  0.00    -0.248 OA
ATOM     14  N   UNL A   1      31.857  26.453  21.311  1.00  0.00    -0.308 N 
ATOM     15  H   UNL A   1      31.328  26.930  20.630  1.00  0.00     0.171 HD
BRANCH  14  16
ATOM     16  C   UNL A   1      31.651  26.897  22.615  1.00  0.00     0.044 A 
ATOM     17  C   UNL A   1      30.446  26.572  23.234  1.00  0.00     0.028 A 
ATOM     18  C   UNL A   1      32.620  27.615  23.308  1.00  0.00     0.043 A 
ATOM     19  C   UNL A   1      30.301  26.789  24.605  1.00  0.00     0.024 A 
ATOM     20  C   UNL A   1      32.487  27.818  24.684  1.00  0.00     0.038 A 
ATOM     21  C   UNL A   1      31.338  27.371  25.340  1.00  0.00     0.055 A 
ATOM     22  Br  UNL A   1      33.955  28.615  25.587  1.00  0.00    -0.049 Br
ATOM     23  Cl  UNL A   1      31.148  27.470  27.053  1.00  0.00    -0.083 Cl
ENDBRANCH  14  16
ENDBRANCH   8  10
ENDBRANCH   7   8
ENDBRANCH   6   7
ENDBRANCH   3   6
ENDBRANCH   1   2
BRANCH   1  24
ATOM     24  C   UNL A   1      38.828  22.518  26.225  1.00  0.00     0.023 C 
BRANCH  24  25
ATOM     25  C   UNL A   1      39.011  21.157  25.567  1.00  0.00     0.023 C 
BRANCH  25  26
ATOM     26  C   UNL A   1      39.573  20.135  26.526  1.00  0.00     0.116 C 
BRANCH  26  27
ATOM     27  N   UNL A   1      40.676  19.373  25.945  1.00  0.00    -0.352 N 
ATOM     28  C   UNL A   1      41.987  19.755  25.810  1.00  0.00     0.251 C 
ATOM     29  H   UNL A   1      40.450  18.475  25.611  1.00  0.00     0.163 HD
ATOM     30  O   UNL A   1      42.787  19.058  25.195  1.00  0.00    -0.269 OA
BRANCH  28  31
ATOM     31  C   UNL A   1      42.397  21.055  26.372  1.00  0.00     0.039 A 
ATOM     32  C   UNL A   1      42.677  22.110  25.504  1.00  0.00     0.014 A 
ATOM     33  C   UNL A   1      42.404  21.245  27.755  1.00  0.00     0.014 A 
ATOM     34  C   UNL A   1      42.901  23.381  26.031  1.00  0.00     0.010 A 
ATOM     35  C   UNL A   1      42.502  22.527  28.267  1.00  0.00     0.010 A 
ATOM     36  C   UNL A   1      42.777  23.604  27.411  1.00  0.00    -0.014 A 
BRANCH  36  37
ATOM     37  C   UNL A   1      42.987  24.944  28.000  1.00  0.00     0.031 A 
ATOM     38  C   UNL A   1      44.368  25.341  28.446  1.00  0.00     0.074 A 
ATOM     39  C   UNL A   1      41.936  25.762  28.194  1.00  0.00     0.049 A 
ATOM     40  N   UNL A   1      44.760  26.429  29.055  1.00  0.00    -0.248 NA
ATOM     41  C   UNL A   1      45.445  24.363  28.216  1.00  0.00     0.031 C 
ATOM     42  C   UNL A   1      40.544  25.450  27.862  1.00  0.00     0.029 A 
ATOM     43  N   UNL A   1      41.875  27.025  28.723  1.00  0.00    -0.354 N 
ATOM     44  C   UNL A   1      46.115  26.252  29.299  1.00  0.00     0.074 A 
ATOM     45  C   UNL A   1      46.464  24.927  28.843  1.00  0.00     0.031 C 
ATOM     46  C   UNL A   1      39.773  26.508  28.161  1.00  0.00     0.029 A 
ATOM     47  C   UNL A   1      40.608  27.555  28.738  1.00  0.00     0.049 A 
ATOM     48  H   UNL A   1      42.665  27.506  29.061  1.00  0.00     0.167 HD
ATOM     49  C   UNL A   1      47.000  27.132  29.823  1.00  0.00     0.037 A 
ATOM     50  C   UNL A   1      40.178  28.756  29.167  1.00  0.00     0.037 A 
ATOM     51  C   UNL A   1      46.648  28.465  30.229  1.00  0.00     0.049 A 
ATOM     52  C   UNL A   1      41.184  29.727  29.721  1.00  0.00     0.074 A 
ATOM     53  C   UNL A   1      47.470  29.467  30.708  1.00  0.00     0.029 A 
ATOM     54  N   UNL A   1      45.360  28.980  30.194  1.00  0.00    -0.354 N 
ATOM     55  N   UNL A   1      42.478  29.577  29.879  1.00  0.00    -0.248 NA
ATOM     56  C   UNL A   1      40.673  31.036  30.148  1.00  0.00     0.031 C 
ATOM     57  C   UNL A   1      46.674  30.578  31.000  1.00  0.00     0.029 A 
ATOM     58  C   UNL A   1      45.362  30.284  30.659  1.00  0.00     0.049 A 
ATOM     59  H   UNL A   1      44.563  28.491  29.885  1.00  0.00     0.167 HD
ATOM     60  C   UNL A   1      42.940  30.778  30.398  1.00  0.00     0.074 A 
ATOM     61  C   UNL A   1      41.789  31.653  30.512  1.00  0.00     0.031 C 
ATOM     62  C   UNL A   1      44.200  31.131  30.751  1.00  0.00     0.037 A 
BRANCH  49  63
ATOM     63  C   UNL A   1      48.423  26.678  29.967  1.00  0.00     0.057 A 
ATOM     64  C   UNL A   1      48.862  25.965  31.092  1.00  0.00     0.134 A 
ATOM     65  C   UNL A   1      49.365  26.948  28.968  1.00  0.00     0.134 A 
ATOM     66  F   UNL A   1      48.015  25.689  32.095  1.00  0.00    -0.206 F 
ATOM     67  C   UNL A   1      50.193  25.568  31.233  1.00  0.00     0.040 A 
ATOM     68  C   UNL A   1      50.692  26.529  29.084  1.00  0.00     0.040 A 
ATOM     69  F   UNL A   1      49.015  27.625  27.864  1.00  0.00    -0.206 F 
ATOM     70  C   UNL A   1      51.111  25.844  30.223  1.00  0.00     0.006 A 
ENDBRANCH  49  63
BRANCH  50  71
ATOM     71  C   UNL A   1      38.743  29.119  29.054  1.00  0.00     0.057 A 
ATOM     72  C   UNL A   1      38.205  29.567  27.842  1.00  0.00     0.134 A 
ATOM     73  C   UNL A   1      37.873  29.026  30.148  1.00  0.00     0.134 A 
ATOM     74  F   UNL A   1      38.989  29.691  26.761  1.00  0.00    -0.206 F 
ATOM     75  C   UNL A   1      36.863  29.931  27.725  1.00  0.00     0.040 A 
ATOM     76  C   UNL A   1      36.523  29.363  30.040  1.00  0.00     0.040 A 
ATOM     77  F   UNL A   1      38.323  28.594  31.335  1.00  0.00    -0.206 F 
ATOM     78  C   UNL A   1      36.016  29.823  28.826  1.00  0.00     0.006 A 
ENDBRANCH  50  71
BRANCH  62  79
ATOM     79  C   UNL A   1      44.403  32.527  31.258  1.00  0.00     0.057 A 
ATOM     80  C   UNL A   1      44.648  33.598  30.391  1.00  0.00     0.134 A 
ATOM     81  C   UNL A   1      44.303  32.808  32.626  1.00  0.00     0.134 A 
ATOM     82  F   UNL A   1      44.765  33.391  29.070  1.00  0.00    -0.206 F 
ATOM     83  C   UNL A   1      44.810  34.898  30.869  1.00  0.00     0.040 A 
ATOM     84  C   UNL A   1      44.436  34.108  33.114  1.00  0.00     0.040 A 
ATOM     85  F   UNL A   1      44.059  31.827  33.508  1.00  0.00    -0.206 F 
ATOM     86  C   UNL A   1      44.695  35.156  32.235  1.00  0.00     0.006 A 
ENDBRANCH  62  79
ENDBRANCH  36  37
ENDBRANCH  28  31
ENDBRANCH  26  27
ENDBRANCH  25  26
ENDBRANCH  24  25
ENDBRANCH   1  24
TORSDOF 15
ENDMDL
MODEL 3
REMARK VINA RESULT:     -11.6      0.793      1.551
REMARK SMILES C[C@@H](CCC(=O)NCCCCNC(=O)c1ccc(-c2c3nc(c(-c4c(F)cccc4F)c4ccc([nH]4)c(-c4c(F)cccc4F)c4nc(c(-c5c(F)cccc5F)c5ccc2[nH]5)C=C4)C=C3)cc1)NC(=O)Nc1ccc(Cl)c(Br)c1
REMARK SMILES IDX 8 1 7 2 5 3 6 4 4 6 3 7 2 8 1 9 69 10 70 11 71 13 72 14
REMARK SMILES IDX 73 16 74 17 80 18 75 19 78 20 76 21 79 22 77 23 9 24 10 25
REMARK SMILES IDX 11 26 12 27 13 28 14 30 15 31 16 32 68 33 17 34 67 35 18 36
REMARK SMILES IDX 19 37 20 38 61 39 21 40 66 41 60 42 62 43 22 44 65 45 59 46
REMARK SMILES IDX 58 47 23 49 49 50 32 51 48 52 33 53 36 54 47 55 63 56 34 57
REMARK SMILES IDX 35 58 46 60 64 61 37 62 24 63 25 64 30 65 26 66 27 67 29 68
REMARK SMILES IDX 31 69 28 70 50 71 51 72 56 73 52 74 53 75 55 76 57 77 54 78
REMARK SMILES IDX 38 79 39 80 44 81 40 82 41 83 43 84 45 85 42 86
REMARK H PARENT 7 5 69 12 72 15 12 29 62 48 36 59
REMARK Flexibility Score: inf
ROOT
ATOM      1  C   UNL A   1      32.208  30.066  25.348  1.00  0.00     0.116 C 
ENDROOT
BRANCH   1   2
ATOM      2  N   UNL A   1      31.073  29.867  24.465  1.00  0.00    -0.356 N 
ATOM      3  C   UNL A   1      30.593  28.740  23.875  1.00  0.00     0.220 C 
ATOM      4  O   UNL A   1      29.579  28.835  23.181  1.00  0.00    -0.275 OA
ATOM      5  H   UNL A   1      30.567  30.685  24.258  1.00  0.00     0.163 HD
BRANCH   3   6
ATOM      6  C   UNL A   1      31.328  27.424  23.983  1.00  0.00     0.102 C 
BRANCH   6   7
ATOM      7  C   UNL A   1      30.871  26.602  25.193  1.00  0.00     0.034 C 
BRANCH   7   8
ATOM      8  C   UNL A   1      30.818  25.068  25.032  1.00  0.00     0.081 C 
ATOM      9  C   UNL A   1      30.227  24.666  23.672  1.00  0.00     0.031 C 
BRANCH   8  10
ATOM     10  N   UNL A   1      30.224  24.428  26.222  1.00  0.00    -0.335 N 
ATOM     11  C   UNL A   1      30.258  23.218  26.813  1.00  0.00     0.319 C 
ATOM     12  H   UNL A   1      29.648  25.054  26.717  1.00  0.00     0.165 HD
ATOM     13  O   UNL A   1      29.440  23.001  27.713  1.00  0.00    -0.248 OA
ATOM     14  N   UNL A   1      31.029  22.197  26.393  1.00  0.00    -0.308 N 
ATOM     15  H   UNL A   1      30.689  21.303  26.633  1.00  0.00     0.171 HD
BRANCH  14  16
ATOM     16  C   UNL A   1      32.224  22.185  25.678  1.00  0.00     0.044 A 
ATOM     17  C   UNL A   1      32.193  21.734  24.360  1.00  0.00     0.028 A 
ATOM     18  C   UNL A   1      33.418  22.638  26.231  1.00  0.00     0.043 A 
ATOM     19  C   UNL A   1      33.307  21.929  23.542  1.00  0.00     0.024 A 
ATOM     20  C   UNL A   1      34.529  22.852  25.414  1.00  0.00     0.038 A 
ATOM     21  C   UNL A   1      34.461  22.529  24.056  1.00  0.00     0.055 A 
ATOM     22  Br  UNL A   1      36.043  23.675  26.210  1.00  0.00    -0.049 Br
ATOM     23  Cl  UNL A   1      35.742  22.876  22.952  1.00  0.00    -0.083 Cl
ENDBRANCH  14  16
ENDBRANCH   8  10
ENDBRANCH   7   8
ENDBRANCH   6   7
ENDBRANCH   3   6
ENDBRANCH   1   2
BRANCH   1  24
ATOM     24  C   UNL A   1      31.813  30.586  26.727  1.00  0.00     0.023 C 
BRANCH  24  25
ATOM     25  C   UNL A   1      31.517  32.078  26.809  1.00  0.00     0.023 C 
BRANCH  25  26
ATOM     26  C   UNL A   1      32.728  32.874  27.233  1.00  0.00     0.116 C 
BRANCH  26  27
ATOM     27  N   UNL A   1      32.387  34.236  27.637  1.00  0.00    -0.352 N 
ATOM     28  C   UNL A   1      32.998  35.012  28.590  1.00  0.00     0.251 C 
ATOM     29  H   UNL A   1      31.626  34.647  27.168  1.00  0.00     0.163 HD
ATOM     30  O   UNL A   1      32.532  36.100  28.911  1.00  0.00    -0.269 OA
BRANCH  28  31
ATOM     31  C   UNL A   1      34.196  34.477  29.263  1.00  0.00     0.039 A 
ATOM     32  C   UNL A   1      34.042  33.740  30.437  1.00  0.00     0.014 A 
ATOM     33  C   UNL A   1      35.452  34.625  28.672  1.00  0.00     0.014 A 
ATOM     34  C   UNL A   1      35.149  33.093  30.983  1.00  0.00     0.010 A 
ATOM     35  C   UNL A   1      36.520  33.884  29.144  1.00  0.00     0.010 A 
ATOM     36  C   UNL A   1      36.385  33.131  30.320  1.00  0.00    -0.014 A 
BRANCH  36  37
ATOM     37  C   UNL A   1      37.575  32.438  30.860  1.00  0.00     0.031 A 
ATOM     38  C   UNL A   1      38.208  32.947  32.126  1.00  0.00     0.074 A 
ATOM     39  C   UNL A   1      38.117  31.409  30.182  1.00  0.00     0.049 A 
ATOM     40  N   UNL A   1      39.294  32.542  32.730  1.00  0.00    -0.248 NA
ATOM     41  C   UNL A   1      37.555  34.097  32.777  1.00  0.00     0.031 C 
ATOM     42  C   UNL A   1      37.624  30.878  28.909  1.00  0.00     0.029 A 
ATOM     43  N   UNL A   1      39.206  30.628  30.468  1.00  0.00    -0.354 N 
ATOM     44  C   UNL A   1      39.464  33.400  33.809  1.00  0.00     0.074 A 
ATOM     45  C   UNL A   1      38.416  34.392  33.737  1.00  0.00     0.031 C 
ATOM     46  C   UNL A   1      38.387  29.834  28.544  1.00  0.00     0.029 A 
ATOM     47  C   UNL A   1      39.441  29.648  29.535  1.00  0.00     0.049 A 
ATOM     48  H   UNL A   1      39.766  30.758  31.267  1.00  0.00     0.167 HD
ATOM     49  C   UNL A   1      40.389  33.342  34.794  1.00  0.00     0.037 A 
ATOM     50  C   UNL A   1      40.399  28.705  29.493  1.00  0.00     0.037 A 
ATOM     51  C   UNL A   1      41.397  32.322  34.879  1.00  0.00     0.049 A 
ATOM     52  C   UNL A   1      41.401  28.645  30.613  1.00  0.00     0.074 A 
ATOM     53  C   UNL A   1      42.342  32.122  35.866  1.00  0.00     0.029 A 
ATOM     54  N   UNL A   1      41.581  31.323  33.933  1.00  0.00    -0.354 N 
ATOM     55  N   UNL A   1      41.508  29.416  31.670  1.00  0.00    -0.248 NA
ATOM     56  C   UNL A   1      42.410  27.580  30.542  1.00  0.00     0.031 C 
ATOM     57  C   UNL A   1      43.125  31.023  35.499  1.00  0.00     0.029 A 
ATOM     58  C   UNL A   1      42.637  30.510  34.307  1.00  0.00     0.049 A 
ATOM     59  H   UNL A   1      41.040  31.208  33.118  1.00  0.00     0.167 HD
ATOM     60  C   UNL A   1      42.576  28.915  32.401  1.00  0.00     0.074 A 
ATOM     61  C   UNL A   1      43.073  27.763  31.675  1.00  0.00     0.031 C 
ATOM     62  C   UNL A   1      43.102  29.365  33.567  1.00  0.00     0.037 A 
BRANCH  49  63
ATOM     63  C   UNL A   1      40.335  34.403  35.855  1.00  0.00     0.057 A 
ATOM     64  C   UNL A   1      41.058  35.600  35.742  1.00  0.00     0.134 A 
ATOM     65  C   UNL A   1      39.546  34.232  36.998  1.00  0.00     0.134 A 
ATOM     66  F   UNL A   1      41.849  35.819  34.681  1.00  0.00    -0.206 F 
ATOM     67  C   UNL A   1      41.025  36.571  36.744  1.00  0.00     0.040 A 
ATOM     68  C   UNL A   1      39.481  35.211  37.992  1.00  0.00     0.040 A 
ATOM     69  F   UNL A   1      38.827  33.113  37.171  1.00  0.00    -0.206 F 
ATOM     70  C   UNL A   1      40.228  36.380  37.871  1.00  0.00     0.006 A 
ENDBRANCH  49  63
BRANCH  50  71
ATOM     71  C   UNL A   1      40.434  27.723  28.380  1.00  0.00     0.057 A 
ATOM     72  C   UNL A   1      41.153  27.987  27.208  1.00  0.00     0.134 A 
ATOM     73  C   UNL A   1      39.757  26.500  28.458  1.00  0.00     0.134 A 
ATOM     74  F   UNL A   1      41.811  29.147  27.067  1.00  0.00    -0.206 F 
ATOM     75  C   UNL A   1      41.180  27.083  26.145  1.00  0.00     0.040 A 
ATOM     76  C   UNL A   1      39.795  25.575  27.413  1.00  0.00     0.040 A 
ATOM     77  F   UNL A   1      39.059  26.181  29.557  1.00  0.00    -0.206 F 
ATOM     78  C   UNL A   1      40.503  25.869  26.249  1.00  0.00     0.006 A 
ENDBRANCH  50  71
BRANCH  62  79
ATOM     79  C   UNL A   1      44.248  28.589  34.143  1.00  0.00     0.057 A 
ATOM     80  C   UNL A   1      45.578  28.932  33.874  1.00  0.00     0.134 A 
ATOM     81  C   UNL A   1      44.016  27.517  35.013  1.00  0.00     0.134 A 
ATOM     82  F   UNL A   1      45.866  29.942  33.039  1.00  0.00    -0.206 F 
ATOM     83  C   UNL A   1      46.640  28.220  34.435  1.00  0.00     0.040 A 
ATOM     84  C   UNL A   1      45.067  26.816  35.602  1.00  0.00     0.040 A 
ATOM     85  F   UNL A   1      42.763  27.147  35.319  1.00  0.00    -0.206 F 
ATOM     86  C   UNL A   1      46.383  27.164  35.308  1.00  0.00     0.006 A 
ENDBRANCH  62  79
ENDBRANCH  36  37
ENDBRANCH  28  31
ENDBRANCH  26  27
ENDBRANCH  25  26
ENDBRANCH  24  25
ENDBRANCH   1  24
TORSDOF 15
ENDMDL
