MODEL 1
REMARK VINA RESULT:     -11.4      0.000      0.000
REMARK SMILES CCCc1n[nH]c(C(=O)Nc2ccc(Br)cc2C(=O)NCCCCNC(=O)c2ccc(-c3c4nc(c(-c5c(F)cccc5F)c5ccc([nH]5)c(-c5c(F)cccc5F)c5nc(c(-c6c(F)cccc6F)c6ccc3[nH]6)C=C5)C=C4)cc2)n1
REMARK SMILES IDX 21 1 20 2 18 3 19 4 17 6 11 7 12 8 13 9 16 10 14 11 15 12
REMARK SMILES IDX 10 13 8 14 9 15 7 17 4 18 5 19 82 20 6 21 3 23 2 24 1 25
REMARK SMILES IDX 22 26 23 27 24 28 25 29 26 30 27 32 28 33 29 34 81 35 30 36
REMARK SMILES IDX 80 37 31 38 32 39 33 40 74 41 34 42 79 43 73 44 75 45 35 46
REMARK SMILES IDX 78 47 72 48 71 49 36 51 62 52 45 53 61 54 46 55 49 56 60 57
REMARK SMILES IDX 76 58 47 59 48 60 59 62 77 63 50 64 37 65 38 66 43 67 39 68
REMARK SMILES IDX 40 69 42 70 44 71 41 72 63 73 64 74 69 75 65 76 66 77 68 78
REMARK SMILES IDX 70 79 67 80 51 81 52 82 57 83 53 84 54 85 56 86 58 87 55 88
REMARK H PARENT 20 5 10 16 6 22 25 31 75 50 49 61
REMARK Flexibility Score: inf
ROOT
ATOM      1  C   UNL A   1      34.376  24.818  24.499  1.00  0.00     0.116 C 
ENDROOT
BRANCH   1   2
ATOM      2  N   UNL A   1      33.830  25.615  23.427  1.00  0.00    -0.352 N 
ATOM      3  C   UNL A   1      33.252  26.862  23.444  1.00  0.00     0.253 C 
ATOM      4  O   UNL A   1      32.935  27.345  22.356  1.00  0.00    -0.269 OA
ATOM      5  H   UNL A   1      33.882  25.196  22.536  1.00  0.00     0.163 HD
BRANCH   3   6
ATOM      6  C   UNL A   1      32.917  27.637  24.678  1.00  0.00     0.064 A 
ATOM      7  C   UNL A   1      31.641  27.989  25.161  1.00  0.00     0.054 A 
ATOM      8  C   UNL A   1      31.530  28.639  26.403  1.00  0.00     0.028 A 
ATOM      9  C   UNL A   1      32.656  29.024  27.127  1.00  0.00     0.018 A 
ATOM     10  C   UNL A   1      34.048  28.021  25.432  1.00  0.00     0.031 A 
ATOM     11  C   UNL A   1      33.914  28.721  26.630  1.00  0.00     0.018 A 
ATOM     12  Br  UNL A   1      35.450  29.254  27.594  1.00  0.00    -0.051 Br
BRANCH   7  13
ATOM     13  N   UNL A   1      30.447  27.641  24.506  1.00  0.00    -0.319 N 
ATOM     14  C   UNL A   1      29.821  26.394  24.487  1.00  0.00     0.293 C 
ATOM     15  O   UNL A   1      28.719  26.329  23.933  1.00  0.00    -0.265 OA
ATOM     16  H   UNL A   1      30.001  28.359  24.002  1.00  0.00     0.170 HD
BRANCH  14  17
ATOM     17  C   UNL A   1      30.335  25.273  25.254  1.00  0.00     0.214 A 
ATOM     18  C   UNL A   1      31.275  23.493  25.933  1.00  0.00     0.151 A 
ATOM     19  N   UNL A   1      30.857  24.058  27.070  1.00  0.00    -0.158 NA
ATOM     20  N   UNL A   1      31.014  24.234  24.816  1.00  0.00    -0.207 NA
ATOM     21  N   UNL A   1      30.235  25.162  26.613  1.00  0.00    -0.255 N 
ATOM     22  H   UNL A   1      29.766  25.811  27.187  1.00  0.00     0.192 HD
BRANCH  18  23
ATOM     23  C   UNL A   1      31.952  22.173  25.803  1.00  0.00     0.079 C 
BRANCH  23  24
ATOM     24  C   UNL A   1      32.165  21.631  24.392  1.00  0.00     0.005 C 
ATOM     25  C   UNL A   1      32.526  20.152  24.349  1.00  0.00     0.004 C 
ENDBRANCH  23  24
ENDBRANCH  18  23
ENDBRANCH  14  17
ENDBRANCH   7  13
ENDBRANCH   3   6
ENDBRANCH   1   2
BRANCH   1  26
ATOM     26  C   UNL A   1      35.642  24.032  24.188  1.00  0.00     0.023 C 
BRANCH  26  27
ATOM     27  C   UNL A   1      35.585  22.521  24.405  1.00  0.00     0.023 C 
BRANCH  27  28
ATOM     28  C   UNL A   1      36.144  21.984  25.720  1.00  0.00     0.116 C 
BRANCH  28  29
ATOM     29  N   UNL A   1      37.191  20.983  25.569  1.00  0.00    -0.352 N 
ATOM     30  C   UNL A   1      38.541  21.052  25.828  1.00  0.00     0.251 C 
ATOM     31  H   UNL A   1      36.882  20.113  25.224  1.00  0.00     0.163 HD
ATOM     32  O   UNL A   1      39.266  20.097  25.553  1.00  0.00    -0.269 OA
BRANCH  30  33
ATOM     33  C   UNL A   1      39.145  22.282  26.391  1.00  0.00     0.039 A 
ATOM     34  C   UNL A   1      40.222  22.162  27.275  1.00  0.00     0.014 A 
ATOM     35  C   UNL A   1      38.667  23.548  26.051  1.00  0.00     0.014 A 
ATOM     36  C   UNL A   1      40.884  23.308  27.726  1.00  0.00     0.010 A 
ATOM     37  C   UNL A   1      39.387  24.682  26.420  1.00  0.00     0.010 A 
ATOM     38  C   UNL A   1      40.508  24.576  27.256  1.00  0.00    -0.014 A 
BRANCH  38  39
ATOM     39  C   UNL A   1      41.266  25.803  27.623  1.00  0.00     0.031 A 
ATOM     40  C   UNL A   1      40.600  26.896  28.416  1.00  0.00     0.074 A 
ATOM     41  C   UNL A   1      42.524  25.978  27.171  1.00  0.00     0.049 A 
ATOM     42  N   UNL A   1      41.051  28.081  28.737  1.00  0.00    -0.248 NA
ATOM     43  C   UNL A   1      39.228  26.631  28.880  1.00  0.00     0.031 C 
ATOM     44  C   UNL A   1      43.272  25.024  26.349  1.00  0.00     0.029 A 
ATOM     45  N   UNL A   1      43.394  27.028  27.330  1.00  0.00    -0.354 N 
ATOM     46  C   UNL A   1      40.014  28.711  29.414  1.00  0.00     0.074 A 
ATOM     47  C   UNL A   1      38.891  27.798  29.407  1.00  0.00     0.031 C 
ATOM     48  C   UNL A   1      44.496  25.519  26.103  1.00  0.00     0.029 A 
ATOM     49  C   UNL A   1      44.607  26.840  26.713  1.00  0.00     0.049 A 
ATOM     50  H   UNL A   1      43.170  27.841  27.840  1.00  0.00     0.167 HD
ATOM     51  C   UNL A   1      40.003  29.926  30.011  1.00  0.00     0.037 A 
ATOM     52  C   UNL A   1      45.687  27.642  26.644  1.00  0.00     0.037 A 
ATOM     53  C   UNL A   1      41.130  30.820  30.052  1.00  0.00     0.049 A 
ATOM     54  C   UNL A   1      45.655  28.982  27.326  1.00  0.00     0.074 A 
ATOM     55  C   UNL A   1      41.234  32.050  30.677  1.00  0.00     0.029 A 
ATOM     56  N   UNL A   1      42.352  30.575  29.444  1.00  0.00    -0.354 N 
ATOM     57  N   UNL A   1      44.686  29.541  28.008  1.00  0.00    -0.248 NA
ATOM     58  C   UNL A   1      46.873  29.801  27.233  1.00  0.00     0.031 C 
ATOM     59  C   UNL A   1      42.510  32.564  30.423  1.00  0.00     0.029 A 
ATOM     60  C   UNL A   1      43.214  31.634  29.674  1.00  0.00     0.049 A 
ATOM     61  H   UNL A   1      42.574  29.768  28.926  1.00  0.00     0.167 HD
ATOM     62  C   UNL A   1      45.187  30.756  28.456  1.00  0.00     0.074 A 
ATOM     63  C   UNL A   1      46.548  30.851  27.974  1.00  0.00     0.031 C 
ATOM     64  C   UNL A   1      44.574  31.706  29.203  1.00  0.00     0.037 A 
BRANCH  51  65
ATOM     65  C   UNL A   1      38.727  30.350  30.679  1.00  0.00     0.057 A 
ATOM     66  C   UNL A   1      37.754  31.099  30.002  1.00  0.00     0.134 A 
ATOM     67  C   UNL A   1      38.461  30.001  32.009  1.00  0.00     0.134 A 
ATOM     68  F   UNL A   1      37.951  31.478  28.731  1.00  0.00    -0.206 F 
ATOM     69  C   UNL A   1      36.580  31.514  30.634  1.00  0.00     0.040 A 
ATOM     70  C   UNL A   1      37.278  30.385  32.643  1.00  0.00     0.040 A 
ATOM     71  F   UNL A   1      39.346  29.279  32.714  1.00  0.00    -0.206 F 
ATOM     72  C   UNL A   1      36.338  31.152  31.957  1.00  0.00     0.006 A 
ENDBRANCH  51  65
BRANCH  52  73
ATOM     73  C   UNL A   1      46.909  27.186  25.935  1.00  0.00     0.057 A 
ATOM     74  C   UNL A   1      47.077  27.431  24.567  1.00  0.00     0.134 A 
ATOM     75  C   UNL A   1      47.928  26.493  26.598  1.00  0.00     0.134 A 
ATOM     76  F   UNL A   1      46.125  28.073  23.876  1.00  0.00    -0.206 F 
ATOM     77  C   UNL A   1      48.206  26.985  23.878  1.00  0.00     0.040 A 
ATOM     78  C   UNL A   1      49.074  26.063  25.925  1.00  0.00     0.040 A 
ATOM     79  F   UNL A   1      47.830  26.234  27.910  1.00  0.00    -0.206 F 
ATOM     80  C   UNL A   1      49.211  26.303  24.560  1.00  0.00     0.006 A 
ENDBRANCH  52  73
BRANCH  64  81
ATOM     81  C   UNL A   1      45.387  32.906  29.592  1.00  0.00     0.057 A 
ATOM     82  C   UNL A   1      45.409  34.070  28.815  1.00  0.00     0.134 A 
ATOM     83  C   UNL A   1      46.127  32.904  30.781  1.00  0.00     0.134 A 
ATOM     84  F   UNL A   1      44.733  34.130  27.658  1.00  0.00    -0.206 F 
ATOM     85  C   UNL A   1      46.158  35.185  29.197  1.00  0.00     0.040 A 
ATOM     86  C   UNL A   1      46.858  34.022  31.186  1.00  0.00     0.040 A 
ATOM     87  F   UNL A   1      46.141  31.823  31.574  1.00  0.00    -0.206 F 
ATOM     88  C   UNL A   1      46.880  35.165  30.390  1.00  0.00     0.006 A 
ENDBRANCH  64  81
ENDBRANCH  38  39
ENDBRANCH  30  33
ENDBRANCH  28  29
ENDBRANCH  27  28
ENDBRANCH  26  27
ENDBRANCH   1  26
TORSDOF 15
ENDMDL
MODEL 2
REMARK VINA RESULT:     -11.4      4.845      9.338
REMARK SMILES CCCc1n[nH]c(C(=O)Nc2ccc(Br)cc2C(=O)NCCCCNC(=O)c2ccc(-c3c4nc(c(-c5c(F)cccc5F)c5ccc([nH]5)c(-c5c(F)cccc5F)c5nc(c(-c6c(F)cccc6F)c6ccc3[nH]6)C=C5)C=C4)cc2)n1
REMARK SMILES IDX 21 1 20 2 18 3 19 4 17 6 11 7 12 8 13 9 16 10 14 11 15 12
REMARK SMILES IDX 10 13 8 14 9 15 7 17 4 18 5 19 82 20 6 21 3 23 2 24 1 25
REMARK SMILES IDX 22 26 23 27 24 28 25 29 26 30 27 32 28 33 29 34 81 35 30 36
REMARK SMILES IDX 80 37 31 38 32 39 33 40 74 41 34 42 79 43 73 44 75 45 35 46
REMARK SMILES IDX 78 47 72 48 71 49 36 51 62 52 45 53 61 54 46 55 49 56 60 57
REMARK SMILES IDX 76 58 47 59 48 60 59 62 77 63 50 64 37 65 38 66 43 67 39 68
REMARK SMILES IDX 40 69 42 70 44 71 41 72 63 73 64 74 69 75 65 76 66 77 68 78
REMARK SMILES IDX 70 79 67 80 51 81 52 82 57 83 53 84 54 85 56 86 58 87 55 88
REMARK H PARENT 20 5 10 16 6 22 25 31 75 50 49 61
REMARK Flexibility Score: inf
ROOT
ATOM      1  C   UNL A   1      38.640  34.574  29.613  1.00  0.00     0.116 C 
ENDROOT
BRANCH   1   2
ATOM      2  N   UNL A   1      39.443  34.450  30.806  1.00  0.00    -0.352 N 
ATOM      3  C   UNL A   1      39.120  33.981  32.056  1.00  0.00     0.253 C 
ATOM      4  O   UNL A   1      40.033  33.915  32.882  1.00  0.00    -0.269 OA
ATOM      5  H   UNL A   1      40.376  34.751  30.707  1.00  0.00     0.163 HD
BRANCH   3   6
ATOM      6  C   UNL A   1      37.743  33.613  32.508  1.00  0.00     0.064 A 
ATOM      7  C   UNL A   1      37.247  32.332  32.822  1.00  0.00     0.054 A 
ATOM      8  C   UNL A   1      35.942  32.204  33.330  1.00  0.00     0.028 A 
ATOM      9  C   UNL A   1      35.094  33.304  33.445  1.00  0.00     0.018 A 
ATOM     10  C   UNL A   1      36.876  34.719  32.645  1.00  0.00     0.031 A 
ATOM     11  C   UNL A   1      35.564  34.558  33.090  1.00  0.00     0.018 A 
ATOM     12  Br  UNL A   1      34.417  36.055  33.225  1.00  0.00    -0.051 Br
BRANCH   7  13
ATOM     13  N   UNL A   1      38.026  31.165  32.745  1.00  0.00    -0.319 N 
ATOM     14  C   UNL A   1      38.706  30.526  33.782  1.00  0.00     0.293 C 
ATOM     15  O   UNL A   1      39.249  29.449  33.516  1.00  0.00    -0.265 OA
ATOM     16  H   UNL A   1      38.101  30.749  31.855  1.00  0.00     0.170 HD
BRANCH  14  17
ATOM     17  C   UNL A   1      38.612  30.993  35.154  1.00  0.00     0.214 A 
ATOM     18  C   UNL A   1      38.735  32.065  36.984  1.00  0.00     0.151 A 
ATOM     19  N   UNL A   1      37.910  31.056  37.287  1.00  0.00    -0.158 NA
ATOM     20  N   UNL A   1      39.138  32.078  35.679  1.00  0.00    -0.207 NA
ATOM     21  N   UNL A   1      37.877  30.374  36.127  1.00  0.00    -0.255 N 
ATOM     22  H   UNL A   1      37.383  29.531  35.994  1.00  0.00     0.192 HD
BRANCH  18  23
ATOM     23  C   UNL A   1      39.233  33.107  37.922  1.00  0.00     0.079 C 
BRANCH  23  24
ATOM     24  C   UNL A   1      38.732  34.534  37.715  1.00  0.00     0.005 C 
ATOM     25  C   UNL A   1      39.672  35.402  36.889  1.00  0.00     0.004 C 
ENDBRANCH  23  24
ENDBRANCH  18  23
ENDBRANCH  14  17
ENDBRANCH   7  13
ENDBRANCH   3   6
ENDBRANCH   1   2
BRANCH   1  26
ATOM     26  C   UNL A   1      37.799  33.365  29.230  1.00  0.00     0.023 C 
BRANCH  26  27
ATOM     27  C   UNL A   1      36.327  33.623  28.910  1.00  0.00     0.023 C 
BRANCH  27  28
ATOM     28  C   UNL A   1      35.291  32.841  29.715  1.00  0.00     0.116 C 
BRANCH  28  29
ATOM     29  N   UNL A   1      34.446  31.962  28.920  1.00  0.00    -0.352 N 
ATOM     30  C   UNL A   1      34.719  30.747  28.332  1.00  0.00     0.251 C 
ATOM     31  H   UNL A   1      33.528  32.289  28.780  1.00  0.00     0.163 HD
ATOM     32  O   UNL A   1      33.868  30.203  27.631  1.00  0.00    -0.269 OA
BRANCH  30  33
ATOM     33  C   UNL A   1      36.045  30.107  28.492  1.00  0.00     0.039 A 
ATOM     34  C   UNL A   1      36.949  30.150  27.425  1.00  0.00     0.014 A 
ATOM     35  C   UNL A   1      36.409  29.473  29.681  1.00  0.00     0.014 A 
ATOM     36  C   UNL A   1      38.248  29.660  27.592  1.00  0.00     0.010 A 
ATOM     37  C   UNL A   1      37.729  29.077  29.879  1.00  0.00     0.010 A 
ATOM     38  C   UNL A   1      38.667  29.170  28.839  1.00  0.00    -0.014 A 
BRANCH  38  39
ATOM     39  C   UNL A   1      40.074  28.752  29.083  1.00  0.00     0.031 A 
ATOM     40  C   UNL A   1      41.041  29.698  29.744  1.00  0.00     0.074 A 
ATOM     41  C   UNL A   1      40.509  27.557  28.635  1.00  0.00     0.049 A 
ATOM     42  N   UNL A   1      42.327  29.565  29.942  1.00  0.00    -0.248 NA
ATOM     43  C   UNL A   1      40.491  30.981  30.212  1.00  0.00     0.031 C 
ATOM     44  C   UNL A   1      39.693  26.565  27.932  1.00  0.00     0.029 A 
ATOM     45  N   UNL A   1      41.753  26.979  28.694  1.00  0.00    -0.354 N 
ATOM     46  C   UNL A   1      42.745  30.752  30.532  1.00  0.00     0.074 A 
ATOM     47  C   UNL A   1      41.586  31.615  30.606  1.00  0.00     0.031 C 
ATOM     48  C   UNL A   1      40.449  25.491  27.653  1.00  0.00     0.029 A 
ATOM     49  C   UNL A   1      41.810  25.732  28.119  1.00  0.00     0.049 A 
ATOM     50  H   UNL A   1      42.531  27.417  29.109  1.00  0.00     0.167 HD
ATOM     51  C   UNL A   1      43.973  31.085  30.994  1.00  0.00     0.037 A 
ATOM     52  C   UNL A   1      42.844  24.880  27.980  1.00  0.00     0.037 A 
ATOM     53  C   UNL A   1      45.118  30.215  30.955  1.00  0.00     0.049 A 
ATOM     54  C   UNL A   1      44.196  25.268  28.514  1.00  0.00     0.074 A 
ATOM     55  C   UNL A   1      46.391  30.442  31.447  1.00  0.00     0.029 A 
ATOM     56  N   UNL A   1      45.124  28.946  30.397  1.00  0.00    -0.354 N 
ATOM     57  N   UNL A   1      44.563  26.372  29.116  1.00  0.00    -0.248 NA
ATOM     58  C   UNL A   1      45.278  24.285  28.352  1.00  0.00     0.031 C 
ATOM     59  C   UNL A   1      47.178  29.321  31.158  1.00  0.00     0.029 A 
ATOM     60  C   UNL A   1      46.381  28.380  30.524  1.00  0.00     0.049 A 
ATOM     61  H   UNL A   1      44.350  28.511  29.972  1.00  0.00     0.167 HD
ATOM     62  C   UNL A   1      45.903  26.203  29.439  1.00  0.00     0.074 A 
ATOM     63  C   UNL A   1      46.283  24.887  28.970  1.00  0.00     0.031 C 
ATOM     64  C   UNL A   1      46.741  27.061  30.070  1.00  0.00     0.037 A 
BRANCH  51  65
ATOM     65  C   UNL A   1      44.132  32.453  31.593  1.00  0.00     0.057 A 
ATOM     66  C   UNL A   1      43.904  32.693  32.955  1.00  0.00     0.134 A 
ATOM     67  C   UNL A   1      44.525  33.541  30.804  1.00  0.00     0.134 A 
ATOM     68  F   UNL A   1      43.513  31.697  33.764  1.00  0.00    -0.206 F 
ATOM     69  C   UNL A   1      44.028  33.971  33.503  1.00  0.00     0.040 A 
ATOM     70  C   UNL A   1      44.680  34.818  31.346  1.00  0.00     0.040 A 
ATOM     71  F   UNL A   1      44.766  33.381  29.494  1.00  0.00    -0.206 F 
ATOM     72  C   UNL A   1      44.422  35.037  32.698  1.00  0.00     0.006 A 
ENDBRANCH  51  65
BRANCH  52  73
ATOM     73  C   UNL A   1      42.637  23.555  27.344  1.00  0.00     0.057 A 
ATOM     74  C   UNL A   1      42.292  22.438  28.114  1.00  0.00     0.134 A 
ATOM     75  C   UNL A   1      42.785  23.368  25.965  1.00  0.00     0.134 A 
ATOM     76  F   UNL A   1      42.156  22.551  29.443  1.00  0.00    -0.206 F 
ATOM     77  C   UNL A   1      42.120  21.178  27.539  1.00  0.00     0.040 A 
ATOM     78  C   UNL A   1      42.592  22.118  25.374  1.00  0.00     0.040 A 
ATOM     79  F   UNL A   1      43.107  24.401  25.173  1.00  0.00    -0.206 F 
ATOM     80  C   UNL A   1      42.266  21.018  26.163  1.00  0.00     0.006 A 
ENDBRANCH  52  73
BRANCH  64  81
ATOM     81  C   UNL A   1      48.138  26.584  30.340  1.00  0.00     0.057 A 
ATOM     82  C   UNL A   1      48.471  25.887  31.506  1.00  0.00     0.134 A 
ATOM     83  C   UNL A   1      49.152  26.795  29.397  1.00  0.00     0.134 A 
ATOM     84  F   UNL A   1      47.548  25.664  32.454  1.00  0.00    -0.206 F 
ATOM     85  C   UNL A   1      49.772  25.435  31.737  1.00  0.00     0.040 A 
ATOM     86  C   UNL A   1      50.450  26.326  29.605  1.00  0.00     0.040 A 
ATOM     87  F   UNL A   1      48.897  27.450  28.255  1.00  0.00    -0.206 F 
ATOM     88  C   UNL A   1      50.764  25.648  30.781  1.00  0.00     0.006 A 
ENDBRANCH  64  81
ENDBRANCH  38  39
ENDBRANCH  30  33
ENDBRANCH  28  29
ENDBRANCH  27  28
ENDBRANCH  26  27
ENDBRANCH   1  26
TORSDOF 15
ENDMDL
MODEL 3
REMARK VINA RESULT:     -11.2      2.941      6.389
REMARK SMILES CCCc1n[nH]c(C(=O)Nc2ccc(Br)cc2C(=O)NCCCCNC(=O)c2ccc(-c3c4nc(c(-c5c(F)cccc5F)c5ccc([nH]5)c(-c5c(F)cccc5F)c5nc(c(-c6c(F)cccc6F)c6ccc3[nH]6)C=C5)C=C4)cc2)n1
REMARK SMILES IDX 21 1 20 2 18 3 19 4 17 6 11 7 12 8 13 9 16 10 14 11 15 12
REMARK SMILES IDX 10 13 8 14 9 15 7 17 4 18 5 19 82 20 6 21 3 23 2 24 1 25
REMARK SMILES IDX 22 26 23 27 24 28 25 29 26 30 27 32 28 33 29 34 81 35 30 36
REMARK SMILES IDX 80 37 31 38 32 39 33 40 74 41 34 42 79 43 73 44 75 45 35 46
REMARK SMILES IDX 78 47 72 48 71 49 36 51 62 52 45 53 61 54 46 55 49 56 60 57
REMARK SMILES IDX 76 58 47 59 48 60 59 62 77 63 50 64 37 65 38 66 43 67 39 68
REMARK SMILES IDX 40 69 42 70 44 71 41 72 63 73 64 74 69 75 65 76 66 77 68 78
REMARK SMILES IDX 70 79 67 80 51 81 52 82 57 83 53 84 54 85 56 86 58 87 55 88
REMARK H PARENT 20 5 10 16 6 22 25 31 75 50 49 61
REMARK Flexibility Score: inf
ROOT
ATOM      1  C   UNL A   1      32.884  26.939  24.797  1.00  0.00     0.116 C 
ENDROOT
BRANCH   1   2
ATOM      2  N   UNL A   1      33.264  26.079  23.704  1.00  0.00    -0.352 N 
ATOM      3  C   UNL A   1      33.873  24.847  23.706  1.00  0.00     0.253 C 
ATOM      4  O   UNL A   1      34.015  24.293  22.614  1.00  0.00    -0.269 OA
ATOM      5  H   UNL A   1      33.051  26.432  22.809  1.00  0.00     0.163 HD
BRANCH   3   6
ATOM      6  C   UNL A   1      34.433  24.166  24.913  1.00  0.00     0.064 A 
ATOM      7  C   UNL A   1      33.731  23.644  26.017  1.00  0.00     0.054 A 
ATOM      8  C   UNL A   1      34.435  22.944  27.014  1.00  0.00     0.028 A 
ATOM      9  C   UNL A   1      35.824  22.832  26.981  1.00  0.00     0.018 A 
ATOM     10  C   UNL A   1      35.838  24.030  24.888  1.00  0.00     0.031 A 
ATOM     11  C   UNL A   1      36.521  23.387  25.920  1.00  0.00     0.018 A 
ATOM     12  Br  UNL A   1      38.406  23.258  25.874  1.00  0.00    -0.051 Br
BRANCH   7  13
ATOM     13  N   UNL A   1      32.332  23.701  26.137  1.00  0.00    -0.319 N 
ATOM     14  C   UNL A   1      31.393  22.840  25.567  1.00  0.00     0.293 C 
ATOM     15  O   UNL A   1      30.212  23.010  25.885  1.00  0.00    -0.265 OA
ATOM     16  H   UNL A   1      31.971  24.435  26.687  1.00  0.00     0.170 HD
BRANCH  14  17
ATOM     17  C   UNL A   1      31.797  21.675  24.800  1.00  0.00     0.214 A 
ATOM     18  C   UNL A   1      32.279  19.728  24.101  1.00  0.00     0.151 A 
ATOM     19  N   UNL A   1      32.380  20.472  22.994  1.00  0.00    -0.158 NA
ATOM     20  N   UNL A   1      31.879  20.426  25.204  1.00  0.00    -0.207 NA
ATOM     21  N   UNL A   1      32.106  21.703  23.468  1.00  0.00    -0.255 N 
ATOM     22  H   UNL A   1      32.126  22.523  22.923  1.00  0.00     0.192 HD
BRANCH  18  23
ATOM     23  C   UNL A   1      32.576  18.273  24.214  1.00  0.00     0.079 C 
BRANCH  23  24
ATOM     24  C   UNL A   1      34.030  17.840  24.050  1.00  0.00     0.005 C 
ATOM     25  C   UNL A   1      34.229  16.726  23.031  1.00  0.00     0.004 C 
ENDBRANCH  23  24
ENDBRANCH  18  23
ENDBRANCH  14  17
ENDBRANCH   7  13
ENDBRANCH   3   6
ENDBRANCH   1   2
BRANCH   1  26
ATOM     26  C   UNL A   1      33.553  28.306  24.853  1.00  0.00     0.023 C 
BRANCH  26  27
ATOM     27  C   UNL A   1      34.368  28.623  26.106  1.00  0.00     0.023 C 
BRANCH  27  28
ATOM     28  C   UNL A   1      33.593  28.882  27.396  1.00  0.00     0.116 C 
BRANCH  28  29
ATOM     29  N   UNL A   1      33.698  30.243  27.902  1.00  0.00    -0.352 N 
ATOM     30  C   UNL A   1      34.763  30.909  28.466  1.00  0.00     0.251 C 
ATOM     31  H   UNL A   1      32.872  30.774  27.828  1.00  0.00     0.163 HD
ATOM     32  O   UNL A   1      34.609  32.049  28.900  1.00  0.00    -0.269 OA
BRANCH  30  33
ATOM     33  C   UNL A   1      36.083  30.252  28.603  1.00  0.00     0.039 A 
ATOM     34  C   UNL A   1      36.989  30.328  27.539  1.00  0.00     0.014 A 
ATOM     35  C   UNL A   1      36.441  29.573  29.768  1.00  0.00     0.014 A 
ATOM     36  C   UNL A   1      38.283  29.821  27.687  1.00  0.00     0.010 A 
ATOM     37  C   UNL A   1      37.758  29.158  29.951  1.00  0.00     0.010 A 
ATOM     38  C   UNL A   1      38.697  29.282  28.916  1.00  0.00    -0.014 A 
BRANCH  38  39
ATOM     39  C   UNL A   1      40.100  28.843  29.145  1.00  0.00     0.031 A 
ATOM     40  C   UNL A   1      41.092  29.780  29.781  1.00  0.00     0.074 A 
ATOM     41  C   UNL A   1      40.509  27.636  28.703  1.00  0.00     0.049 A 
ATOM     42  N   UNL A   1      42.379  29.627  29.962  1.00  0.00    -0.248 NA
ATOM     43  C   UNL A   1      40.571  31.077  30.243  1.00  0.00     0.031 C 
ATOM     44  C   UNL A   1      39.668  26.650  28.024  1.00  0.00     0.029 A 
ATOM     45  N   UNL A   1      41.744  27.038  28.751  1.00  0.00    -0.354 N 
ATOM     46  C   UNL A   1      42.824  30.814  30.533  1.00  0.00     0.074 A 
ATOM     47  C   UNL A   1      41.681  31.697  30.613  1.00  0.00     0.031 C 
ATOM     48  C   UNL A   1      40.402  25.560  27.745  1.00  0.00     0.029 A 
ATOM     49  C   UNL A   1      41.773  25.785  28.190  1.00  0.00     0.049 A 
ATOM     50  H   UNL A   1      42.535  27.467  29.150  1.00  0.00     0.167 HD
ATOM     51  C   UNL A   1      44.064  31.132  30.974  1.00  0.00     0.037 A 
ATOM     52  C   UNL A   1      42.791  24.914  28.045  1.00  0.00     0.037 A 
ATOM     53  C   UNL A   1      45.194  30.242  30.929  1.00  0.00     0.049 A 
ATOM     54  C   UNL A   1      44.156  25.285  28.556  1.00  0.00     0.074 A 
ATOM     55  C   UNL A   1      46.478  30.453  31.399  1.00  0.00     0.029 A 
ATOM     56  N   UNL A   1      45.171  28.967  30.384  1.00  0.00    -0.354 N 
ATOM     57  N   UNL A   1      44.549  26.389  29.140  1.00  0.00    -0.248 NA
ATOM     58  C   UNL A   1      45.219  24.282  28.389  1.00  0.00     0.031 C 
ATOM     59  C   UNL A   1      47.242  29.316  31.112  1.00  0.00     0.029 A 
ATOM     60  C   UNL A   1      46.421  28.382  30.500  1.00  0.00     0.049 A 
ATOM     61  H   UNL A   1      44.384  28.541  29.976  1.00  0.00     0.167 HD
ATOM     62  C   UNL A   1      45.891  26.202  29.445  1.00  0.00     0.074 A 
ATOM     63  C   UNL A   1      46.243  24.875  28.986  1.00  0.00     0.031 C 
ATOM     64  C   UNL A   1      46.752  27.052  30.055  1.00  0.00     0.037 A 
BRANCH  51  65
ATOM     65  C   UNL A   1      44.254  32.504  31.555  1.00  0.00     0.057 A 
ATOM     66  C   UNL A   1      44.060  32.760  32.920  1.00  0.00     0.134 A 
ATOM     67  C   UNL A   1      44.644  33.578  30.747  1.00  0.00     0.134 A 
ATOM     68  F   UNL A   1      43.673  31.777  33.747  1.00  0.00    -0.206 F 
ATOM     69  C   UNL A   1      44.212  34.041  33.451  1.00  0.00     0.040 A 
ATOM     70  C   UNL A   1      44.828  34.858  31.272  1.00  0.00     0.040 A 
ATOM     71  F   UNL A   1      44.854  33.402  29.433  1.00  0.00    -0.206 F 
ATOM     72  C   UNL A   1      44.602  35.094  32.627  1.00  0.00     0.006 A 
ENDBRANCH  51  65
BRANCH  52  73
ATOM     73  C   UNL A   1      42.553  23.585  27.427  1.00  0.00     0.057 A 
ATOM     74  C   UNL A   1      42.242  22.473  28.218  1.00  0.00     0.134 A 
ATOM     75  C   UNL A   1      42.636  23.391  26.044  1.00  0.00     0.134 A 
ATOM     76  F   UNL A   1      42.168  22.594  29.552  1.00  0.00    -0.206 F 
ATOM     77  C   UNL A   1      42.043  21.210  27.659  1.00  0.00     0.040 A 
ATOM     78  C   UNL A   1      42.415  22.138  25.469  1.00  0.00     0.040 A 
ATOM     79  F   UNL A   1      42.922  24.419  25.232  1.00  0.00    -0.206 F 
ATOM     80  C   UNL A   1      42.125  21.042  26.278  1.00  0.00     0.006 A 
ENDBRANCH  52  73
BRANCH  64  81
ATOM     81  C   UNL A   1      48.145  26.555  30.310  1.00  0.00     0.057 A 
ATOM     82  C   UNL A   1      48.487  25.880  31.487  1.00  0.00     0.134 A 
ATOM     83  C   UNL A   1      49.145  26.725  29.344  1.00  0.00     0.134 A 
ATOM     84  F   UNL A   1      47.578  25.697  32.457  1.00  0.00    -0.206 F 
ATOM     85  C   UNL A   1      49.783  25.409  31.705  1.00  0.00     0.040 A 
ATOM     86  C   UNL A   1      50.438  26.236  29.540  1.00  0.00     0.040 A 
ATOM     87  F   UNL A   1      48.880  27.357  28.192  1.00  0.00    -0.206 F 
ATOM     88  C   UNL A   1      50.762  25.580  30.726  1.00  0.00     0.006 A 
ENDBRANCH  64  81
ENDBRANCH  38  39
ENDBRANCH  30  33
ENDBRANCH  28  29
ENDBRANCH  27  28
ENDBRANCH  26  27
ENDBRANCH   1  26
TORSDOF 15
ENDMDL
