MODEL 1
REMARK VINA RESULT:     -11.3      0.000      0.000
REMARK SMILES Cc1cccnc1C(=O)NC[C@@H](CC(C)C)C(=O)NCCCCNC(=O)c1ccc(-c2c3nc(c(-c4c(F)cccc4F)c4ccc([nH]4)c(-c4c(F)cccc4F)c4nc(c(-c5c(F)cccc5F)c5ccc2[nH]5)C=C4)C=C3)cc1
REMARK SMILES IDX 21 1 20 2 19 3 17 4 18 5 12 7 11 8 10 9 8 10 9 11 7 13 1 14
REMARK SMILES IDX 2 15 3 16 4 17 6 18 5 19 13 20 14 21 15 22 16 23 22 24 23 25
REMARK SMILES IDX 24 26 25 27 26 29 27 30 28 31 80 32 29 33 79 34 30 35 31 36
REMARK SMILES IDX 32 37 73 38 33 39 78 40 72 41 74 42 34 43 77 44 71 45 70 46
REMARK SMILES IDX 35 48 61 49 44 50 60 51 45 52 48 53 59 54 75 55 46 56 47 57
REMARK SMILES IDX 58 59 76 60 49 61 36 62 37 63 42 64 38 65 39 66 41 67 43 68
REMARK SMILES IDX 40 69 62 70 63 71 68 72 64 73 65 74 67 75 69 76 66 77 50 78
REMARK SMILES IDX 51 79 56 80 52 81 53 82 55 83 57 84 54 85
REMARK H PARENT 19 6 10 12 24 28 74 47 48 58
REMARK Flexibility Score: inf
ROOT
ATOM      1  C   UNL A   1      37.185  21.436  24.481  1.00  0.00     0.023 C 
ENDROOT
BRANCH   1   2
ATOM      2  C   UNL A   1      36.836  22.461  25.550  1.00  0.00     0.116 C 
BRANCH   2   3
ATOM      3  N   UNL A   1      35.853  21.968  26.493  1.00  0.00    -0.356 N 
ATOM      4  C   UNL A   1      34.517  21.762  26.371  1.00  0.00     0.224 C 
ATOM      5  O   UNL A   1      33.972  21.129  27.280  1.00  0.00    -0.275 OA
ATOM      6  H   UNL A   1      36.219  21.741  27.379  1.00  0.00     0.163 HD
BRANCH   4   7
ATOM      7  C   UNL A   1      33.694  22.262  25.191  1.00  0.00     0.098 C 
BRANCH   7   8
ATOM      8  C   UNL A   1      32.222  21.805  25.195  1.00  0.00     0.129 C 
BRANCH   8   9
ATOM      9  N   UNL A   1      31.467  22.325  26.318  1.00  0.00    -0.350 N 
ATOM     10  C   UNL A   1      30.704  23.441  26.565  1.00  0.00     0.270 C 
ATOM     11  O   UNL A   1      29.905  23.250  27.497  1.00  0.00    -0.268 OA
ATOM     12  H   UNL A   1      31.513  21.729  27.101  1.00  0.00     0.163 HD
BRANCH  10  13
ATOM     13  C   UNL A   1      30.722  24.825  25.909  1.00  0.00     0.131 A 
ATOM     14  C   UNL A   1      30.283  24.351  23.403  1.00  0.00     0.047 C 
ATOM     15  C   UNL A   1      30.606  25.216  24.569  1.00  0.00    -0.020 A 
ATOM     16  C   UNL A   1      30.826  26.578  24.250  1.00  0.00     0.007 A 
ATOM     17  C   UNL A   1      31.180  27.499  25.220  1.00  0.00     0.020 A 
ATOM     18  N   UNL A   1      31.029  25.767  26.861  1.00  0.00    -0.251 NA
ATOM     19  C   UNL A   1      31.265  27.045  26.511  1.00  0.00     0.112 A 
ENDBRANCH  10  13
ENDBRANCH   8   9
ENDBRANCH   7   8
BRANCH   7  20
ATOM     20  C   UNL A   1      33.912  23.767  24.889  1.00  0.00     0.018 C 
BRANCH  20  21
ATOM     21  C   UNL A   1      34.347  24.155  23.459  1.00  0.00    -0.017 C 
ATOM     22  C   UNL A   1      33.667  23.292  22.388  1.00  0.00     0.007 C 
ATOM     23  C   UNL A   1      34.015  25.622  23.165  1.00  0.00     0.007 C 
ENDBRANCH  20  21
ENDBRANCH   7  20
ENDBRANCH   4   7
ENDBRANCH   2   3
ENDBRANCH   1   2
BRANCH   1  24
ATOM     24  C   UNL A   1      37.883  20.185  25.011  1.00  0.00     0.023 C 
BRANCH  24  25
ATOM     25  C   UNL A   1      39.145  20.444  25.827  1.00  0.00     0.116 C 
BRANCH  25  26
ATOM     26  N   UNL A   1      40.040  19.295  25.881  1.00  0.00    -0.352 N 
ATOM     27  C   UNL A   1      41.395  19.251  26.098  1.00  0.00     0.251 C 
ATOM     28  H   UNL A   1      39.609  18.421  25.741  1.00  0.00     0.163 HD
ATOM     29  O   UNL A   1      42.006  18.193  25.990  1.00  0.00    -0.269 OA
BRANCH  27  30
ATOM     30  C   UNL A   1      42.115  20.497  26.417  1.00  0.00     0.039 A 
ATOM     31  C   UNL A   1      42.618  21.271  25.368  1.00  0.00     0.014 A 
ATOM     32  C   UNL A   1      42.239  20.926  27.740  1.00  0.00     0.014 A 
ATOM     33  C   UNL A   1      43.168  22.523  25.643  1.00  0.00     0.010 A 
ATOM     34  C   UNL A   1      42.710  22.207  28.003  1.00  0.00     0.010 A 
ATOM     35  C   UNL A   1      43.172  23.020  26.957  1.00  0.00    -0.014 A 
BRANCH  35  36
ATOM     36  C   UNL A   1      43.641  24.396  27.257  1.00  0.00     0.031 A 
ATOM     37  C   UNL A   1      42.658  25.447  27.688  1.00  0.00     0.074 A 
ATOM     38  C   UNL A   1      44.936  24.715  27.067  1.00  0.00     0.049 A 
ATOM     39  N   UNL A   1      42.859  26.720  27.918  1.00  0.00    -0.248 NA
ATOM     40  C   UNL A   1      41.261  25.019  27.854  1.00  0.00     0.031 C 
ATOM     41  C   UNL A   1      45.977  23.797  26.601  1.00  0.00     0.029 A 
ATOM     42  N   UNL A   1      45.595  25.906  27.234  1.00  0.00    -0.354 N 
ATOM     43  C   UNL A   1      41.614  27.244  28.238  1.00  0.00     0.074 A 
ATOM     44  C   UNL A   1      40.657  26.167  28.119  1.00  0.00     0.031 C 
ATOM     45  C   UNL A   1      47.148  24.452  26.546  1.00  0.00     0.029 A 
ATOM     46  C   UNL A   1      46.934  25.842  26.936  1.00  0.00     0.049 A 
ATOM     47  H   UNL A   1      45.151  26.729  27.541  1.00  0.00     0.167 HD
ATOM     48  C   UNL A   1      41.301  28.504  28.625  1.00  0.00     0.037 A 
ATOM     49  C   UNL A   1      47.882  26.798  26.968  1.00  0.00     0.037 A 
ATOM     50  C   UNL A   1      42.258  29.567  28.768  1.00  0.00     0.049 A 
ATOM     51  C   UNL A   1      47.508  28.189  27.394  1.00  0.00     0.074 A 
ATOM     52  C   UNL A   1      42.050  30.862  29.211  1.00  0.00     0.029 A 
ATOM     53  N   UNL A   1      43.608  29.459  28.472  1.00  0.00    -0.354 N 
ATOM     54  N   UNL A   1      46.338  28.655  27.759  1.00  0.00    -0.248 NA
ATOM     55  C   UNL A   1      48.586  29.187  27.416  1.00  0.00     0.031 C 
ATOM     56  C   UNL A   1      43.267  31.548  29.145  1.00  0.00     0.029 A 
ATOM     57  C   UNL A   1      44.242  30.669  28.703  1.00  0.00     0.049 A 
ATOM     58  H   UNL A   1      44.051  28.642  28.146  1.00  0.00     0.167 HD
ATOM     59  C   UNL A   1      46.545  29.990  28.081  1.00  0.00     0.074 A 
ATOM     60  C   UNL A   1      47.954  30.256  27.879  1.00  0.00     0.031 C 
ATOM     61  C   UNL A   1      45.648  30.914  28.504  1.00  0.00     0.037 A 
BRANCH  48  62
ATOM     62  C   UNL A   1      39.858  28.793  28.924  1.00  0.00     0.057 A 
ATOM     63  C   UNL A   1      38.963  29.189  27.923  1.00  0.00     0.134 A 
ATOM     64  C   UNL A   1      39.355  28.651  30.223  1.00  0.00     0.134 A 
ATOM     65  F   UNL A   1      39.386  29.357  26.661  1.00  0.00    -0.206 F 
ATOM     66  C   UNL A   1      37.624  29.462  28.207  1.00  0.00     0.040 A 
ATOM     67  C   UNL A   1      38.012  28.895  30.514  1.00  0.00     0.040 A 
ATOM     68  F   UNL A   1      40.157  28.271  31.228  1.00  0.00    -0.206 F 
ATOM     69  C   UNL A   1      37.144  29.309  29.506  1.00  0.00     0.006 A 
ENDBRANCH  48  62
BRANCH  49  70
ATOM     70  C   UNL A   1      49.284  26.467  26.612  1.00  0.00     0.057 A 
ATOM     71  C   UNL A   1      50.177  25.990  27.578  1.00  0.00     0.134 A 
ATOM     72  C   UNL A   1      49.769  26.625  25.308  1.00  0.00     0.134 A 
ATOM     73  F   UNL A   1      49.776  25.835  28.848  1.00  0.00    -0.206 F 
ATOM     74  C   UNL A   1      51.506  25.700  27.267  1.00  0.00     0.040 A 
ATOM     75  C   UNL A   1      51.089  26.317  24.977  1.00  0.00     0.040 A 
ATOM     76  F   UNL A   1      48.960  27.070  24.335  1.00  0.00    -0.206 F 
ATOM     77  C   UNL A   1      51.964  25.859  25.961  1.00  0.00     0.006 A 
ENDBRANCH  49  70
BRANCH  61  78
ATOM     78  C   UNL A   1      46.169  32.286  28.811  1.00  0.00     0.057 A 
ATOM     79  C   UNL A   1      46.653  32.625  30.081  1.00  0.00     0.134 A 
ATOM     80  C   UNL A   1      46.224  33.267  27.813  1.00  0.00     0.134 A 
ATOM     81  F   UNL A   1      46.615  31.735  31.083  1.00  0.00    -0.206 F 
ATOM     82  C   UNL A   1      47.152  33.901  30.353  1.00  0.00     0.040 A 
ATOM     83  C   UNL A   1      46.744  34.536  28.065  1.00  0.00     0.040 A 
ATOM     84  F   UNL A   1      45.785  33.003  26.572  1.00  0.00    -0.206 F 
ATOM     85  C   UNL A   1      47.206  34.857  29.340  1.00  0.00     0.006 A 
ENDBRANCH  61  78
ENDBRANCH  35  36
ENDBRANCH  27  30
ENDBRANCH  25  26
ENDBRANCH  24  25
ENDBRANCH   1  24
TORSDOF 16
ENDMDL
MODEL 2
REMARK VINA RESULT:     -11.2      5.050      9.184
REMARK SMILES Cc1cccnc1C(=O)NC[C@@H](CC(C)C)C(=O)NCCCCNC(=O)c1ccc(-c2c3nc(c(-c4c(F)cccc4F)c4ccc([nH]4)c(-c4c(F)cccc4F)c4nc(c(-c5c(F)cccc5F)c5ccc2[nH]5)C=C4)C=C3)cc1
REMARK SMILES IDX 21 1 20 2 19 3 17 4 18 5 12 7 11 8 10 9 8 10 9 11 7 13 1 14
REMARK SMILES IDX 2 15 3 16 4 17 6 18 5 19 13 20 14 21 15 22 16 23 22 24 23 25
REMARK SMILES IDX 24 26 25 27 26 29 27 30 28 31 80 32 29 33 79 34 30 35 31 36
REMARK SMILES IDX 32 37 73 38 33 39 78 40 72 41 74 42 34 43 77 44 71 45 70 46
REMARK SMILES IDX 35 48 61 49 44 50 60 51 45 52 48 53 59 54 75 55 46 56 47 57
REMARK SMILES IDX 58 59 76 60 49 61 36 62 37 63 42 64 38 65 39 66 41 67 43 68
REMARK SMILES IDX 40 69 62 70 63 71 68 72 64 73 65 74 67 75 69 76 66 77 50 78
REMARK SMILES IDX 51 79 56 80 52 81 53 82 55 83 57 84 54 85
REMARK H PARENT 19 6 10 12 24 28 74 47 48 58
REMARK Flexibility Score: inf
ROOT
ATOM      1  C   UNL A   1      31.300  30.717  25.821  1.00  0.00     0.023 C 
ENDROOT
BRANCH   1   2
ATOM      2  C   UNL A   1      32.686  30.092  25.890  1.00  0.00     0.116 C 
BRANCH   2   3
ATOM      3  N   UNL A   1      33.226  29.792  24.580  1.00  0.00    -0.356 N 
ATOM      4  C   UNL A   1      32.844  28.896  23.635  1.00  0.00     0.224 C 
ATOM      5  O   UNL A   1      33.366  29.013  22.522  1.00  0.00    -0.275 OA
ATOM      6  H   UNL A   1      34.010  30.335  24.331  1.00  0.00     0.163 HD
BRANCH   4   7
ATOM      7  C   UNL A   1      31.823  27.794  23.886  1.00  0.00     0.098 C 
BRANCH   7   8
ATOM      8  C   UNL A   1      31.164  27.228  22.614  1.00  0.00     0.129 C 
BRANCH   8   9
ATOM      9  N   UNL A   1      32.122  26.714  21.654  1.00  0.00    -0.350 N 
ATOM     10  C   UNL A   1      32.699  25.495  21.390  1.00  0.00     0.270 C 
ATOM     11  O   UNL A   1      33.113  25.431  20.221  1.00  0.00    -0.268 OA
ATOM     12  H   UNL A   1      32.439  27.414  21.039  1.00  0.00     0.163 HD
BRANCH  10  13
ATOM     13  C   UNL A   1      32.923  24.280  22.297  1.00  0.00     0.131 A 
ATOM     14  C   UNL A   1      30.567  23.721  23.209  1.00  0.00     0.047 C 
ATOM     15  C   UNL A   1      32.043  23.562  23.116  1.00  0.00    -0.020 A 
ATOM     16  C   UNL A   1      32.585  22.573  23.972  1.00  0.00     0.007 A 
ATOM     17  C   UNL A   1      33.947  22.339  24.034  1.00  0.00     0.020 A 
ATOM     18  N   UNL A   1      34.267  23.998  22.342  1.00  0.00    -0.251 NA
ATOM     19  C   UNL A   1      34.746  23.075  23.197  1.00  0.00     0.112 A 
ENDBRANCH  10  13
ENDBRANCH   8   9
ENDBRANCH   7   8
BRANCH   7  20
ATOM     20  C   UNL A   1      32.314  26.728  24.899  1.00  0.00     0.018 C 
BRANCH  20  21
ATOM     21  C   UNL A   1      31.347  26.314  26.029  1.00  0.00    -0.017 C 
ATOM     22  C   UNL A   1      31.651  24.912  26.573  1.00  0.00     0.007 C 
ATOM     23  C   UNL A   1      31.417  27.301  27.199  1.00  0.00     0.007 C 
ENDBRANCH  20  21
ENDBRANCH   7  20
ENDBRANCH   4   7
ENDBRANCH   2   3
ENDBRANCH   1   2
BRANCH   1  24
ATOM     24  C   UNL A   1      31.185  32.072  26.517  1.00  0.00     0.023 C 
BRANCH  24  25
ATOM     25  C   UNL A   1      32.492  32.846  26.648  1.00  0.00     0.116 C 
BRANCH  25  26
ATOM     26  N   UNL A   1      32.380  34.022  27.502  1.00  0.00    -0.352 N 
ATOM     27  C   UNL A   1      33.151  34.404  28.571  1.00  0.00     0.251 C 
ATOM     28  H   UNL A   1      31.640  34.633  27.278  1.00  0.00     0.163 HD
ATOM     29  O   UNL A   1      32.833  35.374  29.251  1.00  0.00    -0.269 OA
BRANCH  27  30
ATOM     30  C   UNL A   1      34.341  33.607  28.922  1.00  0.00     0.039 A 
ATOM     31  C   UNL A   1      35.589  34.233  28.938  1.00  0.00     0.014 A 
ATOM     32  C   UNL A   1      34.213  32.266  29.289  1.00  0.00     0.014 A 
ATOM     33  C   UNL A   1      36.700  33.534  29.411  1.00  0.00     0.010 A 
ATOM     34  C   UNL A   1      35.303  31.600  29.837  1.00  0.00     0.010 A 
ATOM     35  C   UNL A   1      36.554  32.230  29.910  1.00  0.00    -0.014 A 
BRANCH  35  36
ATOM     36  C   UNL A   1      37.696  31.512  30.528  1.00  0.00     0.031 A 
ATOM     37  C   UNL A   1      38.098  31.816  31.943  1.00  0.00     0.074 A 
ATOM     38  C   UNL A   1      38.415  30.643  29.791  1.00  0.00     0.049 A 
ATOM     39  N   UNL A   1      39.112  31.355  32.631  1.00  0.00    -0.248 NA
ATOM     40  C   UNL A   1      37.270  32.790  32.672  1.00  0.00     0.031 C 
ATOM     41  C   UNL A   1      38.158  30.301  28.391  1.00  0.00     0.029 A 
ATOM     42  N   UNL A   1      39.519  29.896  30.117  1.00  0.00    -0.354 N 
ATOM     43  C   UNL A   1      39.052  31.993  33.862  1.00  0.00     0.074 A 
ATOM     44  C   UNL A   1      37.937  32.914  33.808  1.00  0.00     0.031 C 
ATOM     45  C   UNL A   1      39.060  29.392  27.987  1.00  0.00     0.029 A 
ATOM     46  C   UNL A   1      39.981  29.115  29.085  1.00  0.00     0.049 A 
ATOM     47  H   UNL A   1      39.939  29.916  31.007  1.00  0.00     0.167 HD
ATOM     48  C   UNL A   1      39.837  31.809  34.950  1.00  0.00     0.037 A 
ATOM     49  C   UNL A   1      41.031  28.275  29.029  1.00  0.00     0.037 A 
ATOM     50  C   UNL A   1      40.928  30.874  35.011  1.00  0.00     0.049 A 
ATOM     51  C   UNL A   1      41.890  28.092  30.249  1.00  0.00     0.074 A 
ATOM     52  C   UNL A   1      41.745  30.570  36.086  1.00  0.00     0.029 A 
ATOM     53  N   UNL A   1      41.354  30.090  33.950  1.00  0.00    -0.354 N 
ATOM     54  N   UNL A   1      41.781  28.653  31.428  1.00  0.00    -0.248 NA
ATOM     55  C   UNL A   1      43.018  27.157  30.129  1.00  0.00     0.031 C 
ATOM     56  C   UNL A   1      42.691  29.630  35.664  1.00  0.00     0.029 A 
ATOM     57  C   UNL A   1      42.436  29.316  34.339  1.00  0.00     0.049 A 
ATOM     58  H   UNL A   1      40.948  30.083  33.053  1.00  0.00     0.167 HD
ATOM     59  C   UNL A   1      42.805  28.118  32.199  1.00  0.00     0.074 A 
ATOM     60  C   UNL A   1      43.518  27.180  31.356  1.00  0.00     0.031 C 
ATOM     61  C   UNL A   1      43.128  28.381  33.489  1.00  0.00     0.037 A 
BRANCH  48  62
ATOM     62  C   UNL A   1      39.533  32.636  36.166  1.00  0.00     0.057 A 
ATOM     63  C   UNL A   1      40.185  33.852  36.411  1.00  0.00     0.134 A 
ATOM     64  C   UNL A   1      38.564  32.224  37.088  1.00  0.00     0.134 A 
ATOM     65  F   UNL A   1      41.133  34.296  35.572  1.00  0.00    -0.206 F 
ATOM     66  C   UNL A   1      39.904  34.615  37.545  1.00  0.00     0.040 A 
ATOM     67  C   UNL A   1      38.255  32.992  38.212  1.00  0.00     0.040 A 
ATOM     68  F   UNL A   1      37.900  31.072  36.912  1.00  0.00    -0.206 F 
ATOM     69  C   UNL A   1      38.931  34.187  38.447  1.00  0.00     0.006 A 
ENDBRANCH  48  62
BRANCH  49  70
ATOM     70  C   UNL A   1      41.314  27.521  27.784  1.00  0.00     0.057 A 
ATOM     71  C   UNL A   1      40.817  26.225  27.599  1.00  0.00     0.134 A 
ATOM     72  C   UNL A   1      42.091  28.065  26.755  1.00  0.00     0.134 A 
ATOM     73  F   UNL A   1      40.081  25.643  28.558  1.00  0.00    -0.206 F 
ATOM     74  C   UNL A   1      41.096  25.490  26.446  1.00  0.00     0.040 A 
ATOM     75  C   UNL A   1      42.359  27.351  25.586  1.00  0.00     0.040 A 
ATOM     76  F   UNL A   1      42.590  29.305  26.867  1.00  0.00    -0.206 F 
ATOM     77  C   UNL A   1      41.866  26.056  25.433  1.00  0.00     0.006 A 
ENDBRANCH  49  70
BRANCH  61  78
ATOM     78  C   UNL A   1      44.279  27.620  34.077  1.00  0.00     0.057 A 
ATOM     79  C   UNL A   1      45.583  28.131  34.070  1.00  0.00     0.134 A 
ATOM     80  C   UNL A   1      44.072  26.378  34.691  1.00  0.00     0.134 A 
ATOM     81  F   UNL A   1      45.849  29.308  33.485  1.00  0.00    -0.206 F 
ATOM     82  C   UNL A   1      46.645  27.422  34.634  1.00  0.00     0.040 A 
ATOM     83  C   UNL A   1      45.121  25.672  35.280  1.00  0.00     0.040 A 
ATOM     84  F   UNL A   1      42.844  25.837  34.738  1.00  0.00    -0.206 F 
ATOM     85  C   UNL A   1      46.413  26.192  35.248  1.00  0.00     0.006 A 
ENDBRANCH  61  78
ENDBRANCH  35  36
ENDBRANCH  27  30
ENDBRANCH  25  26
ENDBRANCH  24  25
ENDBRANCH   1  24
TORSDOF 16
ENDMDL
MODEL 3
REMARK VINA RESULT:     -11.2      1.795      6.452
REMARK SMILES Cc1cccnc1C(=O)NC[C@@H](CC(C)C)C(=O)NCCCCNC(=O)c1ccc(-c2c3nc(c(-c4c(F)cccc4F)c4ccc([nH]4)c(-c4c(F)cccc4F)c4nc(c(-c5c(F)cccc5F)c5ccc2[nH]5)C=C4)C=C3)cc1
REMARK SMILES IDX 21 1 20 2 19 3 17 4 18 5 12 7 11 8 10 9 8 10 9 11 7 13 1 14
REMARK SMILES IDX 2 15 3 16 4 17 6 18 5 19 13 20 14 21 15 22 16 23 22 24 23 25
REMARK SMILES IDX 24 26 25 27 26 29 27 30 28 31 80 32 29 33 79 34 30 35 31 36
REMARK SMILES IDX 32 37 73 38 33 39 78 40 72 41 74 42 34 43 77 44 71 45 70 46
REMARK SMILES IDX 35 48 61 49 44 50 60 51 45 52 48 53 59 54 75 55 46 56 47 57
REMARK SMILES IDX 58 59 76 60 49 61 36 62 37 63 42 64 38 65 39 66 41 67 43 68
REMARK SMILES IDX 40 69 62 70 63 71 68 72 64 73 65 74 67 75 69 76 66 77 50 78
REMARK SMILES IDX 51 79 56 80 52 81 53 82 55 83 57 84 54 85
REMARK H PARENT 19 6 10 12 24 28 74 47 48 58
REMARK Flexibility Score: inf
ROOT
ATOM      1  C   UNL A   1      36.530  21.177  24.996  1.00  0.00     0.023 C 
ENDROOT
BRANCH   1   2
ATOM      2  C   UNL A   1      35.145  20.573  25.178  1.00  0.00     0.116 C 
BRANCH   2   3
ATOM      3  N   UNL A   1      34.467  21.083  26.352  1.00  0.00    -0.356 N 
ATOM      4  C   UNL A   1      33.487  22.013  26.491  1.00  0.00     0.224 C 
ATOM      5  O   UNL A   1      32.952  22.088  27.602  1.00  0.00    -0.275 OA
ATOM      6  H   UNL A   1      34.770  20.684  27.201  1.00  0.00     0.163 HD
BRANCH   4   7
ATOM      7  C   UNL A   1      33.034  22.930  25.363  1.00  0.00     0.098 C 
BRANCH   7   8
ATOM      8  C   UNL A   1      31.522  22.888  25.069  1.00  0.00     0.129 C 
BRANCH   8   9
ATOM      9  N   UNL A   1      30.732  23.629  26.034  1.00  0.00    -0.350 N 
ATOM     10  C   UNL A   1      30.157  24.875  26.092  1.00  0.00     0.270 C 
ATOM     11  O   UNL A   1      29.223  24.908  26.910  1.00  0.00    -0.268 OA
ATOM     12  H   UNL A   1      30.569  23.108  26.853  1.00  0.00     0.163 HD
BRANCH  10  13
ATOM     13  C   UNL A   1      30.508  26.171  25.353  1.00  0.00     0.131 A 
ATOM     14  C   UNL A   1      31.868  27.542  27.075  1.00  0.00     0.047 C 
ATOM     15  C   UNL A   1      31.176  27.327  25.776  1.00  0.00    -0.020 A 
ATOM     16  C   UNL A   1      31.208  28.438  24.899  1.00  0.00     0.007 A 
ATOM     17  C   UNL A   1      30.570  28.408  23.672  1.00  0.00     0.020 A 
ATOM     18  N   UNL A   1      29.922  26.149  24.111  1.00  0.00    -0.251 NA
ATOM     19  C   UNL A   1      29.944  27.240  23.322  1.00  0.00     0.112 A 
ENDBRANCH  10  13
ENDBRANCH   8   9
ENDBRANCH   7   8
BRANCH   7  20
ATOM     20  C   UNL A   1      33.645  24.353  25.451  1.00  0.00     0.018 C 
BRANCH  20  21
ATOM     21  C   UNL A   1      34.457  24.860  24.241  1.00  0.00    -0.017 C 
ATOM     22  C   UNL A   1      34.685  23.764  23.191  1.00  0.00     0.007 C 
ATOM     23  C   UNL A   1      33.746  26.031  23.555  1.00  0.00     0.007 C 
ENDBRANCH  20  21
ENDBRANCH   7  20
ENDBRANCH   4   7
ENDBRANCH   2   3
ENDBRANCH   1   2
BRANCH   1  24
ATOM     24  C   UNL A   1      37.662  20.152  24.953  1.00  0.00     0.023 C 
BRANCH  24  25
ATOM     25  C   UNL A   1      38.917  20.540  25.729  1.00  0.00     0.116 C 
BRANCH  25  26
ATOM     26  N   UNL A   1      39.935  19.497  25.732  1.00  0.00    -0.352 N 
ATOM     27  C   UNL A   1      41.263  19.572  26.070  1.00  0.00     0.251 C 
ATOM     28  H   UNL A   1      39.623  18.607  25.449  1.00  0.00     0.163 HD
ATOM     29  O   UNL A   1      42.003  18.609  25.897  1.00  0.00    -0.269 OA
BRANCH  27  30
ATOM     30  C   UNL A   1      41.801  20.838  26.600  1.00  0.00     0.039 A 
ATOM     31  C   UNL A   1      42.298  21.786  25.704  1.00  0.00     0.014 A 
ATOM     32  C   UNL A   1      41.760  21.108  27.970  1.00  0.00     0.014 A 
ATOM     33  C   UNL A   1      42.670  23.045  26.175  1.00  0.00     0.010 A 
ATOM     34  C   UNL A   1      42.052  22.388  28.425  1.00  0.00     0.010 A 
ATOM     35  C   UNL A   1      42.503  23.370  27.531  1.00  0.00    -0.014 A 
BRANCH  35  36
ATOM     36  C   UNL A   1      42.779  24.740  28.032  1.00  0.00     0.031 A 
ATOM     37  C   UNL A   1      44.175  25.127  28.431  1.00  0.00     0.074 A 
ATOM     38  C   UNL A   1      41.761  25.606  28.199  1.00  0.00     0.049 A 
ATOM     39  N   UNL A   1      44.602  26.244  28.964  1.00  0.00    -0.248 NA
ATOM     40  C   UNL A   1      45.225  24.116  28.232  1.00  0.00     0.031 C 
ATOM     41  C   UNL A   1      40.355  25.332  27.899  1.00  0.00     0.029 A 
ATOM     42  N   UNL A   1      41.753  26.893  28.674  1.00  0.00    -0.354 N 
ATOM     43  C   UNL A   1      45.961  26.063  29.178  1.00  0.00     0.074 A 
ATOM     44  C   UNL A   1      46.278  24.711  28.770  1.00  0.00     0.031 C 
ATOM     45  C   UNL A   1      39.626  26.426  28.171  1.00  0.00     0.029 A 
ATOM     46  C   UNL A   1      40.504  27.465  28.699  1.00  0.00     0.049 A 
ATOM     47  H   UNL A   1      42.567  27.364  28.968  1.00  0.00     0.167 HD
ATOM     48  C   UNL A   1      46.870  26.951  29.646  1.00  0.00     0.037 A 
ATOM     49  C   UNL A   1      40.112  28.686  29.106  1.00  0.00     0.037 A 
ATOM     50  C   UNL A   1      46.558  28.303  30.025  1.00  0.00     0.049 A 
ATOM     51  C   UNL A   1      41.139  29.652  29.627  1.00  0.00     0.074 A 
ATOM     52  C   UNL A   1      47.418  29.298  30.455  1.00  0.00     0.029 A 
ATOM     53  N   UNL A   1      45.283  28.849  30.021  1.00  0.00    -0.354 N 
ATOM     54  N   UNL A   1      42.433  29.489  29.761  1.00  0.00    -0.248 NA
ATOM     55  C   UNL A   1      40.651  30.972  30.049  1.00  0.00     0.031 C 
ATOM     56  C   UNL A   1      46.658  30.436  30.747  1.00  0.00     0.029 A 
ATOM     57  C   UNL A   1      45.331  30.163  30.458  1.00  0.00     0.049 A 
ATOM     58  H   UNL A   1      44.466  28.374  29.746  1.00  0.00     0.167 HD
ATOM     59  C   UNL A   1      42.917  30.693  30.256  1.00  0.00     0.074 A 
ATOM     60  C   UNL A   1      41.779  31.580  30.386  1.00  0.00     0.031 C 
ATOM     61  C   UNL A   1      44.190  31.034  30.575  1.00  0.00     0.037 A 
BRANCH  48  62
ATOM     62  C   UNL A   1      48.291  26.483  29.765  1.00  0.00     0.057 A 
ATOM     63  C   UNL A   1      49.219  26.676  28.734  1.00  0.00     0.134 A 
ATOM     64  C   UNL A   1      48.742  25.852  30.931  1.00  0.00     0.134 A 
ATOM     65  F   UNL A   1      48.847  27.262  27.585  1.00  0.00    -0.206 F 
ATOM     66  C   UNL A   1      50.538  26.234  28.846  1.00  0.00     0.040 A 
ATOM     67  C   UNL A   1      50.065  25.430  31.065  1.00  0.00     0.040 A 
ATOM     68  F   UNL A   1      47.906  25.638  31.958  1.00  0.00    -0.206 F 
ATOM     69  C   UNL A   1      50.965  25.614  30.018  1.00  0.00     0.006 A 
ENDBRANCH  48  62
BRANCH  49  70
ATOM     70  C   UNL A   1      38.684  29.078  29.013  1.00  0.00     0.057 A 
ATOM     71  C   UNL A   1      38.150  29.570  27.816  1.00  0.00     0.134 A 
ATOM     72  C   UNL A   1      37.821  28.981  30.111  1.00  0.00     0.134 A 
ATOM     73  F   UNL A   1      38.932  29.703  26.734  1.00  0.00    -0.206 F 
ATOM     74  C   UNL A   1      36.817  29.968  27.717  1.00  0.00     0.040 A 
ATOM     75  C   UNL A   1      36.479  29.354  30.021  1.00  0.00     0.040 A 
ATOM     76  F   UNL A   1      38.270  28.509  31.284  1.00  0.00    -0.206 F 
ATOM     77  C   UNL A   1      35.976  29.856  28.823  1.00  0.00     0.006 A 
ENDBRANCH  49  70
BRANCH  61  78
ATOM     78  C   UNL A   1      44.423  32.433  31.062  1.00  0.00     0.057 A 
ATOM     79  C   UNL A   1      44.414  32.752  32.425  1.00  0.00     0.134 A 
ATOM     80  C   UNL A   1      44.700  33.465  30.156  1.00  0.00     0.134 A 
ATOM     81  F   UNL A   1      44.141  31.811  33.342  1.00  0.00    -0.206 F 
ATOM     82  C   UNL A   1      44.649  34.054  32.870  1.00  0.00     0.040 A 
ATOM     83  C   UNL A   1      44.961  34.765  30.590  1.00  0.00     0.040 A 
ATOM     84  F   UNL A   1      44.732  33.224  28.836  1.00  0.00    -0.206 F 
ATOM     85  C   UNL A   1      44.931  35.063  31.951  1.00  0.00     0.006 A 
ENDBRANCH  61  78
ENDBRANCH  35  36
ENDBRANCH  27  30
ENDBRANCH  25  26
ENDBRANCH  24  25
ENDBRANCH   1  24
TORSDOF 16
ENDMDL
