MODEL 1
REMARK VINA RESULT:      -9.8      0.000      0.000
REMARK SMILES CC(C)OCCS(=O)(=O)N[C@H]1COC[C@@H]1C(=O)NCCCCNC(=O)c1ccc(-c2c3nc(c(-c4c(F)cccc4F)c4ccc([nH]4)c(-c4c(F)cccc4F)c4nc(c(-c5c(F)cccc5F)c5ccc2[nH]5)C=C4)C=C3)cc1
REMARK SMILES IDX 16 1 17 2 18 3 15 5 11 6 12 7 13 8 14 9 10 10 7 12 8 13 9 14
REMARK SMILES IDX 6 15 5 16 4 17 2 18 1 19 3 20 19 21 20 22 21 23 22 24 23 25
REMARK SMILES IDX 24 26 25 28 26 29 27 30 79 31 28 32 78 33 29 34 30 35 31 36
REMARK SMILES IDX 72 37 32 38 77 39 71 40 73 41 33 42 76 43 70 44 69 45 34 47
REMARK SMILES IDX 60 48 43 49 59 50 44 51 47 52 58 53 74 54 45 55 46 56 57 58
REMARK SMILES IDX 75 59 48 60 35 61 36 62 41 63 37 64 38 65 40 66 42 67 39 68
REMARK SMILES IDX 61 69 62 70 67 71 63 72 64 73 66 74 68 75 65 76 49 77 50 78
REMARK SMILES IDX 55 79 51 80 52 81 54 82 56 83 53 84
REMARK H PARENT 18 4 10 11 23 27 73 46 47 57
REMARK Flexibility Score: inf
ROOT
ATOM      1  C   UNL A   1      32.807  35.908  30.841  1.00  0.00     0.227 C 
ATOM      2  O   UNL A   1      31.779  35.564  31.426  1.00  0.00    -0.275 OA
ATOM      3  N   UNL A   1      32.843  35.711  29.494  1.00  0.00    -0.356 N 
ATOM      4  H   UNL A   1      32.019  35.335  29.108  1.00  0.00     0.163 HD
ENDROOT
BRANCH   1   5
ATOM      5  C   UNL A   1      33.960  36.547  31.606  1.00  0.00     0.124 C 
ATOM      6  C   UNL A   1      34.336  35.738  32.833  1.00  0.00     0.110 C 
ATOM      7  C   UNL A   1      34.000  36.683  34.003  1.00  0.00     0.181 C 
ATOM      8  O   UNL A   1      33.796  38.006  33.496  1.00  0.00    -0.379 OA
ATOM      9  C   UNL A   1      33.610  37.946  32.078  1.00  0.00     0.175 C 
BRANCH   6  10
ATOM     10  N   UNL A   1      35.751  35.304  33.066  1.00  0.00    -0.209 NA
ATOM     11  H   UNL A   1      36.130  35.147  32.131  1.00  0.00     0.141 HD
BRANCH  10  12
ATOM     12  S   UNL A   1      36.294  34.000  33.969  1.00  0.00     0.214 S 
ATOM     13  O   UNL A   1      35.542  33.865  35.190  1.00  0.00    -0.212 OA
ATOM     14  O   UNL A   1      37.730  34.156  33.981  1.00  0.00    -0.212 OA
BRANCH  12  15
ATOM     15  C   UNL A   1      35.901  32.636  32.860  1.00  0.00     0.182 C 
BRANCH  15  16
ATOM     16  C   UNL A   1      36.628  32.669  31.524  1.00  0.00     0.178 C 
BRANCH  16  17
ATOM     17  O   UNL A   1      36.744  33.955  30.910  1.00  0.00    -0.378 OA
BRANCH  17  18
ATOM     18  C   UNL A   1      37.832  34.230  30.029  1.00  0.00     0.112 C 
ATOM     19  C   UNL A   1      39.154  34.547  30.708  1.00  0.00     0.038 C 
ATOM     20  C   UNL A   1      37.920  33.125  28.989  1.00  0.00     0.038 C 
ENDBRANCH  17  18
ENDBRANCH  16  17
ENDBRANCH  15  16
ENDBRANCH  12  15
ENDBRANCH  10  12
ENDBRANCH   6  10
ENDBRANCH   1   5
BRANCH   3  21
ATOM     21  C   UNL A   1      33.899  35.966  28.541  1.00  0.00     0.116 C 
BRANCH  21  22
ATOM     22  C   UNL A   1      34.615  34.708  28.088  1.00  0.00     0.023 C 
BRANCH  22  23
ATOM     23  C   UNL A   1      33.747  33.465  28.121  1.00  0.00     0.023 C 
BRANCH  23  24
ATOM     24  C   UNL A   1      34.446  32.235  28.676  1.00  0.00     0.116 C 
BRANCH  24  25
ATOM     25  N   UNL A   1      33.911  30.972  28.169  1.00  0.00    -0.352 N 
ATOM     26  C   UNL A   1      34.606  29.801  27.973  1.00  0.00     0.251 C 
ATOM     27  H   UNL A   1      32.954  30.959  27.945  1.00  0.00     0.163 HD
ATOM     28  O   UNL A   1      34.087  28.808  27.484  1.00  0.00    -0.269 OA
BRANCH  26  29
ATOM     29  C   UNL A   1      36.028  29.817  28.347  1.00  0.00     0.039 A 
ATOM     30  C   UNL A   1      36.397  29.333  29.601  1.00  0.00     0.014 A 
ATOM     31  C   UNL A   1      36.974  30.066  27.348  1.00  0.00     0.014 A 
ATOM     32  C   UNL A   1      37.735  29.025  29.834  1.00  0.00     0.010 A 
ATOM     33  C   UNL A   1      38.283  29.659  27.552  1.00  0.00     0.010 A 
ATOM     34  C   UNL A   1      38.677  29.141  28.797  1.00  0.00    -0.014 A 
BRANCH  34  35
ATOM     35  C   UNL A   1      40.091  28.750  28.999  1.00  0.00     0.031 A 
ATOM     36  C   UNL A   1      41.032  29.724  29.652  1.00  0.00     0.074 A 
ATOM     37  C   UNL A   1      40.538  27.561  28.552  1.00  0.00     0.049 A 
ATOM     38  N   UNL A   1      42.316  29.611  29.872  1.00  0.00    -0.248 NA
ATOM     39  C   UNL A   1      40.460  31.010  30.082  1.00  0.00     0.031 C 
ATOM     40  C   UNL A   1      39.733  26.555  27.853  1.00  0.00     0.029 A 
ATOM     41  N   UNL A   1      41.787  26.995  28.618  1.00  0.00    -0.354 N 
ATOM     42  C   UNL A   1      42.701  30.814  30.450  1.00  0.00     0.074 A 
ATOM     43  C   UNL A   1      41.538  31.669  30.473  1.00  0.00     0.031 C 
ATOM     44  C   UNL A   1      40.499  25.483  27.593  1.00  0.00     0.029 A 
ATOM     45  C   UNL A   1      41.854  25.737  28.070  1.00  0.00     0.049 A 
ATOM     46  H   UNL A   1      42.562  27.449  29.021  1.00  0.00     0.167 HD
ATOM     47  C   UNL A   1      43.907  31.162  30.953  1.00  0.00     0.037 A 
ATOM     48  C   UNL A   1      42.894  24.888  27.968  1.00  0.00     0.037 A 
ATOM     49  C   UNL A   1      45.053  30.295  30.955  1.00  0.00     0.049 A 
ATOM     50  C   UNL A   1      44.230  25.301  28.527  1.00  0.00     0.074 A 
ATOM     51  C   UNL A   1      46.309  30.529  31.485  1.00  0.00     0.029 A 
ATOM     52  N   UNL A   1      45.079  29.023  30.401  1.00  0.00    -0.354 N 
ATOM     53  N   UNL A   1      44.565  26.415  29.131  1.00  0.00    -0.248 NA
ATOM     54  C   UNL A   1      45.330  24.336  28.393  1.00  0.00     0.031 C 
ATOM     55  C   UNL A   1      47.108  29.415  31.211  1.00  0.00     0.029 A 
ATOM     56  C   UNL A   1      46.336  28.466  30.559  1.00  0.00     0.049 A 
ATOM     57  H   UNL A   1      44.316  28.583  29.960  1.00  0.00     0.167 HD
ATOM     58  C   UNL A   1      45.902  26.274  29.480  1.00  0.00     0.074 A 
ATOM     59  C   UNL A   1      46.313  24.959  29.029  1.00  0.00     0.031 C 
ATOM     60  C   UNL A   1      46.718  27.151  30.114  1.00  0.00     0.037 A 
BRANCH  47  61
ATOM     61  C   UNL A   1      44.033  32.531  31.552  1.00  0.00     0.057 A 
ATOM     62  C   UNL A   1      44.391  33.645  30.778  1.00  0.00     0.134 A 
ATOM     63  C   UNL A   1      43.784  32.745  32.912  1.00  0.00     0.134 A 
ATOM     64  F   UNL A   1      44.664  33.506  29.471  1.00  0.00    -0.206 F 
ATOM     65  C   UNL A   1      44.526  34.913  31.342  1.00  0.00     0.040 A 
ATOM     66  C   UNL A   1      43.885  34.014  33.482  1.00  0.00     0.040 A 
ATOM     67  F   UNL A   1      43.437  31.723  33.710  1.00  0.00    -0.206 F 
ATOM     68  C   UNL A   1      44.266  35.102  32.698  1.00  0.00     0.006 A 
ENDBRANCH  47  61
BRANCH  48  69
ATOM     69  C   UNL A   1      42.713  23.550  27.348  1.00  0.00     0.057 A 
ATOM     70  C   UNL A   1      42.929  23.355  25.978  1.00  0.00     0.134 A 
ATOM     71  C   UNL A   1      42.306  22.441  28.100  1.00  0.00     0.134 A 
ATOM     72  F   UNL A   1      43.303  24.381  25.201  1.00  0.00    -0.206 F 
ATOM     73  C   UNL A   1      42.726  22.112  25.374  1.00  0.00     0.040 A 
ATOM     74  C   UNL A   1      42.122  21.187  27.513  1.00  0.00     0.040 A 
ATOM     75  F   UNL A   1      42.090  22.559  29.418  1.00  0.00    -0.206 F 
ATOM     76  C   UNL A   1      42.325  21.022  26.144  1.00  0.00     0.006 A 
ENDBRANCH  48  69
BRANCH  60  77
ATOM     77  C   UNL A   1      48.123  26.704  30.396  1.00  0.00     0.057 A 
ATOM     78  C   UNL A   1      48.452  25.975  31.545  1.00  0.00     0.134 A 
ATOM     79  C   UNL A   1      49.148  26.967  29.478  1.00  0.00     0.134 A 
ATOM     80  F   UNL A   1      47.517  25.700  32.467  1.00  0.00    -0.206 F 
ATOM     81  C   UNL A   1      49.757  25.541  31.783  1.00  0.00     0.040 A 
ATOM     82  C   UNL A   1      50.450  26.514  29.690  1.00  0.00     0.040 A 
ATOM     83  F   UNL A   1      48.896  27.651  28.352  1.00  0.00    -0.206 F 
ATOM     84  C   UNL A   1      50.759  25.805  30.849  1.00  0.00     0.006 A 
ENDBRANCH  60  77
ENDBRANCH  34  35
ENDBRANCH  26  29
ENDBRANCH  24  25
ENDBRANCH  23  24
ENDBRANCH  22  23
ENDBRANCH  21  22
ENDBRANCH   3  21
TORSDOF 17
ENDMDL
MODEL 2
REMARK VINA RESULT:      -9.6      4.767      9.860
REMARK SMILES CC(C)OCCS(=O)(=O)N[C@H]1COC[C@@H]1C(=O)NCCCCNC(=O)c1ccc(-c2c3nc(c(-c4c(F)cccc4F)c4ccc([nH]4)c(-c4c(F)cccc4F)c4nc(c(-c5c(F)cccc5F)c5ccc2[nH]5)C=C4)C=C3)cc1
REMARK SMILES IDX 16 1 17 2 18 3 15 5 11 6 12 7 13 8 14 9 10 10 7 12 8 13 9 14
REMARK SMILES IDX 6 15 5 16 4 17 2 18 1 19 3 20 19 21 20 22 21 23 22 24 23 25
REMARK SMILES IDX 24 26 25 28 26 29 27 30 79 31 28 32 78 33 29 34 30 35 31 36
REMARK SMILES IDX 72 37 32 38 77 39 71 40 73 41 33 42 76 43 70 44 69 45 34 47
REMARK SMILES IDX 60 48 43 49 59 50 44 51 47 52 58 53 74 54 45 55 46 56 57 58
REMARK SMILES IDX 75 59 48 60 35 61 36 62 41 63 37 64 38 65 40 66 42 67 39 68
REMARK SMILES IDX 61 69 62 70 67 71 63 72 64 73 66 74 68 75 65 76 49 77 50 78
REMARK SMILES IDX 55 79 51 80 52 81 54 82 56 83 53 84
REMARK H PARENT 18 4 10 11 23 27 73 46 47 57
REMARK Flexibility Score: inf
ROOT
ATOM      1  C   UNL A   1      34.049  24.710  23.598  1.00  0.00     0.227 C 
ATOM      2  O   UNL A   1      33.687  24.953  22.446  1.00  0.00    -0.275 OA
ATOM      3  N   UNL A   1      34.958  23.709  23.759  1.00  0.00    -0.356 N 
ATOM      4  H   UNL A   1      35.267  23.291  22.922  1.00  0.00     0.163 HD
ENDROOT
BRANCH   1   5
ATOM      5  C   UNL A   1      33.511  25.522  24.770  1.00  0.00     0.124 C 
ATOM      6  C   UNL A   1      32.021  25.310  24.963  1.00  0.00     0.110 C 
ATOM      7  C   UNL A   1      31.420  26.698  24.672  1.00  0.00     0.181 C 
ATOM      8  O   UNL A   1      32.467  27.673  24.667  1.00  0.00    -0.379 OA
ATOM      9  C   UNL A   1      33.732  27.009  24.567  1.00  0.00     0.175 C 
BRANCH   6  10
ATOM     10  N   UNL A   1      31.466  24.907  26.295  1.00  0.00    -0.209 NA
ATOM     11  H   UNL A   1      32.142  25.259  26.973  1.00  0.00     0.141 HD
BRANCH  10  12
ATOM     12  S   UNL A   1      31.091  23.363  26.832  1.00  0.00     0.214 S 
ATOM     13  O   UNL A   1      29.772  23.320  27.408  1.00  0.00    -0.212 OA
ATOM     14  O   UNL A   1      32.257  22.962  27.585  1.00  0.00    -0.212 OA
BRANCH  12  15
ATOM     15  C   UNL A   1      31.104  22.455  25.277  1.00  0.00     0.182 C 
BRANCH  15  16
ATOM     16  C   UNL A   1      32.246  21.459  25.127  1.00  0.00     0.178 C 
BRANCH  16  17
ATOM     17  O   UNL A   1      31.907  20.087  25.346  1.00  0.00    -0.378 OA
BRANCH  17  18
ATOM     18  C   UNL A   1      32.911  19.079  25.241  1.00  0.00     0.112 C 
ATOM     19  C   UNL A   1      32.487  17.814  24.514  1.00  0.00     0.038 C 
ATOM     20  C   UNL A   1      34.188  19.704  24.702  1.00  0.00     0.038 C 
ENDBRANCH  17  18
ENDBRANCH  16  17
ENDBRANCH  15  16
ENDBRANCH  12  15
ENDBRANCH  10  12
ENDBRANCH   6  10
ENDBRANCH   1   5
BRANCH   3  21
ATOM     21  C   UNL A   1      35.543  23.163  24.962  1.00  0.00     0.116 C 
BRANCH  21  22
ATOM     22  C   UNL A   1      37.054  23.049  24.897  1.00  0.00     0.023 C 
BRANCH  22  23
ATOM     23  C   UNL A   1      37.567  21.629  25.030  1.00  0.00     0.023 C 
BRANCH  23  24
ATOM     24  C   UNL A   1      38.820  21.499  25.879  1.00  0.00     0.116 C 
BRANCH  24  25
ATOM     25  N   UNL A   1      39.505  20.216  25.731  1.00  0.00    -0.352 N 
ATOM     26  C   UNL A   1      40.822  19.945  26.021  1.00  0.00     0.251 C 
ATOM     27  H   UNL A   1      38.967  19.468  25.386  1.00  0.00     0.163 HD
ATOM     28  O   UNL A   1      41.327  18.853  25.805  1.00  0.00    -0.269 OA
BRANCH  26  29
ATOM     29  C   UNL A   1      41.610  21.057  26.573  1.00  0.00     0.039 A 
ATOM     30  C   UNL A   1      42.146  21.999  25.696  1.00  0.00     0.014 A 
ATOM     31  C   UNL A   1      41.575  21.275  27.953  1.00  0.00     0.014 A 
ATOM     32  C   UNL A   1      42.588  23.216  26.208  1.00  0.00     0.010 A 
ATOM     33  C   UNL A   1      41.919  22.525  28.440  1.00  0.00     0.010 A 
ATOM     34  C   UNL A   1      42.434  23.505  27.575  1.00  0.00    -0.014 A 
BRANCH  34  35
ATOM     35  C   UNL A   1      42.830  24.820  28.129  1.00  0.00     0.031 A 
ATOM     36  C   UNL A   1      41.778  25.871  28.344  1.00  0.00     0.074 A 
ATOM     37  C   UNL A   1      44.126  25.087  28.384  1.00  0.00     0.049 A 
ATOM     38  N   UNL A   1      41.912  27.103  28.761  1.00  0.00    -0.248 NA
ATOM     39  C   UNL A   1      40.393  25.497  28.011  1.00  0.00     0.031 C 
ATOM     40  C   UNL A   1      45.246  24.168  28.163  1.00  0.00     0.029 A 
ATOM     41  N   UNL A   1      44.722  26.218  28.884  1.00  0.00    -0.354 N 
ATOM     42  C   UNL A   1      40.635  27.648  28.725  1.00  0.00     0.074 A 
ATOM     43  C   UNL A   1      39.756  26.645  28.172  1.00  0.00     0.031 C 
ATOM     44  C   UNL A   1      46.384  24.757  28.564  1.00  0.00     0.029 A 
ATOM     45  C   UNL A   1      46.083  26.106  29.033  1.00  0.00     0.049 A 
ATOM     46  H   UNL A   1      44.220  27.033  29.114  1.00  0.00     0.167 HD
ATOM     47  C   UNL A   1      40.224  28.864  29.151  1.00  0.00     0.037 A 
ATOM     48  C   UNL A   1      46.982  26.993  29.499  1.00  0.00     0.037 A 
ATOM     49  C   UNL A   1      41.099  29.847  29.729  1.00  0.00     0.049 A 
ATOM     50  C   UNL A   1      46.502  28.344  29.959  1.00  0.00     0.074 A 
ATOM     51  C   UNL A   1      40.778  31.091  30.241  1.00  0.00     0.029 A 
ATOM     52  N   UNL A   1      42.470  29.692  29.875  1.00  0.00    -0.354 N 
ATOM     53  N   UNL A   1      45.282  28.825  29.982  1.00  0.00    -0.248 NA
ATOM     54  C   UNL A   1      47.523  29.274  30.461  1.00  0.00     0.031 C 
ATOM     55  C   UNL A   1      41.962  31.708  30.655  1.00  0.00     0.029 A 
ATOM     56  C   UNL A   1      43.013  30.827  30.451  1.00  0.00     0.049 A 
ATOM     57  H   UNL A   1      42.980  28.894  29.607  1.00  0.00     0.167 HD
ATOM     58  C   UNL A   1      45.384  30.097  30.531  1.00  0.00     0.074 A 
ATOM     59  C   UNL A   1      46.784  30.307  30.838  1.00  0.00     0.031 C 
ATOM     60  C   UNL A   1      44.408  31.009  30.760  1.00  0.00     0.037 A 
BRANCH  47  61
ATOM     61  C   UNL A   1      38.764  29.182  29.017  1.00  0.00     0.057 A 
ATOM     62  C   UNL A   1      37.884  29.080  30.104  1.00  0.00     0.134 A 
ATOM     63  C   UNL A   1      38.232  29.604  27.794  1.00  0.00     0.134 A 
ATOM     64  F   UNL A   1      38.326  28.661  31.300  1.00  0.00    -0.206 F 
ATOM     65  C   UNL A   1      36.524  29.357  29.971  1.00  0.00     0.040 A 
ATOM     66  C   UNL A   1      36.878  29.914  27.656  1.00  0.00     0.040 A 
ATOM     67  F   UNL A   1      39.018  29.723  26.713  1.00  0.00    -0.206 F 
ATOM     68  C   UNL A   1      36.018  29.783  28.745  1.00  0.00     0.006 A 
ENDBRANCH  47  61
BRANCH  48  69
ATOM     69  C   UNL A   1      48.419  26.628  29.592  1.00  0.00     0.057 A 
ATOM     70  C   UNL A   1      48.918  25.945  30.709  1.00  0.00     0.134 A 
ATOM     71  C   UNL A   1      49.330  26.964  28.584  1.00  0.00     0.134 A 
ATOM     72  F   UNL A   1      48.100  25.610  31.717  1.00  0.00    -0.206 F 
ATOM     73  C   UNL A   1      50.273  25.629  30.829  1.00  0.00     0.040 A 
ATOM     74  C   UNL A   1      50.683  26.633  28.680  1.00  0.00     0.040 A 
ATOM     75  F   UNL A   1      48.916  27.611  27.485  1.00  0.00    -0.206 F 
ATOM     76  C   UNL A   1      51.160  25.969  29.809  1.00  0.00     0.006 A 
ENDBRANCH  48  69
BRANCH  60  77
ATOM     77  C   UNL A   1      44.812  32.301  31.409  1.00  0.00     0.057 A 
ATOM     78  C   UNL A   1      45.174  33.426  30.658  1.00  0.00     0.134 A 
ATOM     79  C   UNL A   1      44.789  32.431  32.803  1.00  0.00     0.134 A 
ATOM     80  F   UNL A   1      45.225  33.362  29.319  1.00  0.00    -0.206 F 
ATOM     81  C   UNL A   1      45.521  34.630  31.273  1.00  0.00     0.040 A 
ATOM     82  C   UNL A   1      45.106  33.637  33.429  1.00  0.00     0.040 A 
ATOM     83  F   UNL A   1      44.440  31.394  33.580  1.00  0.00    -0.206 F 
ATOM     84  C   UNL A   1      45.480  34.739  32.662  1.00  0.00     0.006 A 
ENDBRANCH  60  77
ENDBRANCH  34  35
ENDBRANCH  26  29
ENDBRANCH  24  25
ENDBRANCH  23  24
ENDBRANCH  22  23
ENDBRANCH  21  22
ENDBRANCH   3  21
TORSDOF 17
ENDMDL
MODEL 3
REMARK VINA RESULT:      -9.5      4.537      7.956
REMARK SMILES CC(C)OCCS(=O)(=O)N[C@H]1COC[C@@H]1C(=O)NCCCCNC(=O)c1ccc(-c2c3nc(c(-c4c(F)cccc4F)c4ccc([nH]4)c(-c4c(F)cccc4F)c4nc(c(-c5c(F)cccc5F)c5ccc2[nH]5)C=C4)C=C3)cc1
REMARK SMILES IDX 16 1 17 2 18 3 15 5 11 6 12 7 13 8 14 9 10 10 7 12 8 13 9 14
REMARK SMILES IDX 6 15 5 16 4 17 2 18 1 19 3 20 19 21 20 22 21 23 22 24 23 25
REMARK SMILES IDX 24 26 25 28 26 29 27 30 79 31 28 32 78 33 29 34 30 35 31 36
REMARK SMILES IDX 72 37 32 38 77 39 71 40 73 41 33 42 76 43 70 44 69 45 34 47
REMARK SMILES IDX 60 48 43 49 59 50 44 51 47 52 58 53 74 54 45 55 46 56 57 58
REMARK SMILES IDX 75 59 48 60 35 61 36 62 41 63 37 64 38 65 40 66 42 67 39 68
REMARK SMILES IDX 61 69 62 70 67 71 63 72 64 73 66 74 68 75 65 76 49 77 50 78
REMARK SMILES IDX 55 79 51 80 52 81 54 82 56 83 53 84
REMARK H PARENT 18 4 10 11 23 27 73 46 47 57
REMARK Flexibility Score: inf
ROOT
ATOM      1  C   UNL A   1      33.488  27.169  24.738  1.00  0.00     0.227 C 
ATOM      2  O   UNL A   1      33.994  26.089  25.047  1.00  0.00    -0.275 OA
ATOM      3  N   UNL A   1      33.625  28.190  25.628  1.00  0.00    -0.356 N 
ATOM      4  H   UNL A   1      34.151  27.970  26.432  1.00  0.00     0.163 HD
ENDROOT
BRANCH   1   5
ATOM      5  C   UNL A   1      32.770  27.338  23.404  1.00  0.00     0.124 C 
ATOM      6  C   UNL A   1      31.386  26.717  23.428  1.00  0.00     0.110 C 
ATOM      7  C   UNL A   1      31.485  25.576  22.398  1.00  0.00     0.181 C 
ATOM      8  O   UNL A   1      32.670  25.751  21.615  1.00  0.00    -0.379 OA
ATOM      9  C   UNL A   1      33.537  26.684  22.270  1.00  0.00     0.175 C 
BRANCH   6  10
ATOM     10  N   UNL A   1      30.179  27.510  23.030  1.00  0.00    -0.209 NA
ATOM     11  H   UNL A   1      29.908  27.129  22.123  1.00  0.00     0.141 HD
BRANCH  10  12
ATOM     12  S   UNL A   1      30.051  29.173  22.846  1.00  0.00     0.214 S 
ATOM     13  O   UNL A   1      30.791  29.626  21.696  1.00  0.00    -0.212 OA
ATOM     14  O   UNL A   1      30.318  29.692  24.168  1.00  0.00    -0.212 OA
BRANCH  12  15
ATOM     15  C   UNL A   1      28.285  29.341  22.537  1.00  0.00     0.182 C 
BRANCH  15  16
ATOM     16  C   UNL A   1      27.551  30.256  23.507  1.00  0.00     0.178 C 
BRANCH  16  17
ATOM     17  O   UNL A   1      27.356  31.602  23.066  1.00  0.00    -0.378 OA
BRANCH  17  18
ATOM     18  C   UNL A   1      28.351  32.241  22.266  1.00  0.00     0.112 C 
ATOM     19  C   UNL A   1      27.924  32.582  20.849  1.00  0.00     0.038 C 
ATOM     20  C   UNL A   1      28.928  33.417  23.039  1.00  0.00     0.038 C 
ENDBRANCH  17  18
ENDBRANCH  16  17
ENDBRANCH  15  16
ENDBRANCH  12  15
ENDBRANCH  10  12
ENDBRANCH   6  10
ENDBRANCH   1   5
BRANCH   3  21
ATOM     21  C   UNL A   1      33.122  29.543  25.582  1.00  0.00     0.116 C 
BRANCH  21  22
ATOM     22  C   UNL A   1      32.566  30.023  26.909  1.00  0.00     0.023 C 
BRANCH  22  23
ATOM     23  C   UNL A   1      32.095  31.464  26.890  1.00  0.00     0.023 C 
BRANCH  23  24
ATOM     24  C   UNL A   1      33.101  32.453  27.454  1.00  0.00     0.116 C 
BRANCH  24  25
ATOM     25  N   UNL A   1      32.561  33.797  27.654  1.00  0.00    -0.352 N 
ATOM     26  C   UNL A   1      33.042  34.761  28.509  1.00  0.00     0.251 C 
ATOM     27  H   UNL A   1      31.770  34.036  27.121  1.00  0.00     0.163 HD
ATOM     28  O   UNL A   1      32.485  35.839  28.657  1.00  0.00    -0.269 OA
BRANCH  26  29
ATOM     29  C   UNL A   1      34.248  34.411  29.274  1.00  0.00     0.039 A 
ATOM     30  C   UNL A   1      34.108  33.650  30.434  1.00  0.00     0.014 A 
ATOM     31  C   UNL A   1      35.495  34.624  28.681  1.00  0.00     0.014 A 
ATOM     32  C   UNL A   1      35.235  33.031  30.969  1.00  0.00     0.010 A 
ATOM     33  C   UNL A   1      36.590  33.921  29.158  1.00  0.00     0.010 A 
ATOM     34  C   UNL A   1      36.472  33.123  30.308  1.00  0.00    -0.014 A 
BRANCH  34  35
ATOM     35  C   UNL A   1      37.668  32.413  30.818  1.00  0.00     0.031 A 
ATOM     36  C   UNL A   1      38.332  32.908  32.072  1.00  0.00     0.074 A 
ATOM     37  C   UNL A   1      38.185  31.374  30.133  1.00  0.00     0.049 A 
ATOM     38  N   UNL A   1      39.417  32.475  32.659  1.00  0.00    -0.248 NA
ATOM     39  C   UNL A   1      37.712  34.066  32.736  1.00  0.00     0.031 C 
ATOM     40  C   UNL A   1      37.662  30.839  28.873  1.00  0.00     0.029 A 
ATOM     41  N   UNL A   1      39.272  30.581  30.403  1.00  0.00    -0.354 N 
ATOM     42  C   UNL A   1      39.613  33.316  33.746  1.00  0.00     0.074 A 
ATOM     43  C   UNL A   1      38.586  34.330  33.694  1.00  0.00     0.031 C 
ATOM     44  C   UNL A   1      38.405  29.782  28.503  1.00  0.00     0.029 A 
ATOM     45  C   UNL A   1      39.476  29.589  29.475  1.00  0.00     0.049 A 
ATOM     46  H   UNL A   1      39.852  30.712  31.188  1.00  0.00     0.167 HD
ATOM     47  C   UNL A   1      40.543  33.230  34.724  1.00  0.00     0.037 A 
ATOM     48  C   UNL A   1      40.421  28.632  29.420  1.00  0.00     0.037 A 
ATOM     49  C   UNL A   1      41.544  32.200  34.788  1.00  0.00     0.049 A 
ATOM     50  C   UNL A   1      41.452  28.561  30.516  1.00  0.00     0.074 A 
ATOM     51  C   UNL A   1      42.502  31.990  35.763  1.00  0.00     0.029 A 
ATOM     52  N   UNL A   1      41.711  31.205  33.836  1.00  0.00    -0.354 N 
ATOM     53  N   UNL A   1      41.586  29.322  31.575  1.00  0.00    -0.248 NA
ATOM     54  C   UNL A   1      42.458  27.495  30.410  1.00  0.00     0.031 C 
ATOM     55  C   UNL A   1      43.278  30.893  35.378  1.00  0.00     0.029 A 
ATOM     56  C   UNL A   1      42.770  30.388  34.191  1.00  0.00     0.049 A 
ATOM     57  H   UNL A   1      41.159  31.097  33.029  1.00  0.00     0.167 HD
ATOM     58  C   UNL A   1      42.669  28.809  32.278  1.00  0.00     0.074 A 
ATOM     59  C   UNL A   1      43.146  27.663  31.531  1.00  0.00     0.031 C 
ATOM     60  C   UNL A   1      43.220  29.245  33.438  1.00  0.00     0.037 A 
BRANCH  47  61
ATOM     61  C   UNL A   1      40.502  34.270  35.804  1.00  0.00     0.057 A 
ATOM     62  C   UNL A   1      39.735  34.098  36.966  1.00  0.00     0.134 A 
ATOM     63  C   UNL A   1      41.244  35.451  35.691  1.00  0.00     0.134 A 
ATOM     64  F   UNL A   1      38.984  32.998  37.128  1.00  0.00    -0.206 F 
ATOM     65  C   UNL A   1      39.685  35.076  37.959  1.00  0.00     0.040 A 
ATOM     66  C   UNL A   1      41.226  36.422  36.692  1.00  0.00     0.040 A 
ATOM     67  F   UNL A   1      42.000  35.679  34.606  1.00  0.00    -0.206 F 
ATOM     68  C   UNL A   1      40.438  36.240  37.827  1.00  0.00     0.006 A 
ENDBRANCH  47  61
BRANCH  48  69
ATOM     69  C   UNL A   1      40.421  27.638  28.315  1.00  0.00     0.057 A 
ATOM     70  C   UNL A   1      39.720  26.431  28.431  1.00  0.00     0.134 A 
ATOM     71  C   UNL A   1      41.130  27.858  27.129  1.00  0.00     0.134 A 
ATOM     72  F   UNL A   1      39.035  26.153  29.550  1.00  0.00    -0.206 F 
ATOM     73  C   UNL A   1      39.742  25.471  27.418  1.00  0.00     0.040 A 
ATOM     74  C   UNL A   1      41.141  26.918  26.097  1.00  0.00     0.040 A 
ATOM     75  F   UNL A   1      41.817  28.997  26.951  1.00  0.00    -0.206 F 
ATOM     76  C   UNL A   1      40.451  25.715  26.244  1.00  0.00     0.006 A 
ENDBRANCH  48  69
BRANCH  60  77
ATOM     77  C   UNL A   1      44.372  28.460  33.991  1.00  0.00     0.057 A 
ATOM     78  C   UNL A   1      44.181  27.353  34.827  1.00  0.00     0.134 A 
ATOM     79  C   UNL A   1      45.688  28.789  33.640  1.00  0.00     0.134 A 
ATOM     80  F   UNL A   1      42.945  26.993  35.208  1.00  0.00    -0.206 F 
ATOM     81  C   UNL A   1      45.260  26.613  35.313  1.00  0.00     0.040 A 
ATOM     82  C   UNL A   1      46.773  28.040  34.097  1.00  0.00     0.040 A 
ATOM     83  F   UNL A   1      45.938  29.831  32.834  1.00  0.00    -0.206 F 
ATOM     84  C   UNL A   1      46.560  26.953  34.941  1.00  0.00     0.006 A 
ENDBRANCH  60  77
ENDBRANCH  34  35
ENDBRANCH  26  29
ENDBRANCH  24  25
ENDBRANCH  23  24
ENDBRANCH  22  23
ENDBRANCH  21  22
ENDBRANCH   3  21
TORSDOF 17
ENDMDL
