MODEL 1
REMARK VINA RESULT:     -10.6      0.000      0.000
REMARK SMILES C[C@@H]1CCC[C@@]1(C[NH3+])C(=O)NCCCCNC(=O)c1ccc(-c2c3nc(c(-c4c(F)cccc4F)c4ccc([nH]4)c(-c4c(F)cccc4F)c4nc(c(-c5c(F)cccc5F)c5ccc2[nH]5)C=C4)C=C3)cc1
REMARK SMILES IDX 13 1 12 2 11 3 9 4 10 5 6 7 1 8 2 9 3 10 4 11 5 12 7 13 8 14
REMARK SMILES IDX 14 18 15 19 16 20 17 21 18 23 19 24 20 25 72 26 21 27 71 28
REMARK SMILES IDX 22 29 23 30 24 31 65 32 25 33 70 34 64 35 66 36 26 37 69 38
REMARK SMILES IDX 63 39 62 40 27 42 53 43 36 44 52 45 37 46 40 47 51 48 67 49
REMARK SMILES IDX 38 50 39 51 50 53 68 54 41 55 28 56 29 57 34 58 30 59 31 60
REMARK SMILES IDX 33 61 35 62 32 63 54 64 55 65 60 66 56 67 57 68 59 69 61 70
REMARK SMILES IDX 58 71 42 72 43 73 48 74 44 75 45 76 47 77 49 78 46 79
REMARK H PARENT 11 6 8 15 8 16 8 17 16 22 66 41 40 52
REMARK Flexibility Score: inf
ROOT
ATOM      1  C   UNL A   1      32.095  30.059  25.615  1.00  0.00     0.023 C 
ENDROOT
BRANCH   1   2
ATOM      2  C   UNL A   1      30.969  29.369  24.843  1.00  0.00     0.116 C 
BRANCH   2   3
ATOM      3  N   UNL A   1      31.157  29.515  23.414  1.00  0.00    -0.355 N 
ATOM      4  C   UNL A   1      30.277  29.698  22.390  1.00  0.00     0.232 C 
ATOM      5  O   UNL A   1      30.778  29.673  21.262  1.00  0.00    -0.274 OA
ATOM      6  H   UNL A   1      32.098  29.474  23.129  1.00  0.00     0.163 HD
BRANCH   4   7
ATOM      7  C   UNL A   1      28.763  30.011  22.617  1.00  0.00     0.100 C 
ATOM      8  C   UNL A   1      27.373  31.659  24.116  1.00  0.00     0.009 C 
ATOM      9  C   UNL A   1      28.677  31.365  23.381  1.00  0.00     0.007 C 
ATOM     10  C   UNL A   1      28.919  32.403  22.275  1.00  0.00     0.005 C 
ATOM     11  C   UNL A   1      28.219  31.851  21.042  1.00  0.00     0.002 C 
ATOM     12  C   UNL A   1      28.118  30.339  21.238  1.00  0.00     0.023 C 
BRANCH   7  13
ATOM     13  C   UNL A   1      28.071  28.778  23.256  1.00  0.00     0.276 C 
BRANCH  13  14
ATOM     14  N   UNL A   1      26.687  28.487  22.875  1.00  0.00    -0.357 N 
ATOM     15  H   UNL A   1      26.581  28.598  21.867  1.00  0.00     0.344 HD
ATOM     16  H   UNL A   1      26.060  29.131  23.357  1.00  0.00     0.344 HD
ATOM     17  H   UNL A   1      26.457  27.528  23.137  1.00  0.00     0.344 HD
ENDBRANCH  13  14
ENDBRANCH   7  13
ENDBRANCH   4   7
ENDBRANCH   2   3
ENDBRANCH   1   2
BRANCH   1  18
ATOM     18  C   UNL A   1      31.637  31.216  26.506  1.00  0.00     0.023 C 
BRANCH  18  19
ATOM     19  C   UNL A   1      32.765  32.017  27.142  1.00  0.00     0.116 C 
BRANCH  19  20
ATOM     20  N   UNL A   1      32.391  33.388  27.454  1.00  0.00    -0.352 N 
ATOM     21  C   UNL A   1      33.029  34.271  28.291  1.00  0.00     0.251 C 
ATOM     22  H   UNL A   1      31.579  33.726  27.009  1.00  0.00     0.163 HD
ATOM     23  O   UNL A   1      32.540  35.369  28.535  1.00  0.00    -0.269 OA
BRANCH  21  24
ATOM     24  C   UNL A   1      34.295  33.860  28.928  1.00  0.00     0.039 A 
ATOM     25  C   UNL A   1      34.247  33.047  30.064  1.00  0.00     0.014 A 
ATOM     26  C   UNL A   1      35.519  34.241  28.376  1.00  0.00     0.014 A 
ATOM     27  C   UNL A   1      35.434  32.563  30.612  1.00  0.00     0.010 A 
ATOM     28  C   UNL A   1      36.695  33.703  28.882  1.00  0.00     0.010 A 
ATOM     29  C   UNL A   1      36.664  32.863  30.006  1.00  0.00    -0.014 A 
BRANCH  29  30
ATOM     30  C   UNL A   1      37.944  32.340  30.538  1.00  0.00     0.031 A 
ATOM     31  C   UNL A   1      38.551  31.111  29.927  1.00  0.00     0.074 A 
ATOM     32  C   UNL A   1      38.508  32.912  31.618  1.00  0.00     0.049 A 
ATOM     33  N   UNL A   1      39.582  30.409  30.323  1.00  0.00    -0.248 NA
ATOM     34  C   UNL A   1      37.886  30.581  28.725  1.00  0.00     0.031 C 
ATOM     35  C   UNL A   1      37.997  34.092  32.318  1.00  0.00     0.029 A 
ATOM     36  N   UNL A   1      39.630  32.562  32.326  1.00  0.00    -0.354 N 
ATOM     37  C   UNL A   1      39.670  29.343  29.439  1.00  0.00     0.074 A 
ATOM     38  C   UNL A   1      38.563  29.462  28.515  1.00  0.00     0.031 C 
ATOM     39  C   UNL A   1      38.815  34.380  33.343  1.00  0.00     0.029 A 
ATOM     40  C   UNL A   1      39.881  33.384  33.397  1.00  0.00     0.049 A 
ATOM     41  H   UNL A   1      40.200  31.797  32.089  1.00  0.00     0.167 HD
ATOM     42  C   UNL A   1      40.603  28.362  29.388  1.00  0.00     0.037 A 
ATOM     43  C   UNL A   1      40.858  33.332  34.322  1.00  0.00     0.037 A 
ATOM     44  C   UNL A   1      41.719  28.266  30.289  1.00  0.00     0.049 A 
ATOM     45  C   UNL A   1      41.880  32.232  34.251  1.00  0.00     0.074 A 
ATOM     46  C   UNL A   1      42.748  27.340  30.294  1.00  0.00     0.029 A 
ATOM     47  N   UNL A   1      41.953  29.132  31.347  1.00  0.00    -0.354 N 
ATOM     48  N   UNL A   1      41.979  31.251  33.386  1.00  0.00    -0.248 NA
ATOM     49  C   UNL A   1      42.926  32.231  35.282  1.00  0.00     0.031 C 
ATOM     50  C   UNL A   1      43.589  27.629  31.374  1.00  0.00     0.029 A 
ATOM     51  C   UNL A   1      43.105  28.758  32.018  1.00  0.00     0.049 A 
ATOM     52  H   UNL A   1      41.385  29.900  31.584  1.00  0.00     0.167 HD
ATOM     53  C   UNL A   1      43.116  30.540  33.746  1.00  0.00     0.074 A 
ATOM     54  C   UNL A   1      43.672  31.200  34.909  1.00  0.00     0.031 C 
ATOM     55  C   UNL A   1      43.654  29.442  33.161  1.00  0.00     0.037 A 
BRANCH  42  56
ATOM     56  C   UNL A   1      40.440  27.319  28.321  1.00  0.00     0.057 A 
ATOM     57  C   UNL A   1      41.063  27.438  27.071  1.00  0.00     0.134 A 
ATOM     58  C   UNL A   1      39.644  26.189  28.541  1.00  0.00     0.134 A 
ATOM     59  F   UNL A   1      41.826  28.506  26.791  1.00  0.00    -0.206 F 
ATOM     60  C   UNL A   1      40.869  26.491  26.065  1.00  0.00     0.040 A 
ATOM     61  C   UNL A   1      39.465  25.220  27.553  1.00  0.00     0.040 A 
ATOM     62  F   UNL A   1      39.022  26.010  29.716  1.00  0.00    -0.206 F 
ATOM     63  C   UNL A   1      40.070  25.374  26.307  1.00  0.00     0.006 A 
ENDBRANCH  42  56
BRANCH  43  64
ATOM     64  C   UNL A   1      40.939  34.377  35.371  1.00  0.00     0.057 A 
ATOM     65  C   UNL A   1      41.610  35.581  35.128  1.00  0.00     0.134 A 
ATOM     66  C   UNL A   1      40.342  34.211  36.625  1.00  0.00     0.134 A 
ATOM     67  F   UNL A   1      42.216  35.789  33.949  1.00  0.00    -0.206 F 
ATOM     68  C   UNL A   1      41.696  36.579  36.099  1.00  0.00     0.040 A 
ATOM     69  C   UNL A   1      40.402  35.210  37.599  1.00  0.00     0.040 A 
ATOM     70  F   UNL A   1      39.677  33.083  36.916  1.00  0.00    -0.206 F 
ATOM     71  C   UNL A   1      41.085  36.396  37.338  1.00  0.00     0.006 A 
ENDBRANCH  43  64
BRANCH  55  72
ATOM     72  C   UNL A   1      44.935  28.916  33.733  1.00  0.00     0.057 A 
ATOM     73  C   UNL A   1      46.184  29.397  33.321  1.00  0.00     0.134 A 
ATOM     74  C   UNL A   1      44.913  27.954  34.751  1.00  0.00     0.134 A 
ATOM     75  F   UNL A   1      46.273  30.308  32.342  1.00  0.00    -0.206 F 
ATOM     76  C   UNL A   1      47.368  28.930  33.896  1.00  0.00     0.040 A 
ATOM     77  C   UNL A   1      46.087  27.497  35.349  1.00  0.00     0.040 A 
ATOM     78  F   UNL A   1      43.747  27.459  35.194  1.00  0.00    -0.206 F 
ATOM     79  C   UNL A   1      47.320  27.984  34.918  1.00  0.00     0.006 A 
ENDBRANCH  55  72
ENDBRANCH  29  30
ENDBRANCH  21  24
ENDBRANCH  19  20
ENDBRANCH  18  19
ENDBRANCH   1  18
TORSDOF 13
ENDMDL
MODEL 2
REMARK VINA RESULT:     -10.6      1.718      6.974
REMARK SMILES C[C@@H]1CCC[C@@]1(C[NH3+])C(=O)NCCCCNC(=O)c1ccc(-c2c3nc(c(-c4c(F)cccc4F)c4ccc([nH]4)c(-c4c(F)cccc4F)c4nc(c(-c5c(F)cccc5F)c5ccc2[nH]5)C=C4)C=C3)cc1
REMARK SMILES IDX 13 1 12 2 11 3 9 4 10 5 6 7 1 8 2 9 3 10 4 11 5 12 7 13 8 14
REMARK SMILES IDX 14 18 15 19 16 20 17 21 18 23 19 24 20 25 72 26 21 27 71 28
REMARK SMILES IDX 22 29 23 30 24 31 65 32 25 33 70 34 64 35 66 36 26 37 69 38
REMARK SMILES IDX 63 39 62 40 27 42 53 43 36 44 52 45 37 46 40 47 51 48 67 49
REMARK SMILES IDX 38 50 39 51 50 53 68 54 41 55 28 56 29 57 34 58 30 59 31 60
REMARK SMILES IDX 33 61 35 62 32 63 54 64 55 65 60 66 56 67 57 68 59 69 61 70
REMARK SMILES IDX 58 71 42 72 43 73 48 74 44 75 45 76 47 77 49 78 46 79
REMARK H PARENT 11 6 8 15 8 16 8 17 16 22 66 41 40 52
REMARK Flexibility Score: inf
ROOT
ATOM      1  C   UNL A   1      31.413  30.828  25.721  1.00  0.00     0.023 C 
ENDROOT
BRANCH   1   2
ATOM      2  C   UNL A   1      32.570  29.843  25.898  1.00  0.00     0.116 C 
BRANCH   2   3
ATOM      3  N   UNL A   1      33.375  29.769  24.696  1.00  0.00    -0.355 N 
ATOM      4  C   UNL A   1      33.343  28.928  23.625  1.00  0.00     0.232 C 
ATOM      5  O   UNL A   1      34.262  29.082  22.814  1.00  0.00    -0.274 OA
ATOM      6  H   UNL A   1      34.079  30.455  24.645  1.00  0.00     0.163 HD
BRANCH   4   7
ATOM      7  C   UNL A   1      32.187  27.906  23.381  1.00  0.00     0.100 C 
ATOM      8  C   UNL A   1      31.814  25.796  21.863  1.00  0.00     0.009 C 
ATOM      9  C   UNL A   1      32.793  26.694  22.614  1.00  0.00     0.007 C 
ATOM     10  C   UNL A   1      33.510  25.905  23.719  1.00  0.00     0.005 C 
ATOM     11  C   UNL A   1      32.618  26.027  24.945  1.00  0.00     0.002 C 
ATOM     12  C   UNL A   1      31.779  27.290  24.752  1.00  0.00     0.023 C 
BRANCH   7  13
ATOM     13  C   UNL A   1      30.979  28.636  22.737  1.00  0.00     0.276 C 
BRANCH  13  14
ATOM     14  N   UNL A   1      31.247  29.786  21.871  1.00  0.00    -0.357 N 
ATOM     15  H   UNL A   1      32.247  29.982  21.867  1.00  0.00     0.344 HD
ATOM     16  H   UNL A   1      30.742  30.600  22.222  1.00  0.00     0.344 HD
ATOM     17  H   UNL A   1      30.938  29.576  20.922  1.00  0.00     0.344 HD
ENDBRANCH  13  14
ENDBRANCH   7  13
ENDBRANCH   4   7
ENDBRANCH   2   3
ENDBRANCH   1   2
BRANCH   1  18
ATOM     18  C   UNL A   1      31.318  31.899  26.810  1.00  0.00     0.023 C 
BRANCH  18  19
ATOM     19  C   UNL A   1      32.635  32.582  27.148  1.00  0.00     0.116 C 
BRANCH  19  20
ATOM     20  N   UNL A   1      32.475  33.976  27.538  1.00  0.00    -0.352 N 
ATOM     21  C   UNL A   1      33.187  34.679  28.479  1.00  0.00     0.251 C 
ATOM     22  H   UNL A   1      31.770  34.477  27.068  1.00  0.00     0.163 HD
ATOM     23  O   UNL A   1      32.874  35.828  28.773  1.00  0.00    -0.269 OA
BRANCH  21  24
ATOM     24  C   UNL A   1      34.312  34.015  29.165  1.00  0.00     0.039 A 
ATOM     25  C   UNL A   1      34.036  33.099  30.184  1.00  0.00     0.014 A 
ATOM     26  C   UNL A   1      35.627  34.264  28.768  1.00  0.00     0.014 A 
ATOM     27  C   UNL A   1      35.083  32.384  30.766  1.00  0.00     0.010 A 
ATOM     28  C   UNL A   1      36.659  33.502  29.300  1.00  0.00     0.010 A 
ATOM     29  C   UNL A   1      36.397  32.559  30.306  1.00  0.00    -0.014 A 
BRANCH  29  30
ATOM     30  C   UNL A   1      37.531  31.794  30.875  1.00  0.00     0.031 A 
ATOM     31  C   UNL A   1      38.044  32.140  32.242  1.00  0.00     0.074 A 
ATOM     32  C   UNL A   1      38.151  30.857  30.133  1.00  0.00     0.049 A 
ATOM     33  N   UNL A   1      39.104  31.697  32.868  1.00  0.00    -0.248 NA
ATOM     34  C   UNL A   1      37.277  33.147  32.993  1.00  0.00     0.031 C 
ATOM     35  C   UNL A   1      37.765  30.452  28.780  1.00  0.00     0.029 A 
ATOM     36  N   UNL A   1      39.253  30.088  30.410  1.00  0.00    -0.354 N 
ATOM     37  C   UNL A   1      39.146  32.391  34.069  1.00  0.00     0.074 A 
ATOM     38  C   UNL A   1      38.034  33.317  34.066  1.00  0.00     0.031 C 
ATOM     39  C   UNL A   1      38.604  29.495  28.353  1.00  0.00     0.029 A 
ATOM     40  C   UNL A   1      39.609  29.249  29.383  1.00  0.00     0.049 A 
ATOM     41  H   UNL A   1      39.740  30.133  31.263  1.00  0.00     0.167 HD
ATOM     42  C   UNL A   1      40.021  32.255  35.094  1.00  0.00     0.037 A 
ATOM     43  C   UNL A   1      40.637  28.385  29.284  1.00  0.00     0.037 A 
ATOM     44  C   UNL A   1      41.106  31.311  35.106  1.00  0.00     0.049 A 
ATOM     45  C   UNL A   1      41.600  28.253  30.431  1.00  0.00     0.074 A 
ATOM     46  C   UNL A   1      42.020  31.058  36.113  1.00  0.00     0.029 A 
ATOM     47  N   UNL A   1      41.420  30.460  34.056  1.00  0.00    -0.354 N 
ATOM     48  N   UNL A   1      41.607  28.884  31.580  1.00  0.00    -0.248 NA
ATOM     49  C   UNL A   1      42.696  27.289  30.267  1.00  0.00     0.031 C 
ATOM     50  C   UNL A   1      42.907  30.074  35.661  1.00  0.00     0.029 A 
ATOM     51  C   UNL A   1      42.520  29.687  34.387  1.00  0.00     0.049 A 
ATOM     52  H   UNL A   1      40.932  30.412  33.202  1.00  0.00     0.167 HD
ATOM     53  C   UNL A   1      42.683  28.369  32.290  1.00  0.00     0.074 A 
ATOM     54  C   UNL A   1      43.307  27.374  31.442  1.00  0.00     0.031 C 
ATOM     55  C   UNL A   1      43.112  28.686  33.536  1.00  0.00     0.037 A 
BRANCH  42  56
ATOM     56  C   UNL A   1      39.832  33.157  36.278  1.00  0.00     0.057 A 
ATOM     57  C   UNL A   1      38.942  32.840  37.313  1.00  0.00     0.134 A 
ATOM     58  C   UNL A   1      40.541  34.360  36.381  1.00  0.00     0.134 A 
ATOM     59  F   UNL A   1      38.220  31.710  37.267  1.00  0.00    -0.206 F 
ATOM     60  C   UNL A   1      38.733  33.706  38.387  1.00  0.00     0.040 A 
ATOM     61  C   UNL A   1      40.362  35.221  37.465  1.00  0.00     0.040 A 
ATOM     62  F   UNL A   1      41.413  34.722  35.428  1.00  0.00    -0.206 F 
ATOM     63  C   UNL A   1      39.449  34.899  38.467  1.00  0.00     0.006 A 
ENDBRANCH  42  56
BRANCH  43  64
ATOM     64  C   UNL A   1      40.783  27.548  28.069  1.00  0.00     0.057 A 
ATOM     65  C   UNL A   1      41.530  28.002  26.975  1.00  0.00     0.134 A 
ATOM     66  C   UNL A   1      40.202  26.280  27.972  1.00  0.00     0.134 A 
ATOM     67  F   UNL A   1      42.096  29.218  27.004  1.00  0.00    -0.206 F 
ATOM     68  C   UNL A   1      41.683  27.230  25.823  1.00  0.00     0.040 A 
ATOM     69  C   UNL A   1      40.364  25.487  26.834  1.00  0.00     0.040 A 
ATOM     70  F   UNL A   1      39.482  25.784  28.990  1.00  0.00    -0.206 F 
ATOM     71  C   UNL A   1      41.104  25.965  25.753  1.00  0.00     0.006 A 
ENDBRANCH  43  64
BRANCH  55  72
ATOM     72  C   UNL A   1      44.277  27.917  34.080  1.00  0.00     0.057 A 
ATOM     73  C   UNL A   1      44.116  26.687  34.730  1.00  0.00     0.134 A 
ATOM     74  C   UNL A   1      45.584  28.389  33.898  1.00  0.00     0.134 A 
ATOM     75  F   UNL A   1      42.890  26.189  34.947  1.00  0.00    -0.206 F 
ATOM     76  C   UNL A   1      45.214  25.959  35.191  1.00  0.00     0.040 A 
ATOM     77  C   UNL A   1      46.690  27.660  34.333  1.00  0.00     0.040 A 
ATOM     78  F   UNL A   1      45.804  29.557  33.276  1.00  0.00    -0.206 F 
ATOM     79  C   UNL A   1      46.506  26.442  34.985  1.00  0.00     0.006 A 
ENDBRANCH  55  72
ENDBRANCH  29  30
ENDBRANCH  21  24
ENDBRANCH  19  20
ENDBRANCH  18  19
ENDBRANCH   1  18
TORSDOF 13
ENDMDL
MODEL 3
REMARK VINA RESULT:     -10.5      5.210      9.568
REMARK SMILES C[C@@H]1CCC[C@@]1(C[NH3+])C(=O)NCCCCNC(=O)c1ccc(-c2c3nc(c(-c4c(F)cccc4F)c4ccc([nH]4)c(-c4c(F)cccc4F)c4nc(c(-c5c(F)cccc5F)c5ccc2[nH]5)C=C4)C=C3)cc1
REMARK SMILES IDX 13 1 12 2 11 3 9 4 10 5 6 7 1 8 2 9 3 10 4 11 5 12 7 13 8 14
REMARK SMILES IDX 14 18 15 19 16 20 17 21 18 23 19 24 20 25 72 26 21 27 71 28
REMARK SMILES IDX 22 29 23 30 24 31 65 32 25 33 70 34 64 35 66 36 26 37 69 38
REMARK SMILES IDX 63 39 62 40 27 42 53 43 36 44 52 45 37 46 40 47 51 48 67 49
REMARK SMILES IDX 38 50 39 51 50 53 68 54 41 55 28 56 29 57 34 58 30 59 31 60
REMARK SMILES IDX 33 61 35 62 32 63 54 64 55 65 60 66 56 67 57 68 59 69 61 70
REMARK SMILES IDX 58 71 42 72 43 73 48 74 44 75 45 76 47 77 49 78 46 79
REMARK H PARENT 11 6 8 15 8 16 8 17 16 22 66 41 40 52
REMARK Flexibility Score: inf
ROOT
ATOM      1  C   UNL A   1      39.200  22.501  26.318  1.00  0.00     0.023 C 
ENDROOT
BRANCH   1   2
ATOM      2  C   UNL A   1      37.988  23.387  26.020  1.00  0.00     0.116 C 
BRANCH   2   3
ATOM      3  N   UNL A   1      37.665  23.363  24.608  1.00  0.00    -0.355 N 
ATOM      4  C   UNL A   1      36.536  23.007  23.935  1.00  0.00     0.232 C 
ATOM      5  O   UNL A   1      36.642  23.004  22.705  1.00  0.00    -0.274 OA
ATOM      6  H   UNL A   1      38.400  23.661  24.026  1.00  0.00     0.163 HD
BRANCH   4   7
ATOM      7  C   UNL A   1      35.178  22.711  24.649  1.00  0.00     0.100 C 
ATOM      8  C   UNL A   1      33.683  23.909  26.445  1.00  0.00     0.009 C 
ATOM      9  C   UNL A   1      34.711  24.035  25.324  1.00  0.00     0.007 C 
ATOM     10  C   UNL A   1      34.134  24.839  24.150  1.00  0.00     0.005 C 
ATOM     11  C   UNL A   1      33.441  23.816  23.262  1.00  0.00     0.002 C 
ATOM     12  C   UNL A   1      34.093  22.467  23.558  1.00  0.00     0.023 C 
BRANCH   7  13
ATOM     13  C   UNL A   1      35.330  21.457  25.550  1.00  0.00     0.276 C 
BRANCH  13  14
ATOM     14  N   UNL A   1      34.764  20.192  25.075  1.00  0.00    -0.357 N 
ATOM     15  H   UNL A   1      33.773  20.317  24.874  1.00  0.00     0.344 HD
ATOM     16  H   UNL A   1      34.878  19.478  25.794  1.00  0.00     0.344 HD
ATOM     17  H   UNL A   1      35.249  19.901  24.226  1.00  0.00     0.344 HD
ENDBRANCH  13  14
ENDBRANCH   7  13
ENDBRANCH   4   7
ENDBRANCH   2   3
ENDBRANCH   1   2
BRANCH   1  18
ATOM     18  C   UNL A   1      39.166  21.130  25.639  1.00  0.00     0.023 C 
BRANCH  18  19
ATOM     19  C   UNL A   1      39.682  19.982  26.495  1.00  0.00     0.116 C 
BRANCH  19  20
ATOM     20  N   UNL A   1      40.821  19.293  25.907  1.00  0.00    -0.352 N 
ATOM     21  C   UNL A   1      42.111  19.746  25.779  1.00  0.00     0.251 C 
ATOM     22  H   UNL A   1      40.645  18.389  25.558  1.00  0.00     0.163 HD
ATOM     23  O   UNL A   1      42.949  19.090  25.168  1.00  0.00    -0.269 OA
BRANCH  21  24
ATOM     24  C   UNL A   1      42.465  21.059  26.351  1.00  0.00     0.039 A 
ATOM     25  C   UNL A   1      42.795  22.107  25.487  1.00  0.00     0.014 A 
ATOM     26  C   UNL A   1      42.426  21.261  27.732  1.00  0.00     0.014 A 
ATOM     27  C   UNL A   1      43.026  23.380  26.007  1.00  0.00     0.010 A 
ATOM     28  C   UNL A   1      42.588  22.542  28.241  1.00  0.00     0.010 A 
ATOM     29  C   UNL A   1      42.893  23.612  27.385  1.00  0.00    -0.014 A 
BRANCH  29  30
ATOM     30  C   UNL A   1      43.097  24.957  27.972  1.00  0.00     0.031 A 
ATOM     31  C   UNL A   1      44.462  25.354  28.454  1.00  0.00     0.074 A 
ATOM     32  C   UNL A   1      42.046  25.779  28.153  1.00  0.00     0.049 A 
ATOM     33  N   UNL A   1      44.830  26.417  29.122  1.00  0.00    -0.248 NA
ATOM     34  C   UNL A   1      45.554  24.407  28.177  1.00  0.00     0.031 C 
ATOM     35  C   UNL A   1      40.667  25.495  27.753  1.00  0.00     0.029 A 
ATOM     36  N   UNL A   1      41.977  27.018  28.737  1.00  0.00    -0.354 N 
ATOM     37  C   UNL A   1      46.186  26.253  29.368  1.00  0.00     0.074 A 
ATOM     38  C   UNL A   1      46.566  24.969  28.821  1.00  0.00     0.031 C 
ATOM     39  C   UNL A   1      39.891  26.538  28.086  1.00  0.00     0.029 A 
ATOM     40  C   UNL A   1      40.708  27.544  28.758  1.00  0.00     0.049 A 
ATOM     41  H   UNL A   1      42.759  27.485  29.106  1.00  0.00     0.167 HD
ATOM     42  C   UNL A   1      47.044  27.106  29.977  1.00  0.00     0.037 A 
ATOM     43  C   UNL A   1      40.257  28.706  29.270  1.00  0.00     0.037 A 
ATOM     44  C   UNL A   1      46.668  28.395  30.491  1.00  0.00     0.049 A 
ATOM     45  C   UNL A   1      41.225  29.636  29.946  1.00  0.00     0.074 A 
ATOM     46  C   UNL A   1      47.468  29.357  31.082  1.00  0.00     0.029 A 
ATOM     47  N   UNL A   1      45.377  28.904  30.471  1.00  0.00    -0.354 N 
ATOM     48  N   UNL A   1      42.514  29.490  30.137  1.00  0.00    -0.248 NA
ATOM     49  C   UNL A   1      40.677  30.890  30.478  1.00  0.00     0.031 C 
ATOM     50  C   UNL A   1      46.656  30.436  31.447  1.00  0.00     0.029 A 
ATOM     51  C   UNL A   1      45.357  30.163  31.047  1.00  0.00     0.049 A 
ATOM     52  H   UNL A   1      44.592  28.439  30.100  1.00  0.00     0.167 HD
ATOM     53  C   UNL A   1      42.937  30.648  30.777  1.00  0.00     0.074 A 
ATOM     54  C   UNL A   1      41.767  31.485  30.944  1.00  0.00     0.031 C 
ATOM     55  C   UNL A   1      44.185  30.989  31.184  1.00  0.00     0.037 A 
BRANCH  42  56
ATOM     56  C   UNL A   1      48.469  26.657  30.118  1.00  0.00     0.057 A 
ATOM     57  C   UNL A   1      49.440  26.970  29.157  1.00  0.00     0.134 A 
ATOM     58  C   UNL A   1      48.873  25.894  31.221  1.00  0.00     0.134 A 
ATOM     59  F   UNL A   1      49.115  27.684  28.069  1.00  0.00    -0.206 F 
ATOM     60  C   UNL A   1      50.752  26.508  29.269  1.00  0.00     0.040 A 
ATOM     61  C   UNL A   1      50.189  25.451  31.357  1.00  0.00     0.040 A 
ATOM     62  F   UNL A   1      47.995  25.562  32.179  1.00  0.00    -0.206 F 
ATOM     63  C   UNL A   1      51.131  25.749  30.374  1.00  0.00     0.006 A 
ENDBRANCH  42  56
BRANCH  43  64
ATOM     64  C   UNL A   1      38.828  29.071  29.125  1.00  0.00     0.057 A 
ATOM     65  C   UNL A   1      38.325  29.511  27.895  1.00  0.00     0.134 A 
ATOM     66  C   UNL A   1      37.931  28.978  30.194  1.00  0.00     0.134 A 
ATOM     67  F   UNL A   1      39.142  29.637  26.839  1.00  0.00    -0.206 F 
ATOM     68  C   UNL A   1      36.983  29.857  27.735  1.00  0.00     0.040 A 
ATOM     69  C   UNL A   1      36.581  29.300  30.044  1.00  0.00     0.040 A 
ATOM     70  F   UNL A   1      38.350  28.554  31.396  1.00  0.00    -0.206 F 
ATOM     71  C   UNL A   1      36.105  29.746  28.812  1.00  0.00     0.006 A 
ENDBRANCH  43  64
BRANCH  55  72
ATOM     72  C   UNL A   1      44.361  32.344  31.799  1.00  0.00     0.057 A 
ATOM     73  C   UNL A   1      44.628  33.481  31.026  1.00  0.00     0.134 A 
ATOM     74  C   UNL A   1      44.204  32.519  33.180  1.00  0.00     0.134 A 
ATOM     75  F   UNL A   1      44.802  33.376  29.701  1.00  0.00    -0.206 F 
ATOM     76  C   UNL A   1      44.744  34.745  31.608  1.00  0.00     0.040 A 
ATOM     77  C   UNL A   1      44.296  33.780  33.770  1.00  0.00     0.040 A 
ATOM     78  F   UNL A   1      43.940  31.470  33.973  1.00  0.00    -0.206 F 
ATOM     79  C   UNL A   1      44.570  34.897  32.983  1.00  0.00     0.006 A 
ENDBRANCH  55  72
ENDBRANCH  29  30
ENDBRANCH  21  24
ENDBRANCH  19  20
ENDBRANCH  18  19
ENDBRANCH   1  18
TORSDOF 13
ENDMDL
