MODEL 1
REMARK VINA RESULT:     -13.3      0.000      0.000
REMARK SMILES Cc1nc2ccc(Cl)cc2cc1C(=O)N1CCC(C(=O)NCCCCNC(=O)c2ccc(-c3c4nc(c(-c5c(F)cccc5F)c5ccc([nH]5)c(-c5c(F)cccc5F)c5nc(c(-c6c(F)cccc6F)c6ccc3[nH]6)C=C5)C=C4)cc2)CC1
REMARK SMILES IDX 24 1 23 2 22 3 21 4 19 5 20 6 18 8 13 9 14 10 15 11 16 12
REMARK SMILES IDX 84 13 17 14 83 15 12 16 1 17 2 18 3 19 4 20 11 21 5 22 10 23
REMARK SMILES IDX 6 24 9 25 7 26 8 27 25 28 26 29 27 30 28 32 29 33 30 34
REMARK SMILES IDX 82 35 31 36 81 37 32 38 33 39 34 40 75 41 35 42 80 43 74 44
REMARK SMILES IDX 76 45 36 46 79 47 73 48 72 49 37 51 63 52 46 53 62 54 47 55
REMARK SMILES IDX 50 56 61 57 77 58 48 59 49 60 60 62 78 63 51 64 38 65 39 66
REMARK SMILES IDX 44 67 40 68 41 69 43 70 45 71 42 72 64 73 65 74 70 75 66 76
REMARK SMILES IDX 67 77 69 78 71 79 68 80 52 81 53 82 58 83 54 84 55 85 57 86
REMARK SMILES IDX 59 87 56 88
REMARK H PARENT 21 7 26 31 76 50 50 61
REMARK Flexibility Score: inf
ROOT
ATOM      1  C   UNL A   1      38.268  19.568  24.943  1.00  0.00     0.023 C 
ENDROOT
BRANCH   1   2
ATOM      2  C   UNL A   1      37.404  20.789  24.648  1.00  0.00     0.023 C 
BRANCH   2   3
ATOM      3  C   UNL A   1      36.048  20.781  25.346  1.00  0.00     0.116 C 
BRANCH   3   4
ATOM      4  N   UNL A   1      35.268  19.603  25.001  1.00  0.00    -0.356 N 
ATOM      5  C   UNL A   1      33.981  19.489  24.571  1.00  0.00     0.223 C 
ATOM      6  O   UNL A   1      33.533  18.359  24.370  1.00  0.00    -0.275 OA
ATOM      7  H   UNL A   1      35.749  18.749  25.094  1.00  0.00     0.163 HD
BRANCH   5   8
ATOM      8  C   UNL A   1      33.118  20.717  24.329  1.00  0.00     0.082 C 
ATOM      9  C   UNL A   1      31.905  24.414  26.033  1.00  0.00     0.255 C 
ATOM     10  O   UNL A   1      31.625  24.340  27.225  1.00  0.00    -0.269 OA
ATOM     11  N   UNL A   1      32.224  23.279  25.280  1.00  0.00    -0.339 N 
ATOM     12  C   UNL A   1      31.306  22.160  25.380  1.00  0.00     0.120 C 
ATOM     13  C   UNL A   1      33.172  23.255  24.168  1.00  0.00     0.120 C 
ATOM     14  C   UNL A   1      32.003  20.818  25.376  1.00  0.00     0.035 C 
ATOM     15  C   UNL A   1      33.989  21.973  24.156  1.00  0.00     0.035 C 
BRANCH   9  16
ATOM     16  C   UNL A   1      31.684  25.696  25.304  1.00  0.00     0.061 A 
ATOM     17  C   UNL A   1      34.026  26.623  25.747  1.00  0.00     0.067 C 
ATOM     18  C   UNL A   1      32.629  26.717  25.208  1.00  0.00     0.051 A 
ATOM     19  N   UNL A   1      32.324  27.936  24.663  1.00  0.00    -0.252 NA
ATOM     20  C   UNL A   1      31.082  28.168  24.197  1.00  0.00     0.071 A 
ATOM     21  C   UNL A   1      30.392  25.967  24.837  1.00  0.00     0.026 A 
ATOM     22  C   UNL A   1      30.742  29.405  23.664  1.00  0.00     0.030 A 
ATOM     23  C   UNL A   1      30.080  27.187  24.247  1.00  0.00     0.002 A 
ATOM     24  C   UNL A   1      29.461  29.664  23.159  1.00  0.00     0.023 A 
ATOM     25  C   UNL A   1      28.795  27.428  23.737  1.00  0.00     0.030 A 
ATOM     26  C   UNL A   1      28.495  28.665  23.185  1.00  0.00     0.041 A 
ATOM     27  Cl  UNL A   1      26.930  28.953  22.539  1.00  0.00    -0.084 Cl
ENDBRANCH   9  16
ENDBRANCH   5   8
ENDBRANCH   3   4
ENDBRANCH   2   3
ENDBRANCH   1   2
BRANCH   1  28
ATOM     28  C   UNL A   1      39.299  19.776  26.042  1.00  0.00     0.116 C 
BRANCH  28  29
ATOM     29  N   UNL A   1      40.426  18.860  25.945  1.00  0.00    -0.352 N 
ATOM     30  C   UNL A   1      41.765  19.142  26.033  1.00  0.00     0.251 C 
ATOM     31  H   UNL A   1      40.196  17.915  25.799  1.00  0.00     0.163 HD
ATOM     32  O   UNL A   1      42.602  18.277  25.792  1.00  0.00    -0.269 OA
BRANCH  30  33
ATOM     33  C   UNL A   1      42.193  20.508  26.393  1.00  0.00     0.039 A 
ATOM     34  C   UNL A   1      42.477  21.419  25.375  1.00  0.00     0.014 A 
ATOM     35  C   UNL A   1      42.282  20.892  27.734  1.00  0.00     0.014 A 
ATOM     36  C   UNL A   1      42.814  22.733  25.704  1.00  0.00     0.010 A 
ATOM     37  C   UNL A   1      42.518  22.222  28.055  1.00  0.00     0.010 A 
ATOM     38  C   UNL A   1      42.814  23.149  27.045  1.00  0.00    -0.014 A 
BRANCH  38  39
ATOM     39  C   UNL A   1      43.173  24.540  27.416  1.00  0.00     0.031 A 
ATOM     40  C   UNL A   1      44.611  24.978  27.364  1.00  0.00     0.074 A 
ATOM     41  C   UNL A   1      42.222  25.388  27.847  1.00  0.00     0.049 A 
ATOM     42  N   UNL A   1      45.138  26.134  27.683  1.00  0.00    -0.248 NA
ATOM     43  C   UNL A   1      45.594  23.971  26.931  1.00  0.00     0.031 C 
ATOM     44  C   UNL A   1      40.803  25.065  27.998  1.00  0.00     0.029 A 
ATOM     45  N   UNL A   1      42.310  26.698  28.243  1.00  0.00    -0.354 N 
ATOM     46  C   UNL A   1      46.507  25.983  27.504  1.00  0.00     0.074 A 
ATOM     47  C   UNL A   1      46.737  24.608  27.125  1.00  0.00     0.031 C 
ATOM     48  C   UNL A   1      40.149  26.156  28.428  1.00  0.00     0.029 A 
ATOM     49  C   UNL A   1      41.106  27.243  28.613  1.00  0.00     0.049 A 
ATOM     50  H   UNL A   1      43.157  27.201  28.261  1.00  0.00     0.167 HD
ATOM     51  C   UNL A   1      47.484  26.916  27.613  1.00  0.00     0.037 A 
ATOM     52  C   UNL A   1      40.808  28.480  29.051  1.00  0.00     0.037 A 
ATOM     53  C   UNL A   1      47.247  28.288  27.975  1.00  0.00     0.049 A 
ATOM     54  C   UNL A   1      41.903  29.504  29.156  1.00  0.00     0.074 A 
ATOM     55  C   UNL A   1      48.156  29.326  28.064  1.00  0.00     0.029 A 
ATOM     56  N   UNL A   1      46.008  28.810  28.312  1.00  0.00    -0.354 N 
ATOM     57  N   UNL A   1      43.185  29.373  28.913  1.00  0.00    -0.248 NA
ATOM     58  C   UNL A   1      41.506  30.854  29.577  1.00  0.00     0.031 C 
ATOM     59  C   UNL A   1      47.475  30.465  28.506  1.00  0.00     0.029 A 
ATOM     60  C   UNL A   1      46.130  30.154  28.630  1.00  0.00     0.049 A 
ATOM     61  H   UNL A   1      45.165  28.302  28.325  1.00  0.00     0.167 HD
ATOM     62  C   UNL A   1      43.743  30.629  29.120  1.00  0.00     0.074 A 
ATOM     63  C   UNL A   1      42.656  31.509  29.497  1.00  0.00     0.031 C 
ATOM     64  C   UNL A   1      45.037  31.018  29.000  1.00  0.00     0.037 A 
BRANCH  51  65
ATOM     65  C   UNL A   1      48.892  26.464  27.341  1.00  0.00     0.057 A 
ATOM     66  C   UNL A   1      49.744  26.030  28.368  1.00  0.00     0.134 A 
ATOM     67  C   UNL A   1      49.411  26.477  26.041  1.00  0.00     0.134 A 
ATOM     68  F   UNL A   1      49.319  26.004  29.641  1.00  0.00    -0.206 F 
ATOM     69  C   UNL A   1      51.072  25.674  28.117  1.00  0.00     0.040 A 
ATOM     70  C   UNL A   1      50.725  26.089  25.773  1.00  0.00     0.040 A 
ATOM     71  F   UNL A   1      48.651  26.874  25.008  1.00  0.00    -0.206 F 
ATOM     72  C   UNL A   1      51.563  25.699  26.815  1.00  0.00     0.006 A 
ENDBRANCH  51  65
BRANCH  52  73
ATOM     73  C   UNL A   1      39.401  28.824  29.380  1.00  0.00     0.057 A 
ATOM     74  C   UNL A   1      38.888  28.620  30.665  1.00  0.00     0.134 A 
ATOM     75  C   UNL A   1      38.545  29.385  28.424  1.00  0.00     0.134 A 
ATOM     76  F   UNL A   1      39.654  28.072  31.620  1.00  0.00    -0.206 F 
ATOM     77  C   UNL A   1      37.569  28.949  30.987  1.00  0.00     0.040 A 
ATOM     78  C   UNL A   1      37.234  29.742  28.739  1.00  0.00     0.040 A 
ATOM     79  F   UNL A   1      38.981  29.615  27.177  1.00  0.00    -0.206 F 
ATOM     80  C   UNL A   1      36.740  29.518  30.023  1.00  0.00     0.006 A 
ENDBRANCH  52  73
BRANCH  64  81
ATOM     81  C   UNL A   1      45.341  32.472  29.232  1.00  0.00     0.057 A 
ATOM     82  C   UNL A   1      45.723  32.965  30.485  1.00  0.00     0.134 A 
ATOM     83  C   UNL A   1      45.273  33.386  28.172  1.00  0.00     0.134 A 
ATOM     84  F   UNL A   1      45.798  32.146  31.545  1.00  0.00    -0.206 F 
ATOM     85  C   UNL A   1      45.996  34.320  30.684  1.00  0.00     0.040 A 
ATOM     86  C   UNL A   1      45.575  34.736  28.350  1.00  0.00     0.040 A 
ATOM     87  F   UNL A   1      44.925  32.978  26.941  1.00  0.00    -0.206 F 
ATOM     88  C   UNL A   1      45.929  35.208  29.612  1.00  0.00     0.006 A 
ENDBRANCH  64  81
ENDBRANCH  38  39
ENDBRANCH  30  33
ENDBRANCH  28  29
ENDBRANCH   1  28
TORSDOF 12
ENDMDL
MODEL 2
REMARK VINA RESULT:     -13.3      1.803      2.604
REMARK SMILES Cc1nc2ccc(Cl)cc2cc1C(=O)N1CCC(C(=O)NCCCCNC(=O)c2ccc(-c3c4nc(c(-c5c(F)cccc5F)c5ccc([nH]5)c(-c5c(F)cccc5F)c5nc(c(-c6c(F)cccc6F)c6ccc3[nH]6)C=C5)C=C4)cc2)CC1
REMARK SMILES IDX 24 1 23 2 22 3 21 4 19 5 20 6 18 8 13 9 14 10 15 11 16 12
REMARK SMILES IDX 84 13 17 14 83 15 12 16 1 17 2 18 3 19 4 20 11 21 5 22 10 23
REMARK SMILES IDX 6 24 9 25 7 26 8 27 25 28 26 29 27 30 28 32 29 33 30 34
REMARK SMILES IDX 82 35 31 36 81 37 32 38 33 39 34 40 75 41 35 42 80 43 74 44
REMARK SMILES IDX 76 45 36 46 79 47 73 48 72 49 37 51 63 52 46 53 62 54 47 55
REMARK SMILES IDX 50 56 61 57 77 58 48 59 49 60 60 62 78 63 51 64 38 65 39 66
REMARK SMILES IDX 44 67 40 68 41 69 43 70 45 71 42 72 64 73 65 74 70 75 66 76
REMARK SMILES IDX 67 77 69 78 71 79 68 80 52 81 53 82 58 83 54 84 55 85 57 86
REMARK SMILES IDX 59 87 56 88
REMARK H PARENT 21 7 26 31 76 50 50 61
REMARK Flexibility Score: inf
ROOT
ATOM      1  C   UNL A   1      37.920  19.546  24.984  1.00  0.00     0.023 C 
ENDROOT
BRANCH   1   2
ATOM      2  C   UNL A   1      36.878  20.602  24.636  1.00  0.00     0.023 C 
BRANCH   2   3
ATOM      3  C   UNL A   1      35.599  20.518  25.464  1.00  0.00     0.116 C 
BRANCH   3   4
ATOM      4  N   UNL A   1      34.424  20.332  24.627  1.00  0.00    -0.356 N 
ATOM      5  C   UNL A   1      33.453  21.211  24.258  1.00  0.00     0.223 C 
ATOM      6  O   UNL A   1      32.530  20.797  23.555  1.00  0.00    -0.275 OA
ATOM      7  H   UNL A   1      34.313  19.421  24.270  1.00  0.00     0.163 HD
BRANCH   5   8
ATOM      8  C   UNL A   1      33.505  22.670  24.685  1.00  0.00     0.082 C 
ATOM      9  C   UNL A   1      32.994  26.647  23.286  1.00  0.00     0.255 C 
ATOM     10  O   UNL A   1      33.506  26.855  22.190  1.00  0.00    -0.269 OA
ATOM     11  N   UNL A   1      33.149  25.427  23.951  1.00  0.00    -0.339 N 
ATOM     12  C   UNL A   1      34.506  24.927  24.072  1.00  0.00     0.120 C 
ATOM     13  C   UNL A   1      32.142  24.813  24.814  1.00  0.00     0.120 C 
ATOM     14  C   UNL A   1      34.600  23.425  23.923  1.00  0.00     0.035 C 
ATOM     15  C   UNL A   1      32.105  23.303  24.645  1.00  0.00     0.035 C 
BRANCH   9  16
ATOM     16  C   UNL A   1      32.382  27.780  24.038  1.00  0.00     0.061 A 
ATOM     17  C   UNL A   1      30.205  27.804  22.697  1.00  0.00     0.067 C 
ATOM     18  C   UNL A   1      31.136  28.334  23.747  1.00  0.00     0.051 A 
ATOM     19  N   UNL A   1      30.687  29.471  24.365  1.00  0.00    -0.252 NA
ATOM     20  C   UNL A   1      31.458  30.080  25.286  1.00  0.00     0.071 A 
ATOM     21  C   UNL A   1      33.178  28.443  24.980  1.00  0.00     0.026 A 
ATOM     22  C   UNL A   1      31.035  31.249  25.906  1.00  0.00     0.030 A 
ATOM     23  C   UNL A   1      32.719  29.577  25.642  1.00  0.00     0.002 A 
ATOM     24  C   UNL A   1      31.814  31.890  26.879  1.00  0.00     0.023 A 
ATOM     25  C   UNL A   1      33.506  30.202  26.621  1.00  0.00     0.030 A 
ATOM     26  C   UNL A   1      33.043  31.353  27.243  1.00  0.00     0.041 A 
ATOM     27  Cl  UNL A   1      33.995  32.107  28.458  1.00  0.00    -0.084 Cl
ENDBRANCH   9  16
ENDBRANCH   5   8
ENDBRANCH   3   4
ENDBRANCH   2   3
ENDBRANCH   1   2
BRANCH   1  28
ATOM     28  C   UNL A   1      39.128  20.077  25.741  1.00  0.00     0.116 C 
BRANCH  28  29
ATOM     29  N   UNL A   1      40.245  19.144  25.757  1.00  0.00    -0.352 N 
ATOM     30  C   UNL A   1      41.569  19.402  26.003  1.00  0.00     0.251 C 
ATOM     31  H   UNL A   1      40.019  18.206  25.567  1.00  0.00     0.163 HD
ATOM     32  O   UNL A   1      42.416  18.527  25.844  1.00  0.00    -0.269 OA
BRANCH  30  33
ATOM     33  C   UNL A   1      41.972  20.754  26.437  1.00  0.00     0.039 A 
ATOM     34  C   UNL A   1      42.275  21.713  25.469  1.00  0.00     0.014 A 
ATOM     35  C   UNL A   1      42.021  21.077  27.796  1.00  0.00     0.014 A 
ATOM     36  C   UNL A   1      42.588  23.013  25.867  1.00  0.00     0.010 A 
ATOM     37  C   UNL A   1      42.234  22.393  28.183  1.00  0.00     0.010 A 
ATOM     38  C   UNL A   1      42.548  23.368  27.225  1.00  0.00    -0.014 A 
BRANCH  38  39
ATOM     39  C   UNL A   1      42.882  24.743  27.669  1.00  0.00     0.031 A 
ATOM     40  C   UNL A   1      44.322  25.167  27.765  1.00  0.00     0.074 A 
ATOM     41  C   UNL A   1      41.902  25.590  28.033  1.00  0.00     0.049 A 
ATOM     42  N   UNL A   1      44.826  26.307  28.166  1.00  0.00    -0.248 NA
ATOM     43  C   UNL A   1      45.332  24.162  27.397  1.00  0.00     0.031 C 
ATOM     44  C   UNL A   1      40.471  25.279  28.042  1.00  0.00     0.029 A 
ATOM     45  N   UNL A   1      41.963  26.887  28.474  1.00  0.00    -0.354 N 
ATOM     46  C   UNL A   1      46.205  26.147  28.112  1.00  0.00     0.074 A 
ATOM     47  C   UNL A   1      46.457  24.781  27.716  1.00  0.00     0.031 C 
ATOM     48  C   UNL A   1      39.789  26.364  28.440  1.00  0.00     0.029 A 
ATOM     49  C   UNL A   1      40.733  27.434  28.746  1.00  0.00     0.049 A 
ATOM     50  H   UNL A   1      42.808  27.380  28.586  1.00  0.00     0.167 HD
ATOM     51  C   UNL A   1      47.174  27.065  28.339  1.00  0.00     0.037 A 
ATOM     52  C   UNL A   1      40.406  28.661  29.190  1.00  0.00     0.037 A 
ATOM     53  C   UNL A   1      46.916  28.429  28.717  1.00  0.00     0.049 A 
ATOM     54  C   UNL A   1      41.494  29.670  29.426  1.00  0.00     0.074 A 
ATOM     55  C   UNL A   1      47.821  29.454  28.922  1.00  0.00     0.029 A 
ATOM     56  N   UNL A   1      45.655  28.955  28.953  1.00  0.00    -0.354 N 
ATOM     57  N   UNL A   1      42.793  29.532  29.302  1.00  0.00    -0.248 NA
ATOM     58  C   UNL A   1      41.071  31.012  29.848  1.00  0.00     0.031 C 
ATOM     59  C   UNL A   1      47.111  30.588  29.331  1.00  0.00     0.029 A 
ATOM     60  C   UNL A   1      45.758  30.288  29.319  1.00  0.00     0.049 A 
ATOM     61  H   UNL A   1      44.810  28.456  28.871  1.00  0.00     0.167 HD
ATOM     62  C   UNL A   1      43.340  30.775  29.596  1.00  0.00     0.074 A 
ATOM     63  C   UNL A   1      42.229  31.656  29.895  1.00  0.00     0.031 C 
ATOM     64  C   UNL A   1      44.642  31.153  29.611  1.00  0.00     0.037 A 
BRANCH  51  65
ATOM     65  C   UNL A   1      48.598  26.605  28.188  1.00  0.00     0.057 A 
ATOM     66  C   UNL A   1      49.273  26.667  26.960  1.00  0.00     0.134 A 
ATOM     67  C   UNL A   1      49.300  26.079  29.279  1.00  0.00     0.134 A 
ATOM     68  F   UNL A   1      48.657  27.148  25.868  1.00  0.00    -0.206 F 
ATOM     69  C   UNL A   1      50.573  26.178  26.812  1.00  0.00     0.040 A 
ATOM     70  C   UNL A   1      50.613  25.620  29.153  1.00  0.00     0.040 A 
ATOM     71  F   UNL A   1      48.721  25.995  30.487  1.00  0.00    -0.206 F 
ATOM     72  C   UNL A   1      51.248  25.657  27.913  1.00  0.00     0.006 A 
ENDBRANCH  51  65
BRANCH  52  73
ATOM     73  C   UNL A   1      38.977  29.012  29.395  1.00  0.00     0.057 A 
ATOM     74  C   UNL A   1      38.367  28.860  30.645  1.00  0.00     0.134 A 
ATOM     75  C   UNL A   1      38.196  29.527  28.353  1.00  0.00     0.134 A 
ATOM     76  F   UNL A   1      39.059  28.358  31.678  1.00  0.00    -0.206 F 
ATOM     77  C   UNL A   1      37.028  29.195  30.851  1.00  0.00     0.040 A 
ATOM     78  C   UNL A   1      36.863  29.889  28.551  1.00  0.00     0.040 A 
ATOM     79  F   UNL A   1      38.726  29.706  27.134  1.00  0.00    -0.206 F 
ATOM     80  C   UNL A   1      36.274  29.718  29.802  1.00  0.00     0.006 A 
ENDBRANCH  52  73
BRANCH  64  81
ATOM     81  C   UNL A   1      44.935  32.597  29.912  1.00  0.00     0.057 A 
ATOM     82  C   UNL A   1      44.961  33.579  28.915  1.00  0.00     0.134 A 
ATOM     83  C   UNL A   1      45.168  33.010  31.231  1.00  0.00     0.134 A 
ATOM     84  F   UNL A   1      44.757  33.250  27.630  1.00  0.00    -0.206 F 
ATOM     85  C   UNL A   1      45.241  34.914  29.212  1.00  0.00     0.040 A 
ATOM     86  C   UNL A   1      45.417  34.346  31.545  1.00  0.00     0.040 A 
ATOM     87  F   UNL A   1      45.146  32.122  32.238  1.00  0.00    -0.206 F 
ATOM     88  C   UNL A   1      45.463  35.301  30.533  1.00  0.00     0.006 A 
ENDBRANCH  64  81
ENDBRANCH  38  39
ENDBRANCH  30  33
ENDBRANCH  28  29
ENDBRANCH   1  28
TORSDOF 12
ENDMDL
MODEL 3
REMARK VINA RESULT:     -13.1      4.828     10.297
REMARK SMILES Cc1nc2ccc(Cl)cc2cc1C(=O)N1CCC(C(=O)NCCCCNC(=O)c2ccc(-c3c4nc(c(-c5c(F)cccc5F)c5ccc([nH]5)c(-c5c(F)cccc5F)c5nc(c(-c6c(F)cccc6F)c6ccc3[nH]6)C=C5)C=C4)cc2)CC1
REMARK SMILES IDX 24 1 23 2 22 3 21 4 19 5 20 6 18 8 13 9 14 10 15 11 16 12
REMARK SMILES IDX 84 13 17 14 83 15 12 16 1 17 2 18 3 19 4 20 11 21 5 22 10 23
REMARK SMILES IDX 6 24 9 25 7 26 8 27 25 28 26 29 27 30 28 32 29 33 30 34
REMARK SMILES IDX 82 35 31 36 81 37 32 38 33 39 34 40 75 41 35 42 80 43 74 44
REMARK SMILES IDX 76 45 36 46 79 47 73 48 72 49 37 51 63 52 46 53 62 54 47 55
REMARK SMILES IDX 50 56 61 57 77 58 48 59 49 60 60 62 78 63 51 64 38 65 39 66
REMARK SMILES IDX 44 67 40 68 41 69 43 70 45 71 42 72 64 73 65 74 70 75 66 76
REMARK SMILES IDX 67 77 69 78 71 79 68 80 52 81 53 82 58 83 54 84 55 85 57 86
REMARK SMILES IDX 59 87 56 88
REMARK H PARENT 21 7 26 31 76 50 50 61
REMARK Flexibility Score: inf
ROOT
ATOM      1  C   UNL A   1      31.399  31.838  26.911  1.00  0.00     0.023 C 
ENDROOT
BRANCH   1   2
ATOM      2  C   UNL A   1      31.694  30.367  26.646  1.00  0.00     0.023 C 
BRANCH   2   3
ATOM      3  C   UNL A   1      32.526  30.110  25.393  1.00  0.00     0.116 C 
BRANCH   3   4
ATOM      4  N   UNL A   1      31.731  29.520  24.327  1.00  0.00    -0.356 N 
ATOM      5  C   UNL A   1      31.775  28.276  23.776  1.00  0.00     0.223 C 
ATOM      6  O   UNL A   1      31.003  28.024  22.848  1.00  0.00    -0.275 OA
ATOM      7  H   UNL A   1      31.050  30.118  23.942  1.00  0.00     0.163 HD
BRANCH   5   8
ATOM      8  C   UNL A   1      32.736  27.218  24.292  1.00  0.00     0.082 C 
ATOM      9  C   UNL A   1      33.019  23.128  25.405  1.00  0.00     0.255 C 
ATOM     10  O   UNL A   1      32.077  22.736  26.087  1.00  0.00    -0.269 OA
ATOM     11  N   UNL A   1      33.149  24.470  25.033  1.00  0.00    -0.339 N 
ATOM     12  C   UNL A   1      33.024  25.449  26.098  1.00  0.00     0.120 C 
ATOM     13  C   UNL A   1      33.734  24.935  23.777  1.00  0.00     0.120 C 
ATOM     14  C   UNL A   1      32.298  26.703  25.668  1.00  0.00     0.035 C 
ATOM     15  C   UNL A   1      32.989  26.140  23.225  1.00  0.00     0.035 C 
BRANCH   9  16
ATOM     16  C   UNL A   1      34.171  22.217  25.151  1.00  0.00     0.061 A 
ATOM     17  C   UNL A   1      32.748  20.265  24.313  1.00  0.00     0.067 C 
ATOM     18  C   UNL A   1      34.050  20.905  24.695  1.00  0.00     0.051 A 
ATOM     19  N   UNL A   1      35.126  20.060  24.626  1.00  0.00    -0.252 NA
ATOM     20  C   UNL A   1      36.343  20.498  25.000  1.00  0.00     0.071 A 
ATOM     21  C   UNL A   1      35.442  22.643  25.558  1.00  0.00     0.026 A 
ATOM     22  C   UNL A   1      37.444  19.651  24.964  1.00  0.00     0.030 A 
ATOM     23  C   UNL A   1      36.549  21.808  25.458  1.00  0.00     0.002 A 
ATOM     24  C   UNL A   1      38.724  20.089  25.333  1.00  0.00     0.023 A 
ATOM     25  C   UNL A   1      37.825  22.264  25.822  1.00  0.00     0.030 A 
ATOM     26  C   UNL A   1      38.910  21.402  25.748  1.00  0.00     0.041 A 
ATOM     27  Cl  UNL A   1      40.477  21.965  26.171  1.00  0.00    -0.084 Cl
ENDBRANCH   9  16
ENDBRANCH   5   8
ENDBRANCH   3   4
ENDBRANCH   2   3
ENDBRANCH   1   2
BRANCH   1  28
ATOM     28  C   UNL A   1      32.631  32.728  26.967  1.00  0.00     0.116 C 
BRANCH  28  29
ATOM     29  N   UNL A   1      32.355  34.049  27.512  1.00  0.00    -0.352 N 
ATOM     30  C   UNL A   1      32.984  34.695  28.546  1.00  0.00     0.251 C 
ATOM     31  H   UNL A   1      31.621  34.543  27.082  1.00  0.00     0.163 HD
ATOM     32  O   UNL A   1      32.542  35.755  28.980  1.00  0.00    -0.269 OA
BRANCH  30  33
ATOM     33  C   UNL A   1      34.184  34.087  29.152  1.00  0.00     0.039 A 
ATOM     34  C   UNL A   1      34.026  33.135  30.159  1.00  0.00     0.014 A 
ATOM     35  C   UNL A   1      35.460  34.439  28.702  1.00  0.00     0.014 A 
ATOM     36  C   UNL A   1      35.152  32.503  30.689  1.00  0.00     0.010 A 
ATOM     37  C   UNL A   1      36.568  33.739  29.159  1.00  0.00     0.010 A 
ATOM     38  C   UNL A   1      36.429  32.784  30.177  1.00  0.00    -0.014 A 
BRANCH  38  39
ATOM     39  C   UNL A   1      37.638  32.127  30.729  1.00  0.00     0.031 A 
ATOM     40  C   UNL A   1      38.248  32.639  32.006  1.00  0.00     0.074 A 
ATOM     41  C   UNL A   1      38.216  31.111  30.063  1.00  0.00     0.049 A 
ATOM     42  N   UNL A   1      39.323  32.231  32.633  1.00  0.00    -0.248 NA
ATOM     43  C   UNL A   1      37.583  33.787  32.642  1.00  0.00     0.031 C 
ATOM     44  C   UNL A   1      37.755  30.563  28.786  1.00  0.00     0.029 A 
ATOM     45  N   UNL A   1      39.323  30.362  30.367  1.00  0.00    -0.354 N 
ATOM     46  C   UNL A   1      39.465  33.081  33.723  1.00  0.00     0.074 A 
ATOM     47  C   UNL A   1      38.417  34.071  33.628  1.00  0.00     0.031 C 
ATOM     48  C   UNL A   1      38.557  29.547  28.432  1.00  0.00     0.029 A 
ATOM     49  C   UNL A   1      39.605  29.394  29.436  1.00  0.00     0.049 A 
ATOM     50  H   UNL A   1      39.865  30.504  31.177  1.00  0.00     0.167 HD
ATOM     51  C   UNL A   1      40.369  33.023  34.730  1.00  0.00     0.037 A 
ATOM     52  C   UNL A   1      40.596  28.484  29.398  1.00  0.00     0.037 A 
ATOM     53  C   UNL A   1      41.400  32.025  34.828  1.00  0.00     0.049 A 
ATOM     54  C   UNL A   1      41.583  28.428  30.530  1.00  0.00     0.074 A 
ATOM     55  C   UNL A   1      42.334  31.843  35.831  1.00  0.00     0.029 A 
ATOM     56  N   UNL A   1      41.635  31.040  33.879  1.00  0.00    -0.354 N 
ATOM     57  N   UNL A   1      41.667  29.190  31.594  1.00  0.00    -0.248 NA
ATOM     58  C   UNL A   1      42.603  27.373  30.465  1.00  0.00     0.031 C 
ATOM     59  C   UNL A   1      43.167  30.780  35.465  1.00  0.00     0.029 A 
ATOM     60  C   UNL A   1      42.712  30.259  34.264  1.00  0.00     0.049 A 
ATOM     61  H   UNL A   1      41.113  30.915  33.054  1.00  0.00     0.167 HD
ATOM     62  C   UNL A   1      42.725  28.687  32.342  1.00  0.00     0.074 A 
ATOM     63  C   UNL A   1      43.244  27.549  31.612  1.00  0.00     0.031 C 
ATOM     64  C   UNL A   1      43.216  29.125  33.528  1.00  0.00     0.037 A 
BRANCH  51  65
ATOM     65  C   UNL A   1      40.272  34.080  35.795  1.00  0.00     0.057 A 
ATOM     66  C   UNL A   1      39.463  33.920  36.930  1.00  0.00     0.134 A 
ATOM     67  C   UNL A   1      40.982  35.281  35.679  1.00  0.00     0.134 A 
ATOM     68  F   UNL A   1      38.743  32.800  37.100  1.00  0.00    -0.206 F 
ATOM     69  C   UNL A   1      39.327  34.933  37.882  1.00  0.00     0.040 A 
ATOM     70  C   UNL A   1      40.883  36.286  36.642  1.00  0.00     0.040 A 
ATOM     71  F   UNL A   1      41.781  35.501  34.623  1.00  0.00    -0.206 F 
ATOM     72  C   UNL A   1      40.043  36.119  37.741  1.00  0.00     0.006 A 
ENDBRANCH  51  65
BRANCH  52  73
ATOM     73  C   UNL A   1      40.672  27.527  28.265  1.00  0.00     0.057 A 
ATOM     74  C   UNL A   1      39.955  26.326  28.283  1.00  0.00     0.134 A 
ATOM     75  C   UNL A   1      41.445  27.800  27.130  1.00  0.00     0.134 A 
ATOM     76  F   UNL A   1      39.209  26.001  29.349  1.00  0.00    -0.206 F 
ATOM     77  C   UNL A   1      40.012  25.424  27.219  1.00  0.00     0.040 A 
ATOM     78  C   UNL A   1      41.491  26.919  26.049  1.00  0.00     0.040 A 
ATOM     79  F   UNL A   1      42.147  28.940  27.047  1.00  0.00    -0.206 F 
ATOM     80  C   UNL A   1      40.778  25.724  26.095  1.00  0.00     0.006 A 
ENDBRANCH  52  73
BRANCH  64  81
ATOM     81  C   UNL A   1      44.343  28.339  34.137  1.00  0.00     0.057 A 
ATOM     82  C   UNL A   1      44.123  27.202  34.924  1.00  0.00     0.134 A 
ATOM     83  C   UNL A   1      45.673  28.716  33.906  1.00  0.00     0.134 A 
ATOM     84  F   UNL A   1      42.874  26.792  35.193  1.00  0.00    -0.206 F 
ATOM     85  C   UNL A   1      45.182  26.488  35.487  1.00  0.00     0.040 A 
ATOM     86  C   UNL A   1      46.741  27.992  34.436  1.00  0.00     0.040 A 
ATOM     87  F   UNL A   1      45.956  29.789  33.151  1.00  0.00    -0.206 F 
ATOM     88  C   UNL A   1      46.497  26.879  35.237  1.00  0.00     0.006 A 
ENDBRANCH  64  81
ENDBRANCH  38  39
ENDBRANCH  30  33
ENDBRANCH  28  29
ENDBRANCH   1  28
TORSDOF 12
ENDMDL
