MODEL 1
REMARK VINA RESULT:     -12.8      0.000      0.000
REMARK SMILES Cc1c(Cl)cccc1NC(=O)NCc1cn([C@@H]2C[NH2+][C@H](C(=O)NCCCCNC(=O)c3ccc(-c4c5nc(c(-c6c(F)cccc6F)c6ccc([nH]6)c(-c6c(F)cccc6F)c6nc(c(-c7c(F)cccc7F)c7ccc4[nH]7)C=C6)C=C5)cc3)C2)nn1
REMARK SMILES IDX 24 1 23 2 21 3 22 4 20 6 17 7 18 8 85 9 19 10 16 13 14 14
REMARK SMILES IDX 15 15 87 16 86 17 13 18 12 19 9 20 10 21 11 23 8 25 1 26
REMARK SMILES IDX 2 27 3 28 4 29 5 30 7 31 6 32 25 33 26 34 27 35 28 36 29 37
REMARK SMILES IDX 30 39 31 40 32 41 84 42 33 43 83 44 34 45 35 46 36 47 77 48
REMARK SMILES IDX 37 49 82 50 76 51 78 52 38 53 81 54 75 55 74 56 39 58 65 59
REMARK SMILES IDX 48 60 64 61 49 62 52 63 63 64 79 65 50 66 51 67 62 69 80 70
REMARK SMILES IDX 53 71 40 72 41 73 46 74 42 75 43 76 45 77 47 78 44 79 66 80
REMARK SMILES IDX 67 81 72 82 68 83 69 84 71 85 73 86 70 87 54 88 55 89 60 90
REMARK SMILES IDX 56 91 57 92 59 93 61 94 58 95
REMARK H PARENT 23 5 19 11 19 12 9 22 12 24 28 38 78 57 52 68
REMARK Flexibility Score: inf
ROOT
ATOM      1  C   UNL A   1      38.821  21.242  25.581  1.00  0.00     0.116 C 
ENDROOT
BRANCH   1   2
ATOM      2  N   UNL A   1      38.061  22.430  25.917  1.00  0.00    -0.351 N 
ATOM      3  C   UNL A   1      36.731  22.692  26.001  1.00  0.00     0.278 C 
ATOM      4  O   UNL A   1      36.438  23.856  26.315  1.00  0.00    -0.268 OA
ATOM      5  H   UNL A   1      38.625  23.209  26.128  1.00  0.00     0.163 HD
BRANCH   3   6
ATOM      6  C   UNL A   1      35.583  21.672  25.830  1.00  0.00     0.274 C 
ATOM      7  C   UNL A   1      33.192  21.870  25.420  1.00  0.00     0.170 C 
ATOM      8  C   UNL A   1      33.488  21.866  26.913  1.00  0.00     0.288 C 
ATOM      9  C   UNL A   1      34.559  22.184  24.815  1.00  0.00     0.109 C 
ATOM     10  N   UNL A   1      34.842  21.300  27.054  1.00  0.00    -0.334 N 
ATOM     11  H   UNL A   1      34.793  20.284  27.140  1.00  0.00     0.347 HD
ATOM     12  H   UNL A   1      35.306  21.656  27.889  1.00  0.00     0.347 HD
BRANCH   7  13
ATOM     13  N   UNL A   1      32.155  22.806  25.055  1.00  0.00    -0.243 N 
ATOM     14  C   UNL A   1      30.982  24.288  24.008  1.00  0.00     0.102 A 
ATOM     15  C   UNL A   1      31.862  23.247  23.807  1.00  0.00     0.137 A 
ATOM     16  N   UNL A   1      30.719  24.403  25.342  1.00  0.00    -0.134 NA
ATOM     17  N   UNL A   1      31.438  23.473  25.977  1.00  0.00    -0.067 NA
BRANCH  14  18
ATOM     18  C   UNL A   1      30.694  25.268  22.948  1.00  0.00     0.178 C 
BRANCH  18  19
ATOM     19  N   UNL A   1      31.434  25.265  21.735  1.00  0.00    -0.332 N 
ATOM     20  N   UNL A   1      33.606  26.131  22.341  1.00  0.00    -0.308 N 
ATOM     21  C   UNL A   1      32.735  25.513  21.510  1.00  0.00     0.319 C 
ATOM     22  H   UNL A   1      34.477  26.250  21.895  1.00  0.00     0.171 HD
ATOM     23  O   UNL A   1      33.165  25.225  20.386  1.00  0.00    -0.248 OA
ATOM     24  H   UNL A   1      30.909  25.048  20.930  1.00  0.00     0.165 HD
BRANCH  20  25
ATOM     25  C   UNL A   1      33.652  26.660  23.655  1.00  0.00     0.047 A 
ATOM     26  C   UNL A   1      33.079  29.011  22.787  1.00  0.00     0.048 C 
ATOM     27  C   UNL A   1      33.275  28.004  23.893  1.00  0.00    -0.009 A 
ATOM     28  C   UNL A   1      33.121  28.441  25.233  1.00  0.00     0.046 A 
ATOM     29  Cl  UNL A   1      32.654  30.062  25.624  1.00  0.00    -0.084 Cl
ATOM     30  C   UNL A   1      33.339  27.581  26.307  1.00  0.00     0.021 A 
ATOM     31  C   UNL A   1      34.088  25.913  24.750  1.00  0.00     0.026 A 
ATOM     32  C   UNL A   1      33.845  26.318  26.064  1.00  0.00     0.004 A 
ENDBRANCH  20  25
ENDBRANCH  18  19
ENDBRANCH  14  18
ENDBRANCH   7  13
ENDBRANCH   3   6
ENDBRANCH   1   2
BRANCH   1  33
ATOM     33  C   UNL A   1      40.178  21.182  26.287  1.00  0.00     0.023 C 
BRANCH  33  34
ATOM     34  C   UNL A   1      40.923  19.839  26.224  1.00  0.00     0.023 C 
BRANCH  34  35
ATOM     35  C   UNL A   1      42.297  19.824  26.883  1.00  0.00     0.116 C 
BRANCH  35  36
ATOM     36  N   UNL A   1      43.407  19.655  25.940  1.00  0.00    -0.352 N 
ATOM     37  C   UNL A   1      44.003  20.620  25.135  1.00  0.00     0.251 C 
ATOM     38  H   UNL A   1      43.778  18.746  25.868  1.00  0.00     0.163 HD
ATOM     39  O   UNL A   1      44.630  20.322  24.135  1.00  0.00    -0.269 OA
BRANCH  37  40
ATOM     40  C   UNL A   1      43.889  22.029  25.554  1.00  0.00     0.039 A 
ATOM     41  C   UNL A   1      43.022  22.945  24.949  1.00  0.00     0.014 A 
ATOM     42  C   UNL A   1      44.671  22.398  26.638  1.00  0.00     0.014 A 
ATOM     43  C   UNL A   1      42.912  24.221  25.503  1.00  0.00     0.010 A 
ATOM     44  C   UNL A   1      44.376  23.539  27.318  1.00  0.00     0.010 A 
ATOM     45  C   UNL A   1      43.592  24.499  26.697  1.00  0.00    -0.014 A 
BRANCH  45  46
ATOM     46  C   UNL A   1      43.464  25.755  27.413  1.00  0.00     0.031 A 
ATOM     47  C   UNL A   1      44.427  26.797  26.999  1.00  0.00     0.074 A 
ATOM     48  C   UNL A   1      42.369  26.026  28.157  1.00  0.00     0.049 A 
ATOM     49  N   UNL A   1      45.396  27.274  27.704  1.00  0.00    -0.248 NA
ATOM     50  C   UNL A   1      44.432  27.248  25.598  1.00  0.00     0.031 C 
ATOM     51  C   UNL A   1      41.197  25.179  28.387  1.00  0.00     0.029 A 
ATOM     52  N   UNL A   1      42.008  27.189  28.759  1.00  0.00    -0.354 N 
ATOM     53  C   UNL A   1      45.979  28.264  26.923  1.00  0.00     0.074 A 
ATOM     54  C   UNL A   1      45.506  28.041  25.582  1.00  0.00     0.031 C 
ATOM     55  C   UNL A   1      40.169  25.925  28.843  1.00  0.00     0.029 A 
ATOM     56  C   UNL A   1      40.656  27.262  29.101  1.00  0.00     0.049 A 
ATOM     57  H   UNL A   1      42.645  27.918  28.940  1.00  0.00     0.167 HD
ATOM     58  C   UNL A   1      46.572  29.344  27.504  1.00  0.00     0.037 A 
ATOM     59  C   UNL A   1      40.002  28.375  29.523  1.00  0.00     0.037 A 
ATOM     60  C   UNL A   1      46.763  29.121  28.919  1.00  0.00     0.049 A 
ATOM     61  C   UNL A   1      41.047  29.309  30.031  1.00  0.00     0.074 A 
ATOM     62  C   UNL A   1      47.406  28.151  29.666  1.00  0.00     0.029 A 
ATOM     63  N   UNL A   1      45.888  29.737  29.785  1.00  0.00    -0.354 N 
ATOM     64  N   UNL A   1      41.764  29.066  31.095  1.00  0.00    -0.248 NA
ATOM     65  C   UNL A   1      41.648  30.220  29.067  1.00  0.00     0.031 C 
ATOM     66  C   UNL A   1      46.525  27.890  30.757  1.00  0.00     0.029 A 
ATOM     67  C   UNL A   1      45.458  28.786  30.674  1.00  0.00     0.049 A 
ATOM     68  H   UNL A   1      45.620  30.684  29.767  1.00  0.00     0.167 HD
ATOM     69  C   UNL A   1      43.059  29.419  30.737  1.00  0.00     0.074 A 
ATOM     70  C   UNL A   1      42.914  30.183  29.496  1.00  0.00     0.031 C 
ATOM     71  C   UNL A   1      44.147  28.798  31.283  1.00  0.00     0.037 A 
BRANCH  58  72
ATOM     72  C   UNL A   1      46.612  30.730  26.911  1.00  0.00     0.057 A 
ATOM     73  C   UNL A   1      47.829  31.437  26.935  1.00  0.00     0.134 A 
ATOM     74  C   UNL A   1      45.478  31.507  26.599  1.00  0.00     0.134 A 
ATOM     75  F   UNL A   1      48.982  30.813  27.220  1.00  0.00    -0.206 F 
ATOM     76  C   UNL A   1      47.897  32.823  26.760  1.00  0.00     0.040 A 
ATOM     77  C   UNL A   1      45.543  32.883  26.368  1.00  0.00     0.040 A 
ATOM     78  F   UNL A   1      44.237  31.009  26.598  1.00  0.00    -0.206 F 
ATOM     79  C   UNL A   1      46.749  33.553  26.486  1.00  0.00     0.006 A 
ENDBRANCH  58  72
BRANCH  59  80
ATOM     80  C   UNL A   1      38.617  28.802  29.198  1.00  0.00     0.057 A 
ATOM     81  C   UNL A   1      37.644  28.927  30.201  1.00  0.00     0.134 A 
ATOM     82  C   UNL A   1      38.280  29.358  27.948  1.00  0.00     0.134 A 
ATOM     83  F   UNL A   1      37.876  28.460  31.435  1.00  0.00    -0.206 F 
ATOM     84  C   UNL A   1      36.427  29.595  29.986  1.00  0.00     0.040 A 
ATOM     85  C   UNL A   1      37.069  30.023  27.721  1.00  0.00     0.040 A 
ATOM     86  F   UNL A   1      39.145  29.348  26.924  1.00  0.00    -0.206 F 
ATOM     87  C   UNL A   1      36.143  30.159  28.747  1.00  0.00     0.006 A 
ENDBRANCH  59  80
BRANCH  71  88
ATOM     88  C   UNL A   1      43.947  27.874  32.456  1.00  0.00     0.057 A 
ATOM     89  C   UNL A   1      43.841  26.477  32.361  1.00  0.00     0.134 A 
ATOM     90  C   UNL A   1      44.054  28.406  33.746  1.00  0.00     0.134 A 
ATOM     91  F   UNL A   1      43.839  25.859  31.175  1.00  0.00    -0.206 F 
ATOM     92  C   UNL A   1      43.804  25.658  33.495  1.00  0.00     0.040 A 
ATOM     93  C   UNL A   1      44.054  27.598  34.885  1.00  0.00     0.040 A 
ATOM     94  F   UNL A   1      44.219  29.727  33.919  1.00  0.00    -0.206 F 
ATOM     95  C   UNL A   1      43.919  26.218  34.763  1.00  0.00     0.006 A 
ENDBRANCH  71  88
ENDBRANCH  45  46
ENDBRANCH  37  40
ENDBRANCH  35  36
ENDBRANCH  34  35
ENDBRANCH  33  34
ENDBRANCH   1  33
TORSDOF 15
ENDMDL
MODEL 2
REMARK VINA RESULT:     -12.2      2.839      7.921
REMARK SMILES Cc1c(Cl)cccc1NC(=O)NCc1cn([C@@H]2C[NH2+][C@H](C(=O)NCCCCNC(=O)c3ccc(-c4c5nc(c(-c6c(F)cccc6F)c6ccc([nH]6)c(-c6c(F)cccc6F)c6nc(c(-c7c(F)cccc7F)c7ccc4[nH]7)C=C6)C=C5)cc3)C2)nn1
REMARK SMILES IDX 24 1 23 2 21 3 22 4 20 6 17 7 18 8 85 9 19 10 16 13 14 14
REMARK SMILES IDX 15 15 87 16 86 17 13 18 12 19 9 20 10 21 11 23 8 25 1 26
REMARK SMILES IDX 2 27 3 28 4 29 5 30 7 31 6 32 25 33 26 34 27 35 28 36 29 37
REMARK SMILES IDX 30 39 31 40 32 41 84 42 33 43 83 44 34 45 35 46 36 47 77 48
REMARK SMILES IDX 37 49 82 50 76 51 78 52 38 53 81 54 75 55 74 56 39 58 65 59
REMARK SMILES IDX 48 60 64 61 49 62 52 63 63 64 79 65 50 66 51 67 62 69 80 70
REMARK SMILES IDX 53 71 40 72 41 73 46 74 42 75 43 76 45 77 47 78 44 79 66 80
REMARK SMILES IDX 67 81 72 82 68 83 69 84 71 85 73 86 70 87 54 88 55 89 60 90
REMARK SMILES IDX 56 91 57 92 59 93 61 94 58 95
REMARK H PARENT 23 5 19 11 19 12 9 22 12 24 28 38 78 57 52 68
REMARK Flexibility Score: inf
ROOT
ATOM      1  C   UNL A   1      34.794  28.834  26.887  1.00  0.00     0.116 C 
ENDROOT
BRANCH   1   2
ATOM      2  N   UNL A   1      33.461  28.618  27.414  1.00  0.00    -0.351 N 
ATOM      3  C   UNL A   1      32.219  28.725  26.877  1.00  0.00     0.278 C 
ATOM      4  O   UNL A   1      31.283  28.464  27.649  1.00  0.00    -0.268 OA
ATOM      5  H   UNL A   1      33.455  28.335  28.357  1.00  0.00     0.163 HD
BRANCH   3   6
ATOM      6  C   UNL A   1      31.880  29.048  25.404  1.00  0.00     0.274 C 
ATOM      7  C   UNL A   1      32.141  27.845  23.306  1.00  0.00     0.170 C 
ATOM      8  C   UNL A   1      33.376  28.683  23.607  1.00  0.00     0.288 C 
ATOM      9  C   UNL A   1      31.447  27.781  24.665  1.00  0.00     0.109 C 
ATOM     10  N   UNL A   1      32.950  29.682  24.605  1.00  0.00    -0.334 N 
ATOM     11  H   UNL A   1      32.593  30.517  24.138  1.00  0.00     0.347 HD
ATOM     12  H   UNL A   1      33.730  29.971  25.194  1.00  0.00     0.347 HD
BRANCH   7  13
ATOM     13  N   UNL A   1      32.462  26.553  22.746  1.00  0.00    -0.243 N 
ATOM     14  C   UNL A   1      32.720  24.425  22.467  1.00  0.00     0.102 A 
ATOM     15  C   UNL A   1      31.927  25.359  23.099  1.00  0.00     0.137 A 
ATOM     16  N   UNL A   1      33.652  25.070  21.708  1.00  0.00    -0.134 NA
ATOM     17  N   UNL A   1      33.475  26.383  21.876  1.00  0.00    -0.067 NA
BRANCH  14  18
ATOM     18  C   UNL A   1      32.709  23.010  22.866  1.00  0.00     0.178 C 
BRANCH  18  19
ATOM     19  N   UNL A   1      31.742  22.520  23.785  1.00  0.00    -0.332 N 
ATOM     20  N   UNL A   1      33.033  21.724  25.665  1.00  0.00    -0.308 N 
ATOM     21  C   UNL A   1      31.884  22.091  25.050  1.00  0.00     0.319 C 
ATOM     22  H   UNL A   1      32.841  21.377  26.567  1.00  0.00     0.171 HD
ATOM     23  O   UNL A   1      30.843  21.927  25.698  1.00  0.00    -0.248 OA
ATOM     24  H   UNL A   1      30.820  22.490  23.440  1.00  0.00     0.165 HD
BRANCH  20  25
ATOM     25  C   UNL A   1      34.426  21.685  25.411  1.00  0.00     0.047 A 
ATOM     26  C   UNL A   1      34.625  24.218  25.805  1.00  0.00     0.048 C 
ATOM     27  C   UNL A   1      35.216  22.844  25.602  1.00  0.00    -0.009 A 
ATOM     28  C   UNL A   1      36.627  22.723  25.553  1.00  0.00     0.046 A 
ATOM     29  Cl  UNL A   1      37.676  24.082  25.784  1.00  0.00    -0.084 Cl
ATOM     30  C   UNL A   1      37.243  21.496  25.315  1.00  0.00     0.021 A 
ATOM     31  C   UNL A   1      35.072  20.539  24.943  1.00  0.00     0.026 A 
ATOM     32  C   UNL A   1      36.461  20.404  24.989  1.00  0.00     0.004 A 
ENDBRANCH  20  25
ENDBRANCH  18  19
ENDBRANCH  14  18
ENDBRANCH   7  13
ENDBRANCH   3   6
ENDBRANCH   1   2
BRANCH   1  33
ATOM     33  C   UNL A   1      35.519  30.006  27.556  1.00  0.00     0.023 C 
BRANCH  33  34
ATOM     34  C   UNL A   1      34.701  31.291  27.758  1.00  0.00     0.023 C 
BRANCH  34  35
ATOM     35  C   UNL A   1      35.480  32.480  28.306  1.00  0.00     0.116 C 
BRANCH  35  36
ATOM     36  N   UNL A   1      35.065  32.894  29.651  1.00  0.00    -0.352 N 
ATOM     37  C   UNL A   1      35.316  32.255  30.860  1.00  0.00     0.251 C 
ATOM     38  H   UNL A   1      34.545  33.728  29.704  1.00  0.00     0.163 HD
ATOM     39  O   UNL A   1      34.625  32.452  31.844  1.00  0.00    -0.269 OA
BRANCH  37  40
ATOM     40  C   UNL A   1      36.480  31.354  30.933  1.00  0.00     0.039 A 
ATOM     41  C   UNL A   1      36.378  29.960  30.907  1.00  0.00     0.014 A 
ATOM     42  C   UNL A   1      37.718  31.976  30.980  1.00  0.00     0.014 A 
ATOM     43  C   UNL A   1      37.553  29.208  30.863  1.00  0.00     0.010 A 
ATOM     44  C   UNL A   1      38.838  31.262  30.683  1.00  0.00     0.010 A 
ATOM     45  C   UNL A   1      38.778  29.878  30.743  1.00  0.00    -0.014 A 
BRANCH  45  46
ATOM     46  C   UNL A   1      40.048  29.194  30.583  1.00  0.00     0.031 A 
ATOM     47  C   UNL A   1      40.768  28.936  31.848  1.00  0.00     0.074 A 
ATOM     48  C   UNL A   1      40.373  28.586  29.421  1.00  0.00     0.049 A 
ATOM     49  N   UNL A   1      41.877  29.475  32.226  1.00  0.00    -0.248 NA
ATOM     50  C   UNL A   1      40.116  28.122  32.887  1.00  0.00     0.031 C 
ATOM     51  C   UNL A   1      39.588  28.513  28.187  1.00  0.00     0.029 A 
ATOM     52  N   UNL A   1      41.429  27.778  29.141  1.00  0.00    -0.354 N 
ATOM     53  C   UNL A   1      42.189  28.880  33.443  1.00  0.00     0.074 A 
ATOM     54  C   UNL A   1      40.978  28.250  33.899  1.00  0.00     0.031 C 
ATOM     55  C   UNL A   1      40.052  27.517  27.402  1.00  0.00     0.029 A 
ATOM     56  C   UNL A   1      41.266  26.999  27.994  1.00  0.00     0.049 A 
ATOM     57  H   UNL A   1      42.239  27.745  29.699  1.00  0.00     0.167 HD
ATOM     58  C   UNL A   1      43.488  28.722  33.823  1.00  0.00     0.037 A 
ATOM     59  C   UNL A   1      42.070  25.976  27.607  1.00  0.00     0.037 A 
ATOM     60  C   UNL A   1      44.364  29.508  32.983  1.00  0.00     0.049 A 
ATOM     61  C   UNL A   1      43.371  26.177  28.307  1.00  0.00     0.074 A 
ATOM     62  C   UNL A   1      44.443  30.850  32.657  1.00  0.00     0.029 A 
ATOM     63  N   UNL A   1      45.070  28.847  32.004  1.00  0.00    -0.354 N 
ATOM     64  N   UNL A   1      44.168  27.182  28.056  1.00  0.00    -0.248 NA
ATOM     65  C   UNL A   1      43.514  25.582  29.629  1.00  0.00     0.031 C 
ATOM     66  C   UNL A   1      44.723  30.868  31.259  1.00  0.00     0.029 A 
ATOM     67  C   UNL A   1      44.907  29.550  30.838  1.00  0.00     0.049 A 
ATOM     68  H   UNL A   1      45.593  28.021  32.119  1.00  0.00     0.167 HD
ATOM     69  C   UNL A   1      44.581  27.625  29.306  1.00  0.00     0.074 A 
ATOM     70  C   UNL A   1      44.194  26.560  30.233  1.00  0.00     0.031 C 
ATOM     71  C   UNL A   1      44.899  28.936  29.530  1.00  0.00     0.037 A 
BRANCH  58  72
ATOM     72  C   UNL A   1      44.011  27.581  34.659  1.00  0.00     0.057 A 
ATOM     73  C   UNL A   1      44.813  27.879  35.776  1.00  0.00     0.134 A 
ATOM     74  C   UNL A   1      44.020  26.229  34.262  1.00  0.00     0.134 A 
ATOM     75  F   UNL A   1      44.892  29.131  36.253  1.00  0.00    -0.206 F 
ATOM     76  C   UNL A   1      45.635  26.926  36.387  1.00  0.00     0.040 A 
ATOM     77  C   UNL A   1      44.796  25.258  34.900  1.00  0.00     0.040 A 
ATOM     78  F   UNL A   1      43.368  25.786  33.182  1.00  0.00    -0.206 F 
ATOM     79  C   UNL A   1      45.636  25.612  35.941  1.00  0.00     0.006 A 
ENDBRANCH  58  72
BRANCH  59  80
ATOM     80  C   UNL A   1      41.677  24.692  26.973  1.00  0.00     0.057 A 
ATOM     81  C   UNL A   1      42.449  24.125  25.947  1.00  0.00     0.134 A 
ATOM     82  C   UNL A   1      40.695  23.851  27.532  1.00  0.00     0.134 A 
ATOM     83  F   UNL A   1      43.432  24.829  25.368  1.00  0.00    -0.206 F 
ATOM     84  C   UNL A   1      42.280  22.795  25.527  1.00  0.00     0.040 A 
ATOM     85  C   UNL A   1      40.515  22.524  27.121  1.00  0.00     0.040 A 
ATOM     86  F   UNL A   1      39.928  24.257  28.554  1.00  0.00    -0.206 F 
ATOM     87  C   UNL A   1      41.320  21.986  26.126  1.00  0.00     0.006 A 
ENDBRANCH  59  80
BRANCH  71  88
ATOM     88  C   UNL A   1      45.021  29.868  28.353  1.00  0.00     0.057 A 
ATOM     89  C   UNL A   1      43.973  30.653  27.846  1.00  0.00     0.134 A 
ATOM     90  C   UNL A   1      46.297  30.119  27.834  1.00  0.00     0.134 A 
ATOM     91  F   UNL A   1      42.736  30.569  28.347  1.00  0.00    -0.206 F 
ATOM     92  C   UNL A   1      44.180  31.610  26.847  1.00  0.00     0.040 A 
ATOM     93  C   UNL A   1      46.524  31.095  26.863  1.00  0.00     0.040 A 
ATOM     94  F   UNL A   1      47.361  29.452  28.310  1.00  0.00    -0.206 F 
ATOM     95  C   UNL A   1      45.462  31.839  26.357  1.00  0.00     0.006 A 
ENDBRANCH  71  88
ENDBRANCH  45  46
ENDBRANCH  37  40
ENDBRANCH  35  36
ENDBRANCH  34  35
ENDBRANCH  33  34
ENDBRANCH   1  33
TORSDOF 15
ENDMDL
MODEL 3
REMARK VINA RESULT:     -12.1      4.486      9.633
REMARK SMILES Cc1c(Cl)cccc1NC(=O)NCc1cn([C@@H]2C[NH2+][C@H](C(=O)NCCCCNC(=O)c3ccc(-c4c5nc(c(-c6c(F)cccc6F)c6ccc([nH]6)c(-c6c(F)cccc6F)c6nc(c(-c7c(F)cccc7F)c7ccc4[nH]7)C=C6)C=C5)cc3)C2)nn1
REMARK SMILES IDX 24 1 23 2 21 3 22 4 20 6 17 7 18 8 85 9 19 10 16 13 14 14
REMARK SMILES IDX 15 15 87 16 86 17 13 18 12 19 9 20 10 21 11 23 8 25 1 26
REMARK SMILES IDX 2 27 3 28 4 29 5 30 7 31 6 32 25 33 26 34 27 35 28 36 29 37
REMARK SMILES IDX 30 39 31 40 32 41 84 42 33 43 83 44 34 45 35 46 36 47 77 48
REMARK SMILES IDX 37 49 82 50 76 51 78 52 38 53 81 54 75 55 74 56 39 58 65 59
REMARK SMILES IDX 48 60 64 61 49 62 52 63 63 64 79 65 50 66 51 67 62 69 80 70
REMARK SMILES IDX 53 71 40 72 41 73 46 74 42 75 43 76 45 77 47 78 44 79 66 80
REMARK SMILES IDX 67 81 72 82 68 83 69 84 71 85 73 86 70 87 54 88 55 89 60 90
REMARK SMILES IDX 56 91 57 92 59 93 61 94 58 95
REMARK H PARENT 23 5 19 11 19 12 9 22 12 24 28 38 78 57 52 68
REMARK Flexibility Score: inf
ROOT
ATOM      1  C   UNL A   1      33.173  33.139  27.985  1.00  0.00     0.116 C 
ENDROOT
BRANCH   1   2
ATOM      2  N   UNL A   1      33.976  31.932  27.972  1.00  0.00    -0.351 N 
ATOM      3  C   UNL A   1      33.816  30.713  27.396  1.00  0.00     0.278 C 
ATOM      4  O   UNL A   1      34.726  29.899  27.614  1.00  0.00    -0.268 OA
ATOM      5  H   UNL A   1      34.810  32.012  28.489  1.00  0.00     0.163 HD
BRANCH   3   6
ATOM      6  C   UNL A   1      32.674  30.291  26.444  1.00  0.00     0.274 C 
ATOM      7  C   UNL A   1      31.663  28.156  25.859  1.00  0.00     0.170 C 
ATOM      8  C   UNL A   1      32.832  28.475  24.936  1.00  0.00     0.288 C 
ATOM      9  C   UNL A   1      31.900  29.108  27.030  1.00  0.00     0.109 C 
ATOM     10  N   UNL A   1      33.064  29.925  25.066  1.00  0.00    -0.334 N 
ATOM     11  H   UNL A   1      32.493  30.436  24.391  1.00  0.00     0.347 HD
ATOM     12  H   UNL A   1      34.039  30.161  24.883  1.00  0.00     0.347 HD
BRANCH   7  13
ATOM     13  N   UNL A   1      31.605  26.763  26.232  1.00  0.00    -0.243 N 
ATOM     14  C   UNL A   1      32.037  24.654  26.427  1.00  0.00     0.102 A 
ATOM     15  C   UNL A   1      32.636  25.882  26.242  1.00  0.00     0.137 A 
ATOM     16  N   UNL A   1      30.694  24.830  26.590  1.00  0.00    -0.134 NA
ATOM     17  N   UNL A   1      30.441  26.137  26.482  1.00  0.00    -0.067 NA
BRANCH  14  18
ATOM     18  C   UNL A   1      32.751  23.400  26.144  1.00  0.00     0.178 C 
BRANCH  18  19
ATOM     19  N   UNL A   1      32.433  22.626  24.995  1.00  0.00    -0.332 N 
ATOM     20  N   UNL A   1      34.542  21.675  24.296  1.00  0.00    -0.308 N 
ATOM     21  C   UNL A   1      33.191  21.775  24.284  1.00  0.00     0.319 C 
ATOM     22  H   UNL A   1      34.841  21.022  23.623  1.00  0.00     0.171 HD
ATOM     23  O   UNL A   1      32.600  21.065  23.461  1.00  0.00    -0.248 OA
ATOM     24  H   UNL A   1      31.511  22.730  24.667  1.00  0.00     0.165 HD
BRANCH  20  25
ATOM     25  C   UNL A   1      35.656  22.220  24.980  1.00  0.00     0.047 A 
ATOM     26  C   UNL A   1      36.852  19.944  24.961  1.00  0.00     0.048 C 
ATOM     27  C   UNL A   1      36.816  21.436  25.187  1.00  0.00    -0.009 A 
ATOM     28  C   UNL A   1      37.988  22.067  25.676  1.00  0.00     0.046 A 
ATOM     29  Cl  UNL A   1      39.458  21.194  25.951  1.00  0.00    -0.084 Cl
ATOM     30  C   UNL A   1      38.013  23.431  25.959  1.00  0.00     0.021 A 
ATOM     31  C   UNL A   1      35.658  23.516  25.500  1.00  0.00     0.026 A 
ATOM     32  C   UNL A   1      36.837  24.153  25.890  1.00  0.00     0.004 A 
ENDBRANCH  20  25
ENDBRANCH  18  19
ENDBRANCH  14  18
ENDBRANCH   7  13
ENDBRANCH   3   6
ENDBRANCH   1   2
BRANCH   1  33
ATOM     33  C   UNL A   1      33.826  34.284  28.764  1.00  0.00     0.023 C 
BRANCH  33  34
ATOM     34  C   UNL A   1      32.969  35.540  28.982  1.00  0.00     0.023 C 
BRANCH  34  35
ATOM     35  C   UNL A   1      33.425  36.453  30.113  1.00  0.00     0.116 C 
BRANCH  35  36
ATOM     36  N   UNL A   1      32.658  36.291  31.354  1.00  0.00    -0.352 N 
ATOM     37  C   UNL A   1      32.739  35.259  32.283  1.00  0.00     0.251 C 
ATOM     38  H   UNL A   1      32.007  37.001  31.554  1.00  0.00     0.163 HD
ATOM     39  O   UNL A   1      31.824  35.014  33.049  1.00  0.00    -0.269 OA
BRANCH  37  40
ATOM     40  C   UNL A   1      33.993  34.486  32.344  1.00  0.00     0.039 A 
ATOM     41  C   UNL A   1      34.049  33.096  32.206  1.00  0.00     0.014 A 
ATOM     42  C   UNL A   1      35.150  35.233  32.502  1.00  0.00     0.014 A 
ATOM     43  C   UNL A   1      35.301  32.483  32.163  1.00  0.00     0.010 A 
ATOM     44  C   UNL A   1      36.355  34.671  32.208  1.00  0.00     0.010 A 
ATOM     45  C   UNL A   1      36.447  33.289  32.158  1.00  0.00    -0.014 A 
BRANCH  45  46
ATOM     46  C   UNL A   1      37.792  32.762  32.011  1.00  0.00     0.031 A 
ATOM     47  C   UNL A   1      38.534  32.613  33.280  1.00  0.00     0.074 A 
ATOM     48  C   UNL A   1      38.192  32.180  30.858  1.00  0.00     0.049 A 
ATOM     49  N   UNL A   1      39.568  33.289  33.651  1.00  0.00    -0.248 NA
ATOM     50  C   UNL A   1      37.982  31.742  34.331  1.00  0.00     0.031 C 
ATOM     51  C   UNL A   1      37.425  31.993  29.624  1.00  0.00     0.029 A 
ATOM     52  N   UNL A   1      39.339  31.502  30.592  1.00  0.00    -0.354 N 
ATOM     53  C   UNL A   1      39.946  32.755  34.877  1.00  0.00     0.074 A 
ATOM     54  C   UNL A   1      38.820  31.989  35.341  1.00  0.00     0.031 C 
ATOM     55  C   UNL A   1      38.009  31.049  28.856  1.00  0.00     0.029 A 
ATOM     56  C   UNL A   1      39.275  30.692  29.457  1.00  0.00     0.049 A 
ATOM     57  H   UNL A   1      40.145  31.577  31.151  1.00  0.00     0.167 HD
ATOM     58  C   UNL A   1      41.254  32.762  35.261  1.00  0.00     0.037 A 
ATOM     59  C   UNL A   1      40.199  29.768  29.088  1.00  0.00     0.037 A 
ATOM     60  C   UNL A   1      42.030  33.636  34.410  1.00  0.00     0.049 A 
ATOM     61  C   UNL A   1      41.464  30.136  29.786  1.00  0.00     0.074 A 
ATOM     62  C   UNL A   1      41.946  34.972  34.063  1.00  0.00     0.029 A 
ATOM     63  N   UNL A   1      42.814  33.050  33.442  1.00  0.00    -0.354 N 
ATOM     64  N   UNL A   1      42.134  31.227  29.520  1.00  0.00    -0.248 NA
ATOM     65  C   UNL A   1      41.674  29.584  31.117  1.00  0.00     0.031 C 
ATOM     66  C   UNL A   1      42.226  35.002  32.665  1.00  0.00     0.029 A 
ATOM     67  C   UNL A   1      42.570  33.710  32.265  1.00  0.00     0.049 A 
ATOM     68  H   UNL A   1      43.434  32.296  33.571  1.00  0.00     0.167 HD
ATOM     69  C   UNL A   1      42.486  31.736  30.763  1.00  0.00     0.074 A 
ATOM     70  C   UNL A   1      42.228  30.647  31.707  1.00  0.00     0.031 C 
ATOM     71  C   UNL A   1      42.642  33.079  30.967  1.00  0.00     0.037 A 
BRANCH  58  72
ATOM     72  C   UNL A   1      41.909  31.707  36.115  1.00  0.00     0.057 A 
ATOM     73  C   UNL A   1      42.734  32.119  37.178  1.00  0.00     0.134 A 
ATOM     74  C   UNL A   1      42.013  30.343  35.773  1.00  0.00     0.134 A 
ATOM     75  F   UNL A   1      42.729  33.392  37.600  1.00  0.00    -0.206 F 
ATOM     76  C   UNL A   1      43.661  31.265  37.786  1.00  0.00     0.040 A 
ATOM     77  C   UNL A   1      42.897  29.469  36.411  1.00  0.00     0.040 A 
ATOM     78  F   UNL A   1      41.352  29.801  34.746  1.00  0.00    -0.206 F 
ATOM     79  C   UNL A   1      43.751  29.936  37.394  1.00  0.00     0.006 A 
ENDBRANCH  58  72
BRANCH  59  80
ATOM     80  C   UNL A   1      39.967  28.436  28.473  1.00  0.00     0.057 A 
ATOM     81  C   UNL A   1      40.477  28.126  27.203  1.00  0.00     0.134 A 
ATOM     82  C   UNL A   1      39.478  27.344  29.217  1.00  0.00     0.134 A 
ATOM     83  F   UNL A   1      40.996  29.087  26.426  1.00  0.00    -0.206 F 
ATOM     84  C   UNL A   1      40.531  26.809  26.717  1.00  0.00     0.040 A 
ATOM     85  C   UNL A   1      39.524  26.028  28.742  1.00  0.00     0.040 A 
ATOM     86  F   UNL A   1      39.012  27.502  30.464  1.00  0.00    -0.206 F 
ATOM     87  C   UNL A   1      40.067  25.753  27.494  1.00  0.00     0.006 A 
ENDBRANCH  59  80
BRANCH  71  88
ATOM     88  C   UNL A   1      42.653  34.001  29.775  1.00  0.00     0.057 A 
ATOM     89  C   UNL A   1      41.536  34.711  29.306  1.00  0.00     0.134 A 
ATOM     90  C   UNL A   1      43.887  34.325  29.199  1.00  0.00     0.134 A 
ATOM     91  F   UNL A   1      40.329  34.555  29.862  1.00  0.00    -0.206 F 
ATOM     92  C   UNL A   1      41.638  35.665  28.288  1.00  0.00     0.040 A 
ATOM     93  C   UNL A   1      44.008  35.301  28.207  1.00  0.00     0.040 A 
ATOM     94  F   UNL A   1      45.010  33.735  29.635  1.00  0.00    -0.206 F 
ATOM     95  C   UNL A   1      42.881  35.968  27.741  1.00  0.00     0.006 A 
ENDBRANCH  71  88
ENDBRANCH  45  46
ENDBRANCH  37  40
ENDBRANCH  35  36
ENDBRANCH  34  35
ENDBRANCH  33  34
ENDBRANCH   1  33
TORSDOF 15
ENDMDL
