MODEL 1
REMARK VINA RESULT:     -12.0      0.000      0.000
REMARK SMILES [NH3+][C@@]1(C(=O)NCCCCNC(=O)c2ccc(-c3c4nc(c(-c5c(F)cccc5F)c5ccc([nH]5)c(-c5c(F)cccc5F)c5nc(c(-c6c(F)cccc6F)c6ccc3[nH]6)C=C5)C=C4)cc2)CC[N@H+](Cc2ccc(OCC(=O)N3CCCCC3)cc2)C1
REMARK SMILES IDX 6 1 5 2 3 3 4 4 2 6 67 7 87 8 68 9 69 10 1 12 70 16 71 17
REMARK SMILES IDX 72 18 86 19 73 20 85 21 74 22 75 23 76 24 77 25 78 26 79 27
REMARK SMILES IDX 80 28 84 29 81 30 83 31 82 32 7 33 8 34 9 35 10 36 11 37
REMARK SMILES IDX 12 39 13 40 14 41 66 42 15 43 65 44 16 45 17 46 18 47 59 48
REMARK SMILES IDX 19 49 64 50 58 51 60 52 20 53 63 54 57 55 56 56 21 58 47 59
REMARK SMILES IDX 30 60 46 61 31 62 34 63 45 64 61 65 32 66 33 67 44 69 62 70
REMARK SMILES IDX 35 71 22 72 23 73 28 74 24 75 25 76 27 77 29 78 26 79 48 80
REMARK SMILES IDX 49 81 54 82 50 83 51 84 53 85 55 86 52 87 36 88 37 89 42 90
REMARK SMILES IDX 38 91 39 92 41 93 43 94 40 95
REMARK H PARENT 5 5 69 11 1 13 1 14 1 15 10 38 60 57 34 68
REMARK Flexibility Score: inf
ROOT
ATOM      1  C   UNL A   1      32.517  25.275  25.898  1.00  0.00     0.116 C 
ENDROOT
BRANCH   1   2
ATOM      2  N   UNL A   1      31.641  24.965  24.769  1.00  0.00    -0.350 N 
ATOM      3  C   UNL A   1      31.476  23.974  23.841  1.00  0.00     0.287 C 
ATOM      4  O   UNL A   1      30.471  24.150  23.129  1.00  0.00    -0.268 OA
ATOM      5  H   UNL A   1      30.975  25.679  24.639  1.00  0.00     0.163 HD
BRANCH   3   6
ATOM      6  C   UNL A   1      32.435  22.723  23.540  1.00  0.00     0.228 C 
ATOM      7  C   UNL A   1      32.691  21.735  24.669  1.00  0.00     0.146 C 
ATOM      8  C   UNL A   1      33.898  23.106  23.130  1.00  0.00     0.342 C 
ATOM      9  C   UNL A   1      34.011  22.173  25.323  1.00  0.00     0.270 C 
ATOM     10  N   UNL A   1      34.709  22.989  24.343  1.00  0.00    -0.325 N 
ATOM     11  H   UNL A   1      35.561  22.502  24.066  1.00  0.00     0.348 HD
BRANCH   6  12
ATOM     12  N   UNL A   1      31.802  22.027  22.383  1.00  0.00    -0.340 N 
ATOM     13  H   UNL A   1      31.003  21.484  22.708  1.00  0.00     0.345 HD
ATOM     14  H   UNL A   1      32.482  21.404  21.947  1.00  0.00     0.345 HD
ATOM     15  H   UNL A   1      31.488  22.717  21.701  1.00  0.00     0.345 HD
ENDBRANCH   6  12
BRANCH  10  16
ATOM     16  C   UNL A   1      35.707  24.006  24.747  1.00  0.00     0.299 C 
BRANCH  16  17
ATOM     17  C   UNL A   1      36.996  23.524  25.411  1.00  0.00     0.006 A 
ATOM     18  C   UNL A   1      37.810  24.223  26.302  1.00  0.00     0.013 A 
ATOM     19  C   UNL A   1      37.445  22.264  25.094  1.00  0.00     0.013 A 
ATOM     20  C   UNL A   1      38.990  23.619  26.831  1.00  0.00     0.047 A 
ATOM     21  C   UNL A   1      38.531  21.625  25.639  1.00  0.00     0.047 A 
ATOM     22  C   UNL A   1      39.359  22.313  26.481  1.00  0.00     0.120 A 
BRANCH  22  23
ATOM     23  O   UNL A   1      40.472  21.723  27.010  1.00  0.00    -0.484 OA
BRANCH  23  24
ATOM     24  C   UNL A   1      41.415  21.238  26.058  1.00  0.00     0.329 C 
BRANCH  24  25
ATOM     25  C   UNL A   1      42.448  20.056  26.174  1.00  0.00     0.260 C 
ATOM     26  O   UNL A   1      42.082  19.007  26.724  1.00  0.00    -0.271 OA
ATOM     27  N   UNL A   1      43.709  20.160  25.593  1.00  0.00    -0.340 N 
ATOM     28  C   UNL A   1      44.374  18.921  25.165  1.00  0.00     0.119 C 
ATOM     29  C   UNL A   1      44.310  21.417  25.157  1.00  0.00     0.119 C 
ATOM     30  C   UNL A   1      45.903  18.960  25.166  1.00  0.00     0.022 C 
ATOM     31  C   UNL A   1      45.824  21.431  25.342  1.00  0.00     0.022 C 
ATOM     32  C   UNL A   1      46.450  20.262  24.600  1.00  0.00     0.004 C 
ENDBRANCH  24  25
ENDBRANCH  23  24
ENDBRANCH  22  23
ENDBRANCH  16  17
ENDBRANCH  10  16
ENDBRANCH   3   6
ENDBRANCH   1   2
BRANCH   1  33
ATOM     33  C   UNL A   1      33.219  26.645  25.904  1.00  0.00     0.023 C 
BRANCH  33  34
ATOM     34  C   UNL A   1      32.753  27.669  24.877  1.00  0.00     0.023 C 
BRANCH  34  35
ATOM     35  C   UNL A   1      33.471  28.996  24.921  1.00  0.00     0.116 C 
BRANCH  35  36
ATOM     36  N   UNL A   1      32.657  30.072  25.469  1.00  0.00    -0.352 N 
ATOM     37  C   UNL A   1      32.881  30.828  26.597  1.00  0.00     0.251 C 
ATOM     38  H   UNL A   1      31.837  30.284  24.968  1.00  0.00     0.163 HD
ATOM     39  O   UNL A   1      32.025  31.608  26.998  1.00  0.00    -0.269 OA
BRANCH  37  40
ATOM     40  C   UNL A   1      34.153  30.672  27.340  1.00  0.00     0.039 A 
ATOM     41  C   UNL A   1      34.932  31.800  27.609  1.00  0.00     0.014 A 
ATOM     42  C   UNL A   1      34.564  29.417  27.789  1.00  0.00     0.014 A 
ATOM     43  C   UNL A   1      36.098  31.668  28.366  1.00  0.00     0.010 A 
ATOM     44  C   UNL A   1      35.646  29.307  28.649  1.00  0.00     0.010 A 
ATOM     45  C   UNL A   1      36.452  30.423  28.911  1.00  0.00    -0.014 A 
BRANCH  45  46
ATOM     46  C   UNL A   1      37.701  30.234  29.687  1.00  0.00     0.031 A 
ATOM     47  C   UNL A   1      38.831  29.441  29.081  1.00  0.00     0.074 A 
ATOM     48  C   UNL A   1      37.799  30.712  30.942  1.00  0.00     0.049 A 
ATOM     49  N   UNL A   1      39.972  29.083  29.612  1.00  0.00    -0.248 NA
ATOM     50  C   UNL A   1      38.633  28.946  27.707  1.00  0.00     0.031 C 
ATOM     51  C   UNL A   1      36.750  31.442  31.658  1.00  0.00     0.029 A 
ATOM     52  N   UNL A   1      38.833  30.651  31.841  1.00  0.00    -0.354 N 
ATOM     53  C   UNL A   1      40.604  28.300  28.651  1.00  0.00     0.074 A 
ATOM     54  C   UNL A   1      39.692  28.173  27.538  1.00  0.00     0.031 C 
ATOM     55  C   UNL A   1      37.209  31.793  32.869  1.00  0.00     0.029 A 
ATOM     56  C   UNL A   1      38.566  31.281  33.032  1.00  0.00     0.049 A 
ATOM     57  H   UNL A   1      39.686  30.199  31.651  1.00  0.00     0.167 HD
ATOM     58  C   UNL A   1      41.847  27.768  28.676  1.00  0.00     0.037 A 
ATOM     59  C   UNL A   1      39.333  31.427  34.128  1.00  0.00     0.037 A 
ATOM     60  C   UNL A   1      42.767  27.945  29.766  1.00  0.00     0.049 A 
ATOM     61  C   UNL A   1      40.721  30.846  34.126  1.00  0.00     0.074 A 
ATOM     62  C   UNL A   1      44.077  27.514  29.869  1.00  0.00     0.029 A 
ATOM     63  N   UNL A   1      42.469  28.618  30.942  1.00  0.00    -0.354 N 
ATOM     64  N   UNL A   1      41.334  30.170  33.183  1.00  0.00    -0.248 NA
ATOM     65  C   UNL A   1      41.528  31.053  35.335  1.00  0.00     0.031 C 
ATOM     66  C   UNL A   1      44.558  27.889  31.126  1.00  0.00     0.029 A 
ATOM     67  C   UNL A   1      43.566  28.598  31.785  1.00  0.00     0.049 A 
ATOM     68  H   UNL A   1      41.607  29.046  31.146  1.00  0.00     0.167 HD
ATOM     69  C   UNL A   1      42.603  29.895  33.673  1.00  0.00     0.074 A 
ATOM     70  C   UNL A   1      42.679  30.493  34.991  1.00  0.00     0.031 C 
ATOM     71  C   UNL A   1      43.617  29.210  33.089  1.00  0.00     0.037 A 
BRANCH  58  72
ATOM     72  C   UNL A   1      42.281  26.960  27.487  1.00  0.00     0.057 A 
ATOM     73  C   UNL A   1      42.829  27.559  26.344  1.00  0.00     0.134 A 
ATOM     74  C   UNL A   1      42.161  25.565  27.487  1.00  0.00     0.134 A 
ATOM     75  F   UNL A   1      42.958  28.892  26.269  1.00  0.00    -0.206 F 
ATOM     76  C   UNL A   1      43.210  26.804  25.233  1.00  0.00     0.040 A 
ATOM     77  C   UNL A   1      42.569  24.796  26.394  1.00  0.00     0.040 A 
ATOM     78  F   UNL A   1      41.650  24.924  28.548  1.00  0.00    -0.206 F 
ATOM     79  C   UNL A   1      43.086  25.417  25.259  1.00  0.00     0.006 A 
ENDBRANCH  58  72
BRANCH  59  80
ATOM     80  C   UNL A   1      38.822  32.181  35.302  1.00  0.00     0.057 A 
ATOM     81  C   UNL A   1      38.904  33.578  35.354  1.00  0.00     0.134 A 
ATOM     82  C   UNL A   1      38.243  31.530  36.398  1.00  0.00     0.134 A 
ATOM     83  F   UNL A   1      39.462  34.258  34.343  1.00  0.00    -0.206 F 
ATOM     84  C   UNL A   1      38.450  34.298  36.460  1.00  0.00     0.040 A 
ATOM     85  C   UNL A   1      37.761  32.239  37.499  1.00  0.00     0.040 A 
ATOM     86  F   UNL A   1      38.126  30.194  36.408  1.00  0.00    -0.206 F 
ATOM     87  C   UNL A   1      37.871  33.628  37.536  1.00  0.00     0.006 A 
ENDBRANCH  59  80
BRANCH  71  88
ATOM     88  C   UNL A   1      44.902  29.099  33.855  1.00  0.00     0.057 A 
ATOM     89  C   UNL A   1      45.169  28.012  34.695  1.00  0.00     0.134 A 
ATOM     90  C   UNL A   1      45.902  30.068  33.706  1.00  0.00     0.134 A 
ATOM     91  F   UNL A   1      44.246  27.057  34.888  1.00  0.00    -0.206 F 
ATOM     92  C   UNL A   1      46.381  27.903  35.379  1.00  0.00     0.040 A 
ATOM     93  C   UNL A   1      47.129  29.954  34.362  1.00  0.00     0.040 A 
ATOM     94  F   UNL A   1      45.713  31.128  32.906  1.00  0.00    -0.206 F 
ATOM     95  C   UNL A   1      47.368  28.871  35.205  1.00  0.00     0.006 A 
ENDBRANCH  71  88
ENDBRANCH  45  46
ENDBRANCH  37  40
ENDBRANCH  35  36
ENDBRANCH  34  35
ENDBRANCH  33  34
ENDBRANCH   1  33
TORSDOF 17
ENDMDL
MODEL 2
REMARK VINA RESULT:     -11.8      2.881      7.411
REMARK SMILES [NH3+][C@@]1(C(=O)NCCCCNC(=O)c2ccc(-c3c4nc(c(-c5c(F)cccc5F)c5ccc([nH]5)c(-c5c(F)cccc5F)c5nc(c(-c6c(F)cccc6F)c6ccc3[nH]6)C=C5)C=C4)cc2)CC[N@H+](Cc2ccc(OCC(=O)N3CCCCC3)cc2)C1
REMARK SMILES IDX 6 1 5 2 3 3 4 4 2 6 67 7 87 8 68 9 69 10 1 12 70 16 71 17
REMARK SMILES IDX 72 18 86 19 73 20 85 21 74 22 75 23 76 24 77 25 78 26 79 27
REMARK SMILES IDX 80 28 84 29 81 30 83 31 82 32 7 33 8 34 9 35 10 36 11 37
REMARK SMILES IDX 12 39 13 40 14 41 66 42 15 43 65 44 16 45 17 46 18 47 59 48
REMARK SMILES IDX 19 49 64 50 58 51 60 52 20 53 63 54 57 55 56 56 21 58 47 59
REMARK SMILES IDX 30 60 46 61 31 62 34 63 45 64 61 65 32 66 33 67 44 69 62 70
REMARK SMILES IDX 35 71 22 72 23 73 28 74 24 75 25 76 27 77 29 78 26 79 48 80
REMARK SMILES IDX 49 81 54 82 50 83 51 84 53 85 55 86 52 87 36 88 37 89 42 90
REMARK SMILES IDX 38 91 39 92 41 93 43 94 40 95
REMARK H PARENT 5 5 69 11 1 13 1 14 1 15 10 38 60 57 34 68
REMARK Flexibility Score: inf
ROOT
ATOM      1  C   UNL A   1      32.082  29.641  26.352  1.00  0.00     0.116 C 
ENDROOT
BRANCH   1   2
ATOM      2  N   UNL A   1      32.929  28.852  25.457  1.00  0.00    -0.350 N 
ATOM      3  C   UNL A   1      32.879  28.332  24.193  1.00  0.00     0.287 C 
ATOM      4  O   UNL A   1      33.953  27.803  23.853  1.00  0.00    -0.268 OA
ATOM      5  H   UNL A   1      33.785  28.632  25.891  1.00  0.00     0.163 HD
BRANCH   3   6
ATOM      6  C   UNL A   1      31.626  28.264  23.193  1.00  0.00     0.228 C 
ATOM      7  C   UNL A   1      30.232  28.210  23.802  1.00  0.00     0.146 C 
ATOM      8  C   UNL A   1      31.603  27.004  22.262  1.00  0.00     0.342 C 
ATOM      9  C   UNL A   1      29.853  26.722  23.859  1.00  0.00     0.270 C 
ATOM     10  N   UNL A   1      30.702  26.039  22.897  1.00  0.00    -0.325 N 
ATOM     11  H   UNL A   1      30.113  25.670  22.151  1.00  0.00     0.348 HD
BRANCH   6  12
ATOM     12  N   UNL A   1      31.763  29.470  22.327  1.00  0.00    -0.340 N 
ATOM     13  H   UNL A   1      30.885  29.637  21.836  1.00  0.00     0.345 HD
ATOM     14  H   UNL A   1      32.509  29.320  21.649  1.00  0.00     0.345 HD
ATOM     15  H   UNL A   1      31.986  30.280  22.906  1.00  0.00     0.345 HD
ENDBRANCH   6  12
BRANCH  10  16
ATOM     16  C   UNL A   1      31.025  24.600  23.028  1.00  0.00     0.299 C 
BRANCH  16  17
ATOM     17  C   UNL A   1      32.294  24.214  23.787  1.00  0.00     0.006 A 
ATOM     18  C   UNL A   1      32.557  24.379  25.148  1.00  0.00     0.013 A 
ATOM     19  C   UNL A   1      33.326  23.661  23.069  1.00  0.00     0.013 A 
ATOM     20  C   UNL A   1      33.805  23.962  25.699  1.00  0.00     0.047 A 
ATOM     21  C   UNL A   1      34.508  23.181  23.577  1.00  0.00     0.047 A 
ATOM     22  C   UNL A   1      34.794  23.372  24.899  1.00  0.00     0.120 A 
BRANCH  22  23
ATOM     23  O   UNL A   1      35.978  22.947  25.431  1.00  0.00    -0.484 OA
BRANCH  23  24
ATOM     24  C   UNL A   1      35.995  21.593  25.875  1.00  0.00     0.329 C 
BRANCH  24  25
ATOM     25  C   UNL A   1      36.066  20.259  25.042  1.00  0.00     0.260 C 
ATOM     26  O   UNL A   1      37.181  19.829  24.716  1.00  0.00    -0.271 OA
ATOM     27  N   UNL A   1      34.908  19.539  24.761  1.00  0.00    -0.340 N 
ATOM     28  C   UNL A   1      35.028  18.087  24.575  1.00  0.00     0.119 C 
ATOM     29  C   UNL A   1      33.557  20.081  24.878  1.00  0.00     0.119 C 
ATOM     30  C   UNL A   1      33.978  17.450  23.663  1.00  0.00     0.022 C 
ATOM     31  C   UNL A   1      32.610  19.510  23.827  1.00  0.00     0.022 C 
ATOM     32  C   UNL A   1      32.580  17.994  23.921  1.00  0.00     0.004 C 
ENDBRANCH  24  25
ENDBRANCH  23  24
ENDBRANCH  22  23
ENDBRANCH  16  17
ENDBRANCH  10  16
ENDBRANCH   3   6
ENDBRANCH   1   2
BRANCH   1  33
ATOM     33  C   UNL A   1      31.438  30.919  25.784  1.00  0.00     0.023 C 
BRANCH  33  34
ATOM     34  C   UNL A   1      31.340  32.121  26.715  1.00  0.00     0.023 C 
BRANCH  34  35
ATOM     35  C   UNL A   1      32.656  32.772  27.065  1.00  0.00     0.116 C 
BRANCH  35  36
ATOM     36  N   UNL A   1      32.503  34.100  27.642  1.00  0.00    -0.352 N 
ATOM     37  C   UNL A   1      33.202  34.670  28.683  1.00  0.00     0.251 C 
ATOM     38  H   UNL A   1      31.807  34.664  27.235  1.00  0.00     0.163 HD
ATOM     39  O   UNL A   1      32.858  35.754  29.138  1.00  0.00    -0.269 OA
BRANCH  37  40
ATOM     40  C   UNL A   1      34.355  33.948  29.269  1.00  0.00     0.039 A 
ATOM     41  C   UNL A   1      34.126  32.909  30.174  1.00  0.00     0.014 A 
ATOM     42  C   UNL A   1      35.661  34.282  28.906  1.00  0.00     0.014 A 
ATOM     43  C   UNL A   1      35.207  32.182  30.678  1.00  0.00     0.010 A 
ATOM     44  C   UNL A   1      36.719  33.478  29.302  1.00  0.00     0.010 A 
ATOM     45  C   UNL A   1      36.510  32.448  30.228  1.00  0.00    -0.014 A 
BRANCH  45  46
ATOM     46  C   UNL A   1      37.688  31.724  30.767  1.00  0.00     0.031 A 
ATOM     47  C   UNL A   1      38.170  32.039  32.160  1.00  0.00     0.074 A 
ATOM     48  C   UNL A   1      38.354  30.843  29.997  1.00  0.00     0.049 A 
ATOM     49  N   UNL A   1      39.222  31.592  32.795  1.00  0.00    -0.248 NA
ATOM     50  C   UNL A   1      37.387  33.025  32.928  1.00  0.00     0.031 C 
ATOM     51  C   UNL A   1      38.019  30.501  28.613  1.00  0.00     0.029 A 
ATOM     52  N   UNL A   1      39.457  30.076  30.271  1.00  0.00    -0.354 N 
ATOM     53  C   UNL A   1      39.240  32.263  34.013  1.00  0.00     0.074 A 
ATOM     54  C   UNL A   1      38.141  33.200  33.999  1.00  0.00     0.031 C 
ATOM     55  C   UNL A   1      38.875  29.565  28.173  1.00  0.00     0.029 A 
ATOM     56  C   UNL A   1      39.840  29.270  29.226  1.00  0.00     0.049 A 
ATOM     57  H   UNL A   1      39.929  30.100  31.133  1.00  0.00     0.167 HD
ATOM     58  C   UNL A   1      40.072  32.088  35.064  1.00  0.00     0.037 A 
ATOM     59  C   UNL A   1      40.857  28.393  29.135  1.00  0.00     0.037 A 
ATOM     60  C   UNL A   1      41.130  31.115  35.089  1.00  0.00     0.049 A 
ATOM     61  C   UNL A   1      41.757  28.198  30.325  1.00  0.00     0.074 A 
ATOM     62  C   UNL A   1      41.988  30.800  36.127  1.00  0.00     0.029 A 
ATOM     63  N   UNL A   1      41.466  30.295  34.023  1.00  0.00    -0.354 N 
ATOM     64  N   UNL A   1      41.719  28.786  31.497  1.00  0.00    -0.248 NA
ATOM     65  C   UNL A   1      42.837  27.212  30.185  1.00  0.00     0.031 C 
ATOM     66  C   UNL A   1      42.872  29.817  35.673  1.00  0.00     0.029 A 
ATOM     67  C   UNL A   1      42.532  29.485  34.371  1.00  0.00     0.049 A 
ATOM     68  H   UNL A   1      41.013  30.290  33.149  1.00  0.00     0.167 HD
ATOM     69  C   UNL A   1      42.749  28.225  32.240  1.00  0.00     0.074 A 
ATOM     70  C   UNL A   1      43.383  27.237  31.392  1.00  0.00     0.031 C 
ATOM     71  C   UNL A   1      43.138  28.501  33.509  1.00  0.00     0.037 A 
BRANCH  58  72
ATOM     72  C   UNL A   1      39.859  32.957  36.271  1.00  0.00     0.057 A 
ATOM     73  C   UNL A   1      40.590  34.136  36.474  1.00  0.00     0.134 A 
ATOM     74  C   UNL A   1      38.902  32.620  37.236  1.00  0.00     0.134 A 
ATOM     75  F   UNL A   1      41.534  34.511  35.598  1.00  0.00    -0.206 F 
ATOM     76  C   UNL A   1      40.403  34.927  37.609  1.00  0.00     0.040 A 
ATOM     77  C   UNL A   1      38.683  33.421  38.359  1.00  0.00     0.040 A 
ATOM     78  F   UNL A   1      38.162  31.509  37.104  1.00  0.00    -0.206 F 
ATOM     79  C   UNL A   1      39.442  34.574  38.552  1.00  0.00     0.006 A 
ENDBRANCH  58  72
BRANCH  59  80
ATOM     80  C   UNL A   1      41.058  27.610  27.889  1.00  0.00     0.057 A 
ATOM     81  C   UNL A   1      41.819  28.123  26.830  1.00  0.00     0.134 A 
ATOM     82  C   UNL A   1      40.499  26.338  27.721  1.00  0.00     0.134 A 
ATOM     83  F   UNL A   1      42.369  29.342  26.923  1.00  0.00    -0.206 F 
ATOM     84  C   UNL A   1      41.998  27.409  25.643  1.00  0.00     0.040 A 
ATOM     85  C   UNL A   1      40.690  25.603  26.550  1.00  0.00     0.040 A 
ATOM     86  F   UNL A   1      39.766  25.786  28.700  1.00  0.00    -0.206 F 
ATOM     87  C   UNL A   1      41.436  26.142  25.503  1.00  0.00     0.006 A 
ENDBRANCH  59  80
BRANCH  71  88
ATOM     88  C   UNL A   1      44.278  27.702  34.067  1.00  0.00     0.057 A 
ATOM     89  C   UNL A   1      45.598  28.167  34.022  1.00  0.00     0.134 A 
ATOM     90  C   UNL A   1      44.042  26.477  34.704  1.00  0.00     0.134 A 
ATOM     91  F   UNL A   1      45.890  29.327  33.414  1.00  0.00    -0.206 F 
ATOM     92  C   UNL A   1      46.647  27.429  34.572  1.00  0.00     0.040 A 
ATOM     93  C   UNL A   1      45.079  25.746  35.283  1.00  0.00     0.040 A 
ATOM     94  F   UNL A   1      42.798  25.982  34.792  1.00  0.00    -0.206 F 
ATOM     95  C   UNL A   1      46.387  26.220  35.213  1.00  0.00     0.006 A 
ENDBRANCH  71  88
ENDBRANCH  45  46
ENDBRANCH  37  40
ENDBRANCH  35  36
ENDBRANCH  34  35
ENDBRANCH  33  34
ENDBRANCH   1  33
TORSDOF 17
ENDMDL
MODEL 3
REMARK VINA RESULT:     -11.6      1.085      6.114
REMARK SMILES [NH3+][C@@]1(C(=O)NCCCCNC(=O)c2ccc(-c3c4nc(c(-c5c(F)cccc5F)c5ccc([nH]5)c(-c5c(F)cccc5F)c5nc(c(-c6c(F)cccc6F)c6ccc3[nH]6)C=C5)C=C4)cc2)CC[N@H+](Cc2ccc(OCC(=O)N3CCCCC3)cc2)C1
REMARK SMILES IDX 6 1 5 2 3 3 4 4 2 6 67 7 87 8 68 9 69 10 1 12 70 16 71 17
REMARK SMILES IDX 72 18 86 19 73 20 85 21 74 22 75 23 76 24 77 25 78 26 79 27
REMARK SMILES IDX 80 28 84 29 81 30 83 31 82 32 7 33 8 34 9 35 10 36 11 37
REMARK SMILES IDX 12 39 13 40 14 41 66 42 15 43 65 44 16 45 17 46 18 47 59 48
REMARK SMILES IDX 19 49 64 50 58 51 60 52 20 53 63 54 57 55 56 56 21 58 47 59
REMARK SMILES IDX 30 60 46 61 31 62 34 63 45 64 61 65 32 66 33 67 44 69 62 70
REMARK SMILES IDX 35 71 22 72 23 73 28 74 24 75 25 76 27 77 29 78 26 79 48 80
REMARK SMILES IDX 49 81 54 82 50 83 51 84 53 85 55 86 52 87 36 88 37 89 42 90
REMARK SMILES IDX 38 91 39 92 41 93 43 94 40 95
REMARK H PARENT 5 5 69 11 1 13 1 14 1 15 10 38 60 57 34 68
REMARK Flexibility Score: inf
ROOT
ATOM      1  C   UNL A   1      32.087  27.114  24.869  1.00  0.00     0.116 C 
ENDROOT
BRANCH   1   2
ATOM      2  N   UNL A   1      31.753  26.146  25.913  1.00  0.00    -0.350 N 
ATOM      3  C   UNL A   1      31.731  24.789  26.082  1.00  0.00     0.287 C 
ATOM      4  O   UNL A   1      31.453  24.459  27.250  1.00  0.00    -0.268 OA
ATOM      5  H   UNL A   1      31.459  26.605  26.733  1.00  0.00     0.163 HD
BRANCH   3   6
ATOM      6  C   UNL A   1      31.933  23.643  24.977  1.00  0.00     0.228 C 
ATOM      7  C   UNL A   1      32.409  22.276  25.449  1.00  0.00     0.146 C 
ATOM      8  C   UNL A   1      33.000  23.978  23.879  1.00  0.00     0.342 C 
ATOM      9  C   UNL A   1      33.935  22.273  25.262  1.00  0.00     0.270 C 
ATOM     10  N   UNL A   1      34.238  23.312  24.292  1.00  0.00    -0.325 N 
ATOM     11  H   UNL A   1      34.613  22.870  23.452  1.00  0.00     0.348 HD
BRANCH   6  12
ATOM     12  N   UNL A   1      30.608  23.522  24.305  1.00  0.00    -0.340 N 
ATOM     13  H   UNL A   1      30.659  23.937  23.375  1.00  0.00     0.345 HD
ATOM     14  H   UNL A   1      29.901  24.008  24.856  1.00  0.00     0.345 HD
ATOM     15  H   UNL A   1      30.357  22.536  24.224  1.00  0.00     0.345 HD
ENDBRANCH   6  12
BRANCH  10  16
ATOM     16  C   UNL A   1      35.563  23.972  24.246  1.00  0.00     0.299 C 
BRANCH  16  17
ATOM     17  C   UNL A   1      36.745  23.255  24.896  1.00  0.00     0.006 A 
ATOM     18  C   UNL A   1      37.201  21.960  24.644  1.00  0.00     0.013 A 
ATOM     19  C   UNL A   1      37.448  23.930  25.864  1.00  0.00     0.013 A 
ATOM     20  C   UNL A   1      38.328  21.441  25.348  1.00  0.00     0.047 A 
ATOM     21  C   UNL A   1      38.579  23.490  26.506  1.00  0.00     0.047 A 
ATOM     22  C   UNL A   1      39.012  22.210  26.299  1.00  0.00     0.120 A 
BRANCH  22  23
ATOM     23  O   UNL A   1      40.109  21.724  26.952  1.00  0.00    -0.484 OA
BRANCH  23  24
ATOM     24  C   UNL A   1      41.231  21.431  26.123  1.00  0.00     0.329 C 
BRANCH  24  25
ATOM     25  C   UNL A   1      42.200  20.192  26.139  1.00  0.00     0.260 C 
ATOM     26  O   UNL A   1      41.773  19.118  26.586  1.00  0.00    -0.271 OA
ATOM     27  N   UNL A   1      43.472  20.282  25.581  1.00  0.00    -0.340 N 
ATOM     28  C   UNL A   1      44.078  19.054  25.047  1.00  0.00     0.119 C 
ATOM     29  C   UNL A   1      44.143  21.540  25.269  1.00  0.00     0.119 C 
ATOM     30  C   UNL A   1      45.607  19.012  25.065  1.00  0.00     0.022 C 
ATOM     31  C   UNL A   1      45.653  21.457  25.468  1.00  0.00     0.022 C 
ATOM     32  C   UNL A   1      46.229  20.330  24.626  1.00  0.00     0.004 C 
ENDBRANCH  24  25
ENDBRANCH  23  24
ENDBRANCH  22  23
ENDBRANCH  16  17
ENDBRANCH  10  16
ENDBRANCH   3   6
ENDBRANCH   1   2
BRANCH   1  33
ATOM     33  C   UNL A   1      31.441  28.509  24.955  1.00  0.00     0.023 C 
BRANCH  33  34
ATOM     34  C   UNL A   1      32.352  29.675  25.320  1.00  0.00     0.023 C 
BRANCH  34  35
ATOM     35  C   UNL A   1      32.169  30.221  26.716  1.00  0.00     0.116 C 
BRANCH  35  36
ATOM     36  N   UNL A   1      32.115  31.675  26.761  1.00  0.00    -0.352 N 
ATOM     37  C   UNL A   1      32.976  32.548  27.386  1.00  0.00     0.251 C 
ATOM     38  H   UNL A   1      31.360  32.088  26.282  1.00  0.00     0.163 HD
ATOM     39  O   UNL A   1      32.713  33.743  27.442  1.00  0.00    -0.269 OA
BRANCH  37  40
ATOM     40  C   UNL A   1      34.211  32.028  28.017  1.00  0.00     0.039 A 
ATOM     41  C   UNL A   1      35.264  32.905  28.289  1.00  0.00     0.014 A 
ATOM     42  C   UNL A   1      34.320  30.679  28.360  1.00  0.00     0.014 A 
ATOM     43  C   UNL A   1      36.404  32.432  28.943  1.00  0.00     0.010 A 
ATOM     44  C   UNL A   1      35.391  30.242  29.125  1.00  0.00     0.010 A 
ATOM     45  C   UNL A   1      36.465  31.101  29.386  1.00  0.00    -0.014 A 
BRANCH  45  46
ATOM     46  C   UNL A   1      37.672  30.552  30.051  1.00  0.00     0.031 A 
ATOM     47  C   UNL A   1      37.964  30.935  31.480  1.00  0.00     0.074 A 
ATOM     48  C   UNL A   1      38.529  29.771  29.366  1.00  0.00     0.049 A 
ATOM     49  N   UNL A   1      39.000  30.642  32.223  1.00  0.00    -0.248 NA
ATOM     50  C   UNL A   1      36.978  31.802  32.150  1.00  0.00     0.031 C 
ATOM     51  C   UNL A   1      38.385  29.382  27.961  1.00  0.00     0.029 A 
ATOM     52  N   UNL A   1      39.695  29.168  29.759  1.00  0.00    -0.354 N 
ATOM     53  C   UNL A   1      38.801  31.312  33.425  1.00  0.00     0.074 A 
ATOM     54  C   UNL A   1      37.589  32.085  33.287  1.00  0.00     0.031 C 
ATOM     55  C   UNL A   1      39.403  28.575  27.623  1.00  0.00     0.029 A 
ATOM     56  C   UNL A   1      40.290  28.421  28.771  1.00  0.00     0.049 A 
ATOM     57  H   UNL A   1      40.071  29.261  30.664  1.00  0.00     0.167 HD
ATOM     58  C   UNL A   1      39.540  31.259  34.556  1.00  0.00     0.037 A 
ATOM     59  C   UNL A   1      41.424  27.696  28.795  1.00  0.00     0.037 A 
ATOM     60  C   UNL A   1      40.716  30.445  34.702  1.00  0.00     0.049 A 
ATOM     61  C   UNL A   1      42.219  27.633  30.072  1.00  0.00     0.074 A 
ATOM     62  C   UNL A   1      41.502  30.256  35.824  1.00  0.00     0.029 A 
ATOM     63  N   UNL A   1      41.268  29.678  33.687  1.00  0.00    -0.354 N 
ATOM     64  N   UNL A   1      41.982  28.213  31.224  1.00  0.00    -0.248 NA
ATOM     65  C   UNL A   1      43.435  26.809  30.055  1.00  0.00     0.031 C 
ATOM     66  C   UNL A   1      42.556  29.407  35.476  1.00  0.00     0.029 A 
ATOM     67  C   UNL A   1      42.398  29.027  34.152  1.00  0.00     0.049 A 
ATOM     68  H   UNL A   1      40.911  29.607  32.773  1.00  0.00     0.167 HD
ATOM     69  C   UNL A   1      43.001  27.805  32.074  1.00  0.00     0.074 A 
ATOM     70  C   UNL A   1      43.849  26.913  31.310  1.00  0.00     0.031 C 
ATOM     71  C   UNL A   1      43.218  28.136  33.371  1.00  0.00     0.037 A 
BRANCH  58  72
ATOM     72  C   UNL A   1      39.088  32.092  35.722  1.00  0.00     0.057 A 
ATOM     73  C   UNL A   1      39.502  33.422  35.887  1.00  0.00     0.134 A 
ATOM     74  C   UNL A   1      38.219  31.565  36.684  1.00  0.00     0.134 A 
ATOM     75  F   UNL A   1      40.347  33.986  35.011  1.00  0.00    -0.206 F 
ATOM     76  C   UNL A   1      39.095  34.184  36.984  1.00  0.00     0.040 A 
ATOM     77  C   UNL A   1      37.779  32.328  37.768  1.00  0.00     0.040 A 
ATOM     78  F   UNL A   1      37.778  30.302  36.587  1.00  0.00    -0.206 F 
ATOM     79  C   UNL A   1      38.225  33.639  37.925  1.00  0.00     0.006 A 
ENDBRANCH  58  72
BRANCH  59  80
ATOM     80  C   UNL A   1      41.857  26.947  27.588  1.00  0.00     0.057 A 
ATOM     81  C   UNL A   1      41.564  25.585  27.441  1.00  0.00     0.134 A 
ATOM     82  C   UNL A   1      42.571  27.566  26.556  1.00  0.00     0.134 A 
ATOM     83  F   UNL A   1      40.896  24.931  28.401  1.00  0.00    -0.206 F 
ATOM     84  C   UNL A   1      41.983  24.862  26.323  1.00  0.00     0.040 A 
ATOM     85  C   UNL A   1      42.975  26.861  25.420  1.00  0.00     0.040 A 
ATOM     86  F   UNL A   1      42.877  28.870  26.630  1.00  0.00    -0.206 F 
ATOM     87  C   UNL A   1      42.687  25.502  25.305  1.00  0.00     0.006 A 
ENDBRANCH  59  80
BRANCH  71  88
ATOM     88  C   UNL A   1      44.398  27.507  34.051  1.00  0.00     0.057 A 
ATOM     89  C   UNL A   1      44.309  26.260  34.682  1.00  0.00     0.134 A 
ATOM     90  C   UNL A   1      45.650  28.135  34.026  1.00  0.00     0.134 A 
ATOM     91  F   UNL A   1      43.135  25.614  34.749  1.00  0.00    -0.206 F 
ATOM     92  C   UNL A   1      45.421  25.670  35.284  1.00  0.00     0.040 A 
ATOM     93  C   UNL A   1      46.774  27.541  34.599  1.00  0.00     0.040 A 
ATOM     94  F   UNL A   1      45.804  29.326  33.427  1.00  0.00    -0.206 F 
ATOM     95  C   UNL A   1      46.660  26.306  35.235  1.00  0.00     0.006 A 
ENDBRANCH  71  88
ENDBRANCH  45  46
ENDBRANCH  37  40
ENDBRANCH  35  36
ENDBRANCH  34  35
ENDBRANCH  33  34
ENDBRANCH   1  33
TORSDOF 17
ENDMDL
