MODEL 1
REMARK VINA RESULT:     -13.8      0.000      0.000
REMARK SMILES Cc1ccc(NC(=O)[C@@H]2[C@@H](C(=O)NCCCCNC(=O)c3ccc(-c4c5nc(c(-c6c(F)cccc6F)c6ccc([nH]6)c(-c6c(F)cccc6F)c6nc(c(-c7c(F)cccc7F)c7ccc4[nH]7)C=C6)C=C5)cc3)[C@@H]3C=C[C@H]2C3)cc1NC(=O)c1ccc(Cl)cc1
REMARK SMILES IDX 14 1 13 2 11 3 12 4 10 6 9 7 78 8 75 9 77 10 79 11 76 12
REMARK SMILES IDX 7 13 6 14 8 16 5 17 1 18 2 19 3 20 81 21 4 22 80 23 82 24
REMARK SMILES IDX 83 25 84 27 85 28 86 29 91 30 87 31 90 32 88 33 89 34 15 35
REMARK SMILES IDX 16 36 17 37 18 38 19 39 20 41 21 42 22 43 74 44 23 45 73 46
REMARK SMILES IDX 24 47 25 48 26 49 67 50 27 51 72 52 66 53 68 54 28 55 71 56
REMARK SMILES IDX 65 57 64 58 29 60 55 61 38 62 54 63 39 64 42 65 53 66 69 67
REMARK SMILES IDX 40 68 41 69 52 71 70 72 43 73 30 74 31 75 36 76 32 77 33 78
REMARK SMILES IDX 35 79 37 80 34 81 56 82 57 83 62 84 58 85 59 86 61 87 63 88
REMARK SMILES IDX 60 89 44 90 45 91 50 92 46 93 47 94 49 95 51 96 48 97
REMARK H PARENT 13 5 6 15 82 26 18 40 68 59 42 70
REMARK Flexibility Score: inf
ROOT
ATOM      1  C   UNL A   1      34.017  28.867  26.061  1.00  0.00     0.116 C 
ENDROOT
BRANCH   1   2
ATOM      2  N   UNL A   1      34.038  28.445  24.671  1.00  0.00    -0.356 N 
ATOM      3  C   UNL A   1      33.180  27.811  23.834  1.00  0.00     0.224 C 
ATOM      4  O   UNL A   1      33.635  27.602  22.700  1.00  0.00    -0.275 OA
ATOM      5  H   UNL A   1      34.885  28.675  24.227  1.00  0.00     0.163 HD
BRANCH   3   6
ATOM      6  C   UNL A   1      31.707  27.472  24.101  1.00  0.00     0.098 C 
ATOM      7  C   UNL A   1      31.591  26.152  24.902  1.00  0.00     0.099 C 
ATOM      8  C   UNL A   1      30.364  25.449  24.264  1.00  0.00     0.025 C 
ATOM      9  C   UNL A   1      30.783  27.168  22.893  1.00  0.00     0.025 C 
ATOM     10  C   UNL A   1      29.144  26.349  24.275  1.00  0.00    -0.027 C 
ATOM     11  C   UNL A   1      30.731  25.622  22.805  1.00  0.00     0.017 C 
ATOM     12  C   UNL A   1      29.378  27.361  23.423  1.00  0.00    -0.027 C 
BRANCH   7  13
ATOM     13  C   UNL A   1      31.447  26.057  26.394  1.00  0.00     0.228 C 
ATOM     14  N   UNL A   1      31.848  24.893  27.029  1.00  0.00    -0.326 N 
ATOM     15  H   UNL A   1      31.448  24.785  27.922  1.00  0.00     0.169 HD
ATOM     16  O   UNL A   1      30.893  26.934  27.056  1.00  0.00    -0.274 OA
BRANCH  14  17
ATOM     17  C   UNL A   1      32.712  23.819  26.671  1.00  0.00     0.043 A 
ATOM     18  C   UNL A   1      34.134  20.170  24.904  1.00  0.00     0.046 C 
ATOM     19  C   UNL A   1      33.840  21.500  25.535  1.00  0.00    -0.027 A 
ATOM     20  C   UNL A   1      33.456  21.526  26.867  1.00  0.00     0.008 A 
ATOM     21  C   UNL A   1      33.928  22.720  24.853  1.00  0.00     0.046 A 
ATOM     22  C   UNL A   1      33.006  22.704  27.447  1.00  0.00     0.026 A 
ATOM     23  C   UNL A   1      33.256  23.836  25.377  1.00  0.00     0.052 A 
BRANCH  21  24
ATOM     24  N   UNL A   1      34.702  22.749  23.681  1.00  0.00    -0.322 N 
ATOM     25  C   UNL A   1      36.051  22.818  23.437  1.00  0.00     0.255 C 
ATOM     26  H   UNL A   1      34.161  22.710  22.858  1.00  0.00     0.170 HD
ATOM     27  O   UNL A   1      36.433  22.906  22.268  1.00  0.00    -0.269 OA
BRANCH  25  28
ATOM     28  C   UNL A   1      37.084  22.742  24.492  1.00  0.00     0.040 A 
ATOM     29  C   UNL A   1      37.717  21.504  24.670  1.00  0.00     0.015 A 
ATOM     30  C   UNL A   1      37.379  23.803  25.356  1.00  0.00     0.015 A 
ATOM     31  C   UNL A   1      38.687  21.344  25.659  1.00  0.00     0.021 A 
ATOM     32  C   UNL A   1      38.367  23.647  26.336  1.00  0.00     0.021 A 
ATOM     33  C   UNL A   1      39.020  22.421  26.478  1.00  0.00     0.041 A 
ATOM     34  Cl  UNL A   1      40.235  22.230  27.680  1.00  0.00    -0.084 Cl
ENDBRANCH  25  28
ENDBRANCH  21  24
ENDBRANCH  14  17
ENDBRANCH   7  13
ENDBRANCH   3   6
ENDBRANCH   1   2
BRANCH   1  35
ATOM     35  C   UNL A   1      32.913  29.881  26.371  1.00  0.00     0.023 C 
BRANCH  35  36
ATOM     36  C   UNL A   1      33.266  30.922  27.430  1.00  0.00     0.023 C 
BRANCH  36  37
ATOM     37  C   UNL A   1      34.761  31.067  27.691  1.00  0.00     0.116 C 
BRANCH  37  38
ATOM     38  N   UNL A   1      35.113  31.557  29.018  1.00  0.00    -0.352 N 
ATOM     39  C   UNL A   1      36.077  31.090  29.902  1.00  0.00     0.251 C 
ATOM     40  H   UNL A   1      34.591  32.331  29.334  1.00  0.00     0.163 HD
ATOM     41  O   UNL A   1      36.213  31.613  30.994  1.00  0.00    -0.269 OA
BRANCH  39  42
ATOM     42  C   UNL A   1      37.039  30.049  29.450  1.00  0.00     0.039 A 
ATOM     43  C   UNL A   1      37.241  28.943  30.282  1.00  0.00     0.014 A 
ATOM     44  C   UNL A   1      37.882  30.267  28.364  1.00  0.00     0.014 A 
ATOM     45  C   UNL A   1      38.435  28.233  30.192  1.00  0.00     0.010 A 
ATOM     46  C   UNL A   1      39.112  29.642  28.342  1.00  0.00     0.010 A 
ATOM     47  C   UNL A   1      39.412  28.673  29.299  1.00  0.00    -0.014 A 
BRANCH  47  48
ATOM     48  C   UNL A   1      40.798  28.236  29.384  1.00  0.00     0.031 A 
ATOM     49  C   UNL A   1      41.242  27.020  28.675  1.00  0.00     0.074 A 
ATOM     50  C   UNL A   1      41.684  28.971  30.092  1.00  0.00     0.049 A 
ATOM     51  N   UNL A   1      42.229  26.285  29.057  1.00  0.00    -0.248 NA
ATOM     52  C   UNL A   1      40.586  26.525  27.471  1.00  0.00     0.031 C 
ATOM     53  C   UNL A   1      43.128  28.786  30.159  1.00  0.00     0.029 A 
ATOM     54  N   UNL A   1      41.424  29.968  31.035  1.00  0.00    -0.354 N 
ATOM     55  C   UNL A   1      42.499  25.387  28.052  1.00  0.00     0.074 A 
ATOM     56  C   UNL A   1      41.417  25.544  27.107  1.00  0.00     0.031 C 
ATOM     57  C   UNL A   1      43.622  29.477  31.196  1.00  0.00     0.029 A 
ATOM     58  C   UNL A   1      42.488  29.961  31.957  1.00  0.00     0.049 A 
ATOM     59  H   UNL A   1      40.642  30.566  31.052  1.00  0.00     0.167 HD
ATOM     60  C   UNL A   1      43.677  24.699  28.062  1.00  0.00     0.037 A 
ATOM     61  C   UNL A   1      42.265  29.627  33.263  1.00  0.00     0.037 A 
ATOM     62  C   UNL A   1      44.498  25.067  29.214  1.00  0.00     0.049 A 
ATOM     63  C   UNL A   1      42.960  28.344  33.669  1.00  0.00     0.074 A 
ATOM     64  C   UNL A   1      45.578  25.924  29.350  1.00  0.00     0.029 A 
ATOM     65  N   UNL A   1      44.057  24.789  30.507  1.00  0.00    -0.354 N 
ATOM     66  N   UNL A   1      43.336  27.418  32.827  1.00  0.00    -0.248 NA
ATOM     67  C   UNL A   1      43.321  28.023  35.046  1.00  0.00     0.031 C 
ATOM     68  C   UNL A   1      45.732  26.232  30.723  1.00  0.00     0.029 A 
ATOM     69  C   UNL A   1      44.782  25.517  31.433  1.00  0.00     0.049 A 
ATOM     70  H   UNL A   1      43.331  24.164  30.730  1.00  0.00     0.167 HD
ATOM     71  C   UNL A   1      44.004  26.429  33.499  1.00  0.00     0.074 A 
ATOM     72  C   UNL A   1      43.957  26.849  34.889  1.00  0.00     0.031 C 
ATOM     73  C   UNL A   1      44.568  25.359  32.863  1.00  0.00     0.037 A 
BRANCH  60  74
ATOM     74  C   UNL A   1      44.180  23.951  26.848  1.00  0.00     0.057 A 
ATOM     75  C   UNL A   1      44.956  24.585  25.858  1.00  0.00     0.134 A 
ATOM     76  C   UNL A   1      43.881  22.605  26.577  1.00  0.00     0.134 A 
ATOM     77  F   UNL A   1      45.428  25.826  26.016  1.00  0.00    -0.206 F 
ATOM     78  C   UNL A   1      45.284  23.974  24.640  1.00  0.00     0.040 A 
ATOM     79  C   UNL A   1      44.155  21.997  25.342  1.00  0.00     0.040 A 
ATOM     80  F   UNL A   1      43.336  21.814  27.512  1.00  0.00    -0.206 F 
ATOM     81  C   UNL A   1      44.845  22.690  24.359  1.00  0.00     0.006 A 
ENDBRANCH  60  74
BRANCH  61  82
ATOM     82  C   UNL A   1      40.957  30.118  33.767  1.00  0.00     0.057 A 
ATOM     83  C   UNL A   1      40.851  31.478  34.118  1.00  0.00     0.134 A 
ATOM     84  C   UNL A   1      39.764  29.431  33.526  1.00  0.00     0.134 A 
ATOM     85  F   UNL A   1      41.959  32.200  34.353  1.00  0.00    -0.206 F 
ATOM     86  C   UNL A   1      39.627  32.152  34.114  1.00  0.00     0.040 A 
ATOM     87  C   UNL A   1      38.530  30.096  33.528  1.00  0.00     0.040 A 
ATOM     88  F   UNL A   1      39.781  28.142  33.160  1.00  0.00    -0.206 F 
ATOM     89  C   UNL A   1      38.464  31.466  33.781  1.00  0.00     0.006 A 
ENDBRANCH  61  82
BRANCH  73  90
ATOM     90  C   UNL A   1      45.107  24.115  33.530  1.00  0.00     0.057 A 
ATOM     91  C   UNL A   1      46.408  24.001  34.038  1.00  0.00     0.134 A 
ATOM     92  C   UNL A   1      44.252  23.027  33.828  1.00  0.00     0.134 A 
ATOM     93  F   UNL A   1      47.294  25.000  33.927  1.00  0.00    -0.206 F 
ATOM     94  C   UNL A   1      46.844  22.869  34.741  1.00  0.00     0.040 A 
ATOM     95  C   UNL A   1      44.660  21.919  34.573  1.00  0.00     0.040 A 
ATOM     96  F   UNL A   1      42.971  23.003  33.432  1.00  0.00    -0.206 F 
ATOM     97  C   UNL A   1      45.966  21.830  35.023  1.00  0.00     0.006 A 
ENDBRANCH  73  90
ENDBRANCH  47  48
ENDBRANCH  39  42
ENDBRANCH  37  38
ENDBRANCH  36  37
ENDBRANCH  35  36
ENDBRANCH   1  35
TORSDOF 15
ENDMDL
MODEL 2
REMARK VINA RESULT:     -13.7      1.813      2.782
REMARK SMILES Cc1ccc(NC(=O)[C@@H]2[C@@H](C(=O)NCCCCNC(=O)c3ccc(-c4c5nc(c(-c6c(F)cccc6F)c6ccc([nH]6)c(-c6c(F)cccc6F)c6nc(c(-c7c(F)cccc7F)c7ccc4[nH]7)C=C6)C=C5)cc3)[C@@H]3C=C[C@H]2C3)cc1NC(=O)c1ccc(Cl)cc1
REMARK SMILES IDX 14 1 13 2 11 3 12 4 10 6 9 7 78 8 75 9 77 10 79 11 76 12
REMARK SMILES IDX 7 13 6 14 8 16 5 17 1 18 2 19 3 20 81 21 4 22 80 23 82 24
REMARK SMILES IDX 83 25 84 27 85 28 86 29 91 30 87 31 90 32 88 33 89 34 15 35
REMARK SMILES IDX 16 36 17 37 18 38 19 39 20 41 21 42 22 43 74 44 23 45 73 46
REMARK SMILES IDX 24 47 25 48 26 49 67 50 27 51 72 52 66 53 68 54 28 55 71 56
REMARK SMILES IDX 65 57 64 58 29 60 55 61 38 62 54 63 39 64 42 65 53 66 69 67
REMARK SMILES IDX 40 68 41 69 52 71 70 72 43 73 30 74 31 75 36 76 32 77 33 78
REMARK SMILES IDX 35 79 37 80 34 81 56 82 57 83 62 84 58 85 59 86 61 87 63 88
REMARK SMILES IDX 60 89 44 90 45 91 50 92 46 93 47 94 49 95 51 96 48 97
REMARK H PARENT 13 5 6 15 82 26 18 40 68 59 42 70
REMARK Flexibility Score: inf
ROOT
ATOM      1  C   UNL A   1      32.264  30.455  26.006  1.00  0.00     0.116 C 
ENDROOT
BRANCH   1   2
ATOM      2  N   UNL A   1      32.350  29.675  24.784  1.00  0.00    -0.356 N 
ATOM      3  C   UNL A   1      31.466  29.177  23.884  1.00  0.00     0.224 C 
ATOM      4  O   UNL A   1      31.983  28.506  22.979  1.00  0.00    -0.275 OA
ATOM      5  H   UNL A   1      33.280  29.454  24.550  1.00  0.00     0.163 HD
BRANCH   3   6
ATOM      6  C   UNL A   1      29.963  29.472  23.802  1.00  0.00     0.098 C 
ATOM      7  C   UNL A   1      29.220  28.317  23.086  1.00  0.00     0.099 C 
ATOM      8  C   UNL A   1      28.165  29.049  22.217  1.00  0.00     0.025 C 
ATOM      9  C   UNL A   1      29.488  30.691  22.968  1.00  0.00     0.025 C 
ATOM     10  C   UNL A   1      27.309  29.979  23.054  1.00  0.00    -0.027 C 
ATOM     11  C   UNL A   1      29.064  30.101  21.600  1.00  0.00     0.017 C 
ATOM     12  C   UNL A   1      28.092  30.986  23.473  1.00  0.00    -0.027 C 
BRANCH   7  13
ATOM     13  C   UNL A   1      28.531  27.175  23.776  1.00  0.00     0.228 C 
ATOM     14  N   UNL A   1      29.302  26.167  24.329  1.00  0.00    -0.326 N 
ATOM     15  H   UNL A   1      28.799  25.333  24.476  1.00  0.00     0.169 HD
ATOM     16  O   UNL A   1      27.305  27.054  23.777  1.00  0.00    -0.274 OA
BRANCH  14  17
ATOM     17  C   UNL A   1      30.666  26.073  24.730  1.00  0.00     0.043 A 
ATOM     18  C   UNL A   1      34.339  24.473  26.282  1.00  0.00     0.046 C 
ATOM     19  C   UNL A   1      33.176  25.172  25.639  1.00  0.00    -0.027 A 
ATOM     20  C   UNL A   1      32.388  25.998  26.426  1.00  0.00     0.008 A 
ATOM     21  C   UNL A   1      32.839  25.035  24.287  1.00  0.00     0.046 A 
ATOM     22  C   UNL A   1      31.206  26.528  25.927  1.00  0.00     0.026 A 
ATOM     23  C   UNL A   1      31.539  25.378  23.878  1.00  0.00     0.052 A 
BRANCH  21  24
ATOM     24  N   UNL A   1      33.837  24.568  23.417  1.00  0.00    -0.322 N 
ATOM     25  C   UNL A   1      34.393  23.335  23.187  1.00  0.00     0.255 C 
ATOM     26  H   UNL A   1      34.220  25.277  22.851  1.00  0.00     0.170 HD
ATOM     27  O   UNL A   1      35.332  23.252  22.392  1.00  0.00    -0.269 OA
BRANCH  25  28
ATOM     28  C   UNL A   1      33.901  22.082  23.798  1.00  0.00     0.040 A 
ATOM     29  C   UNL A   1      34.815  21.353  24.571  1.00  0.00     0.015 A 
ATOM     30  C   UNL A   1      32.621  21.564  23.563  1.00  0.00     0.015 A 
ATOM     31  C   UNL A   1      34.434  20.148  25.162  1.00  0.00     0.021 A 
ATOM     32  C   UNL A   1      32.235  20.365  24.174  1.00  0.00     0.021 A 
ATOM     33  C   UNL A   1      33.140  19.667  24.975  1.00  0.00     0.041 A 
ATOM     34  Cl  UNL A   1      32.664  18.196  25.727  1.00  0.00    -0.084 Cl
ENDBRANCH  25  28
ENDBRANCH  21  24
ENDBRANCH  14  17
ENDBRANCH   7  13
ENDBRANCH   3   6
ENDBRANCH   1   2
BRANCH   1  35
ATOM     35  C   UNL A   1      32.540  29.635  27.270  1.00  0.00     0.023 C 
BRANCH  35  36
ATOM     36  C   UNL A   1      34.008  29.552  27.682  1.00  0.00     0.023 C 
BRANCH  36  37
ATOM     37  C   UNL A   1      34.822  30.796  27.350  1.00  0.00     0.116 C 
BRANCH  37  38
ATOM     38  N   UNL A   1      35.406  31.479  28.499  1.00  0.00    -0.352 N 
ATOM     39  C   UNL A   1      36.431  31.067  29.340  1.00  0.00     0.251 C 
ATOM     40  H   UNL A   1      35.016  32.358  28.710  1.00  0.00     0.163 HD
ATOM     41  O   UNL A   1      36.772  31.764  30.279  1.00  0.00    -0.269 OA
BRANCH  39  42
ATOM     42  C   UNL A   1      37.209  29.845  29.000  1.00  0.00     0.039 A 
ATOM     43  C   UNL A   1      37.392  28.888  30.004  1.00  0.00     0.014 A 
ATOM     44  C   UNL A   1      37.928  29.753  27.812  1.00  0.00     0.014 A 
ATOM     45  C   UNL A   1      38.479  28.022  29.929  1.00  0.00     0.010 A 
ATOM     46  C   UNL A   1      39.069  28.979  27.782  1.00  0.00     0.010 A 
ATOM     47  C   UNL A   1      39.378  28.164  28.872  1.00  0.00    -0.014 A 
BRANCH  47  48
ATOM     48  C   UNL A   1      40.708  27.571  28.896  1.00  0.00     0.031 A 
ATOM     49  C   UNL A   1      40.913  26.183  28.442  1.00  0.00     0.074 A 
ATOM     50  C   UNL A   1      41.759  28.314  29.307  1.00  0.00     0.049 A 
ATOM     51  N   UNL A   1      41.860  25.420  28.868  1.00  0.00    -0.248 NA
ATOM     52  C   UNL A   1      40.043  25.533  27.469  1.00  0.00     0.031 C 
ATOM     53  C   UNL A   1      43.170  27.953  29.249  1.00  0.00     0.029 A 
ATOM     54  N   UNL A   1      41.744  29.517  30.018  1.00  0.00    -0.354 N 
ATOM     55  C   UNL A   1      41.887  24.298  28.074  1.00  0.00     0.074 A 
ATOM     56  C   UNL A   1      40.704  24.393  27.249  1.00  0.00     0.031 C 
ATOM     57  C   UNL A   1      43.878  28.777  30.034  1.00  0.00     0.029 A 
ATOM     58  C   UNL A   1      42.922  29.564  30.788  1.00  0.00     0.049 A 
ATOM     59  H   UNL A   1      41.041  30.205  29.985  1.00  0.00     0.167 HD
ATOM     60  C   UNL A   1      42.974  23.474  28.107  1.00  0.00     0.037 A 
ATOM     61  C   UNL A   1      42.854  29.553  32.152  1.00  0.00     0.037 A 
ATOM     62  C   UNL A   1      43.985  23.966  29.041  1.00  0.00     0.049 A 
ATOM     63  C   UNL A   1      43.458  28.305  32.761  1.00  0.00     0.074 A 
ATOM     64  C   UNL A   1      45.159  24.677  28.849  1.00  0.00     0.029 A 
ATOM     65  N   UNL A   1      43.706  24.037  30.405  1.00  0.00    -0.354 N 
ATOM     66  N   UNL A   1      43.609  27.177  32.119  1.00  0.00    -0.248 NA
ATOM     67  C   UNL A   1      43.975  28.242  34.125  1.00  0.00     0.031 C 
ATOM     68  C   UNL A   1      45.539  25.249  30.087  1.00  0.00     0.029 A 
ATOM     69  C   UNL A   1      44.630  24.841  31.047  1.00  0.00     0.049 A 
ATOM     70  H   UNL A   1      42.957  23.579  30.849  1.00  0.00     0.167 HD
ATOM     71  C   UNL A   1      44.257  26.274  32.922  1.00  0.00     0.074 A 
ATOM     72  C   UNL A   1      44.454  26.987  34.172  1.00  0.00     0.031 C 
ATOM     73  C   UNL A   1      44.607  25.026  32.490  1.00  0.00     0.037 A 
BRANCH  60  74
ATOM     74  C   UNL A   1      43.216  22.420  27.050  1.00  0.00     0.057 A 
ATOM     75  C   UNL A   1      42.464  21.230  27.006  1.00  0.00     0.134 A 
ATOM     76  C   UNL A   1      44.223  22.506  26.074  1.00  0.00     0.134 A 
ATOM     77  F   UNL A   1      41.393  21.041  27.786  1.00  0.00    -0.206 F 
ATOM     78  C   UNL A   1      42.781  20.160  26.159  1.00  0.00     0.040 A 
ATOM     79  C   UNL A   1      44.586  21.424  25.256  1.00  0.00     0.040 A 
ATOM     80  F   UNL A   1      44.878  23.654  25.853  1.00  0.00    -0.206 F 
ATOM     81  C   UNL A   1      43.873  20.237  25.310  1.00  0.00     0.006 A 
ENDBRANCH  60  74
BRANCH  61  82
ATOM     82  C   UNL A   1      41.690  30.315  32.676  1.00  0.00     0.057 A 
ATOM     83  C   UNL A   1      41.770  31.720  32.685  1.00  0.00     0.134 A 
ATOM     84  C   UNL A   1      40.414  29.752  32.765  1.00  0.00     0.134 A 
ATOM     85  F   UNL A   1      42.966  32.327  32.591  1.00  0.00    -0.206 F 
ATOM     86  C   UNL A   1      40.631  32.528  32.664  1.00  0.00     0.040 A 
ATOM     87  C   UNL A   1      39.265  30.554  32.754  1.00  0.00     0.040 A 
ATOM     88  F   UNL A   1      40.252  28.422  32.735  1.00  0.00    -0.206 F 
ATOM     89  C   UNL A   1      39.370  31.942  32.661  1.00  0.00     0.006 A 
ENDBRANCH  61  82
BRANCH  73  90
ATOM     90  C   UNL A   1      45.099  23.894  33.360  1.00  0.00     0.057 A 
ATOM     91  C   UNL A   1      46.400  23.812  33.875  1.00  0.00     0.134 A 
ATOM     92  C   UNL A   1      44.201  22.913  33.846  1.00  0.00     0.134 A 
ATOM     93  F   UNL A   1      47.327  24.736  33.589  1.00  0.00    -0.206 F 
ATOM     94  C   UNL A   1      46.794  22.800  34.762  1.00  0.00     0.040 A 
ATOM     95  C   UNL A   1      44.570  21.933  34.771  1.00  0.00     0.040 A 
ATOM     96  F   UNL A   1      42.916  22.878  33.466  1.00  0.00    -0.206 F 
ATOM     97  C   UNL A   1      45.876  21.866  35.224  1.00  0.00     0.006 A 
ENDBRANCH  73  90
ENDBRANCH  47  48
ENDBRANCH  39  42
ENDBRANCH  37  38
ENDBRANCH  36  37
ENDBRANCH  35  36
ENDBRANCH   1  35
TORSDOF 15
ENDMDL
MODEL 3
REMARK VINA RESULT:     -13.2      1.754      2.661
REMARK SMILES Cc1ccc(NC(=O)[C@@H]2[C@@H](C(=O)NCCCCNC(=O)c3ccc(-c4c5nc(c(-c6c(F)cccc6F)c6ccc([nH]6)c(-c6c(F)cccc6F)c6nc(c(-c7c(F)cccc7F)c7ccc4[nH]7)C=C6)C=C5)cc3)[C@@H]3C=C[C@H]2C3)cc1NC(=O)c1ccc(Cl)cc1
REMARK SMILES IDX 14 1 13 2 11 3 12 4 10 6 9 7 78 8 75 9 77 10 79 11 76 12
REMARK SMILES IDX 7 13 6 14 8 16 5 17 1 18 2 19 3 20 81 21 4 22 80 23 82 24
REMARK SMILES IDX 83 25 84 27 85 28 86 29 91 30 87 31 90 32 88 33 89 34 15 35
REMARK SMILES IDX 16 36 17 37 18 38 19 39 20 41 21 42 22 43 74 44 23 45 73 46
REMARK SMILES IDX 24 47 25 48 26 49 67 50 27 51 72 52 66 53 68 54 28 55 71 56
REMARK SMILES IDX 65 57 64 58 29 60 55 61 38 62 54 63 39 64 42 65 53 66 69 67
REMARK SMILES IDX 40 68 41 69 52 71 70 72 43 73 30 74 31 75 36 76 32 77 33 78
REMARK SMILES IDX 35 79 37 80 34 81 56 82 57 83 62 84 58 85 59 86 61 87 63 88
REMARK SMILES IDX 60 89 44 90 45 91 50 92 46 93 47 94 49 95 51 96 48 97
REMARK H PARENT 13 5 6 15 82 26 18 40 68 59 42 70
REMARK Flexibility Score: inf
ROOT
ATOM      1  C   UNL A   1      33.412  28.806  26.474  1.00  0.00     0.116 C 
ENDROOT
BRANCH   1   2
ATOM      2  N   UNL A   1      33.711  28.997  25.065  1.00  0.00    -0.356 N 
ATOM      3  C   UNL A   1      33.429  28.340  23.913  1.00  0.00     0.224 C 
ATOM      4  O   UNL A   1      33.938  28.842  22.901  1.00  0.00    -0.275 OA
ATOM      5  H   UNL A   1      34.253  29.804  24.906  1.00  0.00     0.163 HD
BRANCH   3   6
ATOM      6  C   UNL A   1      32.459  27.164  23.732  1.00  0.00     0.098 C 
ATOM      7  C   UNL A   1      32.198  26.902  22.228  1.00  0.00     0.099 C 
ATOM      8  C   UNL A   1      30.686  26.562  22.178  1.00  0.00     0.025 C 
ATOM      9  C   UNL A   1      31.010  27.306  24.264  1.00  0.00     0.025 C 
ATOM     10  C   UNL A   1      30.342  25.429  23.125  1.00  0.00    -0.027 C 
ATOM     11  C   UNL A   1      30.165  27.702  23.028  1.00  0.00     0.017 C 
ATOM     12  C   UNL A   1      30.498  25.886  24.379  1.00  0.00    -0.027 C 
BRANCH   7  13
ATOM     13  C   UNL A   1      32.922  25.888  21.389  1.00  0.00     0.228 C 
ATOM     14  N   UNL A   1      33.622  24.875  22.024  1.00  0.00    -0.326 N 
ATOM     15  H   UNL A   1      34.301  24.456  21.447  1.00  0.00     0.169 HD
ATOM     16  O   UNL A   1      32.999  25.985  20.164  1.00  0.00    -0.274 OA
BRANCH  14  17
ATOM     17  C   UNL A   1      33.574  24.309  23.330  1.00  0.00     0.043 A 
ATOM     18  C   UNL A   1      32.122  23.171  27.211  1.00  0.00     0.046 C 
ATOM     19  C   UNL A   1      32.767  23.412  25.877  1.00  0.00    -0.027 A 
ATOM     20  C   UNL A   1      33.609  24.506  25.740  1.00  0.00     0.008 A 
ATOM     21  C   UNL A   1      32.566  22.594  24.758  1.00  0.00     0.046 A 
ATOM     22  C   UNL A   1      34.091  24.872  24.492  1.00  0.00     0.026 A 
ATOM     23  C   UNL A   1      32.863  23.109  23.484  1.00  0.00     0.052 A 
BRANCH  21  24
ATOM     24  N   UNL A   1      32.085  21.295  24.986  1.00  0.00    -0.322 N 
ATOM     25  C   UNL A   1      32.683  20.063  25.065  1.00  0.00     0.255 C 
ATOM     26  H   UNL A   1      31.109  21.261  25.120  1.00  0.00     0.170 HD
ATOM     27  O   UNL A   1      31.967  19.069  25.204  1.00  0.00    -0.269 OA
BRANCH  25  28
ATOM     28  C   UNL A   1      34.147  19.854  25.044  1.00  0.00     0.040 A 
ATOM     29  C   UNL A   1      34.947  20.950  25.394  1.00  0.00     0.015 A 
ATOM     30  C   UNL A   1      34.748  18.666  24.611  1.00  0.00     0.015 A 
ATOM     31  C   UNL A   1      36.338  20.841  25.378  1.00  0.00     0.021 A 
ATOM     32  C   UNL A   1      36.143  18.552  24.614  1.00  0.00     0.021 A 
ATOM     33  C   UNL A   1      36.930  19.638  25.004  1.00  0.00     0.041 A 
ATOM     34  Cl  UNL A   1      38.644  19.496  25.009  1.00  0.00    -0.084 Cl
ENDBRANCH  25  28
ENDBRANCH  21  24
ENDBRANCH  14  17
ENDBRANCH   7  13
ENDBRANCH   3   6
ENDBRANCH   1   2
BRANCH   1  35
ATOM     35  C   UNL A   1      32.566  29.932  27.073  1.00  0.00     0.023 C 
BRANCH  35  36
ATOM     36  C   UNL A   1      33.356  31.118  27.620  1.00  0.00     0.023 C 
BRANCH  36  37
ATOM     37  C   UNL A   1      34.869  30.946  27.553  1.00  0.00     0.116 C 
BRANCH  37  38
ATOM     38  N   UNL A   1      35.620  31.665  28.576  1.00  0.00    -0.352 N 
ATOM     39  C   UNL A   1      36.727  31.256  29.307  1.00  0.00     0.251 C 
ATOM     40  H   UNL A   1      35.294  32.572  28.778  1.00  0.00     0.163 HD
ATOM     41  O   UNL A   1      37.211  31.989  30.150  1.00  0.00    -0.269 OA
BRANCH  39  42
ATOM     42  C   UNL A   1      37.407  29.981  28.951  1.00  0.00     0.039 A 
ATOM     43  C   UNL A   1      37.537  29.009  29.949  1.00  0.00     0.014 A 
ATOM     44  C   UNL A   1      38.096  29.841  27.749  1.00  0.00     0.014 A 
ATOM     45  C   UNL A   1      38.556  28.067  29.852  1.00  0.00     0.010 A 
ATOM     46  C   UNL A   1      39.177  28.985  27.698  1.00  0.00     0.010 A 
ATOM     47  C   UNL A   1      39.445  28.146  28.780  1.00  0.00    -0.014 A 
BRANCH  47  48
ATOM     48  C   UNL A   1      40.728  27.458  28.779  1.00  0.00     0.031 A 
ATOM     49  C   UNL A   1      40.806  26.027  28.429  1.00  0.00     0.074 A 
ATOM     50  C   UNL A   1      41.853  28.149  29.070  1.00  0.00     0.049 A 
ATOM     51  N   UNL A   1      41.720  25.229  28.863  1.00  0.00    -0.248 NA
ATOM     52  C   UNL A   1      39.834  25.372  27.562  1.00  0.00     0.031 C 
ATOM     53  C   UNL A   1      43.228  27.678  28.963  1.00  0.00     0.029 A 
ATOM     54  N   UNL A   1      41.967  29.400  29.679  1.00  0.00    -0.354 N 
ATOM     55  C   UNL A   1      41.618  24.051  28.163  1.00  0.00     0.074 A 
ATOM     56  C   UNL A   1      40.397  24.171  27.400  1.00  0.00     0.031 C 
ATOM     57  C   UNL A   1      44.040  28.504  29.638  1.00  0.00     0.029 A 
ATOM     58  C   UNL A   1      43.190  29.417  30.377  1.00  0.00     0.049 A 
ATOM     59  H   UNL A   1      41.314  30.135  29.629  1.00  0.00     0.167 HD
ATOM     60  C   UNL A   1      42.644  23.152  28.204  1.00  0.00     0.037 A 
ATOM     61  C   UNL A   1      43.204  29.518  31.739  1.00  0.00     0.037 A 
ATOM     62  C   UNL A   1      43.743  23.637  29.037  1.00  0.00     0.049 A 
ATOM     63  C   UNL A   1      43.755  28.278  32.414  1.00  0.00     0.074 A 
ATOM     64  C   UNL A   1      44.950  24.240  28.723  1.00  0.00     0.029 A 
ATOM     65  N   UNL A   1      43.554  23.834  30.404  1.00  0.00    -0.354 N 
ATOM     66  N   UNL A   1      43.785  27.096  31.859  1.00  0.00    -0.248 NA
ATOM     67  C   UNL A   1      44.348  28.282  33.748  1.00  0.00     0.031 C 
ATOM     68  C   UNL A   1      45.446  24.876  29.887  1.00  0.00     0.029 A 
ATOM     69  C   UNL A   1      44.570  24.613  30.926  1.00  0.00     0.049 A 
ATOM     70  H   UNL A   1      42.802  23.470  30.924  1.00  0.00     0.167 HD
ATOM     71  C   UNL A   1      44.415  26.211  32.695  1.00  0.00     0.074 A 
ATOM     72  C   UNL A   1      44.738  27.001  33.871  1.00  0.00     0.031 C 
ATOM     73  C   UNL A   1      44.648  24.910  32.348  1.00  0.00     0.037 A 
BRANCH  60  74
ATOM     74  C   UNL A   1      42.745  22.004  27.225  1.00  0.00     0.057 A 
ATOM     75  C   UNL A   1      41.949  20.849  27.354  1.00  0.00     0.134 A 
ATOM     76  C   UNL A   1      43.658  21.963  26.156  1.00  0.00     0.134 A 
ATOM     77  F   UNL A   1      40.951  20.774  28.241  1.00  0.00    -0.206 F 
ATOM     78  C   UNL A   1      42.144  19.700  26.577  1.00  0.00     0.040 A 
ATOM     79  C   UNL A   1      43.901  20.802  25.406  1.00  0.00     0.040 A 
ATOM     80  F   UNL A   1      44.330  23.059  25.777  1.00  0.00    -0.206 F 
ATOM     81  C   UNL A   1      43.153  19.657  25.628  1.00  0.00     0.006 A 
ENDBRANCH  60  74
BRANCH  61  82
ATOM     82  C   UNL A   1      42.132  30.404  32.262  1.00  0.00     0.057 A 
ATOM     83  C   UNL A   1      42.329  31.796  32.185  1.00  0.00     0.134 A 
ATOM     84  C   UNL A   1      40.819  29.957  32.434  1.00  0.00     0.134 A 
ATOM     85  F   UNL A   1      43.565  32.291  32.010  1.00  0.00    -0.206 F 
ATOM     86  C   UNL A   1      41.261  32.696  32.162  1.00  0.00     0.040 A 
ATOM     87  C   UNL A   1      39.741  30.853  32.421  1.00  0.00     0.040 A 
ATOM     88  F   UNL A   1      40.546  28.647  32.489  1.00  0.00    -0.206 F 
ATOM     89  C   UNL A   1      39.957  32.219  32.242  1.00  0.00     0.006 A 
ENDBRANCH  61  82
BRANCH  73  90
ATOM     90  C   UNL A   1      45.110  23.815  33.279  1.00  0.00     0.057 A 
ATOM     91  C   UNL A   1      46.403  23.736  33.813  1.00  0.00     0.134 A 
ATOM     92  C   UNL A   1      44.190  22.875  33.803  1.00  0.00     0.134 A 
ATOM     93  F   UNL A   1      47.350  24.629  33.493  1.00  0.00    -0.206 F 
ATOM     94  C   UNL A   1      46.770  22.764  34.755  1.00  0.00     0.040 A 
ATOM     95  C   UNL A   1      44.531  21.937  34.779  1.00  0.00     0.040 A 
ATOM     96  F   UNL A   1      42.908  22.842  33.409  1.00  0.00    -0.206 F 
ATOM     97  C   UNL A   1      45.831  21.869  35.251  1.00  0.00     0.006 A 
ENDBRANCH  73  90
ENDBRANCH  47  48
ENDBRANCH  39  42
ENDBRANCH  37  38
ENDBRANCH  36  37
ENDBRANCH  35  36
ENDBRANCH   1  35
TORSDOF 15
ENDMDL
