MODEL 1
REMARK VINA RESULT:     -12.2      0.000      0.000
REMARK SMILES Cc1cc(C(=O)NCCCCNC(=O)c2ccc(-c3c4nc(c(-c5c(F)cccc5F)c5ccc([nH]5)c(-c5c(F)cccc5F)c5nc(c(-c6c(F)cccc6F)c6ccc3[nH]6)C=C5)C=C4)cc2)c(C)n1[C@@H]1C[N@H+]2CC[C@@H]1CC2
REMARK SMILES IDX 10 1 9 2 8 3 7 4 5 5 6 6 4 8 1 9 2 10 3 11 71 12 69 13 70 14
REMARK SMILES IDX 72 15 73 16 77 17 74 18 78 19 76 20 79 21 75 22 11 24 12 25
REMARK SMILES IDX 13 26 14 28 15 29 16 30 68 31 17 32 67 33 18 34 19 35 20 36
REMARK SMILES IDX 61 37 21 38 66 39 60 40 62 41 22 42 65 43 59 44 58 45 23 47
REMARK SMILES IDX 49 48 32 49 48 50 33 51 36 52 47 53 63 54 34 55 35 56 46 58
REMARK SMILES IDX 64 59 37 60 24 61 25 62 30 63 26 64 27 65 29 66 31 67 28 68
REMARK SMILES IDX 50 69 51 70 56 71 52 72 53 73 55 74 57 75 54 76 38 77 39 78
REMARK SMILES IDX 44 79 40 80 41 81 43 82 45 83 42 84
REMARK H PARENT 7 7 74 23 12 27 62 46 36 57
REMARK Flexibility Score: inf
ROOT
ATOM      1  C   UNL A   1      36.046  23.254  25.757  1.00  0.00     0.023 C 
ENDROOT
BRANCH   1   2
ATOM      2  C   UNL A   1      35.753  21.784  26.120  1.00  0.00     0.023 C 
BRANCH   2   3
ATOM      3  C   UNL A   1      35.375  20.875  24.951  1.00  0.00     0.116 C 
BRANCH   3   4
ATOM      4  N   UNL A   1      34.015  20.367  25.079  1.00  0.00    -0.352 N 
ATOM      5  C   UNL A   1      32.779  20.943  24.952  1.00  0.00     0.253 C 
ATOM      6  O   UNL A   1      31.811  20.160  25.014  1.00  0.00    -0.269 OA
ATOM      7  H   UNL A   1      33.977  19.411  25.303  1.00  0.00     0.163 HD
BRANCH   5   8
ATOM      8  C   UNL A   1      32.602  22.375  24.700  1.00  0.00     0.060 A 
ATOM      9  C   UNL A   1      31.514  25.139  22.565  1.00  0.00     0.064 C 
ATOM     10  C   UNL A   1      32.072  24.315  23.668  1.00  0.00     0.016 A 
ATOM     11  C   UNL A   1      32.644  23.075  23.478  1.00  0.00     0.037 A 
ATOM     12  N   UNL A   1      32.107  24.576  25.031  1.00  0.00    -0.339 N 
ATOM     13  C   UNL A   1      32.381  23.360  25.675  1.00  0.00     0.028 A 
ATOM     14  C   UNL A   1      32.401  23.143  27.161  1.00  0.00     0.065 C 
BRANCH  12  15
ATOM     15  C   UNL A   1      31.936  25.868  25.712  1.00  0.00     0.145 C 
ATOM     16  C   UNL A   1      30.838  26.817  25.177  1.00  0.00     0.288 C 
ATOM     17  C   UNL A   1      33.240  26.690  25.934  1.00  0.00     0.029 C 
ATOM     18  N   UNL A   1      31.334  28.211  25.004  1.00  0.00    -0.333 N 
ATOM     19  C   UNL A   1      32.901  27.839  26.915  1.00  0.00     0.067 C 
ATOM     20  C   UNL A   1      33.671  27.392  24.640  1.00  0.00     0.067 C 
ATOM     21  C   UNL A   1      31.791  28.723  26.315  1.00  0.00     0.262 C 
ATOM     22  C   UNL A   1      32.495  28.214  24.085  1.00  0.00     0.262 C 
ATOM     23  H   UNL A   1      30.584  28.792  24.628  1.00  0.00     0.348 HD
ENDBRANCH  12  15
ENDBRANCH   5   8
ENDBRANCH   3   4
ENDBRANCH   2   3
ENDBRANCH   1   2
BRANCH   1  24
ATOM     24  C   UNL A   1      37.505  23.679  25.509  1.00  0.00     0.116 C 
BRANCH  24  25
ATOM     25  N   UNL A   1      38.515  22.693  25.817  1.00  0.00    -0.352 N 
ATOM     26  C   UNL A   1      39.672  22.902  26.556  1.00  0.00     0.251 C 
ATOM     27  H   UNL A   1      38.367  21.784  25.470  1.00  0.00     0.163 HD
ATOM     28  O   UNL A   1      40.477  21.980  26.665  1.00  0.00    -0.269 OA
BRANCH  26  29
ATOM     29  C   UNL A   1      39.989  24.254  27.153  1.00  0.00     0.039 A 
ATOM     30  C   UNL A   1      39.341  24.641  28.313  1.00  0.00     0.014 A 
ATOM     31  C   UNL A   1      40.759  25.243  26.510  1.00  0.00     0.014 A 
ATOM     32  C   UNL A   1      39.509  25.960  28.833  1.00  0.00     0.010 A 
ATOM     33  C   UNL A   1      40.853  26.617  27.001  1.00  0.00     0.010 A 
ATOM     34  C   UNL A   1      40.216  27.044  28.184  1.00  0.00    -0.014 A 
BRANCH  34  35
ATOM     35  C   UNL A   1      39.711  28.552  28.561  1.00  0.00     0.031 A 
ATOM     36  C   UNL A   1      41.016  29.251  28.748  1.00  0.00     0.074 A 
ATOM     37  C   UNL A   1      38.596  29.342  28.881  1.00  0.00     0.049 A 
ATOM     38  N   UNL A   1      41.874  28.766  29.604  1.00  0.00    -0.248 NA
ATOM     39  C   UNL A   1      41.592  30.165  27.760  1.00  0.00     0.031 C 
ATOM     40  C   UNL A   1      37.197  28.914  29.047  1.00  0.00     0.029 A 
ATOM     41  N   UNL A   1      38.435  30.753  29.146  1.00  0.00    -0.354 N 
ATOM     42  C   UNL A   1      42.996  29.543  29.498  1.00  0.00     0.074 A 
ATOM     43  C   UNL A   1      42.859  30.182  28.195  1.00  0.00     0.031 C 
ATOM     44  C   UNL A   1      36.349  29.976  29.223  1.00  0.00     0.029 A 
ATOM     45  C   UNL A   1      37.075  31.249  29.259  1.00  0.00     0.049 A 
ATOM     46  H   UNL A   1      39.211  31.351  29.245  1.00  0.00     0.167 HD
ATOM     47  C   UNL A   1      43.401  30.103  30.676  1.00  0.00     0.037 A 
ATOM     48  C   UNL A   1      36.553  32.536  29.451  1.00  0.00     0.037 A 
ATOM     49  C   UNL A   1      42.979  31.473  30.788  1.00  0.00     0.049 A 
ATOM     50  C   UNL A   1      37.600  33.324  30.106  1.00  0.00     0.074 A 
ATOM     51  C   UNL A   1      42.938  32.526  29.895  1.00  0.00     0.029 A 
ATOM     52  N   UNL A   1      42.083  31.768  31.790  1.00  0.00    -0.354 N 
ATOM     53  N   UNL A   1      37.814  33.222  31.382  1.00  0.00    -0.248 NA
ATOM     54  C   UNL A   1      38.364  34.362  29.424  1.00  0.00     0.031 C 
ATOM     55  C   UNL A   1      41.679  33.123  30.110  1.00  0.00     0.029 A 
ATOM     56  C   UNL A   1      41.187  32.707  31.339  1.00  0.00     0.049 A 
ATOM     57  H   UNL A   1      42.084  31.368  32.690  1.00  0.00     0.167 HD
ATOM     58  C   UNL A   1      39.056  33.738  31.521  1.00  0.00     0.074 A 
ATOM     59  C   UNL A   1      39.212  34.662  30.412  1.00  0.00     0.031 C 
ATOM     60  C   UNL A   1      39.958  32.887  32.065  1.00  0.00     0.037 A 
BRANCH  47  61
ATOM     61  C   UNL A   1      43.421  29.132  31.827  1.00  0.00     0.057 A 
ATOM     62  C   UNL A   1      44.635  28.581  32.233  1.00  0.00     0.134 A 
ATOM     63  C   UNL A   1      42.257  28.635  32.450  1.00  0.00     0.134 A 
ATOM     64  F   UNL A   1      45.790  29.049  31.735  1.00  0.00    -0.206 F 
ATOM     65  C   UNL A   1      44.688  27.533  33.158  1.00  0.00     0.040 A 
ATOM     66  C   UNL A   1      42.290  27.548  33.321  1.00  0.00     0.040 A 
ATOM     67  F   UNL A   1      41.057  29.198  32.225  1.00  0.00    -0.206 F 
ATOM     68  C   UNL A   1      43.511  26.987  33.673  1.00  0.00     0.006 A 
ENDBRANCH  47  61
BRANCH  48  69
ATOM     69  C   UNL A   1      35.261  33.421  29.444  1.00  0.00     0.057 A 
ATOM     70  C   UNL A   1      34.581  33.778  30.664  1.00  0.00     0.134 A 
ATOM     71  C   UNL A   1      34.943  34.282  28.387  1.00  0.00     0.134 A 
ATOM     72  F   UNL A   1      34.711  33.051  31.782  1.00  0.00    -0.206 F 
ATOM     73  C   UNL A   1      33.785  34.929  30.841  1.00  0.00     0.040 A 
ATOM     74  C   UNL A   1      34.103  35.425  28.544  1.00  0.00     0.040 A 
ATOM     75  F   UNL A   1      35.506  34.107  27.185  1.00  0.00    -0.206 F 
ATOM     76  C   UNL A   1      33.555  35.775  29.777  1.00  0.00     0.006 A 
ENDBRANCH  48  69
BRANCH  60  77
ATOM     77  C   UNL A   1      39.503  32.056  33.256  1.00  0.00     0.057 A 
ATOM     78  C   UNL A   1      38.723  30.876  33.238  1.00  0.00     0.134 A 
ATOM     79  C   UNL A   1      39.836  32.533  34.531  1.00  0.00     0.134 A 
ATOM     80  F   UNL A   1      38.416  30.226  32.108  1.00  0.00    -0.206 F 
ATOM     81  C   UNL A   1      38.242  30.277  34.412  1.00  0.00     0.040 A 
ATOM     82  C   UNL A   1      39.413  31.909  35.708  1.00  0.00     0.040 A 
ATOM     83  F   UNL A   1      40.610  33.622  34.659  1.00  0.00    -0.206 F 
ATOM     84  C   UNL A   1      38.589  30.791  35.652  1.00  0.00     0.006 A 
ENDBRANCH  60  77
ENDBRANCH  34  35
ENDBRANCH  26  29
ENDBRANCH  24  25
ENDBRANCH   1  24
TORSDOF 12
ENDMDL
MODEL 2
REMARK VINA RESULT:     -12.2      3.459      8.619
REMARK SMILES Cc1cc(C(=O)NCCCCNC(=O)c2ccc(-c3c4nc(c(-c5c(F)cccc5F)c5ccc([nH]5)c(-c5c(F)cccc5F)c5nc(c(-c6c(F)cccc6F)c6ccc3[nH]6)C=C5)C=C4)cc2)c(C)n1[C@@H]1C[N@H+]2CC[C@@H]1CC2
REMARK SMILES IDX 10 1 9 2 8 3 7 4 5 5 6 6 4 8 1 9 2 10 3 11 71 12 69 13 70 14
REMARK SMILES IDX 72 15 73 16 77 17 74 18 78 19 76 20 79 21 75 22 11 24 12 25
REMARK SMILES IDX 13 26 14 28 15 29 16 30 68 31 17 32 67 33 18 34 19 35 20 36
REMARK SMILES IDX 61 37 21 38 66 39 60 40 62 41 22 42 65 43 59 44 58 45 23 47
REMARK SMILES IDX 49 48 32 49 48 50 33 51 36 52 47 53 63 54 34 55 35 56 46 58
REMARK SMILES IDX 64 59 37 60 24 61 25 62 30 63 26 64 27 65 29 66 31 67 28 68
REMARK SMILES IDX 50 69 51 70 56 71 52 72 53 73 55 74 57 75 54 76 38 77 39 78
REMARK SMILES IDX 44 79 40 80 41 81 43 82 45 83 42 84
REMARK H PARENT 7 7 74 23 12 27 62 46 36 57
REMARK Flexibility Score: inf
ROOT
ATOM      1  C   UNL A   1      32.554  28.138  27.289  1.00  0.00     0.023 C 
ENDROOT
BRANCH   1   2
ATOM      2  C   UNL A   1      32.384  26.903  26.382  1.00  0.00     0.023 C 
BRANCH   2   3
ATOM      3  C   UNL A   1      30.971  26.660  25.850  1.00  0.00     0.116 C 
BRANCH   3   4
ATOM      4  N   UNL A   1      30.329  25.535  26.518  1.00  0.00    -0.352 N 
ATOM      5  C   UNL A   1      30.498  24.178  26.449  1.00  0.00     0.253 C 
ATOM      6  O   UNL A   1      29.840  23.511  27.271  1.00  0.00    -0.269 OA
ATOM      7  H   UNL A   1      29.628  25.809  27.151  1.00  0.00     0.163 HD
BRANCH   5   8
ATOM      8  C   UNL A   1      31.432  23.549  25.513  1.00  0.00     0.060 A 
ATOM      9  C   UNL A   1      32.738  23.068  22.130  1.00  0.00     0.064 C 
ATOM     10  C   UNL A   1      32.478  22.984  23.591  1.00  0.00     0.016 A 
ATOM     11  C   UNL A   1      31.242  23.211  24.158  1.00  0.00     0.037 A 
ATOM     12  N   UNL A   1      33.361  22.715  24.628  1.00  0.00    -0.339 N 
ATOM     13  C   UNL A   1      32.732  23.117  25.816  1.00  0.00     0.028 A 
ATOM     14  C   UNL A   1      33.361  23.116  27.180  1.00  0.00     0.065 C 
BRANCH  12  15
ATOM     15  C   UNL A   1      34.690  22.092  24.549  1.00  0.00     0.145 C 
ATOM     16  C   UNL A   1      35.221  21.381  25.817  1.00  0.00     0.288 C 
ATOM     17  C   UNL A   1      35.822  22.993  23.974  1.00  0.00     0.029 C 
ATOM     18  N   UNL A   1      36.624  21.770  26.136  1.00  0.00    -0.333 N 
ATOM     19  C   UNL A   1      37.041  22.080  23.691  1.00  0.00     0.067 C 
ATOM     20  C   UNL A   1      36.317  23.993  25.027  1.00  0.00     0.067 C 
ATOM     21  C   UNL A   1      37.493  21.400  24.997  1.00  0.00     0.262 C 
ATOM     22  C   UNL A   1      36.703  23.238  26.311  1.00  0.00     0.262 C 
ATOM     23  H   UNL A   1      36.919  21.296  26.989  1.00  0.00     0.348 HD
ENDBRANCH  12  15
ENDBRANCH   5   8
ENDBRANCH   3   4
ENDBRANCH   2   3
ENDBRANCH   1   2
BRANCH   1  24
ATOM     24  C   UNL A   1      33.915  28.856  27.316  1.00  0.00     0.116 C 
BRANCH  24  25
ATOM     25  N   UNL A   1      33.875  30.285  27.524  1.00  0.00    -0.352 N 
ATOM     26  C   UNL A   1      34.896  31.072  28.041  1.00  0.00     0.251 C 
ATOM     27  H   UNL A   1      33.043  30.747  27.273  1.00  0.00     0.163 HD
ATOM     28  O   UNL A   1      34.682  32.266  28.233  1.00  0.00    -0.269 OA
BRANCH  26  29
ATOM     29  C   UNL A   1      36.225  30.470  28.441  1.00  0.00     0.039 A 
ATOM     30  C   UNL A   1      37.169  30.226  27.460  1.00  0.00     0.014 A 
ATOM     31  C   UNL A   1      36.509  29.957  29.721  1.00  0.00     0.014 A 
ATOM     32  C   UNL A   1      38.380  29.536  27.773  1.00  0.00     0.010 A 
ATOM     33  C   UNL A   1      37.709  29.174  30.012  1.00  0.00     0.010 A 
ATOM     34  C   UNL A   1      38.697  28.914  29.041  1.00  0.00    -0.014 A 
BRANCH  34  35
ATOM     35  C   UNL A   1      39.727  27.646  28.976  1.00  0.00     0.031 A 
ATOM     36  C   UNL A   1      40.647  27.970  30.106  1.00  0.00     0.074 A 
ATOM     37  C   UNL A   1      40.121  26.526  28.230  1.00  0.00     0.049 A 
ATOM     38  N   UNL A   1      41.253  29.126  30.116  1.00  0.00    -0.248 NA
ATOM     39  C   UNL A   1      40.598  27.297  31.406  1.00  0.00     0.031 C 
ATOM     40  C   UNL A   1      39.602  26.072  26.928  1.00  0.00     0.029 A 
ATOM     41  N   UNL A   1      41.107  25.492  28.453  1.00  0.00    -0.354 N 
ATOM     42  C   UNL A   1      41.945  29.182  31.295  1.00  0.00     0.074 A 
ATOM     43  C   UNL A   1      41.294  28.182  32.132  1.00  0.00     0.031 C 
ATOM     44  C   UNL A   1      40.121  24.859  26.558  1.00  0.00     0.029 A 
ATOM     45  C   UNL A   1      41.101  24.370  27.532  1.00  0.00     0.049 A 
ATOM     46  H   UNL A   1      41.751  25.547  29.195  1.00  0.00     0.167 HD
ATOM     47  C   UNL A   1      43.282  29.421  31.148  1.00  0.00     0.037 A 
ATOM     48  C   UNL A   1      41.857  23.190  27.479  1.00  0.00     0.037 A 
ATOM     49  C   UNL A   1      44.053  28.212  31.244  1.00  0.00     0.049 A 
ATOM     50  C   UNL A   1      43.111  23.458  28.187  1.00  0.00     0.074 A 
ATOM     51  C   UNL A   1      43.984  27.108  32.071  1.00  0.00     0.029 A 
ATOM     52  N   UNL A   1      44.735  27.817  30.115  1.00  0.00    -0.354 N 
ATOM     53  N   UNL A   1      44.079  24.102  27.610  1.00  0.00    -0.248 NA
ATOM     54  C   UNL A   1      43.420  22.913  29.504  1.00  0.00     0.031 C 
ATOM     55  C   UNL A   1      44.143  26.006  31.207  1.00  0.00     0.029 A 
ATOM     56  C   UNL A   1      44.693  26.448  30.012  1.00  0.00     0.049 A 
ATOM     57  H   UNL A   1      45.182  28.423  29.480  1.00  0.00     0.167 HD
ATOM     58  C   UNL A   1      44.838  24.505  28.655  1.00  0.00     0.074 A 
ATOM     59  C   UNL A   1      44.583  23.536  29.707  1.00  0.00     0.031 C 
ATOM     60  C   UNL A   1      45.004  25.846  28.742  1.00  0.00     0.037 A 
BRANCH  47  61
ATOM     61  C   UNL A   1      43.590  30.541  30.190  1.00  0.00     0.057 A 
ATOM     62  C   UNL A   1      43.890  31.806  30.694  1.00  0.00     0.134 A 
ATOM     63  C   UNL A   1      43.465  30.429  28.789  1.00  0.00     0.134 A 
ATOM     64  F   UNL A   1      44.090  31.980  32.010  1.00  0.00    -0.206 F 
ATOM     65  C   UNL A   1      43.988  32.921  29.856  1.00  0.00     0.040 A 
ATOM     66  C   UNL A   1      43.495  31.541  27.951  1.00  0.00     0.040 A 
ATOM     67  F   UNL A   1      43.314  29.229  28.202  1.00  0.00    -0.206 F 
ATOM     68  C   UNL A   1      43.750  32.797  28.486  1.00  0.00     0.006 A 
ENDBRANCH  47  61
BRANCH  48  69
ATOM     69  C   UNL A   1      42.008  21.781  26.812  1.00  0.00     0.057 A 
ATOM     70  C   UNL A   1      42.952  21.545  25.748  1.00  0.00     0.134 A 
ATOM     71  C   UNL A   1      41.623  20.598  27.454  1.00  0.00     0.134 A 
ATOM     72  F   UNL A   1      43.409  22.540  24.977  1.00  0.00    -0.206 F 
ATOM     73  C   UNL A   1      43.539  20.297  25.449  1.00  0.00     0.040 A 
ATOM     74  C   UNL A   1      42.179  19.324  27.128  1.00  0.00     0.040 A 
ATOM     75  F   UNL A   1      40.767  20.638  28.483  1.00  0.00    -0.206 F 
ATOM     76  C   UNL A   1      43.165  19.175  26.155  1.00  0.00     0.006 A 
ENDBRANCH  48  69
BRANCH  60  77
ATOM     77  C   UNL A   1      45.291  26.599  27.451  1.00  0.00     0.057 A 
ATOM     78  C   UNL A   1      44.365  26.986  26.453  1.00  0.00     0.134 A 
ATOM     79  C   UNL A   1      46.631  26.899  27.173  1.00  0.00     0.134 A 
ATOM     80  F   UNL A   1      43.039  26.877  26.612  1.00  0.00    -0.206 F 
ATOM     81  C   UNL A   1      44.769  27.550  25.234  1.00  0.00     0.040 A 
ATOM     82  C   UNL A   1      47.038  27.517  25.986  1.00  0.00     0.040 A 
ATOM     83  F   UNL A   1      47.584  26.613  28.072  1.00  0.00    -0.206 F 
ATOM     84  C   UNL A   1      46.108  27.819  24.997  1.00  0.00     0.006 A 
ENDBRANCH  60  77
ENDBRANCH  34  35
ENDBRANCH  26  29
ENDBRANCH  24  25
ENDBRANCH   1  24
TORSDOF 12
ENDMDL
MODEL 3
REMARK VINA RESULT:     -12.2      3.608      8.777
REMARK SMILES Cc1cc(C(=O)NCCCCNC(=O)c2ccc(-c3c4nc(c(-c5c(F)cccc5F)c5ccc([nH]5)c(-c5c(F)cccc5F)c5nc(c(-c6c(F)cccc6F)c6ccc3[nH]6)C=C5)C=C4)cc2)c(C)n1[C@@H]1C[N@H+]2CC[C@@H]1CC2
REMARK SMILES IDX 10 1 9 2 8 3 7 4 5 5 6 6 4 8 1 9 2 10 3 11 71 12 69 13 70 14
REMARK SMILES IDX 72 15 73 16 77 17 74 18 78 19 76 20 79 21 75 22 11 24 12 25
REMARK SMILES IDX 13 26 14 28 15 29 16 30 68 31 17 32 67 33 18 34 19 35 20 36
REMARK SMILES IDX 61 37 21 38 66 39 60 40 62 41 22 42 65 43 59 44 58 45 23 47
REMARK SMILES IDX 49 48 32 49 48 50 33 51 36 52 47 53 63 54 34 55 35 56 46 58
REMARK SMILES IDX 64 59 37 60 24 61 25 62 30 63 26 64 27 65 29 66 31 67 28 68
REMARK SMILES IDX 50 69 51 70 56 71 52 72 53 73 55 74 57 75 54 76 38 77 39 78
REMARK SMILES IDX 44 79 40 80 41 81 43 82 45 83 42 84
REMARK H PARENT 7 7 74 23 12 27 62 46 36 57
REMARK Flexibility Score: inf
ROOT
ATOM      1  C   UNL A   1      33.749  28.581  25.986  1.00  0.00     0.023 C 
ENDROOT
BRANCH   1   2
ATOM      2  C   UNL A   1      33.064  29.580  25.032  1.00  0.00     0.023 C 
BRANCH   2   3
ATOM      3  C   UNL A   1      31.535  29.576  25.056  1.00  0.00     0.116 C 
BRANCH   3   4
ATOM      4  N   UNL A   1      30.976  29.248  23.751  1.00  0.00    -0.352 N 
ATOM      5  C   UNL A   1      30.855  28.081  23.044  1.00  0.00     0.253 C 
ATOM      6  O   UNL A   1      30.200  28.158  21.987  1.00  0.00    -0.269 OA
ATOM      7  H   UNL A   1      30.610  30.029  23.278  1.00  0.00     0.163 HD
BRANCH   5   8
ATOM      8  C   UNL A   1      31.404  26.811  23.525  1.00  0.00     0.060 A 
ATOM      9  C   UNL A   1      30.967  23.376  24.702  1.00  0.00     0.064 C 
ATOM     10  C   UNL A   1      31.528  24.692  24.298  1.00  0.00     0.016 A 
ATOM     11  C   UNL A   1      30.841  25.881  24.421  1.00  0.00     0.037 A 
ATOM     12  N   UNL A   1      32.756  24.986  23.723  1.00  0.00    -0.339 N 
ATOM     13  C   UNL A   1      32.660  26.282  23.193  1.00  0.00     0.028 A 
ATOM     14  C   UNL A   1      33.717  26.973  22.379  1.00  0.00     0.065 C 
BRANCH  12  15
ATOM     15  C   UNL A   1      33.965  24.150  23.685  1.00  0.00     0.145 C 
ATOM     16  C   UNL A   1      33.774  22.628  23.479  1.00  0.00     0.288 C 
ATOM     17  C   UNL A   1      34.973  24.371  24.851  1.00  0.00     0.029 C 
ATOM     18  N   UNL A   1      34.570  21.824  24.449  1.00  0.00    -0.333 N 
ATOM     19  C   UNL A   1      36.285  23.642  24.472  1.00  0.00     0.067 C 
ATOM     20  C   UNL A   1      34.492  23.676  26.131  1.00  0.00     0.067 C 
ATOM     21  C   UNL A   1      36.004  22.141  24.269  1.00  0.00     0.262 C 
ATOM     22  C   UNL A   1      34.191  22.197  25.830  1.00  0.00     0.262 C 
ATOM     23  H   UNL A   1      34.393  20.832  24.289  1.00  0.00     0.348 HD
ENDBRANCH  12  15
ENDBRANCH   5   8
ENDBRANCH   3   4
ENDBRANCH   2   3
ENDBRANCH   1   2
BRANCH   1  24
ATOM     24  C   UNL A   1      34.082  29.034  27.420  1.00  0.00     0.116 C 
BRANCH  24  25
ATOM     25  N   UNL A   1      34.057  30.458  27.658  1.00  0.00    -0.352 N 
ATOM     26  C   UNL A   1      35.099  31.229  28.155  1.00  0.00     0.251 C 
ATOM     27  H   UNL A   1      33.219  30.929  27.445  1.00  0.00     0.163 HD
ATOM     28  O   UNL A   1      34.897  32.421  28.378  1.00  0.00    -0.269 OA
BRANCH  26  29
ATOM     29  C   UNL A   1      36.437  30.614  28.497  1.00  0.00     0.039 A 
ATOM     30  C   UNL A   1      37.303  30.287  27.468  1.00  0.00     0.014 A 
ATOM     31  C   UNL A   1      36.799  30.166  29.782  1.00  0.00     0.014 A 
ATOM     32  C   UNL A   1      38.516  29.582  27.737  1.00  0.00     0.010 A 
ATOM     33  C   UNL A   1      37.997  29.367  30.035  1.00  0.00     0.010 A 
ATOM     34  C   UNL A   1      38.907  29.024  29.014  1.00  0.00    -0.014 A 
BRANCH  34  35
ATOM     35  C   UNL A   1      39.898  27.726  28.953  1.00  0.00     0.031 A 
ATOM     36  C   UNL A   1      40.840  28.034  30.068  1.00  0.00     0.074 A 
ATOM     37  C   UNL A   1      40.250  26.585  28.216  1.00  0.00     0.049 A 
ATOM     38  N   UNL A   1      41.480  29.172  30.058  1.00  0.00    -0.248 NA
ATOM     39  C   UNL A   1      40.786  27.379  31.377  1.00  0.00     0.031 C 
ATOM     40  C   UNL A   1      39.703  26.132  26.926  1.00  0.00     0.029 A 
ATOM     41  N   UNL A   1      41.207  25.526  28.440  1.00  0.00    -0.354 N 
ATOM     42  C   UNL A   1      42.188  29.221  31.228  1.00  0.00     0.074 A 
ATOM     43  C   UNL A   1      41.517  28.251  32.085  1.00  0.00     0.031 C 
ATOM     44  C   UNL A   1      40.181  24.900  26.564  1.00  0.00     0.029 A 
ATOM     45  C   UNL A   1      41.157  24.393  27.533  1.00  0.00     0.049 A 
ATOM     46  H   UNL A   1      41.862  25.570  29.174  1.00  0.00     0.167 HD
ATOM     47  C   UNL A   1      43.529  29.419  31.064  1.00  0.00     0.037 A 
ATOM     48  C   UNL A   1      41.877  23.191  27.486  1.00  0.00     0.037 A 
ATOM     49  C   UNL A   1      44.265  28.188  31.165  1.00  0.00     0.049 A 
ATOM     50  C   UNL A   1      43.147  23.430  28.176  1.00  0.00     0.074 A 
ATOM     51  C   UNL A   1      44.173  27.097  32.006  1.00  0.00     0.029 A 
ATOM     52  N   UNL A   1      44.921  27.761  30.033  1.00  0.00    -0.354 N 
ATOM     53  N   UNL A   1      44.126  24.038  27.580  1.00  0.00    -0.248 NA
ATOM     54  C   UNL A   1      43.455  22.891  29.495  1.00  0.00     0.031 C 
ATOM     55  C   UNL A   1      44.289  25.981  31.153  1.00  0.00     0.029 A 
ATOM     56  C   UNL A   1      44.838  26.392  29.947  1.00  0.00     0.049 A 
ATOM     57  H   UNL A   1      45.379  28.346  29.386  1.00  0.00     0.167 HD
ATOM     58  C   UNL A   1      44.909  24.430  28.611  1.00  0.00     0.074 A 
ATOM     59  C   UNL A   1      44.639  23.482  29.678  1.00  0.00     0.031 C 
ATOM     60  C   UNL A   1      45.116  25.766  28.681  1.00  0.00     0.037 A 
BRANCH  47  61
ATOM     61  C   UNL A   1      43.858  30.518  30.089  1.00  0.00     0.057 A 
ATOM     62  C   UNL A   1      44.203  31.779  30.574  1.00  0.00     0.134 A 
ATOM     63  C   UNL A   1      43.713  30.393  28.691  1.00  0.00     0.134 A 
ATOM     64  F   UNL A   1      44.425  31.961  31.885  1.00  0.00    -0.206 F 
ATOM     65  C   UNL A   1      44.325  32.881  29.722  1.00  0.00     0.040 A 
ATOM     66  C   UNL A   1      43.766  31.495  27.839  1.00  0.00     0.040 A 
ATOM     67  F   UNL A   1      43.518  29.192  28.120  1.00  0.00    -0.206 F 
ATOM     68  C   UNL A   1      44.066  32.748  28.357  1.00  0.00     0.006 A 
ENDBRANCH  47  61
BRANCH  48  69
ATOM     69  C   UNL A   1      41.979  21.770  26.834  1.00  0.00     0.057 A 
ATOM     70  C   UNL A   1      42.892  21.498  25.752  1.00  0.00     0.134 A 
ATOM     71  C   UNL A   1      41.581  20.605  27.500  1.00  0.00     0.134 A 
ATOM     72  F   UNL A   1      43.355  22.472  24.957  1.00  0.00    -0.206 F 
ATOM     73  C   UNL A   1      43.441  20.233  25.455  1.00  0.00     0.040 A 
ATOM     74  C   UNL A   1      42.098  19.314  27.178  1.00  0.00     0.040 A 
ATOM     75  F   UNL A   1      40.750  20.679  28.547  1.00  0.00    -0.206 F 
ATOM     76  C   UNL A   1      43.057  19.128  26.184  1.00  0.00     0.006 A 
ENDBRANCH  48  69
BRANCH  60  77
ATOM     77  C   UNL A   1      45.410  26.495  27.378  1.00  0.00     0.057 A 
ATOM     78  C   UNL A   1      44.483  26.909  26.392  1.00  0.00     0.134 A 
ATOM     79  C   UNL A   1      46.756  26.741  27.074  1.00  0.00     0.134 A 
ATOM     80  F   UNL A   1      43.157  26.853  26.573  1.00  0.00    -0.206 F 
ATOM     81  C   UNL A   1      44.888  27.445  25.160  1.00  0.00     0.040 A 
ATOM     82  C   UNL A   1      47.166  27.331  25.874  1.00  0.00     0.040 A 
ATOM     83  F   UNL A   1      47.712  26.426  27.961  1.00  0.00    -0.206 F 
ATOM     84  C   UNL A   1      46.233  27.660  24.899  1.00  0.00     0.006 A 
ENDBRANCH  60  77
ENDBRANCH  34  35
ENDBRANCH  26  29
ENDBRANCH  24  25
ENDBRANCH   1  24
TORSDOF 12
ENDMDL
