MODEL 1
REMARK VINA RESULT:     -12.1      0.000      0.000
REMARK SMILES CC(C)(C)c1csc(NC(=O)Cn2cccc2C(=O)NCCCCNC(=O)c2ccc(-c3c4nc(c(-c5c(F)cccc5F)c5ccc([nH]5)c(-c5c(F)cccc5F)c5nc(c(-c6c(F)cccc6F)c6ccc3[nH]6)C=C5)C=C4)cc2)n1
REMARK SMILES IDX 21 1 20 2 18 3 19 4 17 6 13 7 14 8 15 9 16 10 12 11 10 12
REMARK SMILES IDX 9 13 11 15 8 16 5 17 6 18 82 19 7 20 2 21 1 22 3 23 4 24
REMARK SMILES IDX 22 25 23 26 24 27 25 28 26 29 27 31 28 32 29 33 81 34 30 35
REMARK SMILES IDX 80 36 31 37 32 38 33 39 74 40 34 41 79 42 73 43 75 44 35 45
REMARK SMILES IDX 78 46 72 47 71 48 36 50 62 51 45 52 61 53 46 54 49 55 60 56
REMARK SMILES IDX 76 57 47 58 48 59 59 61 77 62 50 63 37 64 38 65 43 66 39 67
REMARK SMILES IDX 40 68 42 69 44 70 41 71 63 72 64 73 69 74 65 75 66 76 68 77
REMARK SMILES IDX 70 78 67 79 51 80 52 81 57 82 53 83 54 84 56 85 58 86 55 87
REMARK H PARENT 20 5 9 14 25 30 75 49 49 60
REMARK Flexibility Score: inf
ROOT
ATOM      1  C   UNL A   1      33.860  27.290  24.611  1.00  0.00     0.116 C 
ENDROOT
BRANCH   1   2
ATOM      2  N   UNL A   1      33.687  26.795  23.271  1.00  0.00    -0.351 N 
ATOM      3  C   UNL A   1      32.566  26.532  22.520  1.00  0.00     0.267 C 
ATOM      4  O   UNL A   1      32.821  26.166  21.368  1.00  0.00    -0.268 OA
ATOM      5  H   UNL A   1      34.532  26.608  22.804  1.00  0.00     0.163 HD
BRANCH   3   6
ATOM      6  C   UNL A   1      31.176  26.616  22.987  1.00  0.00     0.107 A 
ATOM      7  N   UNL A   1      30.332  25.774  23.711  1.00  0.00    -0.334 N 
ATOM      8  C   UNL A   1      29.083  26.355  23.828  1.00  0.00     0.087 A 
ATOM      9  C   UNL A   1      29.145  27.635  23.348  1.00  0.00     0.020 A 
ATOM     10  C   UNL A   1      30.446  27.802  22.841  1.00  0.00     0.033 A 
BRANCH   7  11
ATOM     11  C   UNL A   1      30.606  24.486  24.337  1.00  0.00     0.222 C 
BRANCH  11  12
ATOM     12  C   UNL A   1      30.973  24.533  25.803  1.00  0.00     0.246 C 
ATOM     13  N   UNL A   1      32.025  23.855  26.333  1.00  0.00    -0.300 N 
ATOM     14  H   UNL A   1      32.153  24.002  27.298  1.00  0.00     0.172 HD
ATOM     15  O   UNL A   1      30.284  25.214  26.575  1.00  0.00    -0.273 OA
BRANCH  13  16
ATOM     16  C   UNL A   1      32.938  23.004  25.775  1.00  0.00     0.189 A 
ATOM     17  C   UNL A   1      34.858  22.379  24.873  1.00  0.00     0.059 A 
ATOM     18  C   UNL A   1      34.086  21.272  24.569  1.00  0.00     0.093 A 
ATOM     19  N   UNL A   1      34.185  23.360  25.593  1.00  0.00    -0.224 NA
ATOM     20  S   UNL A   1      32.613  21.380  25.408  1.00  0.00    -0.105 S 
BRANCH  17  21
ATOM     21  C   UNL A   1      36.338  22.542  24.599  1.00  0.00     0.005 C 
ATOM     22  C   UNL A   1      37.121  21.272  24.981  1.00  0.00     0.017 C 
ATOM     23  C   UNL A   1      36.934  23.725  25.385  1.00  0.00     0.017 C 
ATOM     24  C   UNL A   1      36.500  22.799  23.088  1.00  0.00     0.017 C 
ENDBRANCH  17  21
ENDBRANCH  13  16
ENDBRANCH  11  12
ENDBRANCH   7  11
ENDBRANCH   3   6
ENDBRANCH   1   2
BRANCH   1  25
ATOM     25  C   UNL A   1      33.432  28.730  24.856  1.00  0.00     0.023 C 
BRANCH  25  26
ATOM     26  C   UNL A   1      33.462  29.221  26.312  1.00  0.00     0.023 C 
BRANCH  26  27
ATOM     27  C   UNL A   1      34.804  29.124  27.057  1.00  0.00     0.116 C 
BRANCH  27  28
ATOM     28  N   UNL A   1      35.372  30.426  27.358  1.00  0.00    -0.352 N 
ATOM     29  C   UNL A   1      36.544  30.754  28.003  1.00  0.00     0.251 C 
ATOM     30  H   UNL A   1      34.835  31.194  27.054  1.00  0.00     0.163 HD
ATOM     31  O   UNL A   1      36.679  31.891  28.437  1.00  0.00    -0.269 OA
BRANCH  29  32
ATOM     32  C   UNL A   1      37.645  29.777  28.199  1.00  0.00     0.039 A 
ATOM     33  C   UNL A   1      38.581  29.629  27.165  1.00  0.00     0.014 A 
ATOM     34  C   UNL A   1      37.712  28.938  29.317  1.00  0.00     0.014 A 
ATOM     35  C   UNL A   1      39.622  28.706  27.281  1.00  0.00     0.010 A 
ATOM     36  C   UNL A   1      38.753  28.006  29.436  1.00  0.00     0.010 A 
ATOM     37  C   UNL A   1      39.734  27.917  28.436  1.00  0.00    -0.014 A 
BRANCH  37  38
ATOM     38  C   UNL A   1      41.063  27.299  28.726  1.00  0.00     0.031 A 
ATOM     39  C   UNL A   1      41.034  25.786  28.367  1.00  0.00     0.074 A 
ATOM     40  C   UNL A   1      42.067  28.075  29.253  1.00  0.00     0.049 A 
ATOM     41  N   UNL A   1      41.750  24.799  28.811  1.00  0.00    -0.248 NA
ATOM     42  C   UNL A   1      40.002  25.286  27.407  1.00  0.00     0.031 C 
ATOM     43  C   UNL A   1      41.967  29.532  29.484  1.00  0.00     0.029 A 
ATOM     44  N   UNL A   1      43.360  27.826  29.698  1.00  0.00    -0.354 N 
ATOM     45  C   UNL A   1      41.432  23.655  28.034  1.00  0.00     0.074 A 
ATOM     46  C   UNL A   1      40.255  23.981  27.300  1.00  0.00     0.031 C 
ATOM     47  C   UNL A   1      43.081  30.011  30.087  1.00  0.00     0.029 A 
ATOM     48  C   UNL A   1      44.035  28.936  30.296  1.00  0.00     0.049 A 
ATOM     49  H   UNL A   1      43.784  26.942  29.607  1.00  0.00     0.167 HD
ATOM     50  C   UNL A   1      42.273  22.584  27.905  1.00  0.00     0.037 A 
ATOM     51  C   UNL A   1      45.255  28.984  30.935  1.00  0.00     0.037 A 
ATOM     52  C   UNL A   1      43.387  22.753  28.769  1.00  0.00     0.049 A 
ATOM     53  C   UNL A   1      45.876  27.686  30.664  1.00  0.00     0.074 A 
ATOM     54  C   UNL A   1      43.506  22.773  30.132  1.00  0.00     0.029 A 
ATOM     55  N   UNL A   1      44.499  23.322  28.201  1.00  0.00    -0.354 N 
ATOM     56  N   UNL A   1      46.410  27.357  29.527  1.00  0.00    -0.248 NA
ATOM     57  C   UNL A   1      45.877  26.664  31.717  1.00  0.00     0.031 C 
ATOM     58  C   UNL A   1      44.436  23.807  30.345  1.00  0.00     0.029 A 
ATOM     59  C   UNL A   1      45.033  24.168  29.130  1.00  0.00     0.049 A 
ATOM     60  H   UNL A   1      44.845  23.152  27.295  1.00  0.00     0.167 HD
ATOM     61  C   UNL A   1      46.454  25.991  29.632  1.00  0.00     0.074 A 
ATOM     62  C   UNL A   1      46.472  25.680  31.045  1.00  0.00     0.031 C 
ATOM     63  C   UNL A   1      45.858  25.252  28.664  1.00  0.00     0.037 A 
BRANCH  50  64
ATOM     64  C   UNL A   1      42.402  21.522  26.839  1.00  0.00     0.057 A 
ATOM     65  C   UNL A   1      41.937  20.217  27.149  1.00  0.00     0.134 A 
ATOM     66  C   UNL A   1      43.293  21.602  25.765  1.00  0.00     0.134 A 
ATOM     67  F   UNL A   1      41.030  20.018  28.121  1.00  0.00    -0.206 F 
ATOM     68  C   UNL A   1      42.468  19.068  26.561  1.00  0.00     0.040 A 
ATOM     69  C   UNL A   1      43.789  20.455  25.129  1.00  0.00     0.040 A 
ATOM     70  F   UNL A   1      43.796  22.769  25.351  1.00  0.00    -0.206 F 
ATOM     71  C   UNL A   1      43.421  19.185  25.562  1.00  0.00     0.006 A 
ENDBRANCH  50  64
BRANCH  51  72
ATOM     72  C   UNL A   1      46.107  29.906  31.798  1.00  0.00     0.057 A 
ATOM     73  C   UNL A   1      47.316  30.503  31.436  1.00  0.00     0.134 A 
ATOM     74  C   UNL A   1      45.650  30.310  33.094  1.00  0.00     0.134 A 
ATOM     75  F   UNL A   1      47.954  30.151  30.316  1.00  0.00    -0.206 F 
ATOM     76  C   UNL A   1      47.941  31.493  32.233  1.00  0.00     0.040 A 
ATOM     77  C   UNL A   1      46.227  31.323  33.865  1.00  0.00     0.040 A 
ATOM     78  F   UNL A   1      44.603  29.732  33.697  1.00  0.00    -0.206 F 
ATOM     79  C   UNL A   1      47.376  31.940  33.425  1.00  0.00     0.006 A 
ENDBRANCH  51  72
BRANCH  63  80
ATOM     80  C   UNL A   1      45.808  25.918  27.301  1.00  0.00     0.057 A 
ATOM     81  C   UNL A   1      47.001  26.240  26.640  1.00  0.00     0.134 A 
ATOM     82  C   UNL A   1      44.634  26.365  26.675  1.00  0.00     0.134 A 
ATOM     83  F   UNL A   1      48.178  25.839  27.145  1.00  0.00    -0.206 F 
ATOM     84  C   UNL A   1      47.027  26.982  25.450  1.00  0.00     0.040 A 
ATOM     85  C   UNL A   1      44.640  27.105  25.482  1.00  0.00     0.040 A 
ATOM     86  F   UNL A   1      43.437  26.105  27.198  1.00  0.00    -0.206 F 
ATOM     87  C   UNL A   1      45.844  27.425  24.870  1.00  0.00     0.006 A 
ENDBRANCH  63  80
ENDBRANCH  37  38
ENDBRANCH  29  32
ENDBRANCH  27  28
ENDBRANCH  26  27
ENDBRANCH  25  26
ENDBRANCH   1  25
TORSDOF 15
ENDMDL
MODEL 2
REMARK VINA RESULT:     -12.0      3.978      8.765
REMARK SMILES CC(C)(C)c1csc(NC(=O)Cn2cccc2C(=O)NCCCCNC(=O)c2ccc(-c3c4nc(c(-c5c(F)cccc5F)c5ccc([nH]5)c(-c5c(F)cccc5F)c5nc(c(-c6c(F)cccc6F)c6ccc3[nH]6)C=C5)C=C4)cc2)n1
REMARK SMILES IDX 21 1 20 2 18 3 19 4 17 6 13 7 14 8 15 9 16 10 12 11 10 12
REMARK SMILES IDX 9 13 11 15 8 16 5 17 6 18 82 19 7 20 2 21 1 22 3 23 4 24
REMARK SMILES IDX 22 25 23 26 24 27 25 28 26 29 27 31 28 32 29 33 81 34 30 35
REMARK SMILES IDX 80 36 31 37 32 38 33 39 74 40 34 41 79 42 73 43 75 44 35 45
REMARK SMILES IDX 78 46 72 47 71 48 36 50 62 51 45 52 61 53 46 54 49 55 60 56
REMARK SMILES IDX 76 57 47 58 48 59 59 61 77 62 50 63 37 64 38 65 43 66 39 67
REMARK SMILES IDX 40 68 42 69 44 70 41 71 63 72 64 73 69 74 65 75 66 76 68 77
REMARK SMILES IDX 70 78 67 79 51 80 52 81 57 82 53 83 54 84 56 85 58 86 55 87
REMARK H PARENT 20 5 9 14 25 30 75 49 49 60
REMARK Flexibility Score: inf
ROOT
ATOM      1  C   UNL A   1      35.256  24.528  24.603  1.00  0.00     0.116 C 
ENDROOT
BRANCH   1   2
ATOM      2  N   UNL A   1      34.172  24.733  23.679  1.00  0.00    -0.351 N 
ATOM      3  C   UNL A   1      33.018  24.029  23.436  1.00  0.00     0.267 C 
ATOM      4  O   UNL A   1      32.287  24.557  22.590  1.00  0.00    -0.268 OA
ATOM      5  H   UNL A   1      34.279  25.531  23.112  1.00  0.00     0.163 HD
BRANCH   3   6
ATOM      6  C   UNL A   1      32.644  22.749  24.051  1.00  0.00     0.107 A 
ATOM      7  N   UNL A   1      32.237  22.355  25.326  1.00  0.00    -0.334 N 
ATOM      8  C   UNL A   1      32.055  20.985  25.354  1.00  0.00     0.087 A 
ATOM      9  C   UNL A   1      32.164  20.499  24.080  1.00  0.00     0.020 A 
ATOM     10  C   UNL A   1      32.513  21.594  23.270  1.00  0.00     0.033 A 
BRANCH   7  11
ATOM     11  C   UNL A   1      31.966  23.158  26.512  1.00  0.00     0.222 C 
BRANCH  11  12
ATOM     12  C   UNL A   1      30.510  23.468  26.777  1.00  0.00     0.246 C 
ATOM     13  N   UNL A   1      29.895  24.600  26.342  1.00  0.00    -0.300 N 
ATOM     14  H   UNL A   1      28.939  24.651  26.572  1.00  0.00     0.172 HD
ATOM     15  O   UNL A   1      29.832  22.663  27.430  1.00  0.00    -0.273 OA
BRANCH  13  16
ATOM     16  C   UNL A   1      30.358  25.682  25.647  1.00  0.00     0.189 A 
ATOM     17  C   UNL A   1      31.537  27.516  25.277  1.00  0.00     0.059 A 
ATOM     18  C   UNL A   1      30.649  27.592  24.219  1.00  0.00     0.093 A 
ATOM     19  N   UNL A   1      31.370  26.391  26.078  1.00  0.00    -0.224 NA
ATOM     20  S   UNL A   1      29.794  26.128  24.112  1.00  0.00    -0.105 S 
BRANCH  17  21
ATOM     21  C   UNL A   1      32.694  28.455  25.544  1.00  0.00     0.005 C 
ATOM     22  C   UNL A   1      33.404  28.106  26.865  1.00  0.00     0.017 C 
ATOM     23  C   UNL A   1      32.229  29.921  25.625  1.00  0.00     0.017 C 
ATOM     24  C   UNL A   1      33.691  28.299  24.379  1.00  0.00     0.017 C 
ENDBRANCH  17  21
ENDBRANCH  13  16
ENDBRANCH  11  12
ENDBRANCH   7  11
ENDBRANCH   3   6
ENDBRANCH   1   2
BRANCH   1  25
ATOM     25  C   UNL A   1      36.199  23.376  24.288  1.00  0.00     0.023 C 
BRANCH  25  26
ATOM     26  C   UNL A   1      37.063  22.853  25.446  1.00  0.00     0.023 C 
BRANCH  26  27
ATOM     27  C   UNL A   1      37.727  23.904  26.354  1.00  0.00     0.116 C 
BRANCH  27  28
ATOM     28  N   UNL A   1      38.969  23.431  26.938  1.00  0.00    -0.352 N 
ATOM     29  C   UNL A   1      40.015  24.139  27.488  1.00  0.00     0.251 C 
ATOM     30  H   UNL A   1      39.080  22.452  26.944  1.00  0.00     0.163 HD
ATOM     31  O   UNL A   1      41.095  23.580  27.628  1.00  0.00    -0.269 OA
BRANCH  29  32
ATOM     32  C   UNL A   1      39.883  25.557  27.907  1.00  0.00     0.039 A 
ATOM     33  C   UNL A   1      39.274  25.821  29.143  1.00  0.00     0.014 A 
ATOM     34  C   UNL A   1      40.244  26.622  27.074  1.00  0.00     0.014 A 
ATOM     35  C   UNL A   1      39.098  27.136  29.578  1.00  0.00     0.010 A 
ATOM     36  C   UNL A   1      40.065  27.945  27.504  1.00  0.00     0.010 A 
ATOM     37  C   UNL A   1      39.529  28.204  28.775  1.00  0.00    -0.014 A 
BRANCH  37  38
ATOM     38  C   UNL A   1      39.744  29.525  29.438  1.00  0.00     0.031 A 
ATOM     39  C   UNL A   1      38.564  30.483  29.108  1.00  0.00     0.074 A 
ATOM     40  C   UNL A   1      40.880  29.727  30.184  1.00  0.00     0.049 A 
ATOM     41  N   UNL A   1      38.508  31.779  29.092  1.00  0.00    -0.248 NA
ATOM     42  C   UNL A   1      37.258  29.903  28.667  1.00  0.00     0.031 C 
ATOM     43  C   UNL A   1      41.895  28.689  30.464  1.00  0.00     0.029 A 
ATOM     44  N   UNL A   1      41.423  30.815  30.857  1.00  0.00    -0.354 N 
ATOM     45  C   UNL A   1      37.153  32.147  28.890  1.00  0.00     0.074 A 
ATOM     46  C   UNL A   1      36.469  30.962  28.488  1.00  0.00     0.031 C 
ATOM     47  C   UNL A   1      42.941  29.200  31.155  1.00  0.00     0.029 A 
ATOM     48  C   UNL A   1      42.721  30.611  31.421  1.00  0.00     0.049 A 
ATOM     49  H   UNL A   1      40.944  31.671  30.941  1.00  0.00     0.167 HD
ATOM     50  C   UNL A   1      36.648  33.366  29.253  1.00  0.00     0.037 A 
ATOM     51  C   UNL A   1      43.567  31.511  32.031  1.00  0.00     0.037 A 
ATOM     52  C   UNL A   1      37.707  34.199  29.700  1.00  0.00     0.049 A 
ATOM     53  C   UNL A   1      42.760  32.717  32.227  1.00  0.00     0.074 A 
ATOM     54  C   UNL A   1      38.780  34.755  29.058  1.00  0.00     0.029 A 
ATOM     55  N   UNL A   1      37.923  34.211  31.055  1.00  0.00    -0.354 N 
ATOM     56  N   UNL A   1      41.853  32.845  33.148  1.00  0.00    -0.248 NA
ATOM     57  C   UNL A   1      42.946  33.854  31.318  1.00  0.00     0.031 C 
ATOM     58  C   UNL A   1      39.813  34.611  30.003  1.00  0.00     0.029 A 
ATOM     59  C   UNL A   1      39.275  34.242  31.242  1.00  0.00     0.049 A 
ATOM     60  H   UNL A   1      37.234  34.201  31.757  1.00  0.00     0.167 HD
ATOM     61  C   UNL A   1      41.131  33.908  32.672  1.00  0.00     0.074 A 
ATOM     62  C   UNL A   1      42.016  34.667  31.815  1.00  0.00     0.031 C 
ATOM     63  C   UNL A   1      39.796  33.751  32.492  1.00  0.00     0.037 A 
BRANCH  50  64
ATOM     64  C   UNL A   1      35.247  33.824  29.579  1.00  0.00     0.057 A 
ATOM     65  C   UNL A   1      34.572  34.617  28.614  1.00  0.00     0.134 A 
ATOM     66  C   UNL A   1      34.732  33.890  30.877  1.00  0.00     0.134 A 
ATOM     67  F   UNL A   1      34.934  34.591  27.321  1.00  0.00    -0.206 F 
ATOM     68  C   UNL A   1      33.588  35.546  28.958  1.00  0.00     0.040 A 
ATOM     69  C   UNL A   1      33.704  34.780  31.220  1.00  0.00     0.040 A 
ATOM     70  F   UNL A   1      35.256  33.181  31.882  1.00  0.00    -0.206 F 
ATOM     71  C   UNL A   1      33.170  35.649  30.274  1.00  0.00     0.006 A 
ENDBRANCH  50  64
BRANCH  51  72
ATOM     72  C   UNL A   1      45.002  31.643  32.527  1.00  0.00     0.057 A 
ATOM     73  C   UNL A   1      45.430  31.615  33.855  1.00  0.00     0.134 A 
ATOM     74  C   UNL A   1      46.084  31.731  31.593  1.00  0.00     0.134 A 
ATOM     75  F   UNL A   1      44.557  31.659  34.865  1.00  0.00    -0.206 F 
ATOM     76  C   UNL A   1      46.801  31.556  34.208  1.00  0.00     0.040 A 
ATOM     77  C   UNL A   1      47.437  31.619  31.923  1.00  0.00     0.040 A 
ATOM     78  F   UNL A   1      45.886  31.937  30.284  1.00  0.00    -0.206 F 
ATOM     79  C   UNL A   1      47.806  31.511  33.245  1.00  0.00     0.006 A 
ENDBRANCH  51  72
BRANCH  63  80
ATOM     80  C   UNL A   1      39.151  32.732  33.414  1.00  0.00     0.057 A 
ATOM     81  C   UNL A   1      39.158  32.945  34.800  1.00  0.00     0.134 A 
ATOM     82  C   UNL A   1      38.634  31.495  32.999  1.00  0.00     0.134 A 
ATOM     83  F   UNL A   1      39.611  34.105  35.299  1.00  0.00    -0.206 F 
ATOM     84  C   UNL A   1      38.709  31.980  35.713  1.00  0.00     0.040 A 
ATOM     85  C   UNL A   1      38.176  30.519  33.898  1.00  0.00     0.040 A 
ATOM     86  F   UNL A   1      38.558  31.184  31.706  1.00  0.00    -0.206 F 
ATOM     87  C   UNL A   1      38.222  30.758  35.264  1.00  0.00     0.006 A 
ENDBRANCH  63  80
ENDBRANCH  37  38
ENDBRANCH  29  32
ENDBRANCH  27  28
ENDBRANCH  26  27
ENDBRANCH  25  26
ENDBRANCH   1  25
TORSDOF 15
ENDMDL
MODEL 3
REMARK VINA RESULT:     -12.0      1.477      2.081
REMARK SMILES CC(C)(C)c1csc(NC(=O)Cn2cccc2C(=O)NCCCCNC(=O)c2ccc(-c3c4nc(c(-c5c(F)cccc5F)c5ccc([nH]5)c(-c5c(F)cccc5F)c5nc(c(-c6c(F)cccc6F)c6ccc3[nH]6)C=C5)C=C4)cc2)n1
REMARK SMILES IDX 21 1 20 2 18 3 19 4 17 6 13 7 14 8 15 9 16 10 12 11 10 12
REMARK SMILES IDX 9 13 11 15 8 16 5 17 6 18 82 19 7 20 2 21 1 22 3 23 4 24
REMARK SMILES IDX 22 25 23 26 24 27 25 28 26 29 27 31 28 32 29 33 81 34 30 35
REMARK SMILES IDX 80 36 31 37 32 38 33 39 74 40 34 41 79 42 73 43 75 44 35 45
REMARK SMILES IDX 78 46 72 47 71 48 36 50 62 51 45 52 61 53 46 54 49 55 60 56
REMARK SMILES IDX 76 57 47 58 48 59 59 61 77 62 50 63 37 64 38 65 43 66 39 67
REMARK SMILES IDX 40 68 42 69 44 70 41 71 63 72 64 73 69 74 65 75 66 76 68 77
REMARK SMILES IDX 70 78 67 79 51 80 52 81 57 82 53 83 54 84 56 85 58 86 55 87
REMARK H PARENT 20 5 9 14 25 30 75 49 49 60
REMARK Flexibility Score: inf
ROOT
ATOM      1  C   UNL A   1      31.888  27.666  25.857  1.00  0.00     0.116 C 
ENDROOT
BRANCH   1   2
ATOM      2  N   UNL A   1      30.838  27.736  24.875  1.00  0.00    -0.351 N 
ATOM      3  C   UNL A   1      30.557  26.975  23.765  1.00  0.00     0.267 C 
ATOM      4  O   UNL A   1      29.516  27.310  23.190  1.00  0.00    -0.268 OA
ATOM      5  H   UNL A   1      30.200  28.470  25.027  1.00  0.00     0.163 HD
BRANCH   3   6
ATOM      6  C   UNL A   1      31.387  25.886  23.234  1.00  0.00     0.107 A 
ATOM      7  N   UNL A   1      31.554  24.537  23.549  1.00  0.00    -0.334 N 
ATOM      8  C   UNL A   1      32.523  23.985  22.732  1.00  0.00     0.087 A 
ATOM      9  C   UNL A   1      32.866  24.900  21.775  1.00  0.00     0.020 A 
ATOM     10  C   UNL A   1      32.151  26.072  22.076  1.00  0.00     0.033 A 
BRANCH   7  11
ATOM     11  C   UNL A   1      30.855  23.710  24.525  1.00  0.00     0.222 C 
BRANCH  11  12
ATOM     12  C   UNL A   1      31.209  23.962  25.974  1.00  0.00     0.246 C 
ATOM     13  N   UNL A   1      32.330  23.472  26.566  1.00  0.00    -0.300 N 
ATOM     14  H   UNL A   1      32.436  23.740  27.507  1.00  0.00     0.172 HD
ATOM     15  O   UNL A   1      30.442  24.641  26.670  1.00  0.00    -0.273 OA
BRANCH  13  16
ATOM     16  C   UNL A   1      33.337  22.674  26.099  1.00  0.00     0.189 A 
ATOM     17  C   UNL A   1      35.253  22.176  25.114  1.00  0.00     0.059 A 
ATOM     18  C   UNL A   1      34.686  20.916  25.173  1.00  0.00     0.093 A 
ATOM     19  N   UNL A   1      34.469  23.178  25.678  1.00  0.00    -0.224 NA
ATOM     20  S   UNL A   1      33.300  20.980  26.153  1.00  0.00    -0.105 S 
BRANCH  17  21
ATOM     21  C   UNL A   1      36.643  22.511  24.617  1.00  0.00     0.005 C 
ATOM     22  C   UNL A   1      37.272  23.650  25.440  1.00  0.00     0.017 C 
ATOM     23  C   UNL A   1      36.629  22.941  23.139  1.00  0.00     0.017 C 
ATOM     24  C   UNL A   1      37.505  21.241  24.772  1.00  0.00     0.017 C 
ENDBRANCH  17  21
ENDBRANCH  13  16
ENDBRANCH  11  12
ENDBRANCH   7  11
ENDBRANCH   3   6
ENDBRANCH   1   2
BRANCH   1  25
ATOM     25  C   UNL A   1      32.100  28.912  26.704  1.00  0.00     0.023 C 
BRANCH  25  26
ATOM     26  C   UNL A   1      33.356  28.940  27.589  1.00  0.00     0.023 C 
BRANCH  26  27
ATOM     27  C   UNL A   1      34.688  29.294  26.906  1.00  0.00     0.116 C 
BRANCH  27  28
ATOM     28  N   UNL A   1      35.206  30.584  27.326  1.00  0.00    -0.352 N 
ATOM     29  C   UNL A   1      36.308  30.888  28.093  1.00  0.00     0.251 C 
ATOM     30  H   UNL A   1      34.689  31.362  27.012  1.00  0.00     0.163 HD
ATOM     31  O   UNL A   1      36.386  32.002  28.596  1.00  0.00    -0.269 OA
BRANCH  29  32
ATOM     32  C   UNL A   1      37.400  29.913  28.340  1.00  0.00     0.039 A 
ATOM     33  C   UNL A   1      38.440  29.842  27.401  1.00  0.00     0.014 A 
ATOM     34  C   UNL A   1      37.368  29.005  29.405  1.00  0.00     0.014 A 
ATOM     35  C   UNL A   1      39.480  28.925  27.566  1.00  0.00     0.010 A 
ATOM     36  C   UNL A   1      38.407  28.078  29.572  1.00  0.00     0.010 A 
ATOM     37  C   UNL A   1      39.487  28.065  28.675  1.00  0.00    -0.014 A 
BRANCH  37  38
ATOM     38  C   UNL A   1      40.789  27.444  29.061  1.00  0.00     0.031 A 
ATOM     39  C   UNL A   1      41.008  26.128  28.260  1.00  0.00     0.074 A 
ATOM     40  C   UNL A   1      41.568  28.050  30.017  1.00  0.00     0.049 A 
ATOM     41  N   UNL A   1      41.726  25.083  28.533  1.00  0.00    -0.248 NA
ATOM     42  C   UNL A   1      40.260  25.922  26.981  1.00  0.00     0.031 C 
ATOM     43  C   UNL A   1      41.256  29.348  30.654  1.00  0.00     0.029 A 
ATOM     44  N   UNL A   1      42.761  27.726  30.652  1.00  0.00    -0.354 N 
ATOM     45  C   UNL A   1      41.708  24.240  27.393  1.00  0.00     0.074 A 
ATOM     46  C   UNL A   1      40.677  24.735  26.542  1.00  0.00     0.031 C 
ATOM     47  C   UNL A   1      42.160  29.653  31.614  1.00  0.00     0.029 A 
ATOM     48  C   UNL A   1      43.167  28.610  31.700  1.00  0.00     0.049 A 
ATOM     49  H   UNL A   1      43.294  26.938  30.395  1.00  0.00     0.167 HD
ATOM     50  C   UNL A   1      42.674  23.305  27.140  1.00  0.00     0.037 A 
ATOM     51  C   UNL A   1      44.216  28.501  32.586  1.00  0.00     0.037 A 
ATOM     52  C   UNL A   1      43.560  23.233  28.247  1.00  0.00     0.049 A 
ATOM     53  C   UNL A   1      45.024  27.389  32.083  1.00  0.00     0.074 A 
ATOM     54  C   UNL A   1      43.393  22.816  29.540  1.00  0.00     0.029 A 
ATOM     55  N   UNL A   1      44.692  24.003  28.155  1.00  0.00    -0.354 N 
ATOM     56  N   UNL A   1      45.814  27.469  31.055  1.00  0.00    -0.248 NA
ATOM     57  C   UNL A   1      44.927  26.082  32.743  1.00  0.00     0.031 C 
ATOM     58  C   UNL A   1      44.135  23.764  30.269  1.00  0.00     0.029 A 
ATOM     59  C   UNL A   1      44.923  24.524  29.395  1.00  0.00     0.049 A 
ATOM     60  H   UNL A   1      45.235  24.150  27.346  1.00  0.00     0.167 HD
ATOM     61  C   UNL A   1      45.993  26.146  30.745  1.00  0.00     0.074 A 
ATOM     62  C   UNL A   1      45.755  25.395  31.959  1.00  0.00     0.031 C 
ATOM     63  C   UNL A   1      45.697  25.735  29.487  1.00  0.00     0.037 A 
BRANCH  50  64
ATOM     64  C   UNL A   1      43.141  22.652  25.861  1.00  0.00     0.057 A 
ATOM     65  C   UNL A   1      43.340  21.247  25.873  1.00  0.00     0.134 A 
ATOM     66  C   UNL A   1      43.778  23.340  24.823  1.00  0.00     0.134 A 
ATOM     67  F   UNL A   1      42.732  20.469  26.784  1.00  0.00    -0.206 F 
ATOM     68  C   UNL A   1      44.256  20.608  25.035  1.00  0.00     0.040 A 
ATOM     69  C   UNL A   1      44.656  22.696  23.940  1.00  0.00     0.040 A 
ATOM     70  F   UNL A   1      43.661  24.664  24.678  1.00  0.00    -0.206 F 
ATOM     71  C   UNL A   1      44.940  21.342  24.079  1.00  0.00     0.006 A 
ENDBRANCH  50  64
BRANCH  51  72
ATOM     72  C   UNL A   1      44.761  29.130  33.863  1.00  0.00     0.057 A 
ATOM     73  C   UNL A   1      44.556  28.678  35.167  1.00  0.00     0.134 A 
ATOM     74  C   UNL A   1      45.644  30.255  33.794  1.00  0.00     0.134 A 
ATOM     75  F   UNL A   1      43.667  27.716  35.435  1.00  0.00    -0.206 F 
ATOM     76  C   UNL A   1      45.255  29.216  36.275  1.00  0.00     0.040 A 
ATOM     77  C   UNL A   1      46.381  30.760  34.869  1.00  0.00     0.040 A 
ATOM     78  F   UNL A   1      45.842  30.942  32.661  1.00  0.00    -0.206 F 
ATOM     79  C   UNL A   1      46.203  30.226  36.124  1.00  0.00     0.006 A 
ENDBRANCH  51  72
BRANCH  63  80
ATOM     80  C   UNL A   1      45.852  26.804  28.421  1.00  0.00     0.057 A 
ATOM     81  C   UNL A   1      47.110  27.379  28.190  1.00  0.00     0.134 A 
ATOM     82  C   UNL A   1      44.790  27.373  27.702  1.00  0.00     0.134 A 
ATOM     83  F   UNL A   1      48.195  26.893  28.811  1.00  0.00    -0.206 F 
ATOM     84  C   UNL A   1      47.293  28.467  27.324  1.00  0.00     0.040 A 
ATOM     85  C   UNL A   1      44.955  28.459  26.828  1.00  0.00     0.040 A 
ATOM     86  F   UNL A   1      43.550  26.902  27.824  1.00  0.00    -0.206 F 
ATOM     87  C   UNL A   1      46.212  29.017  26.644  1.00  0.00     0.006 A 
ENDBRANCH  63  80
ENDBRANCH  37  38
ENDBRANCH  29  32
ENDBRANCH  27  28
ENDBRANCH  26  27
ENDBRANCH  25  26
ENDBRANCH   1  25
TORSDOF 15
ENDMDL
