MODEL 1
REMARK VINA RESULT:     -10.5      0.000      0.000
REMARK SMILES C=C(C)C[N@@H+]1CC[C@H](C(=O)NCCCCNC(=O)c2ccc(-c3c4nc(c(-c5c(F)cccc5F)c5ccc([nH]5)c(-c5c(F)cccc5F)c5nc(c(-c6c(F)cccc6F)c6ccc3[nH]6)C=C5)C=C4)cc2)[C@H]1C
REMARK SMILES IDX 13 1 12 2 11 3 9 4 10 5 8 7 5 8 6 9 73 10 7 12 74 13 4 14
REMARK SMILES IDX 2 15 1 16 3 17 14 18 15 19 16 20 17 21 18 23 19 24 20 25
REMARK SMILES IDX 72 26 21 27 71 28 22 29 23 30 24 31 65 32 25 33 70 34 64 35
REMARK SMILES IDX 66 36 26 37 69 38 63 39 62 40 27 42 53 43 36 44 52 45 37 46
REMARK SMILES IDX 40 47 51 48 67 49 38 50 39 51 50 53 68 54 41 55 28 56 29 57
REMARK SMILES IDX 34 58 30 59 31 60 33 61 35 62 32 63 54 64 55 65 60 66 56 67
REMARK SMILES IDX 57 68 59 69 61 70 58 71 42 72 43 73 48 74 44 75 45 76 47 77
REMARK SMILES IDX 49 78 46 79
REMARK H PARENT 11 6 5 11 16 22 66 41 40 52
REMARK Flexibility Score: inf
ROOT
ATOM      1  C   UNL A   1      31.505  30.635  25.676  1.00  0.00     0.023 C 
ENDROOT
BRANCH   1   2
ATOM      2  C   UNL A   1      32.895  30.006  25.767  1.00  0.00     0.116 C 
BRANCH   2   3
ATOM      3  N   UNL A   1      33.363  29.582  24.466  1.00  0.00    -0.356 N 
ATOM      4  C   UNL A   1      33.560  28.334  23.963  1.00  0.00     0.229 C 
ATOM      5  O   UNL A   1      34.048  28.272  22.832  1.00  0.00    -0.275 OA
ATOM      6  H   UNL A   1      33.573  30.315  23.845  1.00  0.00     0.163 HD
BRANCH   4   7
ATOM      7  C   UNL A   1      33.126  27.088  24.743  1.00  0.00     0.142 C 
ATOM      8  N   UNL A   1      32.567  24.982  23.773  1.00  0.00    -0.329 N 
ATOM      9  C   UNL A   1      31.519  25.924  23.410  1.00  0.00     0.263 C 
ATOM     10  C   UNL A   1      33.733  25.776  24.199  1.00  0.00     0.193 C 
ATOM     11  H   UNL A   1      32.261  24.406  24.557  1.00  0.00     0.348 HD
ATOM     12  C   UNL A   1      31.613  26.874  24.590  1.00  0.00     0.081 C 
ATOM     13  C   UNL A   1      34.498  25.001  25.280  1.00  0.00     0.076 C 
BRANCH   8  14
ATOM     14  C   UNL A   1      32.822  23.933  22.794  1.00  0.00     0.293 C 
BRANCH  14  15
ATOM     15  C   UNL A   1      32.234  22.624  23.277  1.00  0.00    -0.026 C 
ATOM     16  C   UNL A   1      32.173  21.527  22.504  1.00  0.00     0.013 C 
ATOM     17  C   UNL A   1      31.745  22.599  24.702  1.00  0.00     0.045 C 
ENDBRANCH  14  15
ENDBRANCH   8  14
ENDBRANCH   4   7
ENDBRANCH   2   3
ENDBRANCH   1   2
BRANCH   1  18
ATOM     18  C   UNL A   1      31.320  31.865  26.567  1.00  0.00     0.023 C 
BRANCH  18  19
ATOM     19  C   UNL A   1      32.611  32.444  27.133  1.00  0.00     0.116 C 
BRANCH  19  20
ATOM     20  N   UNL A   1      32.494  33.851  27.484  1.00  0.00    -0.352 N 
ATOM     21  C   UNL A   1      33.222  34.570  28.404  1.00  0.00     0.251 C 
ATOM     22  H   UNL A   1      31.802  34.356  26.999  1.00  0.00     0.163 HD
ATOM     23  O   UNL A   1      32.906  35.716  28.685  1.00  0.00    -0.269 OA
BRANCH  21  24
ATOM     24  C   UNL A   1      34.372  33.927  29.077  1.00  0.00     0.039 A 
ATOM     25  C   UNL A   1      34.140  32.835  29.914  1.00  0.00     0.014 A 
ATOM     26  C   UNL A   1      35.674  34.387  28.861  1.00  0.00     0.014 A 
ATOM     27  C   UNL A   1      35.221  32.165  30.490  1.00  0.00     0.010 A 
ATOM     28  C   UNL A   1      36.752  33.669  29.366  1.00  0.00     0.010 A 
ATOM     29  C   UNL A   1      36.538  32.558  30.195  1.00  0.00    -0.014 A 
BRANCH  29  30
ATOM     30  C   UNL A   1      37.703  31.831  30.759  1.00  0.00     0.031 A 
ATOM     31  C   UNL A   1      38.201  32.165  32.137  1.00  0.00     0.074 A 
ATOM     32  C   UNL A   1      38.348  30.914  30.012  1.00  0.00     0.049 A 
ATOM     33  N   UNL A   1      39.233  31.686  32.784  1.00  0.00    -0.248 NA
ATOM     34  C   UNL A   1      37.456  33.195  32.878  1.00  0.00     0.031 C 
ATOM     35  C   UNL A   1      37.993  30.531  28.645  1.00  0.00     0.029 A 
ATOM     36  N   UNL A   1      39.444  30.140  30.298  1.00  0.00    -0.354 N 
ATOM     37  C   UNL A   1      39.269  32.364  33.995  1.00  0.00     0.074 A 
ATOM     38  C   UNL A   1      38.195  33.334  33.968  1.00  0.00     0.031 C 
ATOM     39  C   UNL A   1      38.836  29.575  28.222  1.00  0.00     0.029 A 
ATOM     40  C   UNL A   1      39.814  29.305  29.272  1.00  0.00     0.049 A 
ATOM     41  H   UNL A   1      39.921  30.178  31.159  1.00  0.00     0.167 HD
ATOM     42  C   UNL A   1      40.100  32.180  35.048  1.00  0.00     0.037 A 
ATOM     43  C   UNL A   1      40.829  28.425  29.185  1.00  0.00     0.037 A 
ATOM     44  C   UNL A   1      41.157  31.203  35.080  1.00  0.00     0.049 A 
ATOM     45  C   UNL A   1      41.752  28.250  30.359  1.00  0.00     0.074 A 
ATOM     46  C   UNL A   1      42.023  30.902  36.115  1.00  0.00     0.029 A 
ATOM     47  N   UNL A   1      41.495  30.371  34.022  1.00  0.00    -0.354 N 
ATOM     48  N   UNL A   1      41.733  28.851  31.525  1.00  0.00    -0.248 NA
ATOM     49  C   UNL A   1      42.835  27.268  30.208  1.00  0.00     0.031 C 
ATOM     50  C   UNL A   1      42.916  29.923  35.669  1.00  0.00     0.029 A 
ATOM     51  C   UNL A   1      42.571  29.573  34.374  1.00  0.00     0.049 A 
ATOM     52  H   UNL A   1      41.037  30.351  33.150  1.00  0.00     0.167 HD
ATOM     53  C   UNL A   1      42.775  28.296  32.257  1.00  0.00     0.074 A 
ATOM     54  C   UNL A   1      43.400  27.304  31.407  1.00  0.00     0.031 C 
ATOM     55  C   UNL A   1      43.178  28.582  33.519  1.00  0.00     0.037 A 
BRANCH  42  56
ATOM     56  C   UNL A   1      39.896  33.058  36.250  1.00  0.00     0.057 A 
ATOM     57  C   UNL A   1      39.005  32.713  37.276  1.00  0.00     0.134 A 
ATOM     58  C   UNL A   1      40.607  34.255  36.390  1.00  0.00     0.134 A 
ATOM     59  F   UNL A   1      38.283  31.585  37.198  1.00  0.00    -0.206 F 
ATOM     60  C   UNL A   1      38.802  33.544  38.379  1.00  0.00     0.040 A 
ATOM     61  C   UNL A   1      40.437  35.079  37.505  1.00  0.00     0.040 A 
ATOM     62  F   UNL A   1      41.482  34.645  35.450  1.00  0.00    -0.206 F 
ATOM     63  C   UNL A   1      39.525  34.729  38.498  1.00  0.00     0.006 A 
ENDBRANCH  42  56
BRANCH  43  64
ATOM     64  C   UNL A   1      41.008  27.617  27.951  1.00  0.00     0.057 A 
ATOM     65  C   UNL A   1      41.786  28.090  26.888  1.00  0.00     0.134 A 
ATOM     66  C   UNL A   1      40.405  26.363  27.801  1.00  0.00     0.134 A 
ATOM     67  F   UNL A   1      42.375  29.293  26.965  1.00  0.00    -0.206 F 
ATOM     68  C   UNL A   1      41.943  27.355  25.712  1.00  0.00     0.040 A 
ATOM     69  C   UNL A   1      40.575  25.605  26.641  1.00  0.00     0.040 A 
ATOM     70  F   UNL A   1      39.654  25.849  28.786  1.00  0.00    -0.206 F 
ATOM     71  C   UNL A   1      41.340  26.104  25.589  1.00  0.00     0.006 A 
ENDBRANCH  43  64
BRANCH  55  72
ATOM     72  C   UNL A   1      44.318  27.779  34.078  1.00  0.00     0.057 A 
ATOM     73  C   UNL A   1      45.644  28.226  34.012  1.00  0.00     0.134 A 
ATOM     74  C   UNL A   1      44.078  26.560  34.725  1.00  0.00     0.134 A 
ATOM     75  F   UNL A   1      45.944  29.379  33.395  1.00  0.00    -0.206 F 
ATOM     76  C   UNL A   1      46.693  27.476  34.546  1.00  0.00     0.040 A 
ATOM     77  C   UNL A   1      45.114  25.817  35.290  1.00  0.00     0.040 A 
ATOM     78  F   UNL A   1      42.830  26.079  34.833  1.00  0.00    -0.206 F 
ATOM     79  C   UNL A   1      46.428  26.271  35.194  1.00  0.00     0.006 A 
ENDBRANCH  55  72
ENDBRANCH  29  30
ENDBRANCH  21  24
ENDBRANCH  19  20
ENDBRANCH  18  19
ENDBRANCH   1  18
TORSDOF 13
ENDMDL
MODEL 2
REMARK VINA RESULT:     -10.5      0.926      1.838
REMARK SMILES C=C(C)C[N@@H+]1CC[C@H](C(=O)NCCCCNC(=O)c2ccc(-c3c4nc(c(-c5c(F)cccc5F)c5ccc([nH]5)c(-c5c(F)cccc5F)c5nc(c(-c6c(F)cccc6F)c6ccc3[nH]6)C=C5)C=C4)cc2)[C@H]1C
REMARK SMILES IDX 13 1 12 2 11 3 9 4 10 5 8 7 5 8 6 9 73 10 7 12 74 13 4 14
REMARK SMILES IDX 2 15 1 16 3 17 14 18 15 19 16 20 17 21 18 23 19 24 20 25
REMARK SMILES IDX 72 26 21 27 71 28 22 29 23 30 24 31 65 32 25 33 70 34 64 35
REMARK SMILES IDX 66 36 26 37 69 38 63 39 62 40 27 42 53 43 36 44 52 45 37 46
REMARK SMILES IDX 40 47 51 48 67 49 38 50 39 51 50 53 68 54 41 55 28 56 29 57
REMARK SMILES IDX 34 58 30 59 31 60 33 61 35 62 32 63 54 64 55 65 60 66 56 67
REMARK SMILES IDX 57 68 59 69 61 70 58 71 42 72 43 73 48 74 44 75 45 76 47 77
REMARK SMILES IDX 49 78 46 79
REMARK H PARENT 11 6 5 11 16 22 66 41 40 52
REMARK Flexibility Score: inf
ROOT
ATOM      1  C   UNL A   1      31.594  30.565  25.832  1.00  0.00     0.023 C 
ENDROOT
BRANCH   1   2
ATOM      2  C   UNL A   1      32.359  29.565  26.696  1.00  0.00     0.116 C 
BRANCH   2   3
ATOM      3  N   UNL A   1      31.525  28.440  27.056  1.00  0.00    -0.356 N 
ATOM      4  C   UNL A   1      31.368  27.229  26.456  1.00  0.00     0.229 C 
ATOM      5  O   UNL A   1      30.517  26.483  26.947  1.00  0.00    -0.275 OA
ATOM      6  H   UNL A   1      30.983  28.571  27.867  1.00  0.00     0.163 HD
BRANCH   4   7
ATOM      7  C   UNL A   1      32.258  26.806  25.283  1.00  0.00     0.142 C 
ATOM      8  N   UNL A   1      32.656  24.557  24.598  1.00  0.00    -0.329 N 
ATOM      9  C   UNL A   1      33.314  24.747  25.882  1.00  0.00     0.263 C 
ATOM     10  C   UNL A   1      31.673  25.643  24.451  1.00  0.00     0.193 C 
ATOM     11  H   UNL A   1      33.338  24.629  23.843  1.00  0.00     0.348 HD
ATOM     12  C   UNL A   1      33.585  26.239  25.809  1.00  0.00     0.081 C 
ATOM     13  C   UNL A   1      31.544  26.004  22.965  1.00  0.00     0.076 C 
BRANCH   8  14
ATOM     14  C   UNL A   1      32.170  23.206  24.347  1.00  0.00     0.293 C 
BRANCH  14  15
ATOM     15  C   UNL A   1      32.865  22.625  23.135  1.00  0.00    -0.026 C 
ATOM     16  C   UNL A   1      34.046  23.084  22.686  1.00  0.00     0.013 C 
ATOM     17  C   UNL A   1      32.179  21.463  22.466  1.00  0.00     0.045 C 
ENDBRANCH  14  15
ENDBRANCH   8  14
ENDBRANCH   4   7
ENDBRANCH   2   3
ENDBRANCH   1   2
BRANCH   1  18
ATOM     18  C   UNL A   1      31.387  31.929  26.495  1.00  0.00     0.023 C 
BRANCH  18  19
ATOM     19  C   UNL A   1      32.632  32.517  27.148  1.00  0.00     0.116 C 
BRANCH  19  20
ATOM     20  N   UNL A   1      32.451  33.898  27.569  1.00  0.00    -0.352 N 
ATOM     21  C   UNL A   1      33.140  34.599  28.531  1.00  0.00     0.251 C 
ATOM     22  H   UNL A   1      31.742  34.397  27.103  1.00  0.00     0.163 HD
ATOM     23  O   UNL A   1      32.773  35.715  28.866  1.00  0.00    -0.269 OA
BRANCH  21  24
ATOM     24  C   UNL A   1      34.312  33.973  29.181  1.00  0.00     0.039 A 
ATOM     25  C   UNL A   1      34.101  33.034  30.192  1.00  0.00     0.014 A 
ATOM     26  C   UNL A   1      35.611  34.295  28.776  1.00  0.00     0.014 A 
ATOM     27  C   UNL A   1      35.193  32.372  30.757  1.00  0.00     0.010 A 
ATOM     28  C   UNL A   1      36.689  33.576  29.279  1.00  0.00     0.010 A 
ATOM     29  C   UNL A   1      36.494  32.615  30.282  1.00  0.00    -0.014 A 
BRANCH  29  30
ATOM     30  C   UNL A   1      37.664  31.889  30.837  1.00  0.00     0.031 A 
ATOM     31  C   UNL A   1      38.196  32.248  32.197  1.00  0.00     0.074 A 
ATOM     32  C   UNL A   1      38.284  30.950  30.097  1.00  0.00     0.049 A 
ATOM     33  N   UNL A   1      39.237  31.773  32.831  1.00  0.00    -0.248 NA
ATOM     34  C   UNL A   1      37.477  33.302  32.931  1.00  0.00     0.031 C 
ATOM     35  C   UNL A   1      37.895  30.541  28.747  1.00  0.00     0.029 A 
ATOM     36  N   UNL A   1      39.378  30.171  30.376  1.00  0.00    -0.354 N 
ATOM     37  C   UNL A   1      39.306  32.477  34.026  1.00  0.00     0.074 A 
ATOM     38  C   UNL A   1      38.241  33.457  34.001  1.00  0.00     0.031 C 
ATOM     39  C   UNL A   1      38.719  29.568  28.327  1.00  0.00     0.029 A 
ATOM     40  C   UNL A   1      39.718  29.311  29.360  1.00  0.00     0.049 A 
ATOM     41  H   UNL A   1      39.875  30.224  31.225  1.00  0.00     0.167 HD
ATOM     42  C   UNL A   1      40.158  32.308  35.065  1.00  0.00     0.037 A 
ATOM     43  C   UNL A   1      40.722  28.419  29.271  1.00  0.00     0.037 A 
ATOM     44  C   UNL A   1      41.206  31.321  35.095  1.00  0.00     0.049 A 
ATOM     45  C   UNL A   1      41.669  28.260  30.429  1.00  0.00     0.074 A 
ATOM     46  C   UNL A   1      42.091  31.034  36.118  1.00  0.00     0.029 A 
ATOM     47  N   UNL A   1      41.513  30.463  34.048  1.00  0.00    -0.354 N 
ATOM     48  N   UNL A   1      41.681  28.886  31.581  1.00  0.00    -0.248 NA
ATOM     49  C   UNL A   1      42.739  27.265  30.276  1.00  0.00     0.031 C 
ATOM     50  C   UNL A   1      42.965  30.036  35.673  1.00  0.00     0.029 A 
ATOM     51  C   UNL A   1      42.588  29.662  34.394  1.00  0.00     0.049 A 
ATOM     52  H   UNL A   1      41.035  30.429  33.187  1.00  0.00     0.167 HD
ATOM     53  C   UNL A   1      42.734  28.337  32.302  1.00  0.00     0.074 A 
ATOM     54  C   UNL A   1      43.330  27.321  31.461  1.00  0.00     0.031 C 
ATOM     55  C   UNL A   1      43.167  28.646  33.549  1.00  0.00     0.037 A 
BRANCH  42  56
ATOM     56  C   UNL A   1      39.989  33.213  36.251  1.00  0.00     0.057 A 
ATOM     57  C   UNL A   1      40.711  34.408  36.381  1.00  0.00     0.134 A 
ATOM     58  C   UNL A   1      39.083  32.895  37.271  1.00  0.00     0.134 A 
ATOM     59  F   UNL A   1      41.605  34.766  35.446  1.00  0.00    -0.206 F 
ATOM     60  C   UNL A   1      40.567  35.233  37.496  1.00  0.00     0.040 A 
ATOM     61  C   UNL A   1      38.906  33.730  38.376  1.00  0.00     0.040 A 
ATOM     62  F   UNL A   1      38.353  31.771  37.210  1.00  0.00    -0.206 F 
ATOM     63  C   UNL A   1      39.656  34.898  38.496  1.00  0.00     0.006 A 
ENDBRANCH  42  56
BRANCH  43  64
ATOM     64  C   UNL A   1      40.867  27.583  28.052  1.00  0.00     0.057 A 
ATOM     65  C   UNL A   1      41.602  28.037  26.950  1.00  0.00     0.134 A 
ATOM     66  C   UNL A   1      40.272  26.319  27.954  1.00  0.00     0.134 A 
ATOM     67  F   UNL A   1      42.180  29.247  26.977  1.00  0.00    -0.206 F 
ATOM     68  C   UNL A   1      41.725  27.274  25.788  1.00  0.00     0.040 A 
ATOM     69  C   UNL A   1      40.409  25.535  26.807  1.00  0.00     0.040 A 
ATOM     70  F   UNL A   1      39.561  25.823  28.977  1.00  0.00    -0.206 F 
ATOM     71  C   UNL A   1      41.132  26.015  25.716  1.00  0.00     0.006 A 
ENDBRANCH  43  64
BRANCH  55  72
ATOM     72  C   UNL A   1      44.311  27.845  34.100  1.00  0.00     0.057 A 
ATOM     73  C   UNL A   1      44.113  26.634  34.776  1.00  0.00     0.134 A 
ATOM     74  C   UNL A   1      45.632  28.274  33.916  1.00  0.00     0.134 A 
ATOM     75  F   UNL A   1      42.873  26.172  34.997  1.00  0.00    -0.206 F 
ATOM     76  C   UNL A   1      45.187  25.893  35.272  1.00  0.00     0.040 A 
ATOM     77  C   UNL A   1      46.714  27.527  34.381  1.00  0.00     0.040 A 
ATOM     78  F   UNL A   1      45.893  29.420  33.269  1.00  0.00    -0.206 F 
ATOM     79  C   UNL A   1      46.493  26.336  35.068  1.00  0.00     0.006 A 
ENDBRANCH  55  72
ENDBRANCH  29  30
ENDBRANCH  21  24
ENDBRANCH  19  20
ENDBRANCH  18  19
ENDBRANCH   1  18
TORSDOF 13
ENDMDL
MODEL 3
REMARK VINA RESULT:     -10.5      5.169      9.398
REMARK SMILES C=C(C)C[N@@H+]1CC[C@H](C(=O)NCCCCNC(=O)c2ccc(-c3c4nc(c(-c5c(F)cccc5F)c5ccc([nH]5)c(-c5c(F)cccc5F)c5nc(c(-c6c(F)cccc6F)c6ccc3[nH]6)C=C5)C=C4)cc2)[C@H]1C
REMARK SMILES IDX 13 1 12 2 11 3 9 4 10 5 8 7 5 8 6 9 73 10 7 12 74 13 4 14
REMARK SMILES IDX 2 15 1 16 3 17 14 18 15 19 16 20 17 21 18 23 19 24 20 25
REMARK SMILES IDX 72 26 21 27 71 28 22 29 23 30 24 31 65 32 25 33 70 34 64 35
REMARK SMILES IDX 66 36 26 37 69 38 63 39 62 40 27 42 53 43 36 44 52 45 37 46
REMARK SMILES IDX 40 47 51 48 67 49 38 50 39 51 50 53 68 54 41 55 28 56 29 57
REMARK SMILES IDX 34 58 30 59 31 60 33 61 35 62 32 63 54 64 55 65 60 66 56 67
REMARK SMILES IDX 57 68 59 69 61 70 58 71 42 72 43 73 48 74 44 75 45 76 47 77
REMARK SMILES IDX 49 78 46 79
REMARK H PARENT 11 6 5 11 16 22 66 41 40 52
REMARK Flexibility Score: inf
ROOT
ATOM      1  C   UNL A   1      36.740  20.883  24.966  1.00  0.00     0.023 C 
ENDROOT
BRANCH   1   2
ATOM      2  C   UNL A   1      35.319  20.323  25.001  1.00  0.00     0.116 C 
BRANCH   2   3
ATOM      3  N   UNL A   1      34.619  20.748  26.193  1.00  0.00    -0.356 N 
ATOM      4  C   UNL A   1      33.906  21.879  26.443  1.00  0.00     0.229 C 
ATOM      5  O   UNL A   1      33.478  22.013  27.592  1.00  0.00    -0.275 OA
ATOM      6  H   UNL A   1      34.667  20.116  26.945  1.00  0.00     0.163 HD
BRANCH   4   7
ATOM      7  C   UNL A   1      33.600  22.884  25.327  1.00  0.00     0.142 C 
ATOM      8  N   UNL A   1      31.882  24.537  25.396  1.00  0.00    -0.329 N 
ATOM      9  C   UNL A   1      31.236  23.236  25.300  1.00  0.00     0.263 C 
ATOM     10  C   UNL A   1      33.265  24.300  25.846  1.00  0.00     0.193 C 
ATOM     11  H   UNL A   1      31.909  24.981  24.479  1.00  0.00     0.348 HD
ATOM     12  C   UNL A   1      32.326  22.465  24.579  1.00  0.00     0.081 C 
ATOM     13  C   UNL A   1      34.179  25.370  25.235  1.00  0.00     0.076 C 
BRANCH   8  14
ATOM     14  C   UNL A   1      31.129  25.548  26.126  1.00  0.00     0.293 C 
BRANCH  14  15
ATOM     15  C   UNL A   1      30.831  26.723  25.220  1.00  0.00    -0.026 C 
ATOM     16  C   UNL A   1      30.077  26.613  24.113  1.00  0.00     0.013 C 
ATOM     17  C   UNL A   1      31.399  28.053  25.643  1.00  0.00     0.045 C 
ENDBRANCH  14  15
ENDBRANCH   8  14
ENDBRANCH   4   7
ENDBRANCH   2   3
ENDBRANCH   1   2
BRANCH   1  18
ATOM     18  C   UNL A   1      37.832  19.811  24.992  1.00  0.00     0.023 C 
BRANCH  18  19
ATOM     19  C   UNL A   1      39.093  20.201  25.752  1.00  0.00     0.116 C 
BRANCH  19  20
ATOM     20  N   UNL A   1      40.061  19.118  25.836  1.00  0.00    -0.352 N 
ATOM     21  C   UNL A   1      41.415  19.193  26.067  1.00  0.00     0.251 C 
ATOM     22  H   UNL A   1      39.699  18.211  25.711  1.00  0.00     0.163 HD
ATOM     23  O   UNL A   1      42.116  18.198  25.967  1.00  0.00    -0.269 OA
BRANCH  21  24
ATOM     24  C   UNL A   1      42.019  20.500  26.404  1.00  0.00     0.039 A 
ATOM     25  C   UNL A   1      42.441  21.336  25.369  1.00  0.00     0.014 A 
ATOM     26  C   UNL A   1      42.145  20.907  27.735  1.00  0.00     0.014 A 
ATOM     27  C   UNL A   1      42.935  22.607  25.666  1.00  0.00     0.010 A 
ATOM     28  C   UNL A   1      42.559  22.203  28.026  1.00  0.00     0.010 A 
ATOM     29  C   UNL A   1      42.968  23.063  26.996  1.00  0.00    -0.014 A 
BRANCH  29  30
ATOM     30  C   UNL A   1      43.447  24.428  27.330  1.00  0.00     0.031 A 
ATOM     31  C   UNL A   1      42.470  25.478  27.779  1.00  0.00     0.074 A 
ATOM     32  C   UNL A   1      44.748  24.739  27.174  1.00  0.00     0.049 A 
ATOM     33  N   UNL A   1      42.680  26.738  28.063  1.00  0.00    -0.248 NA
ATOM     34  C   UNL A   1      41.063  25.063  27.901  1.00  0.00     0.031 C 
ATOM     35  C   UNL A   1      45.789  23.825  26.702  1.00  0.00     0.029 A 
ATOM     36  N   UNL A   1      45.417  25.918  27.391  1.00  0.00    -0.354 N 
ATOM     37  C   UNL A   1      41.435  27.267  28.380  1.00  0.00     0.074 A 
ATOM     38  C   UNL A   1      40.466  26.209  28.191  1.00  0.00     0.031 C 
ATOM     39  C   UNL A   1      46.968  24.467  26.694  1.00  0.00     0.029 A 
ATOM     40  C   UNL A   1      46.762  25.848  27.121  1.00  0.00     0.049 A 
ATOM     41  H   UNL A   1      44.974  26.737  27.712  1.00  0.00     0.167 HD
ATOM     42  C   UNL A   1      41.127  28.511  28.815  1.00  0.00     0.037 A 
ATOM     43  C   UNL A   1      47.718  26.791  27.204  1.00  0.00     0.037 A 
ATOM     44  C   UNL A   1      42.095  29.558  29.018  1.00  0.00     0.049 A 
ATOM     45  C   UNL A   1      47.350  28.172  27.672  1.00  0.00     0.074 A 
ATOM     46  C   UNL A   1      41.893  30.837  29.504  1.00  0.00     0.029 A 
ATOM     47  N   UNL A   1      43.449  29.444  28.740  1.00  0.00    -0.354 N 
ATOM     48  N   UNL A   1      46.180  28.640  28.034  1.00  0.00    -0.248 NA
ATOM     49  C   UNL A   1      48.440  29.156  27.751  1.00  0.00     0.031 C 
ATOM     50  C   UNL A   1      43.117  31.514  29.474  1.00  0.00     0.029 A 
ATOM     51  C   UNL A   1      44.091  30.639  29.023  1.00  0.00     0.049 A 
ATOM     52  H   UNL A   1      43.889  28.634  28.393  1.00  0.00     0.167 HD
ATOM     53  C   UNL A   1      46.397  29.958  28.415  1.00  0.00     0.074 A 
ATOM     54  C   UNL A   1      47.814  30.212  28.251  1.00  0.00     0.031 C 
ATOM     55  C   UNL A   1      45.505  30.875  28.863  1.00  0.00     0.037 A 
BRANCH  42  56
ATOM     56  C   UNL A   1      39.681  28.804  29.099  1.00  0.00     0.057 A 
ATOM     57  C   UNL A   1      39.133  28.655  30.381  1.00  0.00     0.134 A 
ATOM     58  C   UNL A   1      38.829  29.252  28.083  1.00  0.00     0.134 A 
ATOM     59  F   UNL A   1      39.891  28.217  31.398  1.00  0.00    -0.206 F 
ATOM     60  C   UNL A   1      37.784  28.906  30.634  1.00  0.00     0.040 A 
ATOM     61  C   UNL A   1      37.484  29.538  28.331  1.00  0.00     0.040 A 
ATOM     62  F   UNL A   1      39.286  29.424  26.834  1.00  0.00    -0.206 F 
ATOM     63  C   UNL A   1      36.956  29.355  29.607  1.00  0.00     0.006 A 
ENDBRANCH  42  56
BRANCH  43  64
ATOM     64  C   UNL A   1      49.125  26.454  26.865  1.00  0.00     0.057 A 
ATOM     65  C   UNL A   1      50.006  25.976  27.843  1.00  0.00     0.134 A 
ATOM     66  C   UNL A   1      49.624  26.608  25.567  1.00  0.00     0.134 A 
ATOM     67  F   UNL A   1      49.592  25.825  29.109  1.00  0.00    -0.206 F 
ATOM     68  C   UNL A   1      51.338  25.680  27.546  1.00  0.00     0.040 A 
ATOM     69  C   UNL A   1      50.946  26.290  25.250  1.00  0.00     0.040 A 
ATOM     70  F   UNL A   1      48.830  27.054  24.583  1.00  0.00    -0.206 F 
ATOM     71  C   UNL A   1      51.810  25.832  26.243  1.00  0.00     0.006 A 
ENDBRANCH  43  64
BRANCH  55  72
ATOM     72  C   UNL A   1      46.038  32.223  29.253  1.00  0.00     0.057 A 
ATOM     73  C   UNL A   1      46.511  32.491  30.544  1.00  0.00     0.134 A 
ATOM     74  C   UNL A   1      46.115  33.256  28.309  1.00  0.00     0.134 A 
ATOM     75  F   UNL A   1      46.454  31.550  31.499  1.00  0.00    -0.206 F 
ATOM     76  C   UNL A   1      47.016  33.746  30.890  1.00  0.00     0.040 A 
ATOM     77  C   UNL A   1      46.646  34.504  28.635  1.00  0.00     0.040 A 
ATOM     78  F   UNL A   1      45.690  33.064  27.052  1.00  0.00    -0.206 F 
ATOM     79  C   UNL A   1      47.091  34.754  29.931  1.00  0.00     0.006 A 
ENDBRANCH  55  72
ENDBRANCH  29  30
ENDBRANCH  21  24
ENDBRANCH  19  20
ENDBRANCH  18  19
ENDBRANCH   1  18
TORSDOF 13
ENDMDL
