MODEL 1
REMARK VINA RESULT:     -10.6      0.000      0.000
REMARK SMILES CCCC[C@@H](C(=O)NCCCCNC(=O)c1ccc(-c2c3nc(c(-c4c(F)cccc4F)c4ccc([nH]4)c(-c4c(F)cccc4F)c4nc(c(-c5c(F)cccc5F)c5ccc2[nH]5)C=C4)C=C3)cc1)[C@H](O)c1ccc(Br)cc1F
REMARK SMILES IDX 10 1 9 2 8 3 6 4 7 5 5 7 4 8 3 9 2 10 1 11 70 12 72 13 73 14
REMARK SMILES IDX 78 15 74 16 77 17 79 18 75 19 76 20 71 21 11 23 12 24 13 25
REMARK SMILES IDX 14 26 15 28 16 29 17 30 69 31 18 32 68 33 19 34 20 35 21 36
REMARK SMILES IDX 62 37 22 38 67 39 61 40 63 41 23 42 66 43 60 44 59 45 24 47
REMARK SMILES IDX 50 48 33 49 49 50 34 51 37 52 48 53 64 54 35 55 36 56 47 58
REMARK SMILES IDX 65 59 38 60 25 61 26 62 31 63 27 64 28 65 30 66 32 67 29 68
REMARK SMILES IDX 51 69 52 70 57 71 53 72 54 73 56 74 58 75 55 76 39 77 40 78
REMARK SMILES IDX 45 79 41 80 42 81 44 82 46 83 43 84
REMARK H PARENT 8 6 71 22 13 27 63 46 37 57
REMARK Flexibility Score: inf
ROOT
ATOM      1  C   UNL A   1      36.369  20.456  25.013  1.00  0.00     0.023 C 
ENDROOT
BRANCH   1   2
ATOM      2  C   UNL A   1      34.861  20.590  25.224  1.00  0.00     0.116 C 
BRANCH   2   3
ATOM      3  N   UNL A   1      34.578  21.193  26.503  1.00  0.00    -0.356 N 
ATOM      4  C   UNL A   1      33.983  22.367  26.835  1.00  0.00     0.226 C 
ATOM      5  O   UNL A   1      33.868  22.561  28.051  1.00  0.00    -0.275 OA
ATOM      6  H   UNL A   1      34.871  20.658  27.276  1.00  0.00     0.163 HD
BRANCH   4   7
ATOM      7  C   UNL A   1      33.413  23.365  25.799  1.00  0.00     0.112 C 
BRANCH   7   8
ATOM      8  C   UNL A   1      34.497  24.250  25.130  1.00  0.00     0.016 C 
BRANCH   8   9
ATOM      9  C   UNL A   1      34.636  24.329  23.606  1.00  0.00     0.001 C 
BRANCH   9  10
ATOM     10  C   UNL A   1      33.378  24.154  22.757  1.00  0.00    -0.003 C 
ATOM     11  C   UNL A   1      32.914  25.445  22.108  1.00  0.00     0.004 C 
ENDBRANCH   9  10
ENDBRANCH   8   9
ENDBRANCH   7   8
BRANCH   7  12
ATOM     12  C   UNL A   1      32.395  24.252  26.622  1.00  0.00     0.160 C 
BRANCH  12  13
ATOM     13  C   UNL A   1      31.639  25.311  25.844  1.00  0.00     0.017 A 
ATOM     14  C   UNL A   1      30.513  25.020  25.063  1.00  0.00     0.010 A 
ATOM     15  C   UNL A   1      32.100  26.637  25.870  1.00  0.00     0.130 A 
ATOM     16  C   UNL A   1      29.909  26.022  24.295  1.00  0.00     0.016 A 
ATOM     17  C   UNL A   1      31.533  27.631  25.082  1.00  0.00     0.055 A 
ATOM     18  F   UNL A   1      33.173  26.951  26.613  1.00  0.00    -0.207 F 
ATOM     19  C   UNL A   1      30.439  27.313  24.288  1.00  0.00     0.020 A 
ATOM     20  Br  UNL A   1      29.678  28.638  23.177  1.00  0.00    -0.051 Br
ENDBRANCH  12  13
BRANCH  12  21
ATOM     21  O   UNL A   1      31.424  23.389  27.240  1.00  0.00    -0.387 OA
ATOM     22  H   UNL A   1      30.609  23.391  26.715  1.00  0.00     0.211 HD
ENDBRANCH  12  21
ENDBRANCH   7  12
ENDBRANCH   4   7
ENDBRANCH   2   3
ENDBRANCH   1   2
BRANCH   1  23
ATOM     23  C   UNL A   1      37.139  21.765  24.985  1.00  0.00     0.023 C 
BRANCH  23  24
ATOM     24  C   UNL A   1      38.489  21.707  25.686  1.00  0.00     0.116 C 
BRANCH  24  25
ATOM     25  N   UNL A   1      39.156  20.411  25.585  1.00  0.00    -0.352 N 
ATOM     26  C   UNL A   1      40.439  20.069  25.957  1.00  0.00     0.251 C 
ATOM     27  H   UNL A   1      38.616  19.684  25.198  1.00  0.00     0.163 HD
ATOM     28  O   UNL A   1      40.884  18.953  25.746  1.00  0.00    -0.269 OA
BRANCH  26  29
ATOM     29  C   UNL A   1      41.281  21.113  26.570  1.00  0.00     0.039 A 
ATOM     30  C   UNL A   1      41.939  22.021  25.739  1.00  0.00     0.014 A 
ATOM     31  C   UNL A   1      41.277  21.277  27.956  1.00  0.00     0.014 A 
ATOM     32  C   UNL A   1      42.490  23.175  26.296  1.00  0.00     0.010 A 
ATOM     33  C   UNL A   1      41.740  22.468  28.494  1.00  0.00     0.010 A 
ATOM     34  C   UNL A   1      42.328  23.438  27.666  1.00  0.00    -0.014 A 
BRANCH  34  35
ATOM     35  C   UNL A   1      42.721  24.737  28.263  1.00  0.00     0.031 A 
ATOM     36  C   UNL A   1      41.684  25.801  28.477  1.00  0.00     0.074 A 
ATOM     37  C   UNL A   1      44.022  25.000  28.498  1.00  0.00     0.049 A 
ATOM     38  N   UNL A   1      41.841  27.049  28.831  1.00  0.00    -0.248 NA
ATOM     39  C   UNL A   1      40.287  25.417  28.219  1.00  0.00     0.031 C 
ATOM     40  C   UNL A   1      45.132  24.068  28.281  1.00  0.00     0.029 A 
ATOM     41  N   UNL A   1      44.633  26.139  28.957  1.00  0.00    -0.354 N 
ATOM     42  C   UNL A   1      40.570  27.605  28.812  1.00  0.00     0.074 A 
ATOM     43  C   UNL A   1      39.661  26.574  28.361  1.00  0.00     0.031 C 
ATOM     44  C   UNL A   1      46.283  24.664  28.634  1.00  0.00     0.029 A 
ATOM     45  C   UNL A   1      46.000  26.032  29.055  1.00  0.00     0.049 A 
ATOM     46  H   UNL A   1      44.139  26.958  29.194  1.00  0.00     0.167 HD
ATOM     47  C   UNL A   1      40.191  28.856  29.163  1.00  0.00     0.037 A 
ATOM     48  C   UNL A   1      46.921  26.939  29.429  1.00  0.00     0.037 A 
ATOM     49  C   UNL A   1      41.090  29.865  29.651  1.00  0.00     0.049 A 
ATOM     50  C   UNL A   1      46.477  28.325  29.801  1.00  0.00     0.074 A 
ATOM     51  C   UNL A   1      40.794  31.134  30.114  1.00  0.00     0.029 A 
ATOM     52  N   UNL A   1      42.466  29.715  29.739  1.00  0.00    -0.354 N 
ATOM     53  N   UNL A   1      45.265  28.821  29.835  1.00  0.00    -0.248 NA
ATOM     54  C   UNL A   1      47.530  29.281  30.174  1.00  0.00     0.031 C 
ATOM     55  C   UNL A   1      41.996  31.766  30.452  1.00  0.00     0.029 A 
ATOM     56  C   UNL A   1      43.036  30.879  30.226  1.00  0.00     0.049 A 
ATOM     57  H   UNL A   1      42.963  28.903  29.492  1.00  0.00     0.167 HD
ATOM     58  C   UNL A   1      45.405  30.139  30.247  1.00  0.00     0.074 A 
ATOM     59  C   UNL A   1      46.820  30.363  30.462  1.00  0.00     0.031 C 
ATOM     60  C   UNL A   1      44.448  31.080  30.430  1.00  0.00     0.037 A 
BRANCH  47  61
ATOM     61  C   UNL A   1      38.735  29.187  29.037  1.00  0.00     0.057 A 
ATOM     62  C   UNL A   1      38.169  29.564  27.811  1.00  0.00     0.134 A 
ATOM     63  C   UNL A   1      37.888  29.130  30.151  1.00  0.00     0.134 A 
ATOM     64  F   UNL A   1      38.931  29.655  26.711  1.00  0.00    -0.206 F 
ATOM     65  C   UNL A   1      36.820  29.903  27.704  1.00  0.00     0.040 A 
ATOM     66  C   UNL A   1      36.532  29.443  30.051  1.00  0.00     0.040 A 
ATOM     67  F   UNL A   1      38.366  28.776  31.353  1.00  0.00    -0.206 F 
ATOM     68  C   UNL A   1      35.995  29.838  28.826  1.00  0.00     0.006 A 
ENDBRANCH  47  61
BRANCH  48  69
ATOM     69  C   UNL A   1      48.355  26.561  29.488  1.00  0.00     0.057 A 
ATOM     70  C   UNL A   1      49.206  26.821  28.409  1.00  0.00     0.134 A 
ATOM     71  C   UNL A   1      48.908  25.942  30.614  1.00  0.00     0.134 A 
ATOM     72  F   UNL A   1      48.726  27.397  27.296  1.00  0.00    -0.206 F 
ATOM     73  C   UNL A   1      50.556  26.471  28.440  1.00  0.00     0.040 A 
ATOM     74  C   UNL A   1      50.262  25.601  30.667  1.00  0.00     0.040 A 
ATOM     75  F   UNL A   1      48.145  25.670  31.682  1.00  0.00    -0.206 F 
ATOM     76  C   UNL A   1      51.089  25.863  29.576  1.00  0.00     0.006 A 
ENDBRANCH  48  69
BRANCH  60  77
ATOM     77  C   UNL A   1      44.897  32.432  30.894  1.00  0.00     0.057 A 
ATOM     78  C   UNL A   1      45.191  33.456  29.987  1.00  0.00     0.134 A 
ATOM     79  C   UNL A   1      44.984  32.727  32.260  1.00  0.00     0.134 A 
ATOM     80  F   UNL A   1      45.140  33.229  28.665  1.00  0.00    -0.206 F 
ATOM     81  C   UNL A   1      45.565  34.728  30.422  1.00  0.00     0.040 A 
ATOM     82  C   UNL A   1      45.337  34.000  32.708  1.00  0.00     0.040 A 
ATOM     83  F   UNL A   1      44.710  31.788  33.178  1.00  0.00    -0.206 F 
ATOM     84  C   UNL A   1      45.631  35.004  31.788  1.00  0.00     0.006 A 
ENDBRANCH  60  77
ENDBRANCH  34  35
ENDBRANCH  26  29
ENDBRANCH  24  25
ENDBRANCH  23  24
ENDBRANCH   1  23
TORSDOF 17
ENDMDL
MODEL 2
REMARK VINA RESULT:     -10.4      4.340      8.528
REMARK SMILES CCCC[C@@H](C(=O)NCCCCNC(=O)c1ccc(-c2c3nc(c(-c4c(F)cccc4F)c4ccc([nH]4)c(-c4c(F)cccc4F)c4nc(c(-c5c(F)cccc5F)c5ccc2[nH]5)C=C4)C=C3)cc1)[C@H](O)c1ccc(Br)cc1F
REMARK SMILES IDX 10 1 9 2 8 3 6 4 7 5 5 7 4 8 3 9 2 10 1 11 70 12 72 13 73 14
REMARK SMILES IDX 78 15 74 16 77 17 79 18 75 19 76 20 71 21 11 23 12 24 13 25
REMARK SMILES IDX 14 26 15 28 16 29 17 30 69 31 18 32 68 33 19 34 20 35 21 36
REMARK SMILES IDX 62 37 22 38 67 39 61 40 63 41 23 42 66 43 60 44 59 45 24 47
REMARK SMILES IDX 50 48 33 49 49 50 34 51 37 52 48 53 64 54 35 55 36 56 47 58
REMARK SMILES IDX 65 59 38 60 25 61 26 62 31 63 27 64 28 65 30 66 32 67 29 68
REMARK SMILES IDX 51 69 52 70 57 71 53 72 54 73 56 74 58 75 55 76 39 77 40 78
REMARK SMILES IDX 45 79 41 80 42 81 44 82 46 83 43 84
REMARK H PARENT 8 6 71 22 13 27 63 46 37 57
REMARK Flexibility Score: inf
ROOT
ATOM      1  C   UNL A   1      31.368  29.059  23.949  1.00  0.00     0.023 C 
ENDROOT
BRANCH   1   2
ATOM      2  C   UNL A   1      30.986  27.804  23.164  1.00  0.00     0.116 C 
BRANCH   2   3
ATOM      3  N   UNL A   1      32.011  27.473  22.204  1.00  0.00    -0.356 N 
ATOM      4  C   UNL A   1      32.915  26.462  22.163  1.00  0.00     0.226 C 
ATOM      5  O   UNL A   1      33.637  26.457  21.158  1.00  0.00    -0.275 OA
ATOM      6  H   UNL A   1      32.065  28.093  21.442  1.00  0.00     0.163 HD
BRANCH   4   7
ATOM      7  C   UNL A   1      33.006  25.346  23.231  1.00  0.00     0.112 C 
BRANCH   7   8
ATOM      8  C   UNL A   1      33.888  25.724  24.449  1.00  0.00     0.016 C 
BRANCH   8   9
ATOM      9  C   UNL A   1      33.413  25.483  25.885  1.00  0.00     0.001 C 
BRANCH   9  10
ATOM     10  C   UNL A   1      32.138  24.669  26.097  1.00  0.00    -0.003 C 
ATOM     11  C   UNL A   1      32.369  23.396  26.890  1.00  0.00     0.004 C 
ENDBRANCH   9  10
ENDBRANCH   8   9
ENDBRANCH   7   8
BRANCH   7  12
ATOM     12  C   UNL A   1      33.617  24.108  22.459  1.00  0.00     0.160 C 
BRANCH  12  13
ATOM     13  C   UNL A   1      33.467  22.755  23.125  1.00  0.00     0.017 A 
ATOM     14  C   UNL A   1      32.319  21.963  22.986  1.00  0.00     0.010 A 
ATOM     15  C   UNL A   1      34.500  22.281  23.950  1.00  0.00     0.130 A 
ATOM     16  C   UNL A   1      32.199  20.765  23.697  1.00  0.00     0.016 A 
ATOM     17  C   UNL A   1      34.375  21.112  24.690  1.00  0.00     0.055 A 
ATOM     18  F   UNL A   1      35.615  23.012  24.100  1.00  0.00    -0.207 F 
ATOM     19  C   UNL A   1      33.215  20.359  24.564  1.00  0.00     0.020 A 
ATOM     20  Br  UNL A   1      33.007  18.789  25.593  1.00  0.00    -0.051 Br
ENDBRANCH  12  13
BRANCH  12  21
ATOM     21  O   UNL A   1      33.004  24.025  21.160  1.00  0.00    -0.387 OA
ATOM     22  H   UNL A   1      33.464  24.619  20.547  1.00  0.00     0.211 HD
ENDBRANCH  12  21
ENDBRANCH   7  12
ENDBRANCH   4   7
ENDBRANCH   2   3
ENDBRANCH   1   2
BRANCH   1  23
ATOM     23  C   UNL A   1      31.547  28.860  25.444  1.00  0.00     0.023 C 
BRANCH  23  24
ATOM     24  C   UNL A   1      32.727  29.617  26.035  1.00  0.00     0.116 C 
BRANCH  24  25
ATOM     25  N   UNL A   1      32.383  30.932  26.570  1.00  0.00    -0.352 N 
ATOM     26  C   UNL A   1      33.152  31.781  27.338  1.00  0.00     0.251 C 
ATOM     27  H   UNL A   1      31.478  31.255  26.352  1.00  0.00     0.163 HD
ATOM     28  O   UNL A   1      32.700  32.828  27.772  1.00  0.00    -0.269 OA
BRANCH  26  29
ATOM     29  C   UNL A   1      34.526  31.359  27.667  1.00  0.00     0.039 A 
ATOM     30  C   UNL A   1      35.528  32.327  27.744  1.00  0.00     0.014 A 
ATOM     31  C   UNL A   1      34.769  30.039  28.052  1.00  0.00     0.014 A 
ATOM     32  C   UNL A   1      36.747  31.997  28.334  1.00  0.00     0.010 A 
ATOM     33  C   UNL A   1      35.944  29.739  28.723  1.00  0.00     0.010 A 
ATOM     34  C   UNL A   1      36.934  30.722  28.892  1.00  0.00    -0.014 A 
BRANCH  34  35
ATOM     35  C   UNL A   1      38.132  30.391  29.699  1.00  0.00     0.031 A 
ATOM     36  C   UNL A   1      39.162  29.448  29.149  1.00  0.00     0.074 A 
ATOM     37  C   UNL A   1      38.231  30.842  30.966  1.00  0.00     0.049 A 
ATOM     38  N   UNL A   1      40.190  28.907  29.747  1.00  0.00    -0.248 NA
ATOM     39  C   UNL A   1      38.987  29.028  27.750  1.00  0.00     0.031 C 
ATOM     40  C   UNL A   1      37.270  31.721  31.635  1.00  0.00     0.029 A 
ATOM     41  N   UNL A   1      39.185  30.606  31.924  1.00  0.00    -0.354 N 
ATOM     42  C   UNL A   1      40.767  28.064  28.808  1.00  0.00     0.074 A 
ATOM     43  C   UNL A   1      39.945  28.125  27.619  1.00  0.00     0.031 C 
ATOM     44  C   UNL A   1      37.697  31.973  32.884  1.00  0.00     0.029 A 
ATOM     45  C   UNL A   1      38.934  31.237  33.120  1.00  0.00     0.049 A 
ATOM     46  H   UNL A   1      39.974  30.038  31.771  1.00  0.00     0.167 HD
ATOM     47  C   UNL A   1      41.895  27.325  28.917  1.00  0.00     0.037 A 
ATOM     48  C   UNL A   1      39.618  31.212  34.278  1.00  0.00     0.037 A 
ATOM     49  C   UNL A   1      42.733  27.299  30.084  1.00  0.00     0.049 A 
ATOM     50  C   UNL A   1      40.859  30.372  34.380  1.00  0.00     0.074 A 
ATOM     51  C   UNL A   1      43.942  26.651  30.265  1.00  0.00     0.029 A 
ATOM     52  N   UNL A   1      42.446  27.954  31.273  1.00  0.00    -0.354 N 
ATOM     53  N   UNL A   1      41.427  29.626  33.465  1.00  0.00    -0.248 NA
ATOM     54  C   UNL A   1      41.548  30.363  35.679  1.00  0.00     0.031 C 
ATOM     55  C   UNL A   1      44.371  26.887  31.576  1.00  0.00     0.029 A 
ATOM     56  C   UNL A   1      43.444  27.706  32.200  1.00  0.00     0.049 A 
ATOM     57  H   UNL A   1      41.652  28.513  31.432  1.00  0.00     0.167 HD
ATOM     58  C   UNL A   1      42.546  29.070  34.069  1.00  0.00     0.074 A 
ATOM     59  C   UNL A   1      42.584  29.574  35.427  1.00  0.00     0.031 C 
ATOM     60  C   UNL A   1      43.460  28.217  33.546  1.00  0.00     0.037 A 
BRANCH  47  61
ATOM     61  C   UNL A   1      42.284  26.494  27.732  1.00  0.00     0.057 A 
ATOM     62  C   UNL A   1      43.062  27.018  26.689  1.00  0.00     0.134 A 
ATOM     63  C   UNL A   1      41.879  25.158  27.630  1.00  0.00     0.134 A 
ATOM     64  F   UNL A   1      43.466  28.296  26.720  1.00  0.00    -0.206 F 
ATOM     65  C   UNL A   1      43.395  26.251  25.573  1.00  0.00     0.040 A 
ATOM     66  C   UNL A   1      42.228  24.374  26.529  1.00  0.00     0.040 A 
ATOM     67  F   UNL A   1      41.135  24.596  28.593  1.00  0.00    -0.206 F 
ATOM     68  C   UNL A   1      42.982  24.923  25.492  1.00  0.00     0.006 A 
ENDBRANCH  47  61
BRANCH  48  69
ATOM     69  C   UNL A   1      39.154  32.021  35.432  1.00  0.00     0.057 A 
ATOM     70  C   UNL A   1      39.516  33.368  35.551  1.00  0.00     0.134 A 
ATOM     71  C   UNL A   1      38.340  31.479  36.433  1.00  0.00     0.134 A 
ATOM     72  F   UNL A   1      40.310  33.936  34.630  1.00  0.00    -0.206 F 
ATOM     73  C   UNL A   1      39.096  34.146  36.630  1.00  0.00     0.040 A 
ATOM     74  C   UNL A   1      37.897  32.251  37.510  1.00  0.00     0.040 A 
ATOM     75  F   UNL A   1      37.956  30.196  36.373  1.00  0.00    -0.206 F 
ATOM     76  C   UNL A   1      38.278  33.588  37.611  1.00  0.00     0.006 A 
ENDBRANCH  48  69
BRANCH  60  77
ATOM     77  C   UNL A   1      44.581  27.784  34.440  1.00  0.00     0.057 A 
ATOM     78  C   UNL A   1      45.755  28.537  34.559  1.00  0.00     0.134 A 
ATOM     79  C   UNL A   1      44.465  26.632  35.228  1.00  0.00     0.134 A 
ATOM     80  F   UNL A   1      45.931  29.642  33.818  1.00  0.00    -0.206 F 
ATOM     81  C   UNL A   1      46.779  28.156  35.426  1.00  0.00     0.040 A 
ATOM     82  C   UNL A   1      45.473  26.251  36.113  1.00  0.00     0.040 A 
ATOM     83  F   UNL A   1      43.362  25.870  35.162  1.00  0.00    -0.206 F 
ATOM     84  C   UNL A   1      46.635  27.013  36.213  1.00  0.00     0.006 A 
ENDBRANCH  60  77
ENDBRANCH  34  35
ENDBRANCH  26  29
ENDBRANCH  24  25
ENDBRANCH  23  24
ENDBRANCH   1  23
TORSDOF 17
ENDMDL
MODEL 3
REMARK VINA RESULT:     -10.4      0.634      6.271
REMARK SMILES CCCC[C@@H](C(=O)NCCCCNC(=O)c1ccc(-c2c3nc(c(-c4c(F)cccc4F)c4ccc([nH]4)c(-c4c(F)cccc4F)c4nc(c(-c5c(F)cccc5F)c5ccc2[nH]5)C=C4)C=C3)cc1)[C@H](O)c1ccc(Br)cc1F
REMARK SMILES IDX 10 1 9 2 8 3 6 4 7 5 5 7 4 8 3 9 2 10 1 11 70 12 72 13 73 14
REMARK SMILES IDX 78 15 74 16 77 17 79 18 75 19 76 20 71 21 11 23 12 24 13 25
REMARK SMILES IDX 14 26 15 28 16 29 17 30 69 31 18 32 68 33 19 34 20 35 21 36
REMARK SMILES IDX 62 37 22 38 67 39 61 40 63 41 23 42 66 43 60 44 59 45 24 47
REMARK SMILES IDX 50 48 33 49 49 50 34 51 37 52 48 53 64 54 35 55 36 56 47 58
REMARK SMILES IDX 65 59 38 60 25 61 26 62 31 63 27 64 28 65 30 66 32 67 29 68
REMARK SMILES IDX 51 69 52 70 57 71 53 72 54 73 56 74 58 75 55 76 39 77 40 78
REMARK SMILES IDX 45 79 41 80 42 81 44 82 46 83 43 84
REMARK H PARENT 8 6 71 22 13 27 63 46 37 57
REMARK Flexibility Score: inf
ROOT
ATOM      1  C   UNL A   1      36.402  21.817  25.863  1.00  0.00     0.023 C 
ENDROOT
BRANCH   1   2
ATOM      2  C   UNL A   1      35.033  21.137  25.876  1.00  0.00     0.116 C 
BRANCH   2   3
ATOM      3  N   UNL A   1      34.275  21.544  27.033  1.00  0.00    -0.356 N 
ATOM      4  C   UNL A   1      33.410  22.571  27.230  1.00  0.00     0.226 C 
ATOM      5  O   UNL A   1      32.900  22.607  28.356  1.00  0.00    -0.275 OA
ATOM      6  H   UNL A   1      34.410  20.974  27.825  1.00  0.00     0.163 HD
BRANCH   4   7
ATOM      7  C   UNL A   1      33.013  23.583  26.129  1.00  0.00     0.112 C 
BRANCH   7   8
ATOM      8  C   UNL A   1      34.175  24.514  25.695  1.00  0.00     0.016 C 
BRANCH   8   9
ATOM      9  C   UNL A   1      34.624  24.603  24.233  1.00  0.00     0.001 C 
BRANCH   9  10
ATOM     10  C   UNL A   1      33.559  24.849  23.165  1.00  0.00    -0.003 C 
ATOM     11  C   UNL A   1      33.508  26.292  22.696  1.00  0.00     0.004 C 
ENDBRANCH   9  10
ENDBRANCH   8   9
ENDBRANCH   7   8
BRANCH   7  12
ATOM     12  C   UNL A   1      31.833  24.421  26.768  1.00  0.00     0.160 C 
BRANCH  12  13
ATOM     13  C   UNL A   1      31.247  25.526  25.910  1.00  0.00     0.017 A 
ATOM     14  C   UNL A   1      30.300  25.286  24.906  1.00  0.00     0.010 A 
ATOM     15  C   UNL A   1      31.692  26.844  26.097  1.00  0.00     0.130 A 
ATOM     16  C   UNL A   1      29.862  26.330  24.086  1.00  0.00     0.016 A 
ATOM     17  C   UNL A   1      31.293  27.882  25.264  1.00  0.00     0.055 A 
ATOM     18  F   UNL A   1      32.594  27.109  27.055  1.00  0.00    -0.207 F 
ATOM     19  C   UNL A   1      30.380  27.616  24.252  1.00  0.00     0.020 A 
ATOM     20  Br  UNL A   1      29.856  29.003  23.081  1.00  0.00    -0.051 Br
ENDBRANCH  12  13
BRANCH  12  21
ATOM     21  O   UNL A   1      30.763  23.524  27.114  1.00  0.00    -0.387 OA
ATOM     22  H   UNL A   1      30.984  23.060  27.936  1.00  0.00     0.211 HD
ENDBRANCH  12  21
ENDBRANCH   7  12
ENDBRANCH   4   7
ENDBRANCH   2   3
ENDBRANCH   1   2
BRANCH   1  23
ATOM     23  C   UNL A   1      37.494  21.063  25.123  1.00  0.00     0.023 C 
BRANCH  23  24
ATOM     24  C   UNL A   1      38.878  21.211  25.738  1.00  0.00     0.116 C 
BRANCH  24  25
ATOM     25  N   UNL A   1      39.687  19.996  25.683  1.00  0.00    -0.352 N 
ATOM     26  C   UNL A   1      41.009  19.822  26.034  1.00  0.00     0.251 C 
ATOM     27  H   UNL A   1      39.225  19.193  25.349  1.00  0.00     0.163 HD
ATOM     28  O   UNL A   1      41.574  18.753  25.867  1.00  0.00    -0.269 OA
BRANCH  26  29
ATOM     29  C   UNL A   1      41.740  20.985  26.570  1.00  0.00     0.039 A 
ATOM     30  C   UNL A   1      42.302  21.897  25.676  1.00  0.00     0.014 A 
ATOM     31  C   UNL A   1      41.719  21.241  27.942  1.00  0.00     0.014 A 
ATOM     32  C   UNL A   1      42.732  23.136  26.149  1.00  0.00     0.010 A 
ATOM     33  C   UNL A   1      42.057  22.507  28.395  1.00  0.00     0.010 A 
ATOM     34  C   UNL A   1      42.543  23.474  27.500  1.00  0.00    -0.014 A 
BRANCH  34  35
ATOM     35  C   UNL A   1      42.801  24.844  28.005  1.00  0.00     0.031 A 
ATOM     36  C   UNL A   1      44.180  25.220  28.462  1.00  0.00     0.074 A 
ATOM     37  C   UNL A   1      41.775  25.703  28.163  1.00  0.00     0.049 A 
ATOM     38  N   UNL A   1      44.580  26.300  29.080  1.00  0.00    -0.248 NA
ATOM     39  C   UNL A   1      45.243  24.231  28.226  1.00  0.00     0.031 C 
ATOM     40  C   UNL A   1      40.379  25.437  27.806  1.00  0.00     0.029 A 
ATOM     41  N   UNL A   1      41.746  26.972  28.683  1.00  0.00    -0.354 N 
ATOM     42  C   UNL A   1      45.930  26.108  29.331  1.00  0.00     0.074 A 
ATOM     43  C   UNL A   1      46.270  24.788  28.846  1.00  0.00     0.031 C 
ATOM     44  C   UNL A   1      39.637  26.520  28.091  1.00  0.00     0.029 A 
ATOM     45  C   UNL A   1      40.493  27.537  28.693  1.00  0.00     0.049 A 
ATOM     46  H   UNL A   1      42.548  27.436  29.017  1.00  0.00     0.167 HD
ATOM     47  C   UNL A   1      46.815  26.965  29.892  1.00  0.00     0.037 A 
ATOM     48  C   UNL A   1      40.080  28.733  29.150  1.00  0.00     0.037 A 
ATOM     49  C   UNL A   1      46.483  28.292  30.335  1.00  0.00     0.049 A 
ATOM     50  C   UNL A   1      41.077  29.662  29.782  1.00  0.00     0.074 A 
ATOM     51  C   UNL A   1      47.324  29.269  30.838  1.00  0.00     0.029 A 
ATOM     52  N   UNL A   1      45.204  28.827  30.325  1.00  0.00    -0.354 N 
ATOM     53  N   UNL A   1      42.364  29.492  29.960  1.00  0.00    -0.248 NA
ATOM     54  C   UNL A   1      40.563  30.943  30.288  1.00  0.00     0.031 C 
ATOM     55  C   UNL A   1      46.546  30.386  31.164  1.00  0.00     0.029 A 
ATOM     56  C   UNL A   1      45.228  30.113  30.836  1.00  0.00     0.049 A 
ATOM     57  H   UNL A   1      44.399  28.361  30.002  1.00  0.00     0.167 HD
ATOM     58  C   UNL A   1      42.817  30.647  30.583  1.00  0.00     0.074 A 
ATOM     59  C   UNL A   1      41.669  31.516  30.742  1.00  0.00     0.031 C 
ATOM     60  C   UNL A   1      44.072  30.959  30.988  1.00  0.00     0.037 A 
BRANCH  47  61
ATOM     61  C   UNL A   1      48.226  26.486  30.046  1.00  0.00     0.057 A 
ATOM     62  C   UNL A   1      49.182  26.677  29.038  1.00  0.00     0.134 A 
ATOM     63  C   UNL A   1      48.637  25.827  31.211  1.00  0.00     0.134 A 
ATOM     64  F   UNL A   1      48.846  27.285  27.891  1.00  0.00    -0.206 F 
ATOM     65  C   UNL A   1      50.486  26.201  29.171  1.00  0.00     0.040 A 
ATOM     66  C   UNL A   1      49.946  25.369  31.366  1.00  0.00     0.040 A 
ATOM     67  F   UNL A   1      47.772  25.613  32.213  1.00  0.00    -0.206 F 
ATOM     68  C   UNL A   1      50.874  25.548  30.340  1.00  0.00     0.006 A 
ENDBRANCH  47  61
BRANCH  48  69
ATOM     69  C   UNL A   1      38.657  29.131  29.011  1.00  0.00     0.057 A 
ATOM     70  C   UNL A   1      37.784  29.049  30.101  1.00  0.00     0.134 A 
ATOM     71  C   UNL A   1      38.138  29.603  27.800  1.00  0.00     0.134 A 
ATOM     72  F   UNL A   1      38.222  28.586  31.282  1.00  0.00    -0.206 F 
ATOM     73  C   UNL A   1      36.441  29.413  29.992  1.00  0.00     0.040 A 
ATOM     74  C   UNL A   1      36.801  29.987  27.681  1.00  0.00     0.040 A 
ATOM     75  F   UNL A   1      38.926  29.708  26.720  1.00  0.00    -0.206 F 
ATOM     76  C   UNL A   1      35.947  29.889  28.779  1.00  0.00     0.006 A 
ENDBRANCH  48  69
BRANCH  60  77
ATOM     77  C   UNL A   1      44.270  32.297  31.631  1.00  0.00     0.057 A 
ATOM     78  C   UNL A   1      44.543  33.441  30.872  1.00  0.00     0.134 A 
ATOM     79  C   UNL A   1      44.135  32.452  33.016  1.00  0.00     0.134 A 
ATOM     80  F   UNL A   1      44.699  33.353  29.543  1.00  0.00    -0.206 F 
ATOM     81  C   UNL A   1      44.682  34.694  31.470  1.00  0.00     0.040 A 
ATOM     82  C   UNL A   1      44.251  33.702  33.623  1.00  0.00     0.040 A 
ATOM     83  F   UNL A   1      43.869  31.393  33.797  1.00  0.00    -0.206 F 
ATOM     84  C   UNL A   1      44.528  34.827  32.850  1.00  0.00     0.006 A 
ENDBRANCH  60  77
ENDBRANCH  34  35
ENDBRANCH  26  29
ENDBRANCH  24  25
ENDBRANCH  23  24
ENDBRANCH   1  23
TORSDOF 17
ENDMDL
