MODEL 1
REMARK VINA RESULT:     -12.0      0.000      0.000
REMARK SMILES CC1(C)[C@H](C(=O)NCCCCNC(=O)c2ccc(-c3c4nc(c(-c5c(F)cccc5F)c5ccc([nH]5)c(-c5c(F)cccc5F)c5nc(c(-c6c(F)cccc6F)c6ccc3[nH]6)C=C5)C=C4)cc2)[C@H]1C(=O)Nc1cccc2[nH]ccc12
REMARK SMILES IDX 9 1 8 2 7 3 5 4 6 5 4 7 1 8 2 9 3 10 69 11 70 12 71 13 72 14
REMARK SMILES IDX 73 16 74 17 81 18 75 19 77 20 80 21 76 22 78 23 79 24 10 26
REMARK SMILES IDX 11 27 12 28 13 29 14 31 15 32 16 33 68 34 17 35 67 36 18 37
REMARK SMILES IDX 19 38 20 39 61 40 21 41 66 42 60 43 62 44 22 45 65 46 59 47
REMARK SMILES IDX 58 48 23 50 49 51 32 52 48 53 33 54 36 55 47 56 63 57 34 58
REMARK SMILES IDX 35 59 46 61 64 62 37 63 24 64 25 65 30 66 26 67 27 68 29 69
REMARK SMILES IDX 31 70 28 71 50 72 51 73 56 74 52 75 53 76 55 77 57 78 54 79
REMARK SMILES IDX 38 80 39 81 44 82 40 83 41 84 43 85 45 86 42 87
REMARK H PARENT 7 6 72 15 78 25 12 30 62 49 36 60
REMARK Flexibility Score: inf
ROOT
ATOM      1  C   UNL A   1      33.329  29.022  24.331  1.00  0.00     0.023 C 
ENDROOT
BRANCH   1   2
ATOM      2  C   UNL A   1      32.336  28.929  23.174  1.00  0.00     0.116 C 
BRANCH   2   3
ATOM      3  N   UNL A   1      32.801  28.036  22.148  1.00  0.00    -0.356 N 
ATOM      4  C   UNL A   1      32.975  26.684  22.086  1.00  0.00     0.224 C 
ATOM      5  O   UNL A   1      33.364  26.257  20.996  1.00  0.00    -0.275 OA
ATOM      6  H   UNL A   1      33.045  28.497  21.313  1.00  0.00     0.163 HD
BRANCH   4   7
ATOM      7  C   UNL A   1      32.755  25.681  23.163  1.00  0.00     0.098 C 
ATOM      8  C   UNL A   1      31.679  23.456  23.643  1.00  0.00     0.013 C 
ATOM      9  C   UNL A   1      32.938  24.156  23.200  1.00  0.00    -0.011 C 
ATOM     10  C   UNL A   1      33.781  23.180  22.426  1.00  0.00     0.013 C 
ATOM     11  C   UNL A   1      33.799  25.115  24.050  1.00  0.00     0.098 C 
BRANCH  11  12
ATOM     12  C   UNL A   1      33.902  24.993  25.535  1.00  0.00     0.228 C 
ATOM     13  O   UNL A   1      33.331  25.852  26.206  1.00  0.00    -0.274 OA
ATOM     14  N   UNL A   1      34.338  23.850  26.159  1.00  0.00    -0.325 N 
ATOM     15  H   UNL A   1      33.768  23.516  26.890  1.00  0.00     0.169 HD
BRANCH  14  16
ATOM     16  C   UNL A   1      35.488  23.101  25.890  1.00  0.00     0.050 A 
ATOM     17  C   UNL A   1      36.719  23.764  25.903  1.00  0.00     0.027 A 
ATOM     18  C   UNL A   1      35.447  21.752  25.471  1.00  0.00     0.023 A 
ATOM     19  C   UNL A   1      37.904  23.061  25.700  1.00  0.00     0.004 A 
ATOM     20  C   UNL A   1      36.654  21.059  25.338  1.00  0.00     0.047 A 
ATOM     21  C   UNL A   1      34.422  20.845  25.062  1.00  0.00     0.030 A 
ATOM     22  C   UNL A   1      37.898  21.683  25.472  1.00  0.00     0.027 A 
ATOM     23  N   UNL A   1      36.344  19.742  25.083  1.00  0.00    -0.361 N 
ATOM     24  C   UNL A   1      34.997  19.608  24.874  1.00  0.00     0.083 A 
ATOM     25  H   UNL A   1      36.995  19.004  25.055  1.00  0.00     0.166 HD
ENDBRANCH  14  16
ENDBRANCH  11  12
ENDBRANCH   4   7
ENDBRANCH   2   3
ENDBRANCH   1   2
BRANCH   1  26
ATOM     26  C   UNL A   1      32.732  29.414  25.678  1.00  0.00     0.023 C 
BRANCH  26  27
ATOM     27  C   UNL A   1      33.688  29.335  26.859  1.00  0.00     0.116 C 
BRANCH  27  28
ATOM     28  N   UNL A   1      33.726  30.539  27.680  1.00  0.00    -0.352 N 
ATOM     29  C   UNL A   1      34.750  30.979  28.488  1.00  0.00     0.251 C 
ATOM     30  H   UNL A   1      32.920  31.105  27.655  1.00  0.00     0.163 HD
ATOM     31  O   UNL A   1      34.626  31.982  29.183  1.00  0.00    -0.269 OA
BRANCH  29  32
ATOM     32  C   UNL A   1      35.986  30.180  28.540  1.00  0.00     0.039 A 
ATOM     33  C   UNL A   1      36.870  30.235  27.460  1.00  0.00     0.014 A 
ATOM     34  C   UNL A   1      36.326  29.501  29.713  1.00  0.00     0.014 A 
ATOM     35  C   UNL A   1      38.149  29.698  27.600  1.00  0.00     0.010 A 
ATOM     36  C   UNL A   1      37.625  29.040  29.876  1.00  0.00     0.010 A 
ATOM     37  C   UNL A   1      38.554  29.155  28.830  1.00  0.00    -0.014 A 
BRANCH  37  38
ATOM     38  C   UNL A   1      39.957  28.740  29.071  1.00  0.00     0.031 A 
ATOM     39  C   UNL A   1      40.938  29.718  29.647  1.00  0.00     0.074 A 
ATOM     40  C   UNL A   1      40.367  27.520  28.671  1.00  0.00     0.049 A 
ATOM     41  N   UNL A   1      42.229  29.592  29.813  1.00  0.00    -0.248 NA
ATOM     42  C   UNL A   1      40.400  31.024  30.062  1.00  0.00     0.031 C 
ATOM     43  C   UNL A   1      39.517  26.499  28.053  1.00  0.00     0.029 A 
ATOM     44  N   UNL A   1      41.608  26.937  28.709  1.00  0.00    -0.354 N 
ATOM     45  C   UNL A   1      42.659  30.804  30.337  1.00  0.00     0.074 A 
ATOM     46  C   UNL A   1      41.502  31.670  30.410  1.00  0.00     0.031 C 
ATOM     47  C   UNL A   1      40.257  25.412  27.786  1.00  0.00     0.029 A 
ATOM     48  C   UNL A   1      41.641  25.673  28.171  1.00  0.00     0.049 A 
ATOM     49  H   UNL A   1      42.401  27.383  29.085  1.00  0.00     0.167 HD
ATOM     50  C   UNL A   1      43.902  31.154  30.739  1.00  0.00     0.037 A 
ATOM     51  C   UNL A   1      42.673  24.826  27.994  1.00  0.00     0.037 A 
ATOM     52  C   UNL A   1      45.043  30.280  30.685  1.00  0.00     0.049 A 
ATOM     53  C   UNL A   1      44.050  25.249  28.422  1.00  0.00     0.074 A 
ATOM     54  C   UNL A   1      46.329  30.513  31.140  1.00  0.00     0.029 A 
ATOM     55  N   UNL A   1      45.036  29.006  30.137  1.00  0.00    -0.354 N 
ATOM     56  N   UNL A   1      44.430  26.373  28.983  1.00  0.00    -0.248 NA
ATOM     57  C   UNL A   1      45.141  24.295  28.186  1.00  0.00     0.031 C 
ATOM     58  C   UNL A   1      47.112  29.397  30.824  1.00  0.00     0.029 A 
ATOM     59  C   UNL A   1      46.303  28.454  30.212  1.00  0.00     0.049 A 
ATOM     60  H   UNL A   1      44.247  28.561  29.752  1.00  0.00     0.167 HD
ATOM     61  C   UNL A   1      45.798  26.252  29.184  1.00  0.00     0.074 A 
ATOM     62  C   UNL A   1      46.180  24.942  28.698  1.00  0.00     0.031 C 
ATOM     63  C   UNL A   1      46.663  27.148  29.719  1.00  0.00     0.037 A 
BRANCH  50  64
ATOM     64  C   UNL A   1      44.086  32.541  31.278  1.00  0.00     0.057 A 
ATOM     65  C   UNL A   1      43.957  32.826  32.645  1.00  0.00     0.134 A 
ATOM     66  C   UNL A   1      44.417  33.602  30.426  1.00  0.00     0.134 A 
ATOM     67  F   UNL A   1      43.628  31.856  33.512  1.00  0.00    -0.206 F 
ATOM     68  C   UNL A   1      44.123  34.120  33.140  1.00  0.00     0.040 A 
ATOM     69  C   UNL A   1      44.612  34.895  30.913  1.00  0.00     0.040 A 
ATOM     70  F   UNL A   1      44.559  33.398  29.108  1.00  0.00    -0.206 F 
ATOM     71  C   UNL A   1      44.457  35.158  32.273  1.00  0.00     0.006 A 
ENDBRANCH  50  64
BRANCH  51  72
ATOM     72  C   UNL A   1      42.443  23.490  27.389  1.00  0.00     0.057 A 
ATOM     73  C   UNL A   1      42.062  22.400  28.178  1.00  0.00     0.134 A 
ATOM     74  C   UNL A   1      42.596  23.270  26.015  1.00  0.00     0.134 A 
ATOM     75  F   UNL A   1      41.919  22.544  29.504  1.00  0.00    -0.206 F 
ATOM     76  C   UNL A   1      41.854  21.135  27.626  1.00  0.00     0.040 A 
ATOM     77  C   UNL A   1      42.369  22.015  25.446  1.00  0.00     0.040 A 
ATOM     78  F   UNL A   1      42.954  24.276  25.203  1.00  0.00    -0.206 F 
ATOM     79  C   UNL A   1      42.002  20.941  26.255  1.00  0.00     0.006 A 
ENDBRANCH  51  72
BRANCH  63  80
ATOM     80  C   UNL A   1      48.102  26.738  29.820  1.00  0.00     0.057 A 
ATOM     81  C   UNL A   1      49.033  27.086  28.834  1.00  0.00     0.134 A 
ATOM     82  C   UNL A   1      48.570  26.041  30.940  1.00  0.00     0.134 A 
ATOM     83  F   UNL A   1      48.644  27.741  27.731  1.00  0.00    -0.206 F 
ATOM     84  C   UNL A   1      50.381  26.743  28.956  1.00  0.00     0.040 A 
ATOM     85  C   UNL A   1      49.919  25.714  31.083  1.00  0.00     0.040 A 
ATOM     86  F   UNL A   1      47.728  25.685  31.922  1.00  0.00    -0.206 F 
ATOM     87  C   UNL A   1      50.828  26.064  30.087  1.00  0.00     0.006 A 
ENDBRANCH  63  80
ENDBRANCH  37  38
ENDBRANCH  29  32
ENDBRANCH  27  28
ENDBRANCH  26  27
ENDBRANCH   1  26
TORSDOF 13
ENDMDL
MODEL 2
REMARK VINA RESULT:     -11.7      2.088      7.653
REMARK SMILES CC1(C)[C@H](C(=O)NCCCCNC(=O)c2ccc(-c3c4nc(c(-c5c(F)cccc5F)c5ccc([nH]5)c(-c5c(F)cccc5F)c5nc(c(-c6c(F)cccc6F)c6ccc3[nH]6)C=C5)C=C4)cc2)[C@H]1C(=O)Nc1cccc2[nH]ccc12
REMARK SMILES IDX 9 1 8 2 7 3 5 4 6 5 4 7 1 8 2 9 3 10 69 11 70 12 71 13 72 14
REMARK SMILES IDX 73 16 74 17 81 18 75 19 77 20 80 21 76 22 78 23 79 24 10 26
REMARK SMILES IDX 11 27 12 28 13 29 14 31 15 32 16 33 68 34 17 35 67 36 18 37
REMARK SMILES IDX 19 38 20 39 61 40 21 41 66 42 60 43 62 44 22 45 65 46 59 47
REMARK SMILES IDX 58 48 23 50 49 51 32 52 48 53 33 54 36 55 47 56 63 57 34 58
REMARK SMILES IDX 35 59 46 61 64 62 37 63 24 64 25 65 30 66 26 67 27 68 29 69
REMARK SMILES IDX 31 70 28 71 50 72 51 73 56 74 52 75 53 76 55 77 57 78 54 79
REMARK SMILES IDX 38 80 39 81 44 82 40 83 41 84 43 85 45 86 42 87
REMARK H PARENT 7 6 72 15 78 25 12 30 62 49 36 60
REMARK Flexibility Score: inf
ROOT
ATOM      1  C   UNL A   1      36.923  22.283  24.359  1.00  0.00     0.023 C 
ENDROOT
BRANCH   1   2
ATOM      2  C   UNL A   1      36.723  23.455  25.318  1.00  0.00     0.116 C 
BRANCH   2   3
ATOM      3  N   UNL A   1      35.978  23.065  26.484  1.00  0.00    -0.356 N 
ATOM      4  C   UNL A   1      34.659  23.139  26.824  1.00  0.00     0.224 C 
ATOM      5  O   UNL A   1      34.375  22.653  27.921  1.00  0.00    -0.275 OA
ATOM      6  H   UNL A   1      36.537  22.658  27.184  1.00  0.00     0.163 HD
BRANCH   4   7
ATOM      7  C   UNL A   1      33.541  23.730  26.039  1.00  0.00     0.098 C 
ATOM      8  C   UNL A   1      32.634  23.965  23.702  1.00  0.00     0.013 C 
ATOM      9  C   UNL A   1      32.616  23.140  24.963  1.00  0.00    -0.011 C 
ATOM     10  C   UNL A   1      32.159  21.750  24.618  1.00  0.00     0.013 C 
ATOM     11  C   UNL A   1      32.097  23.592  26.345  1.00  0.00     0.098 C 
BRANCH  11  12
ATOM     12  C   UNL A   1      30.999  24.594  26.498  1.00  0.00     0.228 C 
ATOM     13  O   UNL A   1      29.886  24.159  26.792  1.00  0.00    -0.274 OA
ATOM     14  N   UNL A   1      31.232  25.942  26.610  1.00  0.00    -0.325 N 
ATOM     15  H   UNL A   1      30.777  26.396  27.357  1.00  0.00     0.169 HD
BRANCH  14  16
ATOM     16  C   UNL A   1      32.031  26.753  25.799  1.00  0.00     0.050 A 
ATOM     17  C   UNL A   1      33.202  27.281  26.351  1.00  0.00     0.027 A 
ATOM     18  C   UNL A   1      31.639  27.175  24.508  1.00  0.00     0.023 A 
ATOM     19  C   UNL A   1      34.068  28.048  25.575  1.00  0.00     0.004 A 
ATOM     20  C   UNL A   1      32.557  27.889  23.733  1.00  0.00     0.047 A 
ATOM     21  C   UNL A   1      30.438  27.106  23.737  1.00  0.00     0.030 A 
ATOM     22  C   UNL A   1      33.791  28.317  24.233  1.00  0.00     0.027 A 
ATOM     23  N   UNL A   1      32.006  28.039  22.480  1.00  0.00    -0.361 N 
ATOM     24  C   UNL A   1      30.708  27.604  22.482  1.00  0.00     0.083 A 
ATOM     25  H   UNL A   1      32.478  28.405  21.697  1.00  0.00     0.166 HD
ENDBRANCH  14  16
ENDBRANCH  11  12
ENDBRANCH   4   7
ENDBRANCH   2   3
ENDBRANCH   1   2
BRANCH   1  26
ATOM     26  C   UNL A   1      37.467  21.006  24.990  1.00  0.00     0.023 C 
BRANCH  26  27
ATOM     27  C   UNL A   1      38.817  21.147  25.679  1.00  0.00     0.116 C 
BRANCH  27  28
ATOM     28  N   UNL A   1      39.643  19.947  25.628  1.00  0.00    -0.352 N 
ATOM     29  C   UNL A   1      40.959  19.810  26.007  1.00  0.00     0.251 C 
ATOM     30  H   UNL A   1      39.206  19.136  25.280  1.00  0.00     0.163 HD
ATOM     31  O   UNL A   1      41.560  18.753  25.849  1.00  0.00    -0.269 OA
BRANCH  29  32
ATOM     32  C   UNL A   1      41.649  20.989  26.558  1.00  0.00     0.039 A 
ATOM     33  C   UNL A   1      42.254  21.889  25.679  1.00  0.00     0.014 A 
ATOM     34  C   UNL A   1      41.565  21.267  27.925  1.00  0.00     0.014 A 
ATOM     35  C   UNL A   1      42.680  23.127  26.158  1.00  0.00     0.010 A 
ATOM     36  C   UNL A   1      41.915  22.529  28.383  1.00  0.00     0.010 A 
ATOM     37  C   UNL A   1      42.455  23.478  27.499  1.00  0.00    -0.014 A 
BRANCH  37  38
ATOM     38  C   UNL A   1      42.728  24.846  28.001  1.00  0.00     0.031 A 
ATOM     39  C   UNL A   1      44.106  25.210  28.468  1.00  0.00     0.074 A 
ATOM     40  C   UNL A   1      41.711  25.720  28.134  1.00  0.00     0.049 A 
ATOM     41  N   UNL A   1      44.517  26.304  29.055  1.00  0.00    -0.248 NA
ATOM     42  C   UNL A   1      45.156  24.196  28.277  1.00  0.00     0.031 C 
ATOM     43  C   UNL A   1      40.318  25.465  27.761  1.00  0.00     0.029 A 
ATOM     44  N   UNL A   1      41.689  26.997  28.637  1.00  0.00    -0.354 N 
ATOM     45  C   UNL A   1      45.866  26.104  29.317  1.00  0.00     0.074 A 
ATOM     46  C   UNL A   1      46.192  24.765  28.874  1.00  0.00     0.031 C 
ATOM     47  C   UNL A   1      39.582  26.555  28.031  1.00  0.00     0.029 A 
ATOM     48  C   UNL A   1      40.440  27.568  28.638  1.00  0.00     0.049 A 
ATOM     49  H   UNL A   1      42.493  27.459  28.967  1.00  0.00     0.167 HD
ATOM     50  C   UNL A   1      46.756  26.968  29.859  1.00  0.00     0.037 A 
ATOM     51  C   UNL A   1      40.029  28.768  29.091  1.00  0.00     0.037 A 
ATOM     52  C   UNL A   1      46.431  28.305  30.275  1.00  0.00     0.049 A 
ATOM     53  C   UNL A   1      41.031  29.697  29.715  1.00  0.00     0.074 A 
ATOM     54  C   UNL A   1      47.277  29.285  30.764  1.00  0.00     0.029 A 
ATOM     55  N   UNL A   1      45.155  28.849  30.257  1.00  0.00    -0.354 N 
ATOM     56  N   UNL A   1      42.319  29.524  29.892  1.00  0.00    -0.248 NA
ATOM     57  C   UNL A   1      40.524  30.984  30.212  1.00  0.00     0.031 C 
ATOM     58  C   UNL A   1      46.505  30.406  31.086  1.00  0.00     0.029 A 
ATOM     59  C   UNL A   1      45.186  30.139  30.758  1.00  0.00     0.049 A 
ATOM     60  H   UNL A   1      44.348  28.386  29.937  1.00  0.00     0.167 HD
ATOM     61  C   UNL A   1      42.779  30.684  30.500  1.00  0.00     0.074 A 
ATOM     62  C   UNL A   1      41.635  31.560  30.651  1.00  0.00     0.031 C 
ATOM     63  C   UNL A   1      44.035  30.994  30.902  1.00  0.00     0.037 A 
BRANCH  50  64
ATOM     64  C   UNL A   1      48.167  26.488  30.024  1.00  0.00     0.057 A 
ATOM     65  C   UNL A   1      49.138  26.696  29.035  1.00  0.00     0.134 A 
ATOM     66  C   UNL A   1      48.567  25.829  31.193  1.00  0.00     0.134 A 
ATOM     67  F   UNL A   1      48.816  27.310  27.885  1.00  0.00    -0.206 F 
ATOM     68  C   UNL A   1      50.449  26.242  29.191  1.00  0.00     0.040 A 
ATOM     69  C   UNL A   1      49.881  25.393  31.372  1.00  0.00     0.040 A 
ATOM     70  F   UNL A   1      47.689  25.599  32.180  1.00  0.00    -0.206 F 
ATOM     71  C   UNL A   1      50.824  25.593  30.365  1.00  0.00     0.006 A 
ENDBRANCH  50  64
BRANCH  51  72
ATOM     72  C   UNL A   1      38.603  29.162  28.966  1.00  0.00     0.057 A 
ATOM     73  C   UNL A   1      38.092  29.633  27.752  1.00  0.00     0.134 A 
ATOM     74  C   UNL A   1      37.720  29.077  30.049  1.00  0.00     0.134 A 
ATOM     75  F   UNL A   1      38.894  29.755  26.684  1.00  0.00    -0.206 F 
ATOM     76  C   UNL A   1      36.757  30.018  27.620  1.00  0.00     0.040 A 
ATOM     77  C   UNL A   1      36.376  29.438  29.925  1.00  0.00     0.040 A 
ATOM     78  F   UNL A   1      38.146  28.628  31.238  1.00  0.00    -0.206 F 
ATOM     79  C   UNL A   1      35.893  29.916  28.709  1.00  0.00     0.006 A 
ENDBRANCH  51  72
BRANCH  63  80
ATOM     80  C   UNL A   1      44.242  32.340  31.531  1.00  0.00     0.057 A 
ATOM     81  C   UNL A   1      44.200  32.515  32.919  1.00  0.00     0.134 A 
ATOM     82  C   UNL A   1      44.544  33.458  30.744  1.00  0.00     0.134 A 
ATOM     83  F   UNL A   1      43.902  31.486  33.726  1.00  0.00    -0.206 F 
ATOM     84  C   UNL A   1      44.441  33.759  33.503  1.00  0.00     0.040 A 
ATOM     85  C   UNL A   1      44.809  34.702  31.317  1.00  0.00     0.040 A 
ATOM     86  F   UNL A   1      44.606  33.354  29.408  1.00  0.00    -0.206 F 
ATOM     87  C   UNL A   1      44.755  34.855  32.702  1.00  0.00     0.006 A 
ENDBRANCH  63  80
ENDBRANCH  37  38
ENDBRANCH  29  32
ENDBRANCH  27  28
ENDBRANCH  26  27
ENDBRANCH   1  26
TORSDOF 13
ENDMDL
MODEL 3
REMARK VINA RESULT:     -11.7      2.089      7.407
REMARK SMILES CC1(C)[C@H](C(=O)NCCCCNC(=O)c2ccc(-c3c4nc(c(-c5c(F)cccc5F)c5ccc([nH]5)c(-c5c(F)cccc5F)c5nc(c(-c6c(F)cccc6F)c6ccc3[nH]6)C=C5)C=C4)cc2)[C@H]1C(=O)Nc1cccc2[nH]ccc12
REMARK SMILES IDX 9 1 8 2 7 3 5 4 6 5 4 7 1 8 2 9 3 10 69 11 70 12 71 13 72 14
REMARK SMILES IDX 73 16 74 17 81 18 75 19 77 20 80 21 76 22 78 23 79 24 10 26
REMARK SMILES IDX 11 27 12 28 13 29 14 31 15 32 16 33 68 34 17 35 67 36 18 37
REMARK SMILES IDX 19 38 20 39 61 40 21 41 66 42 60 43 62 44 22 45 65 46 59 47
REMARK SMILES IDX 58 48 23 50 49 51 32 52 48 53 33 54 36 55 47 56 63 57 34 58
REMARK SMILES IDX 35 59 46 61 64 62 37 63 24 64 25 65 30 66 26 67 27 68 29 69
REMARK SMILES IDX 31 70 28 71 50 72 51 73 56 74 52 75 53 76 55 77 57 78 54 79
REMARK SMILES IDX 38 80 39 81 44 82 40 83 41 84 43 85 45 86 42 87
REMARK H PARENT 7 6 72 15 78 25 12 30 62 49 36 60
REMARK Flexibility Score: inf
ROOT
ATOM      1  C   UNL A   1      36.971  22.270  23.803  1.00  0.00     0.023 C 
ENDROOT
BRANCH   1   2
ATOM      2  C   UNL A   1      35.630  22.972  23.606  1.00  0.00     0.116 C 
BRANCH   2   3
ATOM      3  N   UNL A   1      35.506  24.126  24.455  1.00  0.00    -0.356 N 
ATOM      4  C   UNL A   1      34.443  24.759  25.032  1.00  0.00     0.224 C 
ATOM      5  O   UNL A   1      34.733  25.719  25.749  1.00  0.00    -0.275 OA
ATOM      6  H   UNL A   1      36.369  24.548  24.666  1.00  0.00     0.163 HD
BRANCH   4   7
ATOM      7  C   UNL A   1      32.998  24.431  24.898  1.00  0.00     0.098 C 
ATOM      8  C   UNL A   1      31.356  23.122  23.508  1.00  0.00     0.013 C 
ATOM      9  C   UNL A   1      32.258  23.097  24.716  1.00  0.00    -0.011 C 
ATOM     10  C   UNL A   1      32.578  21.665  25.043  1.00  0.00     0.013 C 
ATOM     11  C   UNL A   1      32.108  23.961  25.986  1.00  0.00     0.098 C 
BRANCH  11  12
ATOM     12  C   UNL A   1      30.780  24.435  26.479  1.00  0.00     0.228 C 
ATOM     13  O   UNL A   1      30.105  23.631  27.121  1.00  0.00    -0.274 OA
ATOM     14  N   UNL A   1      30.424  25.761  26.499  1.00  0.00    -0.325 N 
ATOM     15  H   UNL A   1      30.054  26.093  27.350  1.00  0.00     0.169 HD
BRANCH  14  16
ATOM     16  C   UNL A   1      30.517  26.698  25.467  1.00  0.00     0.050 A 
ATOM     17  C   UNL A   1      29.809  26.447  24.287  1.00  0.00     0.027 A 
ATOM     18  C   UNL A   1      31.398  27.803  25.507  1.00  0.00     0.023 A 
ATOM     19  C   UNL A   1      29.816  27.371  23.245  1.00  0.00     0.004 A 
ATOM     20  C   UNL A   1      31.335  28.744  24.475  1.00  0.00     0.047 A 
ATOM     21  C   UNL A   1      32.461  28.225  26.362  1.00  0.00     0.030 A 
ATOM     22  C   UNL A   1      30.533  28.566  23.344  1.00  0.00     0.027 A 
ATOM     23  N   UNL A   1      32.162  29.789  24.823  1.00  0.00    -0.361 N 
ATOM     24  C   UNL A   1      32.879  29.467  25.943  1.00  0.00     0.083 A 
ATOM     25  H   UNL A   1      32.227  30.642  24.336  1.00  0.00     0.166 HD
ENDBRANCH  14  16
ENDBRANCH  11  12
ENDBRANCH   4   7
ENDBRANCH   2   3
ENDBRANCH   1   2
BRANCH   1  26
ATOM     26  C   UNL A   1      37.119  21.491  25.105  1.00  0.00     0.023 C 
BRANCH  26  27
ATOM     27  C   UNL A   1      38.511  21.513  25.720  1.00  0.00     0.116 C 
BRANCH  27  28
ATOM     28  N   UNL A   1      39.244  20.260  25.587  1.00  0.00    -0.352 N 
ATOM     29  C   UNL A   1      40.549  20.003  25.941  1.00  0.00     0.251 C 
ATOM     30  H   UNL A   1      38.746  19.507  25.194  1.00  0.00     0.163 HD
ATOM     31  O   UNL A   1      41.068  18.916  25.712  1.00  0.00    -0.269 OA
BRANCH  29  32
ATOM     32  C   UNL A   1      41.329  21.091  26.556  1.00  0.00     0.039 A 
ATOM     33  C   UNL A   1      41.953  22.025  25.727  1.00  0.00     0.014 A 
ATOM     34  C   UNL A   1      41.314  21.258  27.943  1.00  0.00     0.014 A 
ATOM     35  C   UNL A   1      42.471  23.193  26.287  1.00  0.00     0.010 A 
ATOM     36  C   UNL A   1      41.756  22.456  28.486  1.00  0.00     0.010 A 
ATOM     37  C   UNL A   1      42.318  23.443  27.660  1.00  0.00    -0.014 A 
BRANCH  37  38
ATOM     38  C   UNL A   1      42.692  24.747  28.258  1.00  0.00     0.031 A 
ATOM     39  C   UNL A   1      41.652  25.811  28.445  1.00  0.00     0.074 A 
ATOM     40  C   UNL A   1      43.987  25.005  28.531  1.00  0.00     0.049 A 
ATOM     41  N   UNL A   1      41.800  27.052  28.827  1.00  0.00    -0.248 NA
ATOM     42  C   UNL A   1      40.264  25.438  28.127  1.00  0.00     0.031 C 
ATOM     43  C   UNL A   1      45.097  24.067  28.346  1.00  0.00     0.029 A 
ATOM     44  N   UNL A   1      44.591  26.141  29.007  1.00  0.00    -0.354 N 
ATOM     45  C   UNL A   1      40.529  27.612  28.783  1.00  0.00     0.074 A 
ATOM     46  C   UNL A   1      39.633  26.591  28.285  1.00  0.00     0.031 C 
ATOM     47  C   UNL A   1      46.242  24.660  28.720  1.00  0.00     0.029 A 
ATOM     48  C   UNL A   1      45.955  26.032  29.127  1.00  0.00     0.049 A 
ATOM     49  H   UNL A   1      44.093  26.958  29.239  1.00  0.00     0.167 HD
ATOM     50  C   UNL A   1      40.145  28.857  29.145  1.00  0.00     0.037 A 
ATOM     51  C   UNL A   1      46.873  26.940  29.508  1.00  0.00     0.037 A 
ATOM     52  C   UNL A   1      41.037  29.859  29.661  1.00  0.00     0.049 A 
ATOM     53  C   UNL A   1      46.424  28.326  29.877  1.00  0.00     0.074 A 
ATOM     54  C   UNL A   1      40.733  31.125  30.130  1.00  0.00     0.029 A 
ATOM     55  N   UNL A   1      42.411  29.710  29.772  1.00  0.00    -0.354 N 
ATOM     56  N   UNL A   1      45.209  28.820  29.900  1.00  0.00    -0.248 NA
ATOM     57  C   UNL A   1      47.470  29.282  30.265  1.00  0.00     0.031 C 
ATOM     58  C   UNL A   1      41.930  31.760  30.479  1.00  0.00     0.029 A 
ATOM     59  C   UNL A   1      42.973  30.873  30.269  1.00  0.00     0.049 A 
ATOM     60  H   UNL A   1      42.913  28.897  29.532  1.00  0.00     0.167 HD
ATOM     61  C   UNL A   1      45.343  30.136  30.321  1.00  0.00     0.074 A 
ATOM     62  C   UNL A   1      46.754  30.360  30.556  1.00  0.00     0.031 C 
ATOM     63  C   UNL A   1      44.382  31.077  30.493  1.00  0.00     0.037 A 
BRANCH  50  64
ATOM     64  C   UNL A   1      38.692  29.197  28.998  1.00  0.00     0.057 A 
ATOM     65  C   UNL A   1      38.145  29.590  27.768  1.00  0.00     0.134 A 
ATOM     66  C   UNL A   1      37.822  29.112  30.093  1.00  0.00     0.134 A 
ATOM     67  F   UNL A   1      38.928  29.704  26.683  1.00  0.00    -0.206 F 
ATOM     68  C   UNL A   1      36.794  29.911  27.638  1.00  0.00     0.040 A 
ATOM     69  C   UNL A   1      36.463  29.406  29.969  1.00  0.00     0.040 A 
ATOM     70  F   UNL A   1      38.278  28.740  31.297  1.00  0.00    -0.206 F 
ATOM     71  C   UNL A   1      35.948  29.814  28.740  1.00  0.00     0.006 A 
ENDBRANCH  50  64
BRANCH  51  72
ATOM     72  C   UNL A   1      48.309  26.568  29.566  1.00  0.00     0.057 A 
ATOM     73  C   UNL A   1      48.844  25.943  30.698  1.00  0.00     0.134 A 
ATOM     74  C   UNL A   1      49.178  26.823  28.499  1.00  0.00     0.134 A 
ATOM     75  F   UNL A   1      48.065  25.690  31.761  1.00  0.00    -0.206 F 
ATOM     76  C   UNL A   1      50.193  25.596  30.774  1.00  0.00     0.040 A 
ATOM     77  C   UNL A   1      50.526  26.461  28.552  1.00  0.00     0.040 A 
ATOM     78  F   UNL A   1      48.726  27.414  27.383  1.00  0.00    -0.206 F 
ATOM     79  C   UNL A   1      51.038  25.851  29.695  1.00  0.00     0.006 A 
ENDBRANCH  51  72
BRANCH  63  80
ATOM     80  C   UNL A   1      44.823  32.428  30.971  1.00  0.00     0.057 A 
ATOM     81  C   UNL A   1      45.118  33.462  30.075  1.00  0.00     0.134 A 
ATOM     82  C   UNL A   1      44.896  32.714  32.340  1.00  0.00     0.134 A 
ATOM     83  F   UNL A   1      45.080  33.247  28.752  1.00  0.00    -0.206 F 
ATOM     84  C   UNL A   1      45.481  34.733  30.525  1.00  0.00     0.040 A 
ATOM     85  C   UNL A   1      45.235  33.986  32.801  1.00  0.00     0.040 A 
ATOM     86  F   UNL A   1      44.619  31.768  33.250  1.00  0.00    -0.206 F 
ATOM     87  C   UNL A   1      45.531  35.000  31.891  1.00  0.00     0.006 A 
ENDBRANCH  63  80
ENDBRANCH  37  38
ENDBRANCH  29  32
ENDBRANCH  27  28
ENDBRANCH  26  27
ENDBRANCH   1  26
TORSDOF 13
ENDMDL
