MODEL 1
REMARK VINA RESULT:     -12.3      0.000      0.000
REMARK SMILES O=C(NCCCCNC(=O)c1cccc(F)c1N1CCN2C(=O)NC[C@@H]2C1)c1ccc(-c2c3nc(c(-c4c(F)cccc4F)c4ccc([nH]4)c(-c4c(F)cccc4F)c4nc(c(-c5c(F)cccc5F)c5ccc2[nH]5)C=C4)C=C3)cc1
REMARK SMILES IDX 5 1 4 2 3 3 1 4 2 5 28 7 29 8 81 9 30 10 80 11 31 12 32 13
REMARK SMILES IDX 33 14 74 15 34 16 79 17 73 18 75 19 35 20 78 21 72 22 71 23
REMARK SMILES IDX 36 25 62 26 45 27 61 28 46 29 49 30 60 31 76 32 47 33 48 34
REMARK SMILES IDX 59 36 77 37 50 38 37 39 38 40 43 41 39 42 40 43 42 44 44 45
REMARK SMILES IDX 41 46 63 47 64 48 69 49 65 50 66 51 68 52 70 53 67 54 51 55
REMARK SMILES IDX 52 56 57 57 53 58 54 59 56 60 58 61 55 62 6 63 7 64 8 65
REMARK SMILES IDX 9 66 10 68 11 69 12 70 17 71 13 72 15 73 14 74 16 75 18 76
REMARK SMILES IDX 19 77 27 78 20 79 26 80 21 81 25 82 22 83 24 84 23 85
REMARK H PARENT 3 6 75 24 49 35 8 67 24 86
REMARK Flexibility Score: inf
ROOT
ATOM      1  C   UNL A   1      37.774  19.794  24.819  1.00  0.00     0.023 C 
ENDROOT
BRANCH   1   2
ATOM      2  C   UNL A   1      38.878  20.135  25.808  1.00  0.00     0.116 C 
BRANCH   2   3
ATOM      3  N   UNL A   1      40.005  19.215  25.751  1.00  0.00    -0.352 N 
ATOM      4  O   UNL A   1      42.179  18.599  25.763  1.00  0.00    -0.269 OA
ATOM      5  C   UNL A   1      41.337  19.464  25.982  1.00  0.00     0.251 C 
ATOM      6  H   UNL A   1      39.782  18.286  25.514  1.00  0.00     0.163 HD
BRANCH   5   7
ATOM      7  C   UNL A   1      41.752  20.797  26.470  1.00  0.00     0.039 A 
ATOM      8  C   UNL A   1      41.715  21.087  27.835  1.00  0.00     0.014 A 
ATOM      9  C   UNL A   1      42.161  21.771  25.554  1.00  0.00     0.014 A 
ATOM     10  C   UNL A   1      41.926  22.388  28.267  1.00  0.00     0.010 A 
ATOM     11  C   UNL A   1      42.482  23.054  26.006  1.00  0.00     0.010 A 
ATOM     12  C   UNL A   1      42.347  23.379  27.364  1.00  0.00    -0.014 A 
BRANCH  12  13
ATOM     13  C   UNL A   1      42.745  24.707  27.894  1.00  0.00     0.031 A 
ATOM     14  C   UNL A   1      44.183  25.063  28.140  1.00  0.00     0.074 A 
ATOM     15  C   UNL A   1      41.770  25.609  28.128  1.00  0.00     0.049 A 
ATOM     16  N   UNL A   1      44.680  26.185  28.597  1.00  0.00    -0.248 NA
ATOM     17  C   UNL A   1      45.197  24.039  27.840  1.00  0.00     0.031 C 
ATOM     18  C   UNL A   1      40.337  25.366  27.932  1.00  0.00     0.029 A 
ATOM     19  N   UNL A   1      41.827  26.909  28.561  1.00  0.00    -0.354 N 
ATOM     20  C   UNL A   1      46.055  26.001  28.651  1.00  0.00     0.074 A 
ATOM     21  C   UNL A   1      46.318  24.651  28.201  1.00  0.00     0.031 C 
ATOM     22  C   UNL A   1      39.659  26.490  28.194  1.00  0.00     0.029 A 
ATOM     23  C   UNL A   1      40.594  27.508  28.657  1.00  0.00     0.049 A 
ATOM     24  H   UNL A   1      42.669  27.368  28.781  1.00  0.00     0.167 HD
ATOM     25  C   UNL A   1      47.005  26.886  29.035  1.00  0.00     0.037 A 
ATOM     26  C   UNL A   1      40.243  28.729  29.098  1.00  0.00     0.037 A 
ATOM     27  C   UNL A   1      46.730  28.235  29.466  1.00  0.00     0.049 A 
ATOM     28  C   UNL A   1      41.318  29.667  29.561  1.00  0.00     0.074 A 
ATOM     29  C   UNL A   1      47.634  29.217  29.835  1.00  0.00     0.029 A 
ATOM     30  N   UNL A   1      45.465  28.790  29.590  1.00  0.00    -0.354 N 
ATOM     31  N   UNL A   1      42.616  29.490  29.571  1.00  0.00    -0.248 NA
ATOM     32  C   UNL A   1      40.883  30.970  30.082  1.00  0.00     0.031 C 
ATOM     33  C   UNL A   1      46.915  30.343  30.241  1.00  0.00     0.029 A 
ATOM     34  C   UNL A   1      45.566  30.088  30.064  1.00  0.00     0.049 A 
ATOM     35  H   UNL A   1      44.622  28.329  29.374  1.00  0.00     0.167 HD
ATOM     36  C   UNL A   1      43.154  30.661  30.083  1.00  0.00     0.074 A 
ATOM     37  C   UNL A   1      42.044  31.552  30.350  1.00  0.00     0.031 C 
ATOM     38  C   UNL A   1      44.452  30.966  30.320  1.00  0.00     0.037 A 
BRANCH  25  39
ATOM     39  C   UNL A   1      48.443  26.454  29.018  1.00  0.00     0.057 A 
ATOM     40  C   UNL A   1      49.027  25.886  30.159  1.00  0.00     0.134 A 
ATOM     41  C   UNL A   1      49.282  26.733  27.934  1.00  0.00     0.134 A 
ATOM     42  F   UNL A   1      48.281  25.603  31.238  1.00  0.00    -0.206 F 
ATOM     43  C   UNL A   1      50.399  25.642  30.233  1.00  0.00     0.040 A 
ATOM     44  C   UNL A   1      50.654  26.473  27.989  1.00  0.00     0.040 A 
ATOM     45  F   UNL A   1      48.785  27.271  26.810  1.00  0.00    -0.206 F 
ATOM     46  C   UNL A   1      51.218  25.940  29.147  1.00  0.00     0.006 A 
ENDBRANCH  25  39
BRANCH  26  47
ATOM     47  C   UNL A   1      38.810  29.113  29.144  1.00  0.00     0.057 A 
ATOM     48  C   UNL A   1      38.067  29.013  30.330  1.00  0.00     0.134 A 
ATOM     49  C   UNL A   1      38.141  29.571  28.005  1.00  0.00     0.134 A 
ATOM     50  F   UNL A   1      38.645  28.570  31.456  1.00  0.00    -0.206 F 
ATOM     51  C   UNL A   1      36.711  29.334  30.375  1.00  0.00     0.040 A 
ATOM     52  C   UNL A   1      36.794  29.930  28.043  1.00  0.00     0.040 A 
ATOM     53  F   UNL A   1      38.800  29.703  26.844  1.00  0.00    -0.206 F 
ATOM     54  C   UNL A   1      36.072  29.803  29.228  1.00  0.00     0.006 A 
ENDBRANCH  26  47
BRANCH  38  55
ATOM     55  C   UNL A   1      44.754  32.324  30.881  1.00  0.00     0.057 A 
ATOM     56  C   UNL A   1      45.015  33.407  30.031  1.00  0.00     0.134 A 
ATOM     57  C   UNL A   1      44.861  32.543  32.260  1.00  0.00     0.134 A 
ATOM     58  F   UNL A   1      44.938  33.262  28.699  1.00  0.00    -0.206 F 
ATOM     59  C   UNL A   1      45.390  34.653  30.532  1.00  0.00     0.040 A 
ATOM     60  C   UNL A   1      45.207  33.793  32.774  1.00  0.00     0.040 A 
ATOM     61  F   UNL A   1      44.612  31.550  33.127  1.00  0.00    -0.206 F 
ATOM     62  C   UNL A   1      45.484  34.850  31.908  1.00  0.00     0.006 A 
ENDBRANCH  38  55
ENDBRANCH  12  13
ENDBRANCH   5   7
ENDBRANCH   2   3
ENDBRANCH   1   2
BRANCH   1  63
ATOM     63  C   UNL A   1      36.414  20.410  25.127  1.00  0.00     0.023 C 
BRANCH  63  64
ATOM     64  C   UNL A   1      36.349  21.929  25.026  1.00  0.00     0.116 C 
BRANCH  64  65
ATOM     65  N   UNL A   1      35.938  22.401  23.714  1.00  0.00    -0.352 N 
ATOM     66  C   UNL A   1      34.936  23.283  23.379  1.00  0.00     0.253 C 
ATOM     67  H   UNL A   1      36.448  22.036  22.956  1.00  0.00     0.163 HD
ATOM     68  O   UNL A   1      34.781  23.597  22.203  1.00  0.00    -0.269 OA
BRANCH  66  69
ATOM     69  C   UNL A   1      34.081  23.849  24.446  1.00  0.00     0.066 A 
ATOM     70  C   UNL A   1      34.417  25.139  24.905  1.00  0.00     0.016 A 
ATOM     71  C   UNL A   1      32.946  23.164  24.931  1.00  0.00     0.086 A 
ATOM     72  C   UNL A   1      33.695  25.734  25.933  1.00  0.00     0.004 A 
ATOM     73  C   UNL A   1      32.237  23.812  25.963  1.00  0.00     0.147 A 
ATOM     74  C   UNL A   1      32.610  25.058  26.473  1.00  0.00     0.041 A 
ATOM     75  F   UNL A   1      31.169  23.213  26.517  1.00  0.00    -0.205 F 
BRANCH  71  76
ATOM     76  N   UNL A   1      32.518  21.948  24.424  1.00  0.00    -0.365 N 
ATOM     77  C   UNL A   1      31.780  21.891  23.143  1.00  0.00     0.138 C 
ATOM     78  C   UNL A   1      32.481  20.731  25.250  1.00  0.00     0.143 C 
ATOM     79  C   UNL A   1      32.153  20.633  22.320  1.00  0.00     0.143 C 
ATOM     80  C   UNL A   1      33.017  19.564  24.419  1.00  0.00     0.125 C 
ATOM     81  N   UNL A   1      32.330  19.451  23.145  1.00  0.00    -0.317 N 
ATOM     82  C   UNL A   1      32.844  18.170  25.005  1.00  0.00     0.144 C 
ATOM     83  C   UNL A   1      32.290  18.132  22.735  1.00  0.00     0.317 C 
ATOM     84  N   UNL A   1      32.660  17.355  23.827  1.00  0.00    -0.336 N 
ATOM     85  O   UNL A   1      31.997  17.701  21.632  1.00  0.00    -0.249 OA
ATOM     86  H   UNL A   1      32.779  16.378  23.802  1.00  0.00     0.165 HD
ENDBRANCH  71  76
ENDBRANCH  66  69
ENDBRANCH  64  65
ENDBRANCH  63  64
ENDBRANCH   1  63
TORSDOF 12
ENDMDL
MODEL 2
REMARK VINA RESULT:     -12.1      1.082      6.323
REMARK SMILES O=C(NCCCCNC(=O)c1cccc(F)c1N1CCN2C(=O)NC[C@@H]2C1)c1ccc(-c2c3nc(c(-c4c(F)cccc4F)c4ccc([nH]4)c(-c4c(F)cccc4F)c4nc(c(-c5c(F)cccc5F)c5ccc2[nH]5)C=C4)C=C3)cc1
REMARK SMILES IDX 5 1 4 2 3 3 1 4 2 5 28 7 29 8 81 9 30 10 80 11 31 12 32 13
REMARK SMILES IDX 33 14 74 15 34 16 79 17 73 18 75 19 35 20 78 21 72 22 71 23
REMARK SMILES IDX 36 25 62 26 45 27 61 28 46 29 49 30 60 31 76 32 47 33 48 34
REMARK SMILES IDX 59 36 77 37 50 38 37 39 38 40 43 41 39 42 40 43 42 44 44 45
REMARK SMILES IDX 41 46 63 47 64 48 69 49 65 50 66 51 68 52 70 53 67 54 51 55
REMARK SMILES IDX 52 56 57 57 53 58 54 59 56 60 58 61 55 62 6 63 7 64 8 65
REMARK SMILES IDX 9 66 10 68 11 69 12 70 17 71 13 72 15 73 14 74 16 75 18 76
REMARK SMILES IDX 19 77 27 78 20 79 26 80 21 81 25 82 22 83 24 84 23 85
REMARK H PARENT 3 6 75 24 49 35 8 67 24 86
REMARK Flexibility Score: inf
ROOT
ATOM      1  C   UNL A   1      37.626  19.690  24.955  1.00  0.00     0.023 C 
ENDROOT
BRANCH   1   2
ATOM      2  C   UNL A   1      38.819  20.210  25.741  1.00  0.00     0.116 C 
BRANCH   2   3
ATOM      3  N   UNL A   1      39.904  19.245  25.843  1.00  0.00    -0.352 N 
ATOM      4  O   UNL A   1      42.045  18.547  26.037  1.00  0.00    -0.269 OA
ATOM      5  C   UNL A   1      41.234  19.465  26.116  1.00  0.00     0.251 C 
ATOM      6  H   UNL A   1      39.651  18.306  25.698  1.00  0.00     0.163 HD
BRANCH   5   7
ATOM      7  C   UNL A   1      41.686  20.826  26.477  1.00  0.00     0.039 A 
ATOM      8  C   UNL A   1      41.943  21.767  25.479  1.00  0.00     0.014 A 
ATOM      9  C   UNL A   1      41.871  21.157  27.823  1.00  0.00     0.014 A 
ATOM     10  C   UNL A   1      42.540  22.975  25.811  1.00  0.00     0.010 A 
ATOM     11  C   UNL A   1      42.368  22.418  28.162  1.00  0.00     0.010 A 
ATOM     12  C   UNL A   1      42.727  23.330  27.158  1.00  0.00    -0.014 A 
BRANCH  12  13
ATOM     13  C   UNL A   1      43.190  24.704  27.477  1.00  0.00     0.031 A 
ATOM     14  C   UNL A   1      42.237  25.780  27.909  1.00  0.00     0.074 A 
ATOM     15  C   UNL A   1      44.512  24.956  27.394  1.00  0.00     0.049 A 
ATOM     16  N   UNL A   1      42.498  27.025  28.223  1.00  0.00    -0.248 NA
ATOM     17  C   UNL A   1      40.810  25.428  28.001  1.00  0.00     0.031 C 
ATOM     18  C   UNL A   1      45.528  23.985  26.977  1.00  0.00     0.029 A 
ATOM     19  N   UNL A   1      45.234  26.090  27.670  1.00  0.00    -0.354 N 
ATOM     20  C   UNL A   1      41.277  27.606  28.537  1.00  0.00     0.074 A 
ATOM     21  C   UNL A   1      40.266  26.586  28.356  1.00  0.00     0.031 C 
ATOM     22  C   UNL A   1      46.740  24.545  27.073  1.00  0.00     0.029 A 
ATOM     23  C   UNL A   1      46.585  25.938  27.474  1.00  0.00     0.049 A 
ATOM     24  H   UNL A   1      44.824  26.929  27.978  1.00  0.00     0.167 HD
ATOM     25  C   UNL A   1      41.032  28.873  28.946  1.00  0.00     0.037 A 
ATOM     26  C   UNL A   1      47.592  26.824  27.574  1.00  0.00     0.037 A 
ATOM     27  C   UNL A   1      42.050  29.875  29.139  1.00  0.00     0.049 A 
ATOM     28  C   UNL A   1      47.278  28.232  27.984  1.00  0.00     0.074 A 
ATOM     29  C   UNL A   1      41.899  31.175  29.591  1.00  0.00     0.029 A 
ATOM     30  N   UNL A   1      43.403  29.694  28.889  1.00  0.00    -0.354 N 
ATOM     31  N   UNL A   1      46.122  28.755  28.313  1.00  0.00    -0.248 NA
ATOM     32  C   UNL A   1      48.401  29.178  28.030  1.00  0.00     0.031 C 
ATOM     33  C   UNL A   1      43.148  31.799  29.556  1.00  0.00     0.029 A 
ATOM     34  C   UNL A   1      44.089  30.871  29.144  1.00  0.00     0.049 A 
ATOM     35  H   UNL A   1      43.813  28.856  28.576  1.00  0.00     0.167 HD
ATOM     36  C   UNL A   1      46.380  30.083  28.618  1.00  0.00     0.074 A 
ATOM     37  C   UNL A   1      47.805  30.281  28.460  1.00  0.00     0.031 C 
ATOM     38  C   UNL A   1      45.510  31.053  28.987  1.00  0.00     0.037 A 
BRANCH  25  39
ATOM     39  C   UNL A   1      39.613  29.280  29.221  1.00  0.00     0.057 A 
ATOM     40  C   UNL A   1      39.090  29.202  30.520  1.00  0.00     0.134 A 
ATOM     41  C   UNL A   1      38.726  29.603  28.188  1.00  0.00     0.134 A 
ATOM     42  F   UNL A   1      39.884  28.887  31.555  1.00  0.00    -0.206 F 
ATOM     43  C   UNL A   1      37.733  29.400  30.776  1.00  0.00     0.040 A 
ATOM     44  C   UNL A   1      37.369  29.824  28.435  1.00  0.00     0.040 A 
ATOM     45  F   UNL A   1      39.162  29.699  26.923  1.00  0.00    -0.206 F 
ATOM     46  C   UNL A   1      36.866  29.707  29.730  1.00  0.00     0.006 A 
ENDBRANCH  25  39
BRANCH  26  47
ATOM     47  C   UNL A   1      48.979  26.404  27.253  1.00  0.00     0.057 A 
ATOM     48  C   UNL A   1      49.454  26.406  25.934  1.00  0.00     0.134 A 
ATOM     49  C   UNL A   1      49.859  25.974  28.251  1.00  0.00     0.134 A 
ATOM     50  F   UNL A   1      48.658  26.798  24.928  1.00  0.00    -0.206 F 
ATOM     51  C   UNL A   1      50.743  25.978  25.617  1.00  0.00     0.040 A 
ATOM     52  C   UNL A   1      51.163  25.575  27.953  1.00  0.00     0.040 A 
ATOM     53  F   UNL A   1      49.470  25.962  29.535  1.00  0.00    -0.206 F 
ATOM     54  C   UNL A   1      51.605  25.567  26.632  1.00  0.00     0.006 A 
ENDBRANCH  26  47
BRANCH  38  55
ATOM     55  C   UNL A   1      46.070  32.417  29.265  1.00  0.00     0.057 A 
ATOM     56  C   UNL A   1      46.478  32.773  30.557  1.00  0.00     0.134 A 
ATOM     57  C   UNL A   1      46.133  33.401  28.271  1.00  0.00     0.134 A 
ATOM     58  F   UNL A   1      46.434  31.879  31.556  1.00  0.00    -0.206 F 
ATOM     59  C   UNL A   1      46.912  34.065  30.854  1.00  0.00     0.040 A 
ATOM     60  C   UNL A   1      46.593  34.688  28.549  1.00  0.00     0.040 A 
ATOM     61  F   UNL A   1      45.768  33.120  27.011  1.00  0.00    -0.206 F 
ATOM     62  C   UNL A   1      46.973  35.027  29.847  1.00  0.00     0.006 A 
ENDBRANCH  38  55
ENDBRANCH  12  13
ENDBRANCH   5   7
ENDBRANCH   2   3
ENDBRANCH   1   2
BRANCH   1  63
ATOM     63  C   UNL A   1      36.299  20.375  25.261  1.00  0.00     0.023 C 
BRANCH  63  64
ATOM     64  C   UNL A   1      36.308  21.895  25.148  1.00  0.00     0.116 C 
BRANCH  64  65
ATOM     65  N   UNL A   1      35.937  22.376  23.828  1.00  0.00    -0.352 N 
ATOM     66  C   UNL A   1      34.951  23.267  23.469  1.00  0.00     0.253 C 
ATOM     67  H   UNL A   1      36.466  22.010  23.083  1.00  0.00     0.163 HD
ATOM     68  O   UNL A   1      34.832  23.587  22.291  1.00  0.00    -0.269 OA
BRANCH  66  69
ATOM     69  C   UNL A   1      34.071  23.834  24.515  1.00  0.00     0.066 A 
ATOM     70  C   UNL A   1      34.396  25.125  24.980  1.00  0.00     0.016 A 
ATOM     71  C   UNL A   1      32.925  23.149  24.974  1.00  0.00     0.086 A 
ATOM     72  C   UNL A   1      33.650  25.721  25.990  1.00  0.00     0.004 A 
ATOM     73  C   UNL A   1      32.191  23.799  25.988  1.00  0.00     0.147 A 
ATOM     74  C   UNL A   1      32.552  25.046  26.505  1.00  0.00     0.041 A 
ATOM     75  F   UNL A   1      31.110  23.200  26.516  1.00  0.00    -0.205 F 
BRANCH  71  76
ATOM     76  N   UNL A   1      32.509  21.933  24.458  1.00  0.00    -0.365 N 
ATOM     77  C   UNL A   1      31.766  21.878  23.180  1.00  0.00     0.138 C 
ATOM     78  C   UNL A   1      32.491  20.708  25.274  1.00  0.00     0.143 C 
ATOM     79  C   UNL A   1      32.151  20.631  22.344  1.00  0.00     0.143 C 
ATOM     80  C   UNL A   1      33.037  19.555  24.431  1.00  0.00     0.125 C 
ATOM     81  N   UNL A   1      32.345  19.445  23.158  1.00  0.00    -0.317 N 
ATOM     82  C   UNL A   1      32.883  18.154  25.006  1.00  0.00     0.144 C 
ATOM     83  C   UNL A   1      32.320  18.128  22.737  1.00  0.00     0.317 C 
ATOM     84  N   UNL A   1      32.703  17.347  23.822  1.00  0.00    -0.336 N 
ATOM     85  O   UNL A   1      32.027  17.703  21.633  1.00  0.00    -0.249 OA
ATOM     86  H   UNL A   1      32.834  16.372  23.788  1.00  0.00     0.165 HD
ENDBRANCH  71  76
ENDBRANCH  66  69
ENDBRANCH  64  65
ENDBRANCH  63  64
ENDBRANCH   1  63
TORSDOF 12
ENDMDL
MODEL 3
REMARK VINA RESULT:     -12.1      1.568      6.916
REMARK SMILES O=C(NCCCCNC(=O)c1cccc(F)c1N1CCN2C(=O)NC[C@@H]2C1)c1ccc(-c2c3nc(c(-c4c(F)cccc4F)c4ccc([nH]4)c(-c4c(F)cccc4F)c4nc(c(-c5c(F)cccc5F)c5ccc2[nH]5)C=C4)C=C3)cc1
REMARK SMILES IDX 5 1 4 2 3 3 1 4 2 5 28 7 29 8 81 9 30 10 80 11 31 12 32 13
REMARK SMILES IDX 33 14 74 15 34 16 79 17 73 18 75 19 35 20 78 21 72 22 71 23
REMARK SMILES IDX 36 25 62 26 45 27 61 28 46 29 49 30 60 31 76 32 47 33 48 34
REMARK SMILES IDX 59 36 77 37 50 38 37 39 38 40 43 41 39 42 40 43 42 44 44 45
REMARK SMILES IDX 41 46 63 47 64 48 69 49 65 50 66 51 68 52 70 53 67 54 51 55
REMARK SMILES IDX 52 56 57 57 53 58 54 59 56 60 58 61 55 62 6 63 7 64 8 65
REMARK SMILES IDX 9 66 10 68 11 69 12 70 17 71 13 72 15 73 14 74 16 75 18 76
REMARK SMILES IDX 19 77 27 78 20 79 26 80 21 81 25 82 22 83 24 84 23 85
REMARK H PARENT 3 6 75 24 49 35 8 67 24 86
REMARK Flexibility Score: inf
ROOT
ATOM      1  C   UNL A   1      39.160  20.933  25.445  1.00  0.00     0.023 C 
ENDROOT
BRANCH   1   2
ATOM      2  C   UNL A   1      39.510  19.729  26.306  1.00  0.00     0.116 C 
BRANCH   2   3
ATOM      3  N   UNL A   1      40.733  19.060  25.889  1.00  0.00    -0.352 N 
ATOM      4  O   UNL A   1      42.921  18.889  25.350  1.00  0.00    -0.269 OA
ATOM      5  C   UNL A   1      42.018  19.549  25.855  1.00  0.00     0.251 C 
ATOM      6  H   UNL A   1      40.625  18.129  25.589  1.00  0.00     0.163 HD
BRANCH   5   7
ATOM      7  C   UNL A   1      42.298  20.892  26.407  1.00  0.00     0.039 A 
ATOM      8  C   UNL A   1      42.190  21.121  27.780  1.00  0.00     0.014 A 
ATOM      9  C   UNL A   1      42.651  21.933  25.544  1.00  0.00     0.014 A 
ATOM     10  C   UNL A   1      42.272  22.417  28.268  1.00  0.00     0.010 A 
ATOM     11  C   UNL A   1      42.844  23.220  26.056  1.00  0.00     0.010 A 
ATOM     12  C   UNL A   1      42.635  23.477  27.419  1.00  0.00    -0.014 A 
BRANCH  12  13
ATOM     13  C   UNL A   1      42.898  24.811  28.013  1.00  0.00     0.031 A 
ATOM     14  C   UNL A   1      41.795  25.802  28.253  1.00  0.00     0.074 A 
ATOM     15  C   UNL A   1      44.167  25.106  28.360  1.00  0.00     0.049 A 
ATOM     16  N   UNL A   1      41.875  27.005  28.766  1.00  0.00    -0.248 NA
ATOM     17  C   UNL A   1      40.430  25.405  27.871  1.00  0.00     0.031 C 
ATOM     18  C   UNL A   1      45.318  24.220  28.164  1.00  0.00     0.029 A 
ATOM     19  N   UNL A   1      44.703  26.214  28.964  1.00  0.00    -0.354 N 
ATOM     20  C   UNL A   1      40.582  27.511  28.760  1.00  0.00     0.074 A 
ATOM     21  C   UNL A   1      39.735  26.496  28.171  1.00  0.00     0.031 C 
ATOM     22  C   UNL A   1      46.411  24.794  28.682  1.00  0.00     0.029 A 
ATOM     23  C   UNL A   1      46.059  26.122  29.169  1.00  0.00     0.049 A 
ATOM     24  H   UNL A   1      44.170  26.999  29.225  1.00  0.00     0.167 HD
ATOM     25  C   UNL A   1      40.150  28.711  29.213  1.00  0.00     0.037 A 
ATOM     26  C   UNL A   1      46.935  27.015  29.665  1.00  0.00     0.037 A 
ATOM     27  C   UNL A   1      41.002  29.707  29.814  1.00  0.00     0.049 A 
ATOM     28  C   UNL A   1      46.428  28.353  30.114  1.00  0.00     0.074 A 
ATOM     29  C   UNL A   1      40.644  30.937  30.340  1.00  0.00     0.029 A 
ATOM     30  N   UNL A   1      42.377  29.593  29.965  1.00  0.00    -0.354 N 
ATOM     31  N   UNL A   1      45.196  28.801  30.135  1.00  0.00    -0.248 NA
ATOM     32  C   UNL A   1      47.427  29.313  30.601  1.00  0.00     0.031 C 
ATOM     33  C   UNL A   1      41.807  31.592  30.752  1.00  0.00     0.029 A 
ATOM     34  C   UNL A   1      42.883  30.746  30.543  1.00  0.00     0.049 A 
ATOM     35  H   UNL A   1      42.911  28.810  29.699  1.00  0.00     0.167 HD
ATOM     36  C   UNL A   1      45.270  30.087  30.648  1.00  0.00     0.074 A 
ATOM     37  C   UNL A   1      46.664  30.340  30.950  1.00  0.00     0.031 C 
ATOM     38  C   UNL A   1      44.273  30.982  30.843  1.00  0.00     0.037 A 
BRANCH  25  39
ATOM     39  C   UNL A   1      38.691  29.044  29.091  1.00  0.00     0.057 A 
ATOM     40  C   UNL A   1      38.179  29.566  27.895  1.00  0.00     0.134 A 
ATOM     41  C   UNL A   1      37.829  28.991  30.193  1.00  0.00     0.134 A 
ATOM     42  F   UNL A   1      38.955  29.655  26.803  1.00  0.00    -0.206 F 
ATOM     43  C   UNL A   1      36.873  30.052  27.809  1.00  0.00     0.040 A 
ATOM     44  C   UNL A   1      36.514  29.455  30.112  1.00  0.00     0.040 A 
ATOM     45  F   UNL A   1      38.255  28.498  31.366  1.00  0.00    -0.206 F 
ATOM     46  C   UNL A   1      36.038  30.002  28.921  1.00  0.00     0.006 A 
ENDBRANCH  25  39
BRANCH  26  47
ATOM     47  C   UNL A   1      48.378  26.673  29.733  1.00  0.00     0.057 A 
ATOM     48  C   UNL A   1      48.912  25.985  30.832  1.00  0.00     0.134 A 
ATOM     49  C   UNL A   1      49.262  27.039  28.713  1.00  0.00     0.134 A 
ATOM     50  F   UNL A   1      48.121  25.614  31.849  1.00  0.00    -0.206 F 
ATOM     51  C   UNL A   1      50.273  25.693  30.924  1.00  0.00     0.040 A 
ATOM     52  C   UNL A   1      50.619  26.723  28.775  1.00  0.00     0.040 A 
ATOM     53  F   UNL A   1      48.810  27.686  27.629  1.00  0.00    -0.206 F 
ATOM     54  C   UNL A   1      51.130  26.056  29.887  1.00  0.00     0.006 A 
ENDBRANCH  26  47
BRANCH  38  55
ATOM     55  C   UNL A   1      44.640  32.315  31.424  1.00  0.00     0.057 A 
ATOM     56  C   UNL A   1      44.632  32.517  32.811  1.00  0.00     0.134 A 
ATOM     57  C   UNL A   1      44.929  33.417  30.611  1.00  0.00     0.134 A 
ATOM     58  F   UNL A   1      44.354  31.503  33.645  1.00  0.00    -0.206 F 
ATOM     59  C   UNL A   1      44.878  33.772  33.366  1.00  0.00     0.040 A 
ATOM     60  C   UNL A   1      45.206  34.671  31.156  1.00  0.00     0.040 A 
ATOM     61  F   UNL A   1      44.965  33.287  29.277  1.00  0.00    -0.206 F 
ATOM     62  C   UNL A   1      45.169  34.854  32.538  1.00  0.00     0.006 A 
ENDBRANCH  38  55
ENDBRANCH  12  13
ENDBRANCH   5   7
ENDBRANCH   2   3
ENDBRANCH   1   2
BRANCH   1  63
ATOM     63  C   UNL A   1      38.946  22.235  26.207  1.00  0.00     0.023 C 
BRANCH  63  64
ATOM     64  C   UNL A   1      37.629  22.948  25.922  1.00  0.00     0.116 C 
BRANCH  64  65
ATOM     65  N   UNL A   1      37.390  23.171  24.506  1.00  0.00    -0.352 N 
ATOM     66  C   UNL A   1      36.337  22.755  23.723  1.00  0.00     0.253 C 
ATOM     67  H   UNL A   1      38.081  23.693  24.039  1.00  0.00     0.163 HD
ATOM     68  O   UNL A   1      36.293  23.096  22.545  1.00  0.00    -0.269 OA
BRANCH  66  69
ATOM     69  C   UNL A   1      35.271  21.922  24.323  1.00  0.00     0.066 A 
ATOM     70  C   UNL A   1      35.623  20.600  24.667  1.00  0.00     0.016 A 
ATOM     71  C   UNL A   1      33.989  22.443  24.603  1.00  0.00     0.086 A 
ATOM     72  C   UNL A   1      34.676  19.733  25.199  1.00  0.00     0.004 A 
ATOM     73  C   UNL A   1      33.067  21.531  25.155  1.00  0.00     0.147 A 
ATOM     74  C   UNL A   1      33.389  20.199  25.429  1.00  0.00     0.041 A 
ATOM     75  F   UNL A   1      31.809  21.927  25.412  1.00  0.00    -0.205 F 
BRANCH  71  76
ATOM     76  N   UNL A   1      33.643  23.767  24.387  1.00  0.00    -0.365 N 
ATOM     77  C   UNL A   1      33.630  24.729  25.510  1.00  0.00     0.138 C 
ATOM     78  C   UNL A   1      32.978  24.204  23.148  1.00  0.00     0.143 C 
ATOM     79  C   UNL A   1      34.113  26.134  25.070  1.00  0.00     0.143 C 
ATOM     80  C   UNL A   1      33.620  25.514  22.689  1.00  0.00     0.125 C 
ATOM     81  N   UNL A   1      33.637  26.506  23.750  1.00  0.00    -0.317 N 
ATOM     82  C   UNL A   1      32.923  26.259  21.560  1.00  0.00     0.144 C 
ATOM     83  C   UNL A   1      33.555  27.779  23.219  1.00  0.00     0.317 C 
ATOM     84  N   UNL A   1      33.188  27.641  21.885  1.00  0.00    -0.336 N 
ATOM     85  O   UNL A   1      33.763  28.839  23.785  1.00  0.00    -0.249 OA
ATOM     86  H   UNL A   1      33.118  28.386  21.245  1.00  0.00     0.165 HD
ENDBRANCH  71  76
ENDBRANCH  66  69
ENDBRANCH  64  65
ENDBRANCH  63  64
ENDBRANCH   1  63
TORSDOF 12
ENDMDL
