MODEL 1
REMARK VINA RESULT:     -10.9      0.000      0.000
REMARK SMILES CN(C)S(=O)(=O)c1c[nH]c(C(=O)NCCCCNC(=O)c2ccc(-c3c4nc(c(-c5c(F)cccc5F)c5ccc([nH]5)c(-c5c(F)cccc5F)c5nc(c(-c6c(F)cccc6F)c6ccc3[nH]6)C=C5)C=C4)cc2)c1
REMARK SMILES IDX 15 1 14 2 13 3 11 4 12 5 10 7 7 8 8 9 75 10 9 11 4 13 5 14
REMARK SMILES IDX 6 15 2 16 1 17 3 18 16 19 17 20 18 21 19 22 20 24 21 25
REMARK SMILES IDX 22 26 74 27 23 28 73 29 24 30 25 31 26 32 67 33 27 34 72 35
REMARK SMILES IDX 66 36 68 37 28 38 71 39 65 40 64 41 29 43 55 44 38 45 54 46
REMARK SMILES IDX 39 47 42 48 53 49 69 50 40 51 41 52 52 54 70 55 43 56 30 57
REMARK SMILES IDX 31 58 36 59 32 60 33 61 35 62 37 63 34 64 56 65 57 66 62 67
REMARK SMILES IDX 58 68 59 69 61 70 63 71 60 72 44 73 45 74 50 75 46 76 47 77
REMARK SMILES IDX 49 78 51 79 48 80
REMARK H PARENT 13 6 9 12 18 23 68 42 42 53
REMARK Flexibility Score: inf
ROOT
ATOM      1  C   UNL A   1      43.458  25.161  27.982  1.00  0.00     0.023 C 
ENDROOT
BRANCH   1   2
ATOM      2  C   UNL A   1      44.249  25.533  26.727  1.00  0.00     0.116 C 
BRANCH   2   3
ATOM      3  N   UNL A   1      45.657  25.225  26.873  1.00  0.00    -0.351 N 
ATOM      4  C   UNL A   1      46.427  24.205  26.380  1.00  0.00     0.267 C 
ATOM      5  O   UNL A   1      47.635  24.260  26.621  1.00  0.00    -0.268 OA
ATOM      6  H   UNL A   1      46.153  25.868  27.430  1.00  0.00     0.163 HD
BRANCH   4   7
ATOM      7  C   UNL A   1      45.879  23.125  25.585  1.00  0.00     0.105 A 
ATOM      8  C   UNL A   1      45.003  21.232  24.663  1.00  0.00     0.100 A 
ATOM      9  C   UNL A   1      44.910  22.236  23.726  1.00  0.00     0.104 A 
ATOM     10  C   UNL A   1      45.676  21.771  25.792  1.00  0.00     0.055 A 
ATOM     11  N   UNL A   1      45.445  23.367  24.289  1.00  0.00    -0.356 N 
ATOM     12  H   UNL A   1      45.512  24.237  23.833  1.00  0.00     0.166 HD
BRANCH   8  13
ATOM     13  S   UNL A   1      44.474  19.592  24.579  1.00  0.00     0.244 S 
ATOM     14  O   UNL A   1      45.409  18.889  25.443  1.00  0.00    -0.207 OA
ATOM     15  O   UNL A   1      44.416  19.327  23.163  1.00  0.00    -0.207 OA
BRANCH  13  16
ATOM     16  N   UNL A   1      42.912  19.391  25.238  1.00  0.00    -0.204 NA
ATOM     17  C   UNL A   1      42.861  18.231  26.165  1.00  0.00     0.124 C 
ATOM     18  C   UNL A   1      42.340  20.596  25.878  1.00  0.00     0.124 C 
ENDBRANCH  13  16
ENDBRANCH   8  13
ENDBRANCH   4   7
ENDBRANCH   2   3
ENDBRANCH   1   2
BRANCH   1  19
ATOM     19  C   UNL A   1      43.134  23.661  28.091  1.00  0.00     0.023 C 
BRANCH  19  20
ATOM     20  C   UNL A   1      41.722  23.351  28.601  1.00  0.00     0.116 C 
BRANCH  20  21
ATOM     21  N   UNL A   1      40.754  23.343  27.517  1.00  0.00    -0.352 N 
ATOM     22  C   UNL A   1      39.728  24.213  27.253  1.00  0.00     0.251 C 
ATOM     23  H   UNL A   1      40.849  22.602  26.876  1.00  0.00     0.163 HD
ATOM     24  O   UNL A   1      38.786  23.835  26.561  1.00  0.00    -0.269 OA
BRANCH  22  25
ATOM     25  C   UNL A   1      39.723  25.593  27.780  1.00  0.00     0.039 A 
ATOM     26  C   UNL A   1      39.141  25.813  29.036  1.00  0.00     0.014 A 
ATOM     27  C   UNL A   1      40.177  26.674  27.016  1.00  0.00     0.014 A 
ATOM     28  C   UNL A   1      39.069  27.104  29.550  1.00  0.00     0.010 A 
ATOM     29  C   UNL A   1      40.121  27.967  27.534  1.00  0.00     0.010 A 
ATOM     30  C   UNL A   1      39.583  28.179  28.810  1.00  0.00    -0.014 A 
BRANCH  30  31
ATOM     31  C   UNL A   1      39.767  29.478  29.501  1.00  0.00     0.031 A 
ATOM     32  C   UNL A   1      38.565  30.416  29.225  1.00  0.00     0.074 A 
ATOM     33  C   UNL A   1      40.925  29.664  30.213  1.00  0.00     0.049 A 
ATOM     34  N   UNL A   1      38.500  31.710  29.216  1.00  0.00    -0.248 NA
ATOM     35  C   UNL A   1      37.249  29.825  28.837  1.00  0.00     0.031 C 
ATOM     36  C   UNL A   1      41.953  28.621  30.431  1.00  0.00     0.029 A 
ATOM     37  N   UNL A   1      41.485  30.732  30.895  1.00  0.00    -0.354 N 
ATOM     38  C   UNL A   1      37.140  32.076  29.051  1.00  0.00     0.074 A 
ATOM     39  C   UNL A   1      36.446  30.881  28.689  1.00  0.00     0.031 C 
ATOM     40  C   UNL A   1      43.019  29.116  31.101  1.00  0.00     0.029 A 
ATOM     41  C   UNL A   1      42.804  30.518  31.401  1.00  0.00     0.049 A 
ATOM     42  H   UNL A   1      41.006  31.582  31.023  1.00  0.00     0.167 HD
ATOM     43  C   UNL A   1      36.659  33.312  29.385  1.00  0.00     0.037 A 
ATOM     44  C   UNL A   1      43.670  31.411  31.987  1.00  0.00     0.037 A 
ATOM     45  C   UNL A   1      37.736  34.128  29.826  1.00  0.00     0.049 A 
ATOM     46  C   UNL A   1      42.872  32.617  32.206  1.00  0.00     0.074 A 
ATOM     47  C   UNL A   1      38.800  34.674  29.162  1.00  0.00     0.029 A 
ATOM     48  N   UNL A   1      37.988  34.114  31.176  1.00  0.00    -0.354 N 
ATOM     49  N   UNL A   1      41.990  32.743  33.148  1.00  0.00    -0.248 NA
ATOM     50  C   UNL A   1      43.035  33.755  31.295  1.00  0.00     0.031 C 
ATOM     51  C   UNL A   1      39.854  34.495  30.075  1.00  0.00     0.029 A 
ATOM     52  C   UNL A   1      39.346  34.133  31.329  1.00  0.00     0.049 A 
ATOM     53  H   UNL A   1      37.317  34.096  31.897  1.00  0.00     0.167 HD
ATOM     54  C   UNL A   1      41.249  33.801  32.693  1.00  0.00     0.074 A 
ATOM     55  C   UNL A   1      42.110  34.561  31.809  1.00  0.00     0.031 C 
ATOM     56  C   UNL A   1      39.908  33.639  32.561  1.00  0.00     0.037 A 
BRANCH  43  57
ATOM     57  C   UNL A   1      35.275  33.848  29.645  1.00  0.00     0.057 A 
ATOM     58  C   UNL A   1      34.661  34.626  28.630  1.00  0.00     0.134 A 
ATOM     59  C   UNL A   1      34.713  33.969  30.918  1.00  0.00     0.134 A 
ATOM     60  F   UNL A   1      35.075  34.552  27.354  1.00  0.00    -0.206 F 
ATOM     61  C   UNL A   1      33.672  35.575  28.897  1.00  0.00     0.040 A 
ATOM     62  C   UNL A   1      33.684  34.883  31.188  1.00  0.00     0.040 A 
ATOM     63  F   UNL A   1      35.195  33.285  31.964  1.00  0.00    -0.206 F 
ATOM     64  C   UNL A   1      33.196  35.724  30.190  1.00  0.00     0.006 A 
ENDBRANCH  43  57
BRANCH  44  65
ATOM     65  C   UNL A   1      45.118  31.538  32.429  1.00  0.00     0.057 A 
ATOM     66  C   UNL A   1      46.198  31.926  31.638  1.00  0.00     0.134 A 
ATOM     67  C   UNL A   1      45.464  31.348  33.805  1.00  0.00     0.134 A 
ATOM     68  F   UNL A   1      46.082  32.039  30.311  1.00  0.00    -0.206 F 
ATOM     69  C   UNL A   1      47.472  32.210  32.184  1.00  0.00     0.040 A 
ATOM     70  C   UNL A   1      46.701  31.679  34.367  1.00  0.00     0.040 A 
ATOM     71  F   UNL A   1      44.608  30.828  34.693  1.00  0.00    -0.206 F 
ATOM     72  C   UNL A   1      47.713  32.134  33.553  1.00  0.00     0.006 A 
ENDBRANCH  44  65
BRANCH  56  73
ATOM     73  C   UNL A   1      39.311  32.603  33.502  1.00  0.00     0.057 A 
ATOM     74  C   UNL A   1      39.424  32.777  34.892  1.00  0.00     0.134 A 
ATOM     75  C   UNL A   1      38.760  31.377  33.098  1.00  0.00     0.134 A 
ATOM     76  F   UNL A   1      39.910  33.926  35.389  1.00  0.00    -0.206 F 
ATOM     77  C   UNL A   1      39.062  31.781  35.810  1.00  0.00     0.040 A 
ATOM     78  C   UNL A   1      38.384  30.372  34.003  1.00  0.00     0.040 A 
ATOM     79  F   UNL A   1      38.573  31.102  31.808  1.00  0.00    -0.206 F 
ATOM     80  C   UNL A   1      38.548  30.568  35.368  1.00  0.00     0.006 A 
ENDBRANCH  56  73
ENDBRANCH  30  31
ENDBRANCH  22  25
ENDBRANCH  20  21
ENDBRANCH  19  20
ENDBRANCH   1  19
TORSDOF 13
ENDMDL
MODEL 2
REMARK VINA RESULT:     -10.9      5.019     10.611
REMARK SMILES CN(C)S(=O)(=O)c1c[nH]c(C(=O)NCCCCNC(=O)c2ccc(-c3c4nc(c(-c5c(F)cccc5F)c5ccc([nH]5)c(-c5c(F)cccc5F)c5nc(c(-c6c(F)cccc6F)c6ccc3[nH]6)C=C5)C=C4)cc2)c1
REMARK SMILES IDX 15 1 14 2 13 3 11 4 12 5 10 7 7 8 8 9 75 10 9 11 4 13 5 14
REMARK SMILES IDX 6 15 2 16 1 17 3 18 16 19 17 20 18 21 19 22 20 24 21 25
REMARK SMILES IDX 22 26 74 27 23 28 73 29 24 30 25 31 26 32 67 33 27 34 72 35
REMARK SMILES IDX 66 36 68 37 28 38 71 39 65 40 64 41 29 43 55 44 38 45 54 46
REMARK SMILES IDX 39 47 42 48 53 49 69 50 40 51 41 52 52 54 70 55 43 56 30 57
REMARK SMILES IDX 31 58 36 59 32 60 33 61 35 62 37 63 34 64 56 65 57 66 62 67
REMARK SMILES IDX 58 68 59 69 61 70 63 71 60 72 44 73 45 74 50 75 46 76 47 77
REMARK SMILES IDX 49 78 51 79 48 80
REMARK H PARENT 13 6 9 12 18 23 68 42 42 53
REMARK Flexibility Score: inf
ROOT
ATOM      1  C   UNL A   1      33.217  29.635  25.170  1.00  0.00     0.023 C 
ENDROOT
BRANCH   1   2
ATOM      2  C   UNL A   1      31.715  29.398  25.334  1.00  0.00     0.116 C 
BRANCH   2   3
ATOM      3  N   UNL A   1      31.004  29.594  24.086  1.00  0.00    -0.351 N 
ATOM      4  C   UNL A   1      30.972  28.865  22.927  1.00  0.00     0.267 C 
ATOM      5  O   UNL A   1      30.196  29.255  22.053  1.00  0.00    -0.268 OA
ATOM      6  H   UNL A   1      30.439  30.400  24.069  1.00  0.00     0.163 HD
BRANCH   4   7
ATOM      7  C   UNL A   1      31.776  27.677  22.728  1.00  0.00     0.105 A 
ATOM      8  C   UNL A   1      32.738  25.617  22.548  1.00  0.00     0.100 A 
ATOM      9  C   UNL A   1      33.531  26.511  21.864  1.00  0.00     0.104 A 
ATOM     10  C   UNL A   1      31.687  26.361  23.148  1.00  0.00     0.055 A 
ATOM     11  N   UNL A   1      32.946  27.747  21.984  1.00  0.00    -0.356 N 
ATOM     12  H   UNL A   1      33.309  28.574  21.594  1.00  0.00     0.166 HD
BRANCH   8  13
ATOM     13  S   UNL A   1      32.911  23.911  22.740  1.00  0.00     0.244 S 
ATOM     14  O   UNL A   1      33.480  23.482  21.473  1.00  0.00    -0.207 OA
ATOM     15  O   UNL A   1      31.599  23.483  23.156  1.00  0.00    -0.207 OA
BRANCH  13  16
ATOM     16  N   UNL A   1      34.031  23.519  23.968  1.00  0.00    -0.204 NA
ATOM     17  C   UNL A   1      35.307  23.017  23.395  1.00  0.00     0.124 C 
ATOM     18  C   UNL A   1      34.287  24.593  24.952  1.00  0.00     0.124 C 
ENDBRANCH  13  16
ENDBRANCH   8  13
ENDBRANCH   4   7
ENDBRANCH   2   3
ENDBRANCH   1   2
BRANCH   1  19
ATOM     19  C   UNL A   1      34.090  28.493  25.717  1.00  0.00     0.023 C 
BRANCH  19  20
ATOM     20  C   UNL A   1      34.719  28.775  27.087  1.00  0.00     0.116 C 
BRANCH  20  21
ATOM     21  N   UNL A   1      35.204  30.141  27.180  1.00  0.00    -0.352 N 
ATOM     22  C   UNL A   1      36.344  30.628  27.765  1.00  0.00     0.251 C 
ATOM     23  H   UNL A   1      34.628  30.820  26.759  1.00  0.00     0.163 HD
ATOM     24  O   UNL A   1      36.386  31.809  28.103  1.00  0.00    -0.269 OA
BRANCH  22  25
ATOM     25  C   UNL A   1      37.524  29.771  28.002  1.00  0.00     0.039 A 
ATOM     26  C   UNL A   1      38.492  29.694  26.992  1.00  0.00     0.014 A 
ATOM     27  C   UNL A   1      37.631  28.967  29.142  1.00  0.00     0.014 A 
ATOM     28  C   UNL A   1      39.594  28.860  27.151  1.00  0.00     0.010 A 
ATOM     29  C   UNL A   1      38.741  28.142  29.312  1.00  0.00     0.010 A 
ATOM     30  C   UNL A   1      39.733  28.103  28.323  1.00  0.00    -0.014 A 
BRANCH  30  31
ATOM     31  C   UNL A   1      41.046  27.469  28.595  1.00  0.00     0.031 A 
ATOM     32  C   UNL A   1      41.024  25.975  28.184  1.00  0.00     0.074 A 
ATOM     33  C   UNL A   1      42.021  28.243  29.170  1.00  0.00     0.049 A 
ATOM     34  N   UNL A   1      41.715  24.975  28.632  1.00  0.00    -0.248 NA
ATOM     35  C   UNL A   1      40.036  25.511  27.163  1.00  0.00     0.031 C 
ATOM     36  C   UNL A   1      41.893  29.693  29.439  1.00  0.00     0.029 A 
ATOM     37  N   UNL A   1      43.301  28.000  29.643  1.00  0.00    -0.354 N 
ATOM     38  C   UNL A   1      41.421  23.846  27.826  1.00  0.00     0.074 A 
ATOM     39  C   UNL A   1      40.288  24.206  27.034  1.00  0.00     0.031 C 
ATOM     40  C   UNL A   1      42.982  30.170  30.085  1.00  0.00     0.029 A 
ATOM     41  C   UNL A   1      43.937  29.100  30.298  1.00  0.00     0.049 A 
ATOM     42  H   UNL A   1      43.743  27.127  29.536  1.00  0.00     0.167 HD
ATOM     43  C   UNL A   1      42.239  22.752  27.755  1.00  0.00     0.037 A 
ATOM     44  C   UNL A   1      45.125  29.137  30.987  1.00  0.00     0.037 A 
ATOM     45  C   UNL A   1      43.328  22.926  28.653  1.00  0.00     0.049 A 
ATOM     46  C   UNL A   1      45.751  27.841  30.726  1.00  0.00     0.074 A 
ATOM     47  C   UNL A   1      43.392  22.940  30.019  1.00  0.00     0.029 A 
ATOM     48  N   UNL A   1      44.453  23.514  28.128  1.00  0.00    -0.354 N 
ATOM     49  N   UNL A   1      46.325  27.525  29.607  1.00  0.00    -0.248 NA
ATOM     50  C   UNL A   1      45.705  26.805  31.764  1.00  0.00     0.031 C 
ATOM     51  C   UNL A   1      44.296  23.987  30.271  1.00  0.00     0.029 A 
ATOM     52  C   UNL A   1      44.949  24.353  29.086  1.00  0.00     0.049 A 
ATOM     53  H   UNL A   1      44.831  23.359  27.232  1.00  0.00     0.167 HD
ATOM     54  C   UNL A   1      46.353  26.158  29.688  1.00  0.00     0.074 A 
ATOM     55  C   UNL A   1      46.308  25.823  31.097  1.00  0.00     0.031 C 
ATOM     56  C   UNL A   1      45.798  25.442  28.676  1.00  0.00     0.037 A 
BRANCH  43  57
ATOM     57  C   UNL A   1      42.368  21.619  26.771  1.00  0.00     0.057 A 
ATOM     58  C   UNL A   1      41.837  20.356  27.138  1.00  0.00     0.134 A 
ATOM     59  C   UNL A   1      43.285  21.603  25.717  1.00  0.00     0.134 A 
ATOM     60  F   UNL A   1      40.904  20.248  28.098  1.00  0.00    -0.206 F 
ATOM     61  C   UNL A   1      42.308  19.153  26.606  1.00  0.00     0.040 A 
ATOM     62  C   UNL A   1      43.727  20.403  25.141  1.00  0.00     0.040 A 
ATOM     63  F   UNL A   1      43.857  22.728  25.270  1.00  0.00    -0.206 F 
ATOM     64  C   UNL A   1      43.279  19.174  25.618  1.00  0.00     0.006 A 
ENDBRANCH  43  57
BRANCH  44  65
ATOM     65  C   UNL A   1      45.934  30.041  31.904  1.00  0.00     0.057 A 
ATOM     66  C   UNL A   1      47.012  30.844  31.538  1.00  0.00     0.134 A 
ATOM     67  C   UNL A   1      45.544  30.204  33.270  1.00  0.00     0.134 A 
ATOM     68  F   UNL A   1      47.581  30.739  30.333  1.00  0.00    -0.206 F 
ATOM     69  C   UNL A   1      47.572  31.803  32.416  1.00  0.00     0.040 A 
ATOM     70  C   UNL A   1      46.049  31.184  34.129  1.00  0.00     0.040 A 
ATOM     71  F   UNL A   1      44.634  29.414  33.855  1.00  0.00    -0.206 F 
ATOM     72  C   UNL A   1      47.062  32.008  33.695  1.00  0.00     0.006 A 
ENDBRANCH  44  65
BRANCH  56  73
ATOM     73  C   UNL A   1      45.807  26.155  27.332  1.00  0.00     0.057 A 
ATOM     74  C   UNL A   1      47.029  26.539  26.755  1.00  0.00     0.134 A 
ATOM     75  C   UNL A   1      44.661  26.605  26.657  1.00  0.00     0.134 A 
ATOM     76  F   UNL A   1      48.187  26.138  27.302  1.00  0.00    -0.206 F 
ATOM     77  C   UNL A   1      47.104  27.355  25.616  1.00  0.00     0.040 A 
ATOM     78  C   UNL A   1      44.717  27.415  25.511  1.00  0.00     0.040 A 
ATOM     79  F   UNL A   1      43.442  26.284  27.087  1.00  0.00    -0.206 F 
ATOM     80  C   UNL A   1      45.945  27.805  24.995  1.00  0.00     0.006 A 
ENDBRANCH  56  73
ENDBRANCH  30  31
ENDBRANCH  22  25
ENDBRANCH  20  21
ENDBRANCH  19  20
ENDBRANCH   1  19
TORSDOF 13
ENDMDL
MODEL 3
REMARK VINA RESULT:     -10.7      5.906     11.617
REMARK SMILES CN(C)S(=O)(=O)c1c[nH]c(C(=O)NCCCCNC(=O)c2ccc(-c3c4nc(c(-c5c(F)cccc5F)c5ccc([nH]5)c(-c5c(F)cccc5F)c5nc(c(-c6c(F)cccc6F)c6ccc3[nH]6)C=C5)C=C4)cc2)c1
REMARK SMILES IDX 15 1 14 2 13 3 11 4 12 5 10 7 7 8 8 9 75 10 9 11 4 13 5 14
REMARK SMILES IDX 6 15 2 16 1 17 3 18 16 19 17 20 18 21 19 22 20 24 21 25
REMARK SMILES IDX 22 26 74 27 23 28 73 29 24 30 25 31 26 32 67 33 27 34 72 35
REMARK SMILES IDX 66 36 68 37 28 38 71 39 65 40 64 41 29 43 55 44 38 45 54 46
REMARK SMILES IDX 39 47 42 48 53 49 69 50 40 51 41 52 52 54 70 55 43 56 30 57
REMARK SMILES IDX 31 58 36 59 32 60 33 61 35 62 37 63 34 64 56 65 57 66 62 67
REMARK SMILES IDX 58 68 59 69 61 70 63 71 60 72 44 73 45 74 50 75 46 76 47 77
REMARK SMILES IDX 49 78 51 79 48 80
REMARK H PARENT 13 6 9 12 18 23 68 42 42 53
REMARK Flexibility Score: inf
ROOT
ATOM      1  C   UNL A   1      32.869  27.392  26.476  1.00  0.00     0.023 C 
ENDROOT
BRANCH   1   2
ATOM      2  C   UNL A   1      31.355  27.178  26.491  1.00  0.00     0.116 C 
BRANCH   2   3
ATOM      3  N   UNL A   1      30.959  26.104  25.603  1.00  0.00    -0.351 N 
ATOM      4  C   UNL A   1      30.445  26.108  24.333  1.00  0.00     0.267 C 
ATOM      5  O   UNL A   1      30.279  25.008  23.803  1.00  0.00    -0.268 OA
ATOM      6  H   UNL A   1      31.081  25.204  25.983  1.00  0.00     0.163 HD
BRANCH   4   7
ATOM      7  C   UNL A   1      30.137  27.330  23.619  1.00  0.00     0.105 A 
ATOM      8  C   UNL A   1      29.302  29.209  22.634  1.00  0.00     0.100 A 
ATOM      9  C   UNL A   1      30.673  29.248  22.515  1.00  0.00     0.104 A 
ATOM     10  C   UNL A   1      28.969  27.975  23.254  1.00  0.00     0.055 A 
ATOM     11  N   UNL A   1      31.164  28.111  23.105  1.00  0.00    -0.356 N 
ATOM     12  H   UNL A   1      32.119  27.879  23.157  1.00  0.00     0.166 HD
BRANCH   8  13
ATOM     13  S   UNL A   1      28.117  30.358  22.130  1.00  0.00     0.244 S 
ATOM     14  O   UNL A   1      27.178  30.387  23.239  1.00  0.00    -0.207 OA
ATOM     15  O   UNL A   1      27.723  29.888  20.825  1.00  0.00    -0.207 OA
BRANCH  13  16
ATOM     16  N   UNL A   1      28.777  31.925  21.971  1.00  0.00    -0.204 NA
ATOM     17  C   UNL A   1      28.149  32.665  20.846  1.00  0.00     0.124 C 
ATOM     18  C   UNL A   1      28.763  32.741  23.205  1.00  0.00     0.124 C 
ENDBRANCH  13  16
ENDBRANCH   8  13
ENDBRANCH   4   7
ENDBRANCH   2   3
ENDBRANCH   1   2
BRANCH   1  19
ATOM     19  C   UNL A   1      33.316  28.718  27.116  1.00  0.00     0.023 C 
BRANCH  19  20
ATOM     20  C   UNL A   1      34.827  28.975  27.057  1.00  0.00     0.116 C 
BRANCH  20  21
ATOM     21  N   UNL A   1      35.166  30.278  27.603  1.00  0.00    -0.352 N 
ATOM     22  C   UNL A   1      36.133  30.622  28.512  1.00  0.00     0.251 C 
ATOM     23  H   UNL A   1      34.619  31.027  27.271  1.00  0.00     0.163 HD
ATOM     24  O   UNL A   1      36.010  31.663  29.152  1.00  0.00    -0.269 OA
BRANCH  22  25
ATOM     25  C   UNL A   1      37.320  29.773  28.743  1.00  0.00     0.039 A 
ATOM     26  C   UNL A   1      38.370  29.847  27.818  1.00  0.00     0.014 A 
ATOM     27  C   UNL A   1      37.363  28.835  29.781  1.00  0.00     0.014 A 
ATOM     28  C   UNL A   1      39.485  29.029  27.967  1.00  0.00     0.010 A 
ATOM     29  C   UNL A   1      38.484  28.024  29.943  1.00  0.00     0.010 A 
ATOM     30  C   UNL A   1      39.555  28.136  29.046  1.00  0.00    -0.014 A 
BRANCH  30  31
ATOM     31  C   UNL A   1      40.864  27.507  29.350  1.00  0.00     0.031 A 
ATOM     32  C   UNL A   1      41.097  26.273  28.442  1.00  0.00     0.074 A 
ATOM     33  C   UNL A   1      41.616  28.055  30.356  1.00  0.00     0.049 A 
ATOM     34  N   UNL A   1      41.811  25.211  28.643  1.00  0.00    -0.248 NA
ATOM     35  C   UNL A   1      40.376  26.177  27.136  1.00  0.00     0.031 C 
ATOM     36  C   UNL A   1      41.266  29.294  31.088  1.00  0.00     0.029 A 
ATOM     37  N   UNL A   1      42.808  27.713  30.975  1.00  0.00    -0.354 N 
ATOM     38  C   UNL A   1      41.809  24.450  27.447  1.00  0.00     0.074 A 
ATOM     39  C   UNL A   1      40.804  25.026  26.610  1.00  0.00     0.031 C 
ATOM     40  C   UNL A   1      42.153  29.546  32.077  1.00  0.00     0.029 A 
ATOM     41  C   UNL A   1      43.175  28.518  32.096  1.00  0.00     0.049 A 
ATOM     42  H   UNL A   1      43.365  26.964  30.663  1.00  0.00     0.167 HD
ATOM     43  C   UNL A   1      42.752  23.500  27.170  1.00  0.00     0.037 A 
ATOM     44  C   UNL A   1      44.205  28.351  32.992  1.00  0.00     0.037 A 
ATOM     45  C   UNL A   1      43.630  23.377  28.282  1.00  0.00     0.049 A 
ATOM     46  C   UNL A   1      45.020  27.275  32.429  1.00  0.00     0.074 A 
ATOM     47  C   UNL A   1      43.441  22.885  29.544  1.00  0.00     0.029 A 
ATOM     48  N   UNL A   1      44.752  24.169  28.253  1.00  0.00    -0.354 N 
ATOM     49  N   UNL A   1      45.823  27.424  31.422  1.00  0.00    -0.248 NA
ATOM     50  C   UNL A   1      44.912  25.927  32.997  1.00  0.00     0.031 C 
ATOM     51  C   UNL A   1      44.151  23.804  30.338  1.00  0.00     0.029 A 
ATOM     52  C   UNL A   1      44.959  24.613  29.529  1.00  0.00     0.049 A 
ATOM     53  H   UNL A   1      45.303  24.376  27.464  1.00  0.00     0.167 HD
ATOM     54  C   UNL A   1      46.001  26.127  31.017  1.00  0.00     0.074 A 
ATOM     55  C   UNL A   1      45.740  25.292  32.171  1.00  0.00     0.031 C 
ATOM     56  C   UNL A   1      45.731  25.815  29.723  1.00  0.00     0.037 A 
BRANCH  43  57
ATOM     57  C   UNL A   1      43.195  22.821  25.900  1.00  0.00     0.057 A 
ATOM     58  C   UNL A   1      43.361  21.412  25.922  1.00  0.00     0.134 A 
ATOM     59  C   UNL A   1      43.814  23.483  24.838  1.00  0.00     0.134 A 
ATOM     60  F   UNL A   1      42.766  20.658  26.861  1.00  0.00    -0.206 F 
ATOM     61  C   UNL A   1      44.216  20.737  25.049  1.00  0.00     0.040 A 
ATOM     62  C   UNL A   1      44.635  22.806  23.923  1.00  0.00     0.040 A 
ATOM     63  F   UNL A   1      43.731  24.812  24.698  1.00  0.00    -0.206 F 
ATOM     64  C   UNL A   1      44.879  21.441  24.056  1.00  0.00     0.006 A 
ENDBRANCH  43  57
BRANCH  44  65
ATOM     65  C   UNL A   1      44.717  28.885  34.319  1.00  0.00     0.057 A 
ATOM     66  C   UNL A   1      45.863  29.653  34.520  1.00  0.00     0.134 A 
ATOM     67  C   UNL A   1      43.945  28.701  35.509  1.00  0.00     0.134 A 
ATOM     68  F   UNL A   1      46.759  29.833  33.545  1.00  0.00    -0.206 F 
ATOM     69  C   UNL A   1      46.150  30.274  35.759  1.00  0.00     0.040 A 
ATOM     70  C   UNL A   1      44.184  29.353  36.722  1.00  0.00     0.040 A 
ATOM     71  F   UNL A   1      42.896  27.869  35.560  1.00  0.00    -0.206 F 
ATOM     72  C   UNL A   1      45.288  30.164  36.847  1.00  0.00     0.006 A 
ENDBRANCH  44  65
BRANCH  56  73
ATOM     73  C   UNL A   1      45.898  26.976  28.754  1.00  0.00     0.057 A 
ATOM     74  C   UNL A   1      47.149  27.603  28.627  1.00  0.00     0.134 A 
ATOM     75  C   UNL A   1      44.849  27.590  28.053  1.00  0.00     0.134 A 
ATOM     76  F   UNL A   1      48.227  27.081  29.232  1.00  0.00    -0.206 F 
ATOM     77  C   UNL A   1      47.330  28.786  27.896  1.00  0.00     0.040 A 
ATOM     78  C   UNL A   1      45.014  28.770  27.309  1.00  0.00     0.040 A 
ATOM     79  F   UNL A   1      43.620  27.077  28.069  1.00  0.00    -0.206 F 
ATOM     80  C   UNL A   1      46.259  29.380  27.241  1.00  0.00     0.006 A 
ENDBRANCH  56  73
ENDBRANCH  30  31
ENDBRANCH  22  25
ENDBRANCH  20  21
ENDBRANCH  19  20
ENDBRANCH   1  19
TORSDOF 13
ENDMDL
