MODEL 1
REMARK VINA RESULT:     -12.8      0.000      0.000
REMARK SMILES O=C(NCCCCNC(=O)[C@H]1CC=CC[C@@H]1C(=O)Nc1nn(Cc2ccccc2F)cc1Br)c1ccc(-c2c3nc(c(-c4c(F)cccc4F)c4ccc([nH]4)c(-c4c(F)cccc4F)c4nc(c(-c5c(F)cccc5F)c5ccc2[nH]5)C=C4)C=C3)cc1
REMARK SMILES IDX 6 1 5 2 4 3 3 4 1 5 2 6 34 8 35 9 87 10 36 11 86 12 37 13
REMARK SMILES IDX 38 14 39 15 80 16 40 17 85 18 79 19 81 20 41 21 84 22 78 23
REMARK SMILES IDX 77 24 42 26 68 27 51 28 67 29 52 30 55 31 66 32 82 33 53 34
REMARK SMILES IDX 54 35 65 37 83 38 56 39 43 40 44 41 49 42 45 43 46 44 48 45
REMARK SMILES IDX 50 46 47 47 69 48 70 49 75 50 71 51 72 52 74 53 76 54 73 55
REMARK SMILES IDX 57 56 58 57 63 58 59 59 60 60 62 61 64 62 61 63 7 64 8 65
REMARK SMILES IDX 9 66 10 68 11 69 12 70 16 71 13 72 15 73 14 74 17 75 18 76
REMARK SMILES IDX 19 77 20 79 21 80 32 81 22 82 31 83 33 84 23 85 24 86 25 87
REMARK SMILES IDX 29 88 26 89 28 90 30 91 27 92
REMARK H PARENT 3 7 81 25 55 36 8 67 19 78
REMARK Flexibility Score: inf
ROOT
ATOM      1  C   UNL A   1      35.057  30.247  27.332  1.00  0.00     0.023 C 
ENDROOT
BRANCH   1   2
ATOM      2  C   UNL A   1      33.931  31.164  27.819  1.00  0.00     0.023 C 
BRANCH   2   3
ATOM      3  C   UNL A   1      34.399  32.492  28.422  1.00  0.00     0.116 C 
BRANCH   3   4
ATOM      4  N   UNL A   1      34.385  32.490  29.870  1.00  0.00    -0.352 N 
ATOM      5  O   UNL A   1      34.923  32.253  32.000  1.00  0.00    -0.269 OA
ATOM      6  C   UNL A   1      35.232  32.014  30.837  1.00  0.00     0.251 C 
ATOM      7  H   UNL A   1      33.587  32.929  30.245  1.00  0.00     0.163 HD
BRANCH   6   8
ATOM      8  C   UNL A   1      36.472  31.235  30.567  1.00  0.00     0.039 A 
ATOM      9  C   UNL A   1      37.709  31.780  30.233  1.00  0.00     0.014 A 
ATOM     10  C   UNL A   1      36.358  29.831  30.647  1.00  0.00     0.014 A 
ATOM     11  C   UNL A   1      38.796  30.962  29.975  1.00  0.00     0.010 A 
ATOM     12  C   UNL A   1      37.452  29.003  30.409  1.00  0.00     0.010 A 
ATOM     13  C   UNL A   1      38.671  29.575  30.068  1.00  0.00    -0.014 A 
BRANCH  13  14
ATOM     14  C   UNL A   1      39.909  28.815  29.973  1.00  0.00     0.031 A 
ATOM     15  C   UNL A   1      40.636  28.671  31.274  1.00  0.00     0.074 A 
ATOM     16  C   UNL A   1      40.350  28.216  28.853  1.00  0.00     0.049 A 
ATOM     17  N   UNL A   1      41.817  29.099  31.590  1.00  0.00    -0.248 NA
ATOM     18  C   UNL A   1      39.891  28.088  32.404  1.00  0.00     0.031 C 
ATOM     19  C   UNL A   1      39.654  28.013  27.582  1.00  0.00     0.029 A 
ATOM     20  N   UNL A   1      41.537  27.581  28.659  1.00  0.00    -0.354 N 
ATOM     21  C   UNL A   1      42.030  28.711  32.912  1.00  0.00     0.074 A 
ATOM     22  C   UNL A   1      40.775  28.195  33.396  1.00  0.00     0.031 C 
ATOM     23  C   UNL A   1      40.342  27.115  26.838  1.00  0.00     0.029 A 
ATOM     24  C   UNL A   1      41.591  26.804  27.515  1.00  0.00     0.049 A 
ATOM     25  H   UNL A   1      42.296  27.669  29.281  1.00  0.00     0.167 HD
ATOM     26  C   UNL A   1      43.268  28.689  33.476  1.00  0.00     0.037 A 
ATOM     27  C   UNL A   1      42.569  25.920  27.200  1.00  0.00     0.037 A 
ATOM     28  C   UNL A   1      44.200  29.505  32.754  1.00  0.00     0.049 A 
ATOM     29  C   UNL A   1      43.771  26.286  27.990  1.00  0.00     0.074 A 
ATOM     30  C   UNL A   1      44.307  30.859  32.500  1.00  0.00     0.029 A 
ATOM     31  N   UNL A   1      45.043  28.891  31.865  1.00  0.00    -0.354 N 
ATOM     32  N   UNL A   1      44.461  27.377  27.812  1.00  0.00    -0.248 NA
ATOM     33  C   UNL A   1      43.957  25.630  29.275  1.00  0.00     0.031 C 
ATOM     34  C   UNL A   1      44.805  30.940  31.168  1.00  0.00     0.029 A 
ATOM     35  C   UNL A   1      45.020  29.638  30.716  1.00  0.00     0.049 A 
ATOM     36  H   UNL A   1      45.567  28.072  32.022  1.00  0.00     0.167 HD
ATOM     37  C   UNL A   1      44.841  27.769  29.087  1.00  0.00     0.074 A 
ATOM     38  C   UNL A   1      44.573  26.612  29.938  1.00  0.00     0.031 C 
ATOM     39  C   UNL A   1      45.082  29.078  29.386  1.00  0.00     0.037 A 
BRANCH  26  40
ATOM     40  C   UNL A   1      43.703  27.685  34.510  1.00  0.00     0.057 A 
ATOM     41  C   UNL A   1      43.696  27.951  35.894  1.00  0.00     0.134 A 
ATOM     42  C   UNL A   1      43.865  26.334  34.159  1.00  0.00     0.134 A 
ATOM     43  F   UNL A   1      43.443  29.173  36.383  1.00  0.00    -0.206 F 
ATOM     44  C   UNL A   1      43.845  26.953  36.859  1.00  0.00     0.040 A 
ATOM     45  C   UNL A   1      43.967  25.318  35.120  1.00  0.00     0.040 A 
ATOM     46  F   UNL A   1      43.856  25.949  32.875  1.00  0.00    -0.206 F 
ATOM     47  C   UNL A   1      43.954  25.626  36.474  1.00  0.00     0.006 A 
ENDBRANCH  26  40
BRANCH  27  48
ATOM     48  C   UNL A   1      42.420  24.582  26.581  1.00  0.00     0.057 A 
ATOM     49  C   UNL A   1      41.815  23.517  27.270  1.00  0.00     0.134 A 
ATOM     50  C   UNL A   1      43.139  24.240  25.426  1.00  0.00     0.134 A 
ATOM     51  F   UNL A   1      41.162  23.719  28.423  1.00  0.00    -0.206 F 
ATOM     52  C   UNL A   1      41.942  22.188  26.855  1.00  0.00     0.040 A 
ATOM     53  C   UNL A   1      43.280  22.912  25.003  1.00  0.00     0.040 A 
ATOM     54  F   UNL A   1      43.786  25.182  24.725  1.00  0.00    -0.206 F 
ATOM     55  C   UNL A   1      42.692  21.879  25.727  1.00  0.00     0.006 A 
ENDBRANCH  27  48
BRANCH  39  56
ATOM     56  C   UNL A   1      45.152  30.068  28.256  1.00  0.00     0.057 A 
ATOM     57  C   UNL A   1      46.410  30.498  27.823  1.00  0.00     0.134 A 
ATOM     58  C   UNL A   1      44.035  30.749  27.747  1.00  0.00     0.134 A 
ATOM     59  F   UNL A   1      47.523  29.927  28.310  1.00  0.00    -0.206 F 
ATOM     60  C   UNL A   1      46.559  31.570  26.940  1.00  0.00     0.040 A 
ATOM     61  C   UNL A   1      44.170  31.802  26.837  1.00  0.00     0.040 A 
ATOM     62  F   UNL A   1      42.798  30.468  28.169  1.00  0.00    -0.206 F 
ATOM     63  C   UNL A   1      45.437  32.226  26.443  1.00  0.00     0.006 A 
ENDBRANCH  39  56
ENDBRANCH  13  14
ENDBRANCH   6   8
ENDBRANCH   3   4
ENDBRANCH   2   3
ENDBRANCH   1   2
BRANCH   1  64
ATOM     64  C   UNL A   1      34.629  28.989  26.554  1.00  0.00     0.116 C 
BRANCH  64  65
ATOM     65  N   UNL A   1      33.404  29.087  25.761  1.00  0.00    -0.356 N 
ATOM     66  C   UNL A   1      32.109  28.666  25.891  1.00  0.00     0.224 C 
ATOM     67  H   UNL A   1      33.548  29.581  24.922  1.00  0.00     0.163 HD
ATOM     68  O   UNL A   1      31.286  29.492  25.456  1.00  0.00    -0.275 OA
BRANCH  66  69
ATOM     69  C   UNL A   1      31.587  27.207  26.139  1.00  0.00     0.095 C 
ATOM     70  C   UNL A   1      30.648  27.006  24.979  1.00  0.00     0.041 C 
ATOM     71  C   UNL A   1      32.449  25.938  26.318  1.00  0.00     0.095 C 
ATOM     72  C   UNL A   1      31.446  26.549  23.785  1.00  0.00    -0.030 C 
ATOM     73  C   UNL A   1      33.397  25.748  25.158  1.00  0.00     0.041 C 
ATOM     74  C   UNL A   1      32.671  25.991  23.866  1.00  0.00    -0.030 C 
BRANCH  71  75
ATOM     75  C   UNL A   1      31.759  24.536  26.523  1.00  0.00     0.229 C 
ATOM     76  O   UNL A   1      30.533  24.481  26.678  1.00  0.00    -0.274 OA
ATOM     77  N   UNL A   1      32.496  23.397  26.843  1.00  0.00    -0.308 N 
ATOM     78  H   UNL A   1      32.710  23.207  27.785  1.00  0.00     0.171 HD
BRANCH  77  79
ATOM     79  C   UNL A   1      32.935  22.517  25.846  1.00  0.00     0.168 A 
ATOM     80  N   UNL A   1      32.114  21.889  24.997  1.00  0.00    -0.153 NA
ATOM     81  C   UNL A   1      34.266  22.260  25.455  1.00  0.00     0.080 A 
ATOM     82  N   UNL A   1      32.880  20.953  24.404  1.00  0.00    -0.265 N 
ATOM     83  C   UNL A   1      34.211  21.238  24.537  1.00  0.00     0.127 A 
ATOM     84  Br  UNL A   1      35.787  23.109  26.128  1.00  0.00    -0.045 Br
BRANCH  82  85
ATOM     85  C   UNL A   1      32.257  19.833  23.686  1.00  0.00     0.182 C 
BRANCH  85  86
ATOM     86  C   UNL A   1      32.729  18.478  24.174  1.00  0.00     0.009 A 
ATOM     87  C   UNL A   1      32.604  18.097  25.519  1.00  0.00     0.008 A 
ATOM     88  C   UNL A   1      33.295  17.550  23.289  1.00  0.00     0.128 A 
ATOM     89  C   UNL A   1      32.966  16.809  25.938  1.00  0.00     0.001 A 
ATOM     90  C   UNL A   1      33.641  16.259  23.696  1.00  0.00     0.039 A 
ATOM     91  F   UNL A   1      33.471  17.873  22.000  1.00  0.00    -0.207 F 
ATOM     92  C   UNL A   1      33.460  15.881  25.023  1.00  0.00     0.003 A 
ENDBRANCH  85  86
ENDBRANCH  82  85
ENDBRANCH  77  79
ENDBRANCH  71  75
ENDBRANCH  66  69
ENDBRANCH  64  65
ENDBRANCH   1  64
TORSDOF 15
ENDMDL
MODEL 2
REMARK VINA RESULT:     -12.6      3.500      8.621
REMARK SMILES O=C(NCCCCNC(=O)[C@H]1CC=CC[C@@H]1C(=O)Nc1nn(Cc2ccccc2F)cc1Br)c1ccc(-c2c3nc(c(-c4c(F)cccc4F)c4ccc([nH]4)c(-c4c(F)cccc4F)c4nc(c(-c5c(F)cccc5F)c5ccc2[nH]5)C=C4)C=C3)cc1
REMARK SMILES IDX 6 1 5 2 4 3 3 4 1 5 2 6 34 8 35 9 87 10 36 11 86 12 37 13
REMARK SMILES IDX 38 14 39 15 80 16 40 17 85 18 79 19 81 20 41 21 84 22 78 23
REMARK SMILES IDX 77 24 42 26 68 27 51 28 67 29 52 30 55 31 66 32 82 33 53 34
REMARK SMILES IDX 54 35 65 37 83 38 56 39 43 40 44 41 49 42 45 43 46 44 48 45
REMARK SMILES IDX 50 46 47 47 69 48 70 49 75 50 71 51 72 52 74 53 76 54 73 55
REMARK SMILES IDX 57 56 58 57 63 58 59 59 60 60 62 61 64 62 61 63 7 64 8 65
REMARK SMILES IDX 9 66 10 68 11 69 12 70 16 71 13 72 15 73 14 74 17 75 18 76
REMARK SMILES IDX 19 77 20 79 21 80 32 81 22 82 31 83 33 84 23 85 24 86 25 87
REMARK SMILES IDX 29 88 26 89 28 90 30 91 27 92
REMARK H PARENT 3 7 81 25 55 36 8 67 19 78
REMARK Flexibility Score: inf
ROOT
ATOM      1  C   UNL A   1      39.002  21.173  25.930  1.00  0.00     0.023 C 
ENDROOT
BRANCH   1   2
ATOM      2  C   UNL A   1      39.916  22.105  26.732  1.00  0.00     0.023 C 
BRANCH   2   3
ATOM      3  C   UNL A   1      41.374  21.647  26.828  1.00  0.00     0.116 C 
BRANCH   3   4
ATOM      4  N   UNL A   1      42.222  22.247  25.820  1.00  0.00    -0.352 N 
ATOM      5  O   UNL A   1      43.465  23.650  24.649  1.00  0.00    -0.269 OA
ATOM      6  C   UNL A   1      42.694  23.514  25.593  1.00  0.00     0.251 C 
ATOM      7  H   UNL A   1      42.529  21.599  25.144  1.00  0.00     0.163 HD
BRANCH   6   8
ATOM      8  C   UNL A   1      42.329  24.711  26.402  1.00  0.00     0.039 A 
ATOM      9  C   UNL A   1      42.884  25.050  27.633  1.00  0.00     0.014 A 
ATOM     10  C   UNL A   1      41.327  25.546  25.865  1.00  0.00     0.014 A 
ATOM     11  C   UNL A   1      42.454  26.175  28.317  1.00  0.00     0.010 A 
ATOM     12  C   UNL A   1      40.903  26.689  26.538  1.00  0.00     0.010 A 
ATOM     13  C   UNL A   1      41.468  26.997  27.768  1.00  0.00    -0.014 A 
BRANCH  13  14
ATOM     14  C   UNL A   1      41.225  28.252  28.465  1.00  0.00     0.031 A 
ATOM     15  C   UNL A   1      42.298  29.277  28.264  1.00  0.00     0.074 A 
ATOM     16  C   UNL A   1      40.113  28.529  29.169  1.00  0.00     0.049 A 
ATOM     17  N   UNL A   1      43.073  29.818  29.150  1.00  0.00    -0.248 NA
ATOM     18  C   UNL A   1      42.631  29.644  26.877  1.00  0.00     0.031 C 
ATOM     19  C   UNL A   1      38.860  27.777  29.245  1.00  0.00     0.029 A 
ATOM     20  N   UNL A   1      39.859  29.630  29.927  1.00  0.00    -0.354 N 
ATOM     21  C   UNL A   1      43.895  30.706  28.456  1.00  0.00     0.074 A 
ATOM     22  C   UNL A   1      43.658  30.475  27.055  1.00  0.00     0.031 C 
ATOM     23  C   UNL A   1      37.912  28.554  29.820  1.00  0.00     0.029 A 
ATOM     24  C   UNL A   1      38.530  29.786  30.282  1.00  0.00     0.049 A 
ATOM     25  H   UNL A   1      40.562  30.262  30.200  1.00  0.00     0.167 HD
ATOM     26  C   UNL A   1      44.600  31.687  29.081  1.00  0.00     0.037 A 
ATOM     27  C   UNL A   1      37.984  30.887  30.853  1.00  0.00     0.037 A 
ATOM     28  C   UNL A   1      44.762  31.422  30.481  1.00  0.00     0.049 A 
ATOM     29  C   UNL A   1      39.088  31.659  31.478  1.00  0.00     0.074 A 
ATOM     30  C   UNL A   1      45.412  30.447  31.213  1.00  0.00     0.029 A 
ATOM     31  N   UNL A   1      43.910  32.041  31.360  1.00  0.00    -0.354 N 
ATOM     32  N   UNL A   1      39.774  31.253  32.509  1.00  0.00    -0.248 NA
ATOM     33  C   UNL A   1      39.712  32.704  30.682  1.00  0.00     0.031 C 
ATOM     34  C   UNL A   1      44.565  30.206  32.332  1.00  0.00     0.029 A 
ATOM     35  C   UNL A   1      43.482  31.082  32.239  1.00  0.00     0.049 A 
ATOM     36  H   UNL A   1      43.657  32.993  31.359  1.00  0.00     0.167 HD
ATOM     37  C   UNL A   1      41.070  31.680  32.264  1.00  0.00     0.074 A 
ATOM     38  C   UNL A   1      40.955  32.638  31.167  1.00  0.00     0.031 C 
ATOM     39  C   UNL A   1      42.146  31.022  32.783  1.00  0.00     0.037 A 
BRANCH  26  40
ATOM     40  C   UNL A   1      44.882  33.037  28.476  1.00  0.00     0.057 A 
ATOM     41  C   UNL A   1      46.063  33.332  27.767  1.00  0.00     0.134 A 
ATOM     42  C   UNL A   1      43.849  33.981  28.343  1.00  0.00     0.134 A 
ATOM     43  F   UNL A   1      47.092  32.476  27.710  1.00  0.00    -0.206 F 
ATOM     44  C   UNL A   1      46.213  34.482  26.989  1.00  0.00     0.040 A 
ATOM     45  C   UNL A   1      43.971  35.114  27.527  1.00  0.00     0.040 A 
ATOM     46  F   UNL A   1      42.664  33.797  28.943  1.00  0.00    -0.206 F 
ATOM     47  C   UNL A   1      45.155  35.365  26.844  1.00  0.00     0.006 A 
ENDBRANCH  26  40
BRANCH  27  48
ATOM     48  C   UNL A   1      36.669  31.504  30.562  1.00  0.00     0.057 A 
ATOM     49  C   UNL A   1      36.350  31.983  29.280  1.00  0.00     0.134 A 
ATOM     50  C   UNL A   1      35.821  31.913  31.602  1.00  0.00     0.134 A 
ATOM     51  F   UNL A   1      37.130  31.713  28.224  1.00  0.00    -0.206 F 
ATOM     52  C   UNL A   1      35.271  32.842  29.049  1.00  0.00     0.040 A 
ATOM     53  C   UNL A   1      34.741  32.778  31.385  1.00  0.00     0.040 A 
ATOM     54  F   UNL A   1      36.068  31.540  32.866  1.00  0.00    -0.206 F 
ATOM     55  C   UNL A   1      34.471  33.256  30.106  1.00  0.00     0.006 A 
ENDBRANCH  27  48
BRANCH  39  56
ATOM     56  C   UNL A   1      41.901  29.957  33.816  1.00  0.00     0.057 A 
ATOM     57  C   UNL A   1      42.129  30.267  35.161  1.00  0.00     0.134 A 
ATOM     58  C   UNL A   1      41.661  28.610  33.505  1.00  0.00     0.134 A 
ATOM     59  F   UNL A   1      42.418  31.526  35.525  1.00  0.00    -0.206 F 
ATOM     60  C   UNL A   1      42.140  29.283  36.153  1.00  0.00     0.040 A 
ATOM     61  C   UNL A   1      41.637  27.621  34.493  1.00  0.00     0.040 A 
ATOM     62  F   UNL A   1      41.519  28.205  32.238  1.00  0.00    -0.206 F 
ATOM     63  C   UNL A   1      41.893  27.954  35.820  1.00  0.00     0.006 A 
ENDBRANCH  39  56
ENDBRANCH  13  14
ENDBRANCH   6   8
ENDBRANCH   3   4
ENDBRANCH   2   3
ENDBRANCH   1   2
BRANCH   1  64
ATOM     64  C   UNL A   1      37.774  21.823  25.264  1.00  0.00     0.116 C 
BRANCH  64  65
ATOM     65  N   UNL A   1      36.603  22.043  26.111  1.00  0.00    -0.356 N 
ATOM     66  C   UNL A   1      35.262  21.785  26.025  1.00  0.00     0.224 C 
ATOM     67  H   UNL A   1      36.838  22.490  26.956  1.00  0.00     0.163 HD
ATOM     68  O   UNL A   1      34.763  21.452  27.116  1.00  0.00    -0.275 OA
BRANCH  66  69
ATOM     69  C   UNL A   1      34.266  22.210  24.890  1.00  0.00     0.095 C 
ATOM     70  C   UNL A   1      33.106  22.760  25.677  1.00  0.00     0.041 C 
ATOM     71  C   UNL A   1      34.567  23.155  23.706  1.00  0.00     0.095 C 
ATOM     72  C   UNL A   1      33.387  24.202  26.009  1.00  0.00    -0.030 C 
ATOM     73  C   UNL A   1      35.096  24.485  24.185  1.00  0.00     0.041 C 
ATOM     74  C   UNL A   1      34.276  24.969  25.346  1.00  0.00    -0.030 C 
BRANCH  71  75
ATOM     75  C   UNL A   1      33.434  23.508  22.668  1.00  0.00     0.229 C 
ATOM     76  O   UNL A   1      32.744  22.600  22.192  1.00  0.00    -0.274 OA
ATOM     77  N   UNL A   1      33.381  24.750  22.038  1.00  0.00    -0.308 N 
ATOM     78  H   UNL A   1      33.904  24.899  21.217  1.00  0.00     0.171 HD
BRANCH  77  79
ATOM     79  C   UNL A   1      32.595  25.788  22.551  1.00  0.00     0.168 A 
ATOM     80  N   UNL A   1      32.868  27.085  22.368  1.00  0.00    -0.153 NA
ATOM     81  C   UNL A   1      31.340  25.680  23.186  1.00  0.00     0.080 A 
ATOM     82  N   UNL A   1      32.059  27.734  23.227  1.00  0.00    -0.265 N 
ATOM     83  C   UNL A   1      31.018  26.942  23.629  1.00  0.00     0.127 A 
ATOM     84  Br  UNL A   1      30.368  24.104  23.426  1.00  0.00    -0.045 Br
BRANCH  82  85
ATOM     85  C   UNL A   1      32.324  29.135  23.581  1.00  0.00     0.182 C 
BRANCH  85  86
ATOM     86  C   UNL A   1      32.840  29.304  24.995  1.00  0.00     0.009 A 
ATOM     87  C   UNL A   1      33.936  28.566  25.470  1.00  0.00     0.008 A 
ATOM     88  C   UNL A   1      32.245  30.218  25.875  1.00  0.00     0.128 A 
ATOM     89  C   UNL A   1      34.455  28.796  26.752  1.00  0.00     0.001 A 
ATOM     90  C   UNL A   1      32.770  30.465  27.147  1.00  0.00     0.039 A 
ATOM     91  F   UNL A   1      31.175  30.924  25.487  1.00  0.00    -0.207 F 
ATOM     92  C   UNL A   1      33.889  29.762  27.581  1.00  0.00     0.003 A 
ENDBRANCH  85  86
ENDBRANCH  82  85
ENDBRANCH  77  79
ENDBRANCH  71  75
ENDBRANCH  66  69
ENDBRANCH  64  65
ENDBRANCH   1  64
TORSDOF 15
ENDMDL
MODEL 3
REMARK VINA RESULT:     -12.6      3.509      8.763
REMARK SMILES O=C(NCCCCNC(=O)[C@H]1CC=CC[C@@H]1C(=O)Nc1nn(Cc2ccccc2F)cc1Br)c1ccc(-c2c3nc(c(-c4c(F)cccc4F)c4ccc([nH]4)c(-c4c(F)cccc4F)c4nc(c(-c5c(F)cccc5F)c5ccc2[nH]5)C=C4)C=C3)cc1
REMARK SMILES IDX 6 1 5 2 4 3 3 4 1 5 2 6 34 8 35 9 87 10 36 11 86 12 37 13
REMARK SMILES IDX 38 14 39 15 80 16 40 17 85 18 79 19 81 20 41 21 84 22 78 23
REMARK SMILES IDX 77 24 42 26 68 27 51 28 67 29 52 30 55 31 66 32 82 33 53 34
REMARK SMILES IDX 54 35 65 37 83 38 56 39 43 40 44 41 49 42 45 43 46 44 48 45
REMARK SMILES IDX 50 46 47 47 69 48 70 49 75 50 71 51 72 52 74 53 76 54 73 55
REMARK SMILES IDX 57 56 58 57 63 58 59 59 60 60 62 61 64 62 61 63 7 64 8 65
REMARK SMILES IDX 9 66 10 68 11 69 12 70 16 71 13 72 15 73 14 74 17 75 18 76
REMARK SMILES IDX 19 77 20 79 21 80 32 81 22 82 31 83 33 84 23 85 24 86 25 87
REMARK SMILES IDX 29 88 26 89 28 90 30 91 27 92
REMARK H PARENT 3 7 81 25 55 36 8 67 19 78
REMARK Flexibility Score: inf
ROOT
ATOM      1  C   UNL A   1      38.829  23.333  26.785  1.00  0.00     0.023 C 
ENDROOT
BRANCH   1   2
ATOM      2  C   UNL A   1      39.452  22.047  26.235  1.00  0.00     0.023 C 
BRANCH   2   3
ATOM      3  C   UNL A   1      40.866  21.751  26.742  1.00  0.00     0.116 C 
BRANCH   3   4
ATOM      4  N   UNL A   1      41.894  22.096  25.781  1.00  0.00    -0.352 N 
ATOM      5  O   UNL A   1      43.448  23.153  24.620  1.00  0.00    -0.269 OA
ATOM      6  C   UNL A   1      42.574  23.246  25.476  1.00  0.00     0.251 C 
ATOM      7  H   UNL A   1      42.165  21.332  25.222  1.00  0.00     0.163 HD
BRANCH   6   8
ATOM      8  C   UNL A   1      42.315  24.573  26.100  1.00  0.00     0.039 A 
ATOM      9  C   UNL A   1      41.503  25.570  25.565  1.00  0.00     0.014 A 
ATOM     10  C   UNL A   1      42.966  24.825  27.325  1.00  0.00     0.014 A 
ATOM     11  C   UNL A   1      41.349  26.782  26.216  1.00  0.00     0.010 A 
ATOM     12  C   UNL A   1      42.801  26.035  27.996  1.00  0.00     0.010 A 
ATOM     13  C   UNL A   1      41.992  27.013  27.433  1.00  0.00    -0.014 A 
BRANCH  13  14
ATOM     14  C   UNL A   1      41.614  28.234  28.132  1.00  0.00     0.031 A 
ATOM     15  C   UNL A   1      42.621  29.336  28.018  1.00  0.00     0.074 A 
ATOM     16  C   UNL A   1      40.442  28.416  28.765  1.00  0.00     0.049 A 
ATOM     17  N   UNL A   1      43.296  29.912  28.962  1.00  0.00    -0.248 NA
ATOM     18  C   UNL A   1      43.016  29.754  26.662  1.00  0.00     0.031 C 
ATOM     19  C   UNL A   1      39.245  27.575  28.747  1.00  0.00     0.029 A 
ATOM     20  N   UNL A   1      40.061  29.480  29.522  1.00  0.00    -0.354 N 
ATOM     21  C   UNL A   1      44.094  30.871  28.338  1.00  0.00     0.074 A 
ATOM     22  C   UNL A   1      43.965  30.653  26.921  1.00  0.00     0.031 C 
ATOM     23  C   UNL A   1      38.208  28.270  29.270  1.00  0.00     0.029 A 
ATOM     24  C   UNL A   1      38.704  29.533  29.792  1.00  0.00     0.049 A 
ATOM     25  H   UNL A   1      40.697  30.155  29.851  1.00  0.00     0.167 HD
ATOM     26  C   UNL A   1      44.684  31.887  29.024  1.00  0.00     0.037 A 
ATOM     27  C   UNL A   1      38.044  30.581  30.343  1.00  0.00     0.037 A 
ATOM     28  C   UNL A   1      44.775  31.605  30.427  1.00  0.00     0.049 A 
ATOM     29  C   UNL A   1      39.046  31.416  31.051  1.00  0.00     0.074 A 
ATOM     30  C   UNL A   1      45.445  30.665  31.184  1.00  0.00     0.029 A 
ATOM     31  N   UNL A   1      43.826  32.144  31.257  1.00  0.00    -0.354 N 
ATOM     32  N   UNL A   1      39.692  31.039  32.119  1.00  0.00    -0.248 NA
ATOM     33  C   UNL A   1      39.643  32.520  30.315  1.00  0.00     0.031 C 
ATOM     34  C   UNL A   1      44.547  30.340  32.241  1.00  0.00     0.029 A 
ATOM     35  C   UNL A   1      43.412  31.139  32.091  1.00  0.00     0.049 A 
ATOM     36  H   UNL A   1      43.504  33.075  31.255  1.00  0.00     0.167 HD
ATOM     37  C   UNL A   1      40.966  31.563  31.967  1.00  0.00     0.074 A 
ATOM     38  C   UNL A   1      40.853  32.533  30.880  1.00  0.00     0.031 C 
ATOM     39  C   UNL A   1      42.051  30.973  32.545  1.00  0.00     0.037 A 
BRANCH  26  40
ATOM     40  C   UNL A   1      44.906  33.265  28.460  1.00  0.00     0.057 A 
ATOM     41  C   UNL A   1      46.119  33.671  27.868  1.00  0.00     0.134 A 
ATOM     42  C   UNL A   1      43.814  34.122  28.238  1.00  0.00     0.134 A 
ATOM     43  F   UNL A   1      47.218  32.904  27.901  1.00  0.00    -0.206 F 
ATOM     44  C   UNL A   1      46.243  34.842  27.118  1.00  0.00     0.040 A 
ATOM     45  C   UNL A   1      43.916  35.275  27.448  1.00  0.00     0.040 A 
ATOM     46  F   UNL A   1      42.598  33.830  28.722  1.00  0.00    -0.206 F 
ATOM     47  C   UNL A   1      45.133  35.636  26.882  1.00  0.00     0.006 A 
ENDBRANCH  26  40
BRANCH  27  48
ATOM     48  C   UNL A   1      36.709  31.109  29.976  1.00  0.00     0.057 A 
ATOM     49  C   UNL A   1      36.346  31.321  28.635  1.00  0.00     0.134 A 
ATOM     50  C   UNL A   1      35.880  31.700  30.940  1.00  0.00     0.134 A 
ATOM     51  F   UNL A   1      37.104  30.861  27.630  1.00  0.00    -0.206 F 
ATOM     52  C   UNL A   1      35.244  32.101  28.272  1.00  0.00     0.040 A 
ATOM     53  C   UNL A   1      34.777  32.489  30.590  1.00  0.00     0.040 A 
ATOM     54  F   UNL A   1      36.168  31.587  32.245  1.00  0.00    -0.206 F 
ATOM     55  C   UNL A   1      34.464  32.703  29.251  1.00  0.00     0.006 A 
ENDBRANCH  27  48
BRANCH  39  56
ATOM     56  C   UNL A   1      41.818  29.872  33.543  1.00  0.00     0.057 A 
ATOM     57  C   UNL A   1      41.932  30.170  34.905  1.00  0.00     0.134 A 
ATOM     58  C   UNL A   1      41.702  28.517  33.195  1.00  0.00     0.134 A 
ATOM     59  F   UNL A   1      42.099  31.440  35.306  1.00  0.00    -0.206 F 
ATOM     60  C   UNL A   1      41.950  29.171  35.880  1.00  0.00     0.040 A 
ATOM     61  C   UNL A   1      41.686  27.509  34.165  1.00  0.00     0.040 A 
ATOM     62  F   UNL A   1      41.676  28.128  31.916  1.00  0.00    -0.206 F 
ATOM     63  C   UNL A   1      41.826  27.834  35.511  1.00  0.00     0.006 A 
ENDBRANCH  39  56
ENDBRANCH  13  14
ENDBRANCH   6   8
ENDBRANCH   3   4
ENDBRANCH   2   3
ENDBRANCH   1   2
BRANCH   1  64
ATOM     64  C   UNL A   1      37.520  23.800  26.121  1.00  0.00     0.116 C 
BRANCH  64  65
ATOM     65  N   UNL A   1      36.467  22.799  25.959  1.00  0.00    -0.356 N 
ATOM     66  C   UNL A   1      35.752  22.280  24.914  1.00  0.00     0.224 C 
ATOM     67  H   UNL A   1      36.207  22.396  26.818  1.00  0.00     0.163 HD
ATOM     68  O   UNL A   1      35.529  21.062  25.038  1.00  0.00    -0.275 OA
BRANCH  66  69
ATOM     69  C   UNL A   1      34.895  23.054  23.850  1.00  0.00     0.095 C 
ATOM     70  C   UNL A   1      33.644  22.219  23.784  1.00  0.00     0.041 C 
ATOM     71  C   UNL A   1      34.506  24.548  23.891  1.00  0.00     0.095 C 
ATOM     72  C   UNL A   1      32.715  22.652  24.889  1.00  0.00    -0.030 C 
ATOM     73  C   UNL A   1      33.808  24.900  25.183  1.00  0.00     0.041 C 
ATOM     74  C   UNL A   1      32.791  23.846  25.513  1.00  0.00    -0.030 C 
BRANCH  71  75
ATOM     75  C   UNL A   1      33.604  25.161  22.752  1.00  0.00     0.229 C 
ATOM     76  O   UNL A   1      33.279  24.455  21.790  1.00  0.00    -0.274 OA
ATOM     77  N   UNL A   1      33.415  26.536  22.630  1.00  0.00    -0.308 N 
ATOM     78  H   UNL A   1      34.069  27.072  22.125  1.00  0.00     0.171 HD
BRANCH  77  79
ATOM     79  C   UNL A   1      32.309  27.168  23.209  1.00  0.00     0.168 A 
ATOM     80  N   UNL A   1      31.041  26.890  22.884  1.00  0.00    -0.153 NA
ATOM     81  C   UNL A   1      32.305  28.056  24.305  1.00  0.00     0.080 A 
ATOM     82  N   UNL A   1      30.315  27.878  23.442  1.00  0.00    -0.265 N 
ATOM     83  C   UNL A   1      31.014  28.515  24.430  1.00  0.00     0.127 A 
ATOM     84  Br  UNL A   1      33.794  28.546  25.320  1.00  0.00    -0.045 Br
BRANCH  82  85
ATOM     85  C   UNL A   1      28.935  28.122  23.003  1.00  0.00     0.182 C 
BRANCH  85  86
ATOM     86  C   UNL A   1      28.612  29.594  22.847  1.00  0.00     0.009 A 
ATOM     87  C   UNL A   1      27.565  30.196  23.563  1.00  0.00     0.008 A 
ATOM     88  C   UNL A   1      29.362  30.410  21.989  1.00  0.00     0.128 A 
ATOM     89  C   UNL A   1      27.334  31.576  23.472  1.00  0.00     0.001 A 
ATOM     90  C   UNL A   1      29.149  31.788  21.909  1.00  0.00     0.039 A 
ATOM     91  F   UNL A   1      30.352  29.881  21.255  1.00  0.00    -0.207 F 
ATOM     92  C   UNL A   1      28.141  32.377  22.666  1.00  0.00     0.003 A 
ENDBRANCH  85  86
ENDBRANCH  82  85
ENDBRANCH  77  79
ENDBRANCH  71  75
ENDBRANCH  66  69
ENDBRANCH  64  65
ENDBRANCH   1  64
TORSDOF 15
ENDMDL
