MODEL 1
REMARK VINA RESULT:     -10.7      0.000      0.000
REMARK SMILES C[NH2+]C[C@H](C)C(=O)N1CC[C@@](C(=O)NCCCCNC(=O)c2ccc(-c3c4nc(c(-c5c(F)cccc5F)c5ccc([nH]5)c(-c5c(F)cccc5F)c5nc(c(-c6c(F)cccc6F)c6ccc3[nH]6)C=C5)C=C4)cc2)(C(F)(F)F)C1
REMARK SMILES IDX 15 1 14 2 12 3 13 4 11 6 8 7 9 8 80 9 10 10 6 11 7 12 4 13
REMARK SMILES IDX 5 14 3 15 2 16 1 17 76 20 77 21 78 22 79 23 16 24 17 25
REMARK SMILES IDX 18 26 19 27 20 28 21 30 22 31 23 32 75 33 24 34 74 35 25 36
REMARK SMILES IDX 26 37 27 38 68 39 28 40 73 41 67 42 69 43 29 44 72 45 66 46
REMARK SMILES IDX 65 47 30 49 56 50 39 51 55 52 40 53 43 54 54 55 70 56 41 57
REMARK SMILES IDX 42 58 53 60 71 61 44 62 31 63 32 64 37 65 33 66 34 67 36 68
REMARK SMILES IDX 38 69 35 70 57 71 58 72 63 73 59 74 60 75 62 76 64 77 61 78
REMARK SMILES IDX 45 79 46 80 51 81 47 82 48 83 50 84 52 85 49 86
REMARK H PARENT 14 5 2 18 2 19 19 29 69 48 43 59
REMARK Flexibility Score: inf
ROOT
ATOM      1  C   UNL A   1      36.477  22.806  25.534  1.00  0.00     0.116 C 
ENDROOT
BRANCH   1   2
ATOM      2  N   UNL A   1      35.694  22.121  26.547  1.00  0.00    -0.355 N 
ATOM      3  C   UNL A   1      34.352  22.066  26.786  1.00  0.00     0.237 C 
ATOM      4  O   UNL A   1      34.026  21.380  27.759  1.00  0.00    -0.274 OA
ATOM      5  H   UNL A   1      36.234  21.599  27.182  1.00  0.00     0.163 HD
BRANCH   3   6
ATOM      6  C   UNL A   1      33.321  22.802  25.937  1.00  0.00     0.163 C 
ATOM      7  N   UNL A   1      32.617  25.091  26.048  1.00  0.00    -0.341 N 
ATOM      8  C   UNL A   1      31.425  24.292  26.233  1.00  0.00     0.121 C 
ATOM      9  C   UNL A   1      33.739  24.242  25.641  1.00  0.00     0.146 C 
ATOM     10  C   UNL A   1      31.944  22.912  26.619  1.00  0.00     0.050 C 
BRANCH   7  11
ATOM     11  C   UNL A   1      32.787  26.454  26.085  1.00  0.00     0.231 C 
ATOM     12  O   UNL A   1      33.938  26.915  26.057  1.00  0.00    -0.274 OA
BRANCH  11  13
ATOM     13  C   UNL A   1      31.630  27.443  26.262  1.00  0.00     0.130 C 
ATOM     14  C   UNL A   1      31.538  28.261  27.543  1.00  0.00     0.024 C 
BRANCH  13  15
ATOM     15  C   UNL A   1      31.332  28.209  24.956  1.00  0.00     0.273 C 
BRANCH  15  16
ATOM     16  N   UNL A   1      30.680  27.485  23.865  1.00  0.00    -0.348 N 
ATOM     17  C   UNL A   1      29.573  28.204  23.280  1.00  0.00     0.330 C 
ATOM     18  H   UNL A   1      31.371  27.308  23.136  1.00  0.00     0.346 HD
ATOM     19  H   UNL A   1      30.304  26.622  24.258  1.00  0.00     0.346 HD
ENDBRANCH  15  16
ENDBRANCH  13  15
ENDBRANCH  11  13
ENDBRANCH   7  11
BRANCH   6  20
ATOM     20  C   UNL A   1      33.189  22.057  24.619  1.00  0.00     0.404 C 
ATOM     21  F   UNL A   1      31.877  21.879  24.310  1.00  0.00    -0.170 F 
ATOM     22  F   UNL A   1      33.737  22.727  23.582  1.00  0.00    -0.170 F 
ATOM     23  F   UNL A   1      33.730  20.819  24.667  1.00  0.00    -0.170 F 
ENDBRANCH   6  20
ENDBRANCH   3   6
ENDBRANCH   1   2
BRANCH   1  24
ATOM     24  C   UNL A   1      36.906  21.854  24.421  1.00  0.00     0.023 C 
BRANCH  24  25
ATOM     25  C   UNL A   1      37.602  20.577  24.881  1.00  0.00     0.023 C 
BRANCH  25  26
ATOM     26  C   UNL A   1      38.831  20.773  25.763  1.00  0.00     0.116 C 
BRANCH  26  27
ATOM     27  N   UNL A   1      39.830  19.718  25.661  1.00  0.00    -0.352 N 
ATOM     28  C   UNL A   1      41.163  19.733  26.018  1.00  0.00     0.251 C 
ATOM     29  H   UNL A   1      39.507  18.869  25.281  1.00  0.00     0.163 HD
ATOM     30  O   UNL A   1      41.863  18.754  25.817  1.00  0.00    -0.269 OA
BRANCH  28  31
ATOM     31  C   UNL A   1      41.756  20.964  26.592  1.00  0.00     0.039 A 
ATOM     32  C   UNL A   1      42.234  21.946  25.719  1.00  0.00     0.014 A 
ATOM     33  C   UNL A   1      41.789  21.177  27.969  1.00  0.00     0.014 A 
ATOM     34  C   UNL A   1      42.643  23.180  26.227  1.00  0.00     0.010 A 
ATOM     35  C   UNL A   1      42.101  22.438  28.465  1.00  0.00     0.010 A 
ATOM     36  C   UNL A   1      42.523  23.458  27.599  1.00  0.00    -0.014 A 
BRANCH  36  37
ATOM     37  C   UNL A   1      42.802  24.813  28.137  1.00  0.00     0.031 A 
ATOM     38  C   UNL A   1      44.194  25.199  28.555  1.00  0.00     0.074 A 
ATOM     39  C   UNL A   1      41.781  25.672  28.331  1.00  0.00     0.049 A 
ATOM     40  N   UNL A   1      44.617  26.322  29.077  1.00  0.00    -0.248 NA
ATOM     41  C   UNL A   1      45.239  24.176  28.405  1.00  0.00     0.031 C 
ATOM     42  C   UNL A   1      40.371  25.388  28.054  1.00  0.00     0.029 A 
ATOM     43  N   UNL A   1      41.771  26.957  28.812  1.00  0.00    -0.354 N 
ATOM     44  C   UNL A   1      45.968  26.132  29.339  1.00  0.00     0.074 A 
ATOM     45  C   UNL A   1      46.279  24.767  28.975  1.00  0.00     0.031 C 
ATOM     46  C   UNL A   1      39.639  26.478  28.336  1.00  0.00     0.029 A 
ATOM     47  C   UNL A   1      40.521  27.527  28.838  1.00  0.00     0.049 A 
ATOM     48  H   UNL A   1      42.583  27.427  29.110  1.00  0.00     0.167 HD
ATOM     49  C   UNL A   1      46.875  27.020  29.810  1.00  0.00     0.037 A 
ATOM     50  C   UNL A   1      40.129  28.758  29.214  1.00  0.00     0.037 A 
ATOM     51  C   UNL A   1      46.571  28.389  30.134  1.00  0.00     0.049 A 
ATOM     52  C   UNL A   1      41.159  29.748  29.677  1.00  0.00     0.074 A 
ATOM     53  C   UNL A   1      47.435  29.393  30.534  1.00  0.00     0.029 A 
ATOM     54  N   UNL A   1      45.301  28.945  30.095  1.00  0.00    -0.354 N 
ATOM     55  N   UNL A   1      42.451  29.584  29.825  1.00  0.00    -0.248 NA
ATOM     56  C   UNL A   1      40.681  31.096  30.011  1.00  0.00     0.031 C 
ATOM     57  C   UNL A   1      46.682  30.548  30.772  1.00  0.00     0.029 A 
ATOM     58  C   UNL A   1      45.355  30.274  30.479  1.00  0.00     0.049 A 
ATOM     59  H   UNL A   1      44.482  28.466  29.832  1.00  0.00     0.167 HD
ATOM     60  C   UNL A   1      42.945  30.812  30.245  1.00  0.00     0.074 A 
ATOM     61  C   UNL A   1      41.814  31.714  30.315  1.00  0.00     0.031 C 
ATOM     62  C   UNL A   1      44.221  31.161  30.541  1.00  0.00     0.037 A 
BRANCH  49  63
ATOM     63  C   UNL A   1      48.283  26.532  29.991  1.00  0.00     0.057 A 
ATOM     64  C   UNL A   1      49.254  26.689  28.994  1.00  0.00     0.134 A 
ATOM     65  C   UNL A   1      48.675  25.902  31.179  1.00  0.00     0.134 A 
ATOM     66  F   UNL A   1      48.941  27.273  27.826  1.00  0.00    -0.206 F 
ATOM     67  C   UNL A   1      50.553  26.204  29.154  1.00  0.00     0.040 A 
ATOM     68  C   UNL A   1      49.978  25.438  31.363  1.00  0.00     0.040 A 
ATOM     69  F   UNL A   1      47.798  25.725  32.179  1.00  0.00    -0.206 F 
ATOM     70  C   UNL A   1      50.919  25.579  30.344  1.00  0.00     0.006 A 
ENDBRANCH  49  63
BRANCH  50  71
ATOM     71  C   UNL A   1      38.699  29.137  29.108  1.00  0.00     0.057 A 
ATOM     72  C   UNL A   1      38.152  29.546  27.886  1.00  0.00     0.134 A 
ATOM     73  C   UNL A   1      37.840  29.076  30.212  1.00  0.00     0.134 A 
ATOM     74  F   UNL A   1      38.929  29.638  26.797  1.00  0.00    -0.206 F 
ATOM     75  C   UNL A   1      36.806  29.891  27.766  1.00  0.00     0.040 A 
ATOM     76  C   UNL A   1      36.487  29.398  30.102  1.00  0.00     0.040 A 
ATOM     77  F   UNL A   1      38.302  28.681  31.406  1.00  0.00    -0.206 F 
ATOM     78  C   UNL A   1      35.966  29.811  28.877  1.00  0.00     0.006 A 
ENDBRANCH  50  71
BRANCH  62  79
ATOM     79  C   UNL A   1      44.466  32.586  30.941  1.00  0.00     0.057 A 
ATOM     80  C   UNL A   1      44.733  33.583  29.996  1.00  0.00     0.134 A 
ATOM     81  C   UNL A   1      44.393  32.970  32.287  1.00  0.00     0.134 A 
ATOM     82  F   UNL A   1      44.828  33.278  28.693  1.00  0.00    -0.206 F 
ATOM     83  C   UNL A   1      44.941  34.910  30.376  1.00  0.00     0.040 A 
ATOM     84  C   UNL A   1      44.576  34.297  32.677  1.00  0.00     0.040 A 
ATOM     85  F   UNL A   1      44.132  32.063  33.241  1.00  0.00    -0.206 F 
ATOM     86  C   UNL A   1      44.855  35.270  31.720  1.00  0.00     0.006 A 
ENDBRANCH  62  79
ENDBRANCH  36  37
ENDBRANCH  28  31
ENDBRANCH  26  27
ENDBRANCH  25  26
ENDBRANCH  24  25
ENDBRANCH   1  24
TORSDOF 16
ENDMDL
MODEL 2
REMARK VINA RESULT:     -10.6      1.540      2.282
REMARK SMILES C[NH2+]C[C@H](C)C(=O)N1CC[C@@](C(=O)NCCCCNC(=O)c2ccc(-c3c4nc(c(-c5c(F)cccc5F)c5ccc([nH]5)c(-c5c(F)cccc5F)c5nc(c(-c6c(F)cccc6F)c6ccc3[nH]6)C=C5)C=C4)cc2)(C(F)(F)F)C1
REMARK SMILES IDX 15 1 14 2 12 3 13 4 11 6 8 7 9 8 80 9 10 10 6 11 7 12 4 13
REMARK SMILES IDX 5 14 3 15 2 16 1 17 76 20 77 21 78 22 79 23 16 24 17 25
REMARK SMILES IDX 18 26 19 27 20 28 21 30 22 31 23 32 75 33 24 34 74 35 25 36
REMARK SMILES IDX 26 37 27 38 68 39 28 40 73 41 67 42 69 43 29 44 72 45 66 46
REMARK SMILES IDX 65 47 30 49 56 50 39 51 55 52 40 53 43 54 54 55 70 56 41 57
REMARK SMILES IDX 42 58 53 60 71 61 44 62 31 63 32 64 37 65 33 66 34 67 36 68
REMARK SMILES IDX 38 69 35 70 57 71 58 72 63 73 59 74 60 75 62 76 64 77 61 78
REMARK SMILES IDX 45 79 46 80 51 81 47 82 48 83 50 84 52 85 49 86
REMARK H PARENT 14 5 2 18 2 19 19 29 69 48 43 59
REMARK Flexibility Score: inf
ROOT
ATOM      1  C   UNL A   1      36.821  22.437  25.505  1.00  0.00     0.116 C 
ENDROOT
BRANCH   1   2
ATOM      2  N   UNL A   1      35.895  21.928  26.501  1.00  0.00    -0.355 N 
ATOM      3  C   UNL A   1      34.537  22.002  26.614  1.00  0.00     0.237 C 
ATOM      4  O   UNL A   1      34.070  21.453  27.614  1.00  0.00    -0.274 OA
ATOM      5  H   UNL A   1      36.329  21.437  27.235  1.00  0.00     0.163 HD
BRANCH   3   6
ATOM      6  C   UNL A   1      33.653  22.718  25.599  1.00  0.00     0.163 C 
ATOM      7  N   UNL A   1      33.282  25.068  25.300  1.00  0.00    -0.341 N 
ATOM      8  C   UNL A   1      31.981  24.481  25.541  1.00  0.00     0.121 C 
ATOM      9  C   UNL A   1      34.283  24.018  25.099  1.00  0.00     0.146 C 
ATOM     10  C   UNL A   1      32.284  23.128  26.173  1.00  0.00     0.050 C 
BRANCH   7  11
ATOM     11  C   UNL A   1      33.644  26.383  25.126  1.00  0.00     0.231 C 
ATOM     12  O   UNL A   1      33.898  27.070  26.126  1.00  0.00    -0.274 OA
BRANCH  11  13
ATOM     13  C   UNL A   1      33.653  27.082  23.763  1.00  0.00     0.130 C 
ATOM     14  C   UNL A   1      33.374  26.269  22.506  1.00  0.00     0.024 C 
BRANCH  13  15
ATOM     15  C   UNL A   1      32.975  28.466  23.830  1.00  0.00     0.273 C 
BRANCH  15  16
ATOM     16  N   UNL A   1      31.743  28.595  24.608  1.00  0.00    -0.348 N 
ATOM     17  C   UNL A   1      30.559  28.211  23.876  1.00  0.00     0.330 C 
ATOM     18  H   UNL A   1      31.819  28.001  25.433  1.00  0.00     0.346 HD
ATOM     19  H   UNL A   1      31.641  29.580  24.850  1.00  0.00     0.346 HD
ENDBRANCH  15  16
ENDBRANCH  13  15
ENDBRANCH  11  13
ENDBRANCH   7  11
BRANCH   6  20
ATOM     20  C   UNL A   1      33.461  21.788  24.413  1.00  0.00     0.404 C 
ATOM     21  F   UNL A   1      34.106  22.280  23.321  1.00  0.00    -0.170 F 
ATOM     22  F   UNL A   1      33.965  20.554  24.629  1.00  0.00    -0.170 F 
ATOM     23  F   UNL A   1      32.164  21.668  24.054  1.00  0.00    -0.170 F 
ENDBRANCH   6  20
ENDBRANCH   3   6
ENDBRANCH   1   2
BRANCH   1  24
ATOM     24  C   UNL A   1      37.157  21.375  24.460  1.00  0.00     0.023 C 
BRANCH  24  25
ATOM     25  C   UNL A   1      37.800  20.103  25.001  1.00  0.00     0.023 C 
BRANCH  25  26
ATOM     26  C   UNL A   1      39.068  20.300  25.827  1.00  0.00     0.116 C 
BRANCH  26  27
ATOM     27  N   UNL A   1      40.022  19.203  25.751  1.00  0.00    -0.352 N 
ATOM     28  C   UNL A   1      41.384  19.206  25.976  1.00  0.00     0.251 C 
ATOM     29  H   UNL A   1      39.640  18.330  25.504  1.00  0.00     0.163 HD
ATOM     30  O   UNL A   1      42.033  18.184  25.823  1.00  0.00    -0.269 OA
BRANCH  28  31
ATOM     31  C   UNL A   1      42.065  20.470  26.345  1.00  0.00     0.039 A 
ATOM     32  C   UNL A   1      42.463  21.337  25.324  1.00  0.00     0.014 A 
ATOM     33  C   UNL A   1      42.258  20.825  27.679  1.00  0.00     0.014 A 
ATOM     34  C   UNL A   1      42.953  22.604  25.648  1.00  0.00     0.010 A 
ATOM     35  C   UNL A   1      42.651  22.120  27.999  1.00  0.00     0.010 A 
ATOM     36  C   UNL A   1      42.995  23.027  26.986  1.00  0.00    -0.014 A 
BRANCH  36  37
ATOM     37  C   UNL A   1      43.363  24.421  27.341  1.00  0.00     0.031 A 
ATOM     38  C   UNL A   1      44.794  24.876  27.275  1.00  0.00     0.074 A 
ATOM     39  C   UNL A   1      42.414  25.258  27.808  1.00  0.00     0.049 A 
ATOM     40  N   UNL A   1      45.305  26.042  27.580  1.00  0.00    -0.248 NA
ATOM     41  C   UNL A   1      45.788  23.879  26.850  1.00  0.00     0.031 C 
ATOM     42  C   UNL A   1      41.005  24.914  28.009  1.00  0.00     0.029 A 
ATOM     43  N   UNL A   1      42.494  26.570  28.205  1.00  0.00    -0.354 N 
ATOM     44  C   UNL A   1      46.677  25.911  27.406  1.00  0.00     0.074 A 
ATOM     45  C   UNL A   1      46.924  24.536  27.029  1.00  0.00     0.031 C 
ATOM     46  C   UNL A   1      40.347  25.995  28.456  1.00  0.00     0.029 A 
ATOM     47  C   UNL A   1      41.290  27.100  28.600  1.00  0.00     0.049 A 
ATOM     48  H   UNL A   1      43.334  27.082  28.206  1.00  0.00     0.167 HD
ATOM     49  C   UNL A   1      47.641  26.854  27.521  1.00  0.00     0.037 A 
ATOM     50  C   UNL A   1      40.976  28.339  29.021  1.00  0.00     0.037 A 
ATOM     51  C   UNL A   1      47.389  28.230  27.857  1.00  0.00     0.049 A 
ATOM     52  C   UNL A   1      42.050  29.388  29.084  1.00  0.00     0.074 A 
ATOM     53  C   UNL A   1      48.284  29.284  27.913  1.00  0.00     0.029 A 
ATOM     54  N   UNL A   1      46.146  28.743  28.198  1.00  0.00    -0.354 N 
ATOM     55  N   UNL A   1      43.329  29.274  28.820  1.00  0.00    -0.248 NA
ATOM     56  C   UNL A   1      41.636  30.738  29.487  1.00  0.00     0.031 C 
ATOM     57  C   UNL A   1      47.589  30.427  28.322  1.00  0.00     0.029 A 
ATOM     58  C   UNL A   1      46.253  30.094  28.481  1.00  0.00     0.049 A 
ATOM     59  H   UNL A   1      45.310  28.223  28.234  1.00  0.00     0.167 HD
ATOM     60  C   UNL A   1      43.869  30.541  29.000  1.00  0.00     0.074 A 
ATOM     61  C   UNL A   1      42.775  31.410  29.384  1.00  0.00     0.031 C 
ATOM     62  C   UNL A   1      45.154  30.947  28.858  1.00  0.00     0.037 A 
BRANCH  49  63
ATOM     63  C   UNL A   1      49.057  26.423  27.267  1.00  0.00     0.057 A 
ATOM     64  C   UNL A   1      49.600  26.390  25.976  1.00  0.00     0.134 A 
ATOM     65  C   UNL A   1      49.889  26.041  28.327  1.00  0.00     0.134 A 
ATOM     66  F   UNL A   1      48.851  26.731  24.915  1.00  0.00    -0.206 F 
ATOM     67  C   UNL A   1      50.905  25.955  25.742  1.00  0.00     0.040 A 
ATOM     68  C   UNL A   1      51.206  25.633  28.109  1.00  0.00     0.040 A 
ATOM     69  F   UNL A   1      49.437  26.056  29.589  1.00  0.00    -0.206 F 
ATOM     70  C   UNL A   1      51.715  25.579  26.813  1.00  0.00     0.006 A 
ENDBRANCH  49  63
BRANCH  50  71
ATOM     71  C   UNL A   1      39.569  28.666  29.358  1.00  0.00     0.057 A 
ATOM     72  C   UNL A   1      39.091  28.521  30.667  1.00  0.00     0.134 A 
ATOM     73  C   UNL A   1      38.679  29.156  28.396  1.00  0.00     0.134 A 
ATOM     74  F   UNL A   1      39.895  28.042  31.628  1.00  0.00    -0.206 F 
ATOM     75  C   UNL A   1      37.776  28.839  31.004  1.00  0.00     0.040 A 
ATOM     76  C   UNL A   1      37.366  29.499  28.724  1.00  0.00     0.040 A 
ATOM     77  F   UNL A   1      39.080  29.329  27.129  1.00  0.00    -0.206 F 
ATOM     78  C   UNL A   1      36.910  29.337  30.031  1.00  0.00     0.006 A 
ENDBRANCH  50  71
BRANCH  62  79
ATOM     79  C   UNL A   1      45.442  32.401  29.089  1.00  0.00     0.057 A 
ATOM     80  C   UNL A   1      45.838  32.886  30.340  1.00  0.00     0.134 A 
ATOM     81  C   UNL A   1      45.361  33.319  28.033  1.00  0.00     0.134 A 
ATOM     82  F   UNL A   1      45.923  32.060  31.395  1.00  0.00    -0.206 F 
ATOM     83  C   UNL A   1      46.123  34.238  30.541  1.00  0.00     0.040 A 
ATOM     84  C   UNL A   1      45.665  34.668  28.215  1.00  0.00     0.040 A 
ATOM     85  F   UNL A   1      44.995  32.916  26.806  1.00  0.00    -0.206 F 
ATOM     86  C   UNL A   1      46.043  35.131  29.474  1.00  0.00     0.006 A 
ENDBRANCH  62  79
ENDBRANCH  36  37
ENDBRANCH  28  31
ENDBRANCH  26  27
ENDBRANCH  25  26
ENDBRANCH  24  25
ENDBRANCH   1  24
TORSDOF 16
ENDMDL
MODEL 3
REMARK VINA RESULT:     -10.6      1.701      6.421
REMARK SMILES C[NH2+]C[C@H](C)C(=O)N1CC[C@@](C(=O)NCCCCNC(=O)c2ccc(-c3c4nc(c(-c5c(F)cccc5F)c5ccc([nH]5)c(-c5c(F)cccc5F)c5nc(c(-c6c(F)cccc6F)c6ccc3[nH]6)C=C5)C=C4)cc2)(C(F)(F)F)C1
REMARK SMILES IDX 15 1 14 2 12 3 13 4 11 6 8 7 9 8 80 9 10 10 6 11 7 12 4 13
REMARK SMILES IDX 5 14 3 15 2 16 1 17 76 20 77 21 78 22 79 23 16 24 17 25
REMARK SMILES IDX 18 26 19 27 20 28 21 30 22 31 23 32 75 33 24 34 74 35 25 36
REMARK SMILES IDX 26 37 27 38 68 39 28 40 73 41 67 42 69 43 29 44 72 45 66 46
REMARK SMILES IDX 65 47 30 49 56 50 39 51 55 52 40 53 43 54 54 55 70 56 41 57
REMARK SMILES IDX 42 58 53 60 71 61 44 62 31 63 32 64 37 65 33 66 34 67 36 68
REMARK SMILES IDX 38 69 35 70 57 71 58 72 63 73 59 74 60 75 62 76 64 77 61 78
REMARK SMILES IDX 45 79 46 80 51 81 47 82 48 83 50 84 52 85 49 86
REMARK H PARENT 14 5 2 18 2 19 19 29 69 48 43 59
REMARK Flexibility Score: inf
ROOT
ATOM      1  C   UNL A   1      36.786  22.837  25.538  1.00  0.00     0.116 C 
ENDROOT
BRANCH   1   2
ATOM      2  N   UNL A   1      35.888  22.179  26.467  1.00  0.00    -0.355 N 
ATOM      3  C   UNL A   1      34.530  22.205  26.606  1.00  0.00     0.237 C 
ATOM      4  O   UNL A   1      34.090  21.517  27.530  1.00  0.00    -0.274 OA
ATOM      5  H   UNL A   1      36.343  21.604  27.123  1.00  0.00     0.163 HD
BRANCH   3   6
ATOM      6  C   UNL A   1      33.616  23.031  25.709  1.00  0.00     0.163 C 
ATOM      7  N   UNL A   1      32.976  25.334  25.899  1.00  0.00    -0.341 N 
ATOM      8  C   UNL A   1      31.746  24.571  25.910  1.00  0.00     0.121 C 
ATOM      9  C   UNL A   1      34.106  24.470  25.551  1.00  0.00     0.146 C 
ATOM     10  C   UNL A   1      32.181  23.151  26.255  1.00  0.00     0.050 C 
BRANCH   7  11
ATOM     11  C   UNL A   1      33.184  26.686  26.042  1.00  0.00     0.231 C 
ATOM     12  O   UNL A   1      34.348  27.108  26.107  1.00  0.00    -0.274 OA
BRANCH  11  13
ATOM     13  C   UNL A   1      32.049  27.698  26.230  1.00  0.00     0.130 C 
ATOM     14  C   UNL A   1      31.754  28.237  27.622  1.00  0.00     0.024 C 
BRANCH  13  15
ATOM     15  C   UNL A   1      32.020  28.736  25.088  1.00  0.00     0.273 C 
BRANCH  15  16
ATOM     16  N   UNL A   1      33.295  29.234  24.574  1.00  0.00    -0.348 N 
ATOM     17  C   UNL A   1      33.538  28.877  23.196  1.00  0.00     0.330 C 
ATOM     18  H   UNL A   1      33.298  30.251  24.650  1.00  0.00     0.346 HD
ATOM     19  H   UNL A   1      34.033  28.804  25.131  1.00  0.00     0.346 HD
ENDBRANCH  15  16
ENDBRANCH  13  15
ENDBRANCH  11  13
ENDBRANCH   7  11
BRANCH   6  20
ATOM     20  C   UNL A   1      33.596  22.375  24.338  1.00  0.00     0.404 C 
ATOM     21  F   UNL A   1      32.320  22.293  23.875  1.00  0.00    -0.170 F 
ATOM     22  F   UNL A   1      34.291  23.073  23.414  1.00  0.00    -0.170 F 
ATOM     23  F   UNL A   1      34.063  21.108  24.364  1.00  0.00    -0.170 F 
ENDBRANCH   6  20
ENDBRANCH   3   6
ENDBRANCH   1   2
BRANCH   1  24
ATOM     24  C   UNL A   1      37.307  21.867  24.480  1.00  0.00     0.023 C 
BRANCH  24  25
ATOM     25  C   UNL A   1      37.785  20.518  25.005  1.00  0.00     0.023 C 
BRANCH  25  26
ATOM     26  C   UNL A   1      39.004  20.559  25.924  1.00  0.00     0.116 C 
BRANCH  26  27
ATOM     27  N   UNL A   1      39.898  19.416  25.802  1.00  0.00    -0.352 N 
ATOM     28  C   UNL A   1      41.265  19.349  25.975  1.00  0.00     0.251 C 
ATOM     29  H   UNL A   1      39.463  18.566  25.561  1.00  0.00     0.163 HD
ATOM     30  O   UNL A   1      41.856  18.297  25.788  1.00  0.00    -0.269 OA
BRANCH  28  31
ATOM     31  C   UNL A   1      42.022  20.572  26.330  1.00  0.00     0.039 A 
ATOM     32  C   UNL A   1      42.537  21.363  25.299  1.00  0.00     0.014 A 
ATOM     33  C   UNL A   1      42.174  20.969  27.658  1.00  0.00     0.014 A 
ATOM     34  C   UNL A   1      43.107  22.602  25.598  1.00  0.00     0.010 A 
ATOM     35  C   UNL A   1      42.650  22.244  27.946  1.00  0.00     0.010 A 
ATOM     36  C   UNL A   1      43.114  23.078  26.919  1.00  0.00    -0.014 A 
BRANCH  36  37
ATOM     37  C   UNL A   1      43.570  24.455  27.238  1.00  0.00     0.031 A 
ATOM     38  C   UNL A   1      42.590  25.500  27.694  1.00  0.00     0.074 A 
ATOM     39  C   UNL A   1      44.860  24.789  27.033  1.00  0.00     0.049 A 
ATOM     40  N   UNL A   1      42.801  26.759  27.982  1.00  0.00    -0.248 NA
ATOM     41  C   UNL A   1      41.183  25.088  27.800  1.00  0.00     0.031 C 
ATOM     42  C   UNL A   1      45.894  23.895  26.506  1.00  0.00     0.029 A 
ATOM     43  N   UNL A   1      45.522  25.974  27.239  1.00  0.00    -0.354 N 
ATOM     44  C   UNL A   1      41.553  27.292  28.280  1.00  0.00     0.074 A 
ATOM     45  C   UNL A   1      40.585  26.237  28.078  1.00  0.00     0.031 C 
ATOM     46  C   UNL A   1      47.064  24.552  26.464  1.00  0.00     0.029 A 
ATOM     47  C   UNL A   1      46.860  25.919  26.934  1.00  0.00     0.049 A 
ATOM     48  H   UNL A   1      45.079  26.787  27.574  1.00  0.00     0.167 HD
ATOM     49  C   UNL A   1      41.243  28.538  28.712  1.00  0.00     0.037 A 
ATOM     50  C   UNL A   1      47.818  26.858  27.030  1.00  0.00     0.037 A 
ATOM     51  C   UNL A   1      42.212  29.574  28.950  1.00  0.00     0.049 A 
ATOM     52  C   UNL A   1      47.465  28.215  27.568  1.00  0.00     0.074 A 
ATOM     53  C   UNL A   1      42.012  30.840  29.471  1.00  0.00     0.029 A 
ATOM     54  N   UNL A   1      43.568  29.462  28.681  1.00  0.00    -0.354 N 
ATOM     55  N   UNL A   1      46.296  28.675  27.941  1.00  0.00    -0.248 NA
ATOM     56  C   UNL A   1      48.565  29.178  27.713  1.00  0.00     0.031 C 
ATOM     57  C   UNL A   1      43.242  31.507  29.483  1.00  0.00     0.029 A 
ATOM     58  C   UNL A   1      44.215  30.641  29.010  1.00  0.00     0.049 A 
ATOM     59  H   UNL A   1      44.007  28.662  28.311  1.00  0.00     0.167 HD
ATOM     60  C   UNL A   1      46.521  29.971  28.388  1.00  0.00     0.074 A 
ATOM     61  C   UNL A   1      47.942  30.218  28.251  1.00  0.00     0.031 C 
ATOM     62  C   UNL A   1      45.631  30.872  28.871  1.00  0.00     0.037 A 
BRANCH  49  63
ATOM     63  C   UNL A   1      39.793  28.836  28.962  1.00  0.00     0.057 A 
ATOM     64  C   UNL A   1      39.214  28.680  30.228  1.00  0.00     0.134 A 
ATOM     65  C   UNL A   1      38.967  29.290  27.926  1.00  0.00     0.134 A 
ATOM     66  F   UNL A   1      39.947  28.236  31.261  1.00  0.00    -0.206 F 
ATOM     67  C   UNL A   1      37.858  28.927  30.448  1.00  0.00     0.040 A 
ATOM     68  C   UNL A   1      37.616  29.568  28.140  1.00  0.00     0.040 A 
ATOM     69  F   UNL A   1      39.458  29.468  26.691  1.00  0.00    -0.206 F 
ATOM     70  C   UNL A   1      37.055  29.376  29.401  1.00  0.00     0.006 A 
ENDBRANCH  49  63
BRANCH  50  71
ATOM     71  C   UNL A   1      49.216  26.523  26.663  1.00  0.00     0.057 A 
ATOM     72  C   UNL A   1      50.087  25.948  27.596  1.00  0.00     0.134 A 
ATOM     73  C   UNL A   1      49.707  26.740  25.370  1.00  0.00     0.134 A 
ATOM     74  F   UNL A   1      49.677  25.730  28.855  1.00  0.00    -0.206 F 
ATOM     75  C   UNL A   1      51.399  25.612  27.262  1.00  0.00     0.040 A 
ATOM     76  C   UNL A   1      51.010  26.389  25.016  1.00  0.00     0.040 A 
ATOM     77  F   UNL A   1      48.917  27.276  24.429  1.00  0.00    -0.206 F 
ATOM     78  C   UNL A   1      51.862  25.827  25.965  1.00  0.00     0.006 A 
ENDBRANCH  50  71
BRANCH  62  79
ATOM     79  C   UNL A   1      46.172  32.199  29.314  1.00  0.00     0.057 A 
ATOM     80  C   UNL A   1      46.240  33.296  28.448  1.00  0.00     0.134 A 
ATOM     81  C   UNL A   1      46.592  32.389  30.637  1.00  0.00     0.134 A 
ATOM     82  F   UNL A   1      45.864  33.175  27.166  1.00  0.00    -0.206 F 
ATOM     83  C   UNL A   1      46.728  34.532  28.876  1.00  0.00     0.040 A 
ATOM     84  C   UNL A   1      47.059  33.625  31.083  1.00  0.00     0.040 A 
ATOM     85  F   UNL A   1      46.545  31.379  31.519  1.00  0.00    -0.206 F 
ATOM     86  C   UNL A   1      47.132  34.700  30.199  1.00  0.00     0.006 A 
ENDBRANCH  62  79
ENDBRANCH  36  37
ENDBRANCH  28  31
ENDBRANCH  26  27
ENDBRANCH  25  26
ENDBRANCH  24  25
ENDBRANCH   1  24
TORSDOF 16
ENDMDL
