MODEL 1
REMARK VINA RESULT:     -11.0      0.000      0.000
REMARK SMILES CCOc1ccccc1NC(=O)N[C@@](C)(CC)C(=O)NCCCCNC(=O)c1ccc(-c2c3nc(c(-c4c(F)cccc4F)c4ccc([nH]4)c(-c4c(F)cccc4F)c4nc(c(-c5c(F)cccc5F)c5ccc2[nH]5)C=C4)C=C3)cc1
REMARK SMILES IDX 21 1 20 2 18 3 19 4 14 6 15 7 13 8 10 9 11 10 12 12 9 14
REMARK SMILES IDX 4 15 5 16 6 17 8 18 7 19 3 20 2 21 1 22 16 23 17 24 22 25
REMARK SMILES IDX 23 26 24 27 25 28 26 29 27 31 28 32 29 33 81 34 30 35 80 36
REMARK SMILES IDX 31 37 32 38 33 39 74 40 34 41 79 42 73 43 75 44 35 45 78 46
REMARK SMILES IDX 72 47 71 48 36 50 62 51 45 52 61 53 46 54 49 55 60 56 76 57
REMARK SMILES IDX 47 58 48 59 59 61 77 62 50 63 37 64 38 65 43 66 39 67 40 68
REMARK SMILES IDX 42 69 44 70 41 71 63 72 64 73 69 74 65 75 66 76 68 77 70 78
REMARK SMILES IDX 67 79 51 80 52 81 57 82 53 83 54 84 56 85 58 86 55 87
REMARK H PARENT 20 5 10 11 13 13 25 30 75 49 49 60
REMARK Flexibility Score: inf
ROOT
ATOM      1  C   UNL A   1      35.317  20.671  25.107  1.00  0.00     0.116 C 
ENDROOT
BRANCH   1   2
ATOM      2  N   UNL A   1      34.527  21.790  25.541  1.00  0.00    -0.354 N 
ATOM      3  C   UNL A   1      33.773  22.448  24.598  1.00  0.00     0.245 C 
ATOM      4  O   UNL A   1      33.273  21.828  23.655  1.00  0.00    -0.272 OA
ATOM      5  H   UNL A   1      34.526  22.076  26.483  1.00  0.00     0.163 HD
BRANCH   3   6
ATOM      6  C   UNL A   1      33.642  23.991  24.757  1.00  0.00     0.117 C 
ATOM      7  C   UNL A   1      35.140  24.416  24.922  1.00  0.00     0.045 C 
BRANCH   6   8
ATOM      8  N   UNL A   1      33.168  24.813  23.618  1.00  0.00    -0.324 N 
ATOM      9  N   UNL A   1      33.749  27.110  23.714  1.00  0.00    -0.305 N 
ATOM     10  C   UNL A   1      33.608  25.949  23.079  1.00  0.00     0.320 C 
ATOM     11  H   UNL A   1      34.396  27.696  23.258  1.00  0.00     0.172 HD
ATOM     12  O   UNL A   1      33.893  25.917  21.876  1.00  0.00    -0.248 OA
ATOM     13  H   UNL A   1      32.370  24.447  23.173  1.00  0.00     0.166 HD
BRANCH   9  14
ATOM     14  C   UNL A   1      33.223  27.722  24.859  1.00  0.00     0.085 A 
ATOM     15  C   UNL A   1      32.108  28.549  24.659  1.00  0.00     0.142 A 
ATOM     16  C   UNL A   1      31.657  29.424  25.644  1.00  0.00     0.048 A 
ATOM     17  C   UNL A   1      32.235  29.365  26.907  1.00  0.00     0.004 A 
ATOM     18  C   UNL A   1      33.662  27.542  26.158  1.00  0.00     0.030 A 
ATOM     19  C   UNL A   1      33.192  28.384  27.177  1.00  0.00     0.002 A 
BRANCH  15  20
ATOM     20  O   UNL A   1      31.394  28.433  23.486  1.00  0.00    -0.492 OA
BRANCH  20  21
ATOM     21  C   UNL A   1      30.035  28.043  23.792  1.00  0.00     0.226 C 
ATOM     22  C   UNL A   1      29.928  26.542  24.026  1.00  0.00     0.049 C 
ENDBRANCH  20  21
ENDBRANCH  15  20
ENDBRANCH   9  14
ENDBRANCH   6   8
BRANCH   6  23
ATOM     23  C   UNL A   1      32.974  24.345  26.127  1.00  0.00     0.035 C 
ATOM     24  C   UNL A   1      31.494  24.036  26.314  1.00  0.00     0.007 C 
ENDBRANCH   6  23
ENDBRANCH   3   6
ENDBRANCH   1   2
BRANCH   1  25
ATOM     25  C   UNL A   1      36.715  21.062  24.653  1.00  0.00     0.023 C 
BRANCH  25  26
ATOM     26  C   UNL A   1      37.764  19.968  24.832  1.00  0.00     0.023 C 
BRANCH  26  27
ATOM     27  C   UNL A   1      38.897  20.303  25.799  1.00  0.00     0.116 C 
BRANCH  27  28
ATOM     28  N   UNL A   1      39.992  19.340  25.766  1.00  0.00    -0.352 N 
ATOM     29  C   UNL A   1      41.317  19.498  26.078  1.00  0.00     0.251 C 
ATOM     30  H   UNL A   1      39.739  18.435  25.474  1.00  0.00     0.163 HD
ATOM     31  O   UNL A   1      42.112  18.583  25.880  1.00  0.00    -0.269 OA
BRANCH  29  32
ATOM     32  C   UNL A   1      41.796  20.785  26.614  1.00  0.00     0.039 A 
ATOM     33  C   UNL A   1      42.270  21.747  25.720  1.00  0.00     0.014 A 
ATOM     34  C   UNL A   1      41.760  21.051  27.985  1.00  0.00     0.014 A 
ATOM     35  C   UNL A   1      42.632  23.008  26.195  1.00  0.00     0.010 A 
ATOM     36  C   UNL A   1      42.046  22.333  28.447  1.00  0.00     0.010 A 
ATOM     37  C   UNL A   1      42.480  23.325  27.554  1.00  0.00    -0.014 A 
BRANCH  37  38
ATOM     38  C   UNL A   1      42.764  24.695  28.052  1.00  0.00     0.031 A 
ATOM     39  C   UNL A   1      44.166  25.093  28.419  1.00  0.00     0.074 A 
ATOM     40  C   UNL A   1      41.748  25.568  28.209  1.00  0.00     0.049 A 
ATOM     41  N   UNL A   1      44.598  26.225  28.914  1.00  0.00    -0.248 NA
ATOM     42  C   UNL A   1      45.218  24.083  28.223  1.00  0.00     0.031 C 
ATOM     43  C   UNL A   1      40.339  25.291  27.924  1.00  0.00     0.029 A 
ATOM     44  N   UNL A   1      41.746  26.868  28.653  1.00  0.00    -0.354 N 
ATOM     45  C   UNL A   1      45.967  26.065  29.084  1.00  0.00     0.074 A 
ATOM     46  C   UNL A   1      46.285  24.707  28.699  1.00  0.00     0.031 C 
ATOM     47  C   UNL A   1      39.614  26.393  28.175  1.00  0.00     0.029 A 
ATOM     48  C   UNL A   1      40.497  27.440  28.679  1.00  0.00     0.049 A 
ATOM     49  H   UNL A   1      42.563  27.344  28.927  1.00  0.00     0.167 HD
ATOM     50  C   UNL A   1      46.882  26.975  29.495  1.00  0.00     0.037 A 
ATOM     51  C   UNL A   1      40.107  28.667  29.074  1.00  0.00     0.037 A 
ATOM     52  C   UNL A   1      46.567  28.330  29.867  1.00  0.00     0.049 A 
ATOM     53  C   UNL A   1      41.142  29.642  29.567  1.00  0.00     0.074 A 
ATOM     54  C   UNL A   1      47.431  29.333  30.272  1.00  0.00     0.029 A 
ATOM     55  N   UNL A   1      45.292  28.871  29.878  1.00  0.00    -0.354 N 
ATOM     56  N   UNL A   1      42.440  29.493  29.666  1.00  0.00    -0.248 NA
ATOM     57  C   UNL A   1      40.656  30.961  29.997  1.00  0.00     0.031 C 
ATOM     58  C   UNL A   1      46.673  30.470  30.569  1.00  0.00     0.029 A 
ATOM     59  C   UNL A   1      45.344  30.190  30.298  1.00  0.00     0.049 A 
ATOM     60  H   UNL A   1      44.471  28.391  29.624  1.00  0.00     0.167 HD
ATOM     61  C   UNL A   1      42.927  30.707  30.133  1.00  0.00     0.074 A 
ATOM     62  C   UNL A   1      41.788  31.587  30.282  1.00  0.00     0.031 C 
ATOM     63  C   UNL A   1      44.204  31.062  30.419  1.00  0.00     0.037 A 
BRANCH  50  64
ATOM     64  C   UNL A   1      48.318  26.544  29.548  1.00  0.00     0.057 A 
ATOM     65  C   UNL A   1      49.189  26.770  28.475  1.00  0.00     0.134 A 
ATOM     66  C   UNL A   1      48.852  25.962  30.703  1.00  0.00     0.134 A 
ATOM     67  F   UNL A   1      48.738  27.314  27.334  1.00  0.00    -0.206 F 
ATOM     68  C   UNL A   1      50.538  26.420  28.544  1.00  0.00     0.040 A 
ATOM     69  C   UNL A   1      50.205  25.632  30.795  1.00  0.00     0.040 A 
ATOM     70  F   UNL A   1      48.073  25.724  31.770  1.00  0.00    -0.206 F 
ATOM     71  C   UNL A   1      51.053  25.859  29.712  1.00  0.00     0.006 A 
ENDBRANCH  50  64
BRANCH  51  72
ATOM     72  C   UNL A   1      38.674  29.058  29.025  1.00  0.00     0.057 A 
ATOM     73  C   UNL A   1      38.107  29.590  27.861  1.00  0.00     0.134 A 
ATOM     74  C   UNL A   1      37.851  28.963  30.155  1.00  0.00     0.134 A 
ATOM     75  F   UNL A   1      38.847  29.724  26.751  1.00  0.00    -0.206 F 
ATOM     76  C   UNL A   1      36.789  30.051  27.831  1.00  0.00     0.040 A 
ATOM     77  C   UNL A   1      36.523  29.391  30.131  1.00  0.00     0.040 A 
ATOM     78  F   UNL A   1      38.328  28.455  31.300  1.00  0.00    -0.206 F 
ATOM     79  C   UNL A   1      35.993  29.952  28.970  1.00  0.00     0.006 A 
ENDBRANCH  51  72
BRANCH  63  80
ATOM     80  C   UNL A   1      44.444  32.475  30.866  1.00  0.00     0.057 A 
ATOM     81  C   UNL A   1      44.454  32.832  32.220  1.00  0.00     0.134 A 
ATOM     82  C   UNL A   1      44.701  33.484  29.928  1.00  0.00     0.134 A 
ATOM     83  F   UNL A   1      44.203  31.917  33.168  1.00  0.00    -0.206 F 
ATOM     84  C   UNL A   1      44.686  34.149  32.624  1.00  0.00     0.040 A 
ATOM     85  C   UNL A   1      44.964  34.795  30.322  1.00  0.00     0.040 A 
ATOM     86  F   UNL A   1      44.715  33.206  28.616  1.00  0.00    -0.206 F 
ATOM     87  C   UNL A   1      44.949  35.133  31.673  1.00  0.00     0.006 A 
ENDBRANCH  63  80
ENDBRANCH  37  38
ENDBRANCH  29  32
ENDBRANCH  27  28
ENDBRANCH  26  27
ENDBRANCH  25  26
ENDBRANCH   1  25
TORSDOF 16
ENDMDL
MODEL 2
REMARK VINA RESULT:     -10.9      1.340      2.010
REMARK SMILES CCOc1ccccc1NC(=O)N[C@@](C)(CC)C(=O)NCCCCNC(=O)c1ccc(-c2c3nc(c(-c4c(F)cccc4F)c4ccc([nH]4)c(-c4c(F)cccc4F)c4nc(c(-c5c(F)cccc5F)c5ccc2[nH]5)C=C4)C=C3)cc1
REMARK SMILES IDX 21 1 20 2 18 3 19 4 14 6 15 7 13 8 10 9 11 10 12 12 9 14
REMARK SMILES IDX 4 15 5 16 6 17 8 18 7 19 3 20 2 21 1 22 16 23 17 24 22 25
REMARK SMILES IDX 23 26 24 27 25 28 26 29 27 31 28 32 29 33 81 34 30 35 80 36
REMARK SMILES IDX 31 37 32 38 33 39 74 40 34 41 79 42 73 43 75 44 35 45 78 46
REMARK SMILES IDX 72 47 71 48 36 50 62 51 45 52 61 53 46 54 49 55 60 56 76 57
REMARK SMILES IDX 47 58 48 59 59 61 77 62 50 63 37 64 38 65 43 66 39 67 40 68
REMARK SMILES IDX 42 69 44 70 41 71 63 72 64 73 69 74 65 75 66 76 68 77 70 78
REMARK SMILES IDX 67 79 51 80 52 81 57 82 53 83 54 84 56 85 58 86 55 87
REMARK H PARENT 20 5 10 11 13 13 25 30 75 49 49 60
REMARK Flexibility Score: inf
ROOT
ATOM      1  C   UNL A   1      35.244  20.040  25.057  1.00  0.00     0.116 C 
ENDROOT
BRANCH   1   2
ATOM      2  N   UNL A   1      34.268  20.953  25.584  1.00  0.00    -0.354 N 
ATOM      3  C   UNL A   1      33.320  21.449  24.721  1.00  0.00     0.245 C 
ATOM      4  O   UNL A   1      32.895  20.753  23.794  1.00  0.00    -0.272 OA
ATOM      5  H   UNL A   1      34.278  21.214  26.533  1.00  0.00     0.163 HD
BRANCH   3   6
ATOM      6  C   UNL A   1      32.874  22.924  24.941  1.00  0.00     0.117 C 
ATOM      7  C   UNL A   1      31.691  23.048  23.923  1.00  0.00     0.045 C 
BRANCH   6   8
ATOM      8  N   UNL A   1      32.269  23.327  26.233  1.00  0.00    -0.324 N 
ATOM      9  N   UNL A   1      31.083  25.380  26.201  1.00  0.00    -0.305 N 
ATOM     10  C   UNL A   1      31.229  24.102  26.542  1.00  0.00     0.320 C 
ATOM     11  H   UNL A   1      30.136  25.650  26.211  1.00  0.00     0.172 HD
ATOM     12  O   UNL A   1      30.335  23.583  27.219  1.00  0.00    -0.248 OA
ATOM     13  H   UNL A   1      32.725  22.947  27.018  1.00  0.00     0.166 HD
BRANCH   9  14
ATOM     14  C   UNL A   1      31.914  26.444  25.832  1.00  0.00     0.085 A 
ATOM     15  C   UNL A   1      31.939  26.764  24.467  1.00  0.00     0.142 A 
ATOM     16  C   UNL A   1      32.911  27.603  23.927  1.00  0.00     0.048 A 
ATOM     17  C   UNL A   1      33.783  28.258  24.789  1.00  0.00     0.004 A 
ATOM     18  C   UNL A   1      32.657  27.237  26.689  1.00  0.00     0.030 A 
ATOM     19  C   UNL A   1      33.614  28.121  26.169  1.00  0.00     0.002 A 
BRANCH  15  20
ATOM     20  O   UNL A   1      30.930  26.297  23.654  1.00  0.00    -0.492 OA
BRANCH  20  21
ATOM     21  C   UNL A   1      30.520  27.350  22.750  1.00  0.00     0.226 C 
ATOM     22  C   UNL A   1      29.504  28.278  23.402  1.00  0.00     0.049 C 
ENDBRANCH  20  21
ENDBRANCH  15  20
ENDBRANCH   9  14
ENDBRANCH   6   8
BRANCH   6  23
ATOM     23  C   UNL A   1      33.965  23.911  24.407  1.00  0.00     0.035 C 
ATOM     24  C   UNL A   1      34.960  24.499  25.399  1.00  0.00     0.007 C 
ENDBRANCH   6  23
ENDBRANCH   3   6
ENDBRANCH   1   2
BRANCH   1  25
ATOM     25  C   UNL A   1      36.635  20.642  24.950  1.00  0.00     0.023 C 
BRANCH  25  26
ATOM     26  C   UNL A   1      37.769  19.621  24.990  1.00  0.00     0.023 C 
BRANCH  26  27
ATOM     27  C   UNL A   1      39.003  20.048  25.783  1.00  0.00     0.116 C 
BRANCH  27  28
ATOM     28  N   UNL A   1      40.064  19.047  25.786  1.00  0.00    -0.352 N 
ATOM     29  C   UNL A   1      41.404  19.183  26.039  1.00  0.00     0.251 C 
ATOM     30  H   UNL A   1      39.773  18.132  25.575  1.00  0.00     0.163 HD
ATOM     31  O   UNL A   1      42.162  18.229  25.885  1.00  0.00    -0.269 OA
BRANCH  29  32
ATOM     32  C   UNL A   1      41.944  20.490  26.457  1.00  0.00     0.039 A 
ATOM     33  C   UNL A   1      42.426  21.359  25.476  1.00  0.00     0.014 A 
ATOM     34  C   UNL A   1      41.955  20.867  27.802  1.00  0.00     0.014 A 
ATOM     35  C   UNL A   1      42.846  22.639  25.837  1.00  0.00     0.010 A 
ATOM     36  C   UNL A   1      42.300  22.170  28.150  1.00  0.00     0.010 A 
ATOM     37  C   UNL A   1      42.744  23.070  27.170  1.00  0.00    -0.014 A 
BRANCH  37  38
ATOM     38  C   UNL A   1      43.090  24.464  27.547  1.00  0.00     0.031 A 
ATOM     39  C   UNL A   1      44.526  24.906  27.582  1.00  0.00     0.074 A 
ATOM     40  C   UNL A   1      42.109  25.320  27.896  1.00  0.00     0.049 A 
ATOM     41  N   UNL A   1      45.023  26.065  27.932  1.00  0.00    -0.248 NA
ATOM     42  C   UNL A   1      45.538  23.912  27.191  1.00  0.00     0.031 C 
ATOM     43  C   UNL A   1      40.680  25.003  27.939  1.00  0.00     0.029 A 
ATOM     44  N   UNL A   1      42.166  26.636  28.287  1.00  0.00    -0.354 N 
ATOM     45  C   UNL A   1      46.400  25.940  27.800  1.00  0.00     0.074 A 
ATOM     46  C   UNL A   1      46.666  24.576  27.399  1.00  0.00     0.031 C 
ATOM     47  C   UNL A   1      39.996  26.098  28.307  1.00  0.00     0.029 A 
ATOM     48  C   UNL A   1      40.937  27.182  28.569  1.00  0.00     0.049 A 
ATOM     49  H   UNL A   1      43.009  27.140  28.357  1.00  0.00     0.167 HD
ATOM     50  C   UNL A   1      47.356  26.885  27.969  1.00  0.00     0.037 A 
ATOM     51  C   UNL A   1      40.608  28.415  29.000  1.00  0.00     0.037 A 
ATOM     52  C   UNL A   1      47.091  28.246  28.356  1.00  0.00     0.049 A 
ATOM     53  C   UNL A   1      41.697  29.430  29.220  1.00  0.00     0.074 A 
ATOM     54  C   UNL A   1      47.993  29.282  28.527  1.00  0.00     0.029 A 
ATOM     55  N   UNL A   1      45.834  28.760  28.631  1.00  0.00    -0.354 N 
ATOM     56  N   UNL A   1      42.990  29.313  29.035  1.00  0.00    -0.248 NA
ATOM     57  C   UNL A   1      41.280  30.754  29.703  1.00  0.00     0.031 C 
ATOM     58  C   UNL A   1      47.286  30.413  28.946  1.00  0.00     0.029 A 
ATOM     59  C   UNL A   1      45.939  30.095  28.986  1.00  0.00     0.049 A 
ATOM     60  H   UNL A   1      44.992  28.253  28.581  1.00  0.00     0.167 HD
ATOM     61  C   UNL A   1      43.531  30.554  29.342  1.00  0.00     0.074 A 
ATOM     62  C   UNL A   1      42.428  31.414  29.710  1.00  0.00     0.031 C 
ATOM     63  C   UNL A   1      44.828  30.947  29.326  1.00  0.00     0.037 A 
BRANCH  50  64
ATOM     64  C   UNL A   1      48.780  26.487  27.717  1.00  0.00     0.057 A 
ATOM     65  C   UNL A   1      49.615  26.057  28.756  1.00  0.00     0.134 A 
ATOM     66  C   UNL A   1      49.303  26.468  26.418  1.00  0.00     0.134 A 
ATOM     67  F   UNL A   1      49.179  26.061  30.025  1.00  0.00    -0.206 F 
ATOM     68  C   UNL A   1      50.922  25.634  28.515  1.00  0.00     0.040 A 
ATOM     69  C   UNL A   1      50.600  26.022  26.161  1.00  0.00     0.040 A 
ATOM     70  F   UNL A   1      48.555  26.862  25.376  1.00  0.00    -0.206 F 
ATOM     71  C   UNL A   1      51.415  25.605  27.211  1.00  0.00     0.006 A 
ENDBRANCH  50  64
BRANCH  51  72
ATOM     72  C   UNL A   1      39.189  28.773  29.257  1.00  0.00     0.057 A 
ATOM     73  C   UNL A   1      38.406  29.386  28.270  1.00  0.00     0.134 A 
ATOM     74  C   UNL A   1      38.596  28.565  30.509  1.00  0.00     0.134 A 
ATOM     75  F   UNL A   1      38.920  29.630  27.056  1.00  0.00    -0.206 F 
ATOM     76  C   UNL A   1      37.103  29.815  28.530  1.00  0.00     0.040 A 
ATOM     77  C   UNL A   1      37.284  28.960  30.773  1.00  0.00     0.040 A 
ATOM     78  F   UNL A   1      39.287  27.975  31.495  1.00  0.00    -0.206 F 
ATOM     79  C   UNL A   1      36.539  29.602  29.786  1.00  0.00     0.006 A 
ENDBRANCH  51  72
BRANCH  63  80
ATOM     80  C   UNL A   1      45.120  32.380  29.663  1.00  0.00     0.057 A 
ATOM     81  C   UNL A   1      45.454  32.784  30.962  1.00  0.00     0.134 A 
ATOM     82  C   UNL A   1      45.098  33.363  28.665  1.00  0.00     0.134 A 
ATOM     83  F   UNL A   1      45.481  31.895  31.966  1.00  0.00    -0.206 F 
ATOM     84  C   UNL A   1      45.730  34.120  31.260  1.00  0.00     0.040 A 
ATOM     85  C   UNL A   1      45.401  34.695  28.946  1.00  0.00     0.040 A 
ATOM     86  F   UNL A   1      44.795  33.042  27.398  1.00  0.00    -0.206 F 
ATOM     87  C   UNL A   1      45.711  35.078  30.249  1.00  0.00     0.006 A 
ENDBRANCH  63  80
ENDBRANCH  37  38
ENDBRANCH  29  32
ENDBRANCH  27  28
ENDBRANCH  26  27
ENDBRANCH  25  26
ENDBRANCH   1  25
TORSDOF 16
ENDMDL
MODEL 3
REMARK VINA RESULT:     -10.8      1.575      6.390
REMARK SMILES CCOc1ccccc1NC(=O)N[C@@](C)(CC)C(=O)NCCCCNC(=O)c1ccc(-c2c3nc(c(-c4c(F)cccc4F)c4ccc([nH]4)c(-c4c(F)cccc4F)c4nc(c(-c5c(F)cccc5F)c5ccc2[nH]5)C=C4)C=C3)cc1
REMARK SMILES IDX 21 1 20 2 18 3 19 4 14 6 15 7 13 8 10 9 11 10 12 12 9 14
REMARK SMILES IDX 4 15 5 16 6 17 8 18 7 19 3 20 2 21 1 22 16 23 17 24 22 25
REMARK SMILES IDX 23 26 24 27 25 28 26 29 27 31 28 32 29 33 81 34 30 35 80 36
REMARK SMILES IDX 31 37 32 38 33 39 74 40 34 41 79 42 73 43 75 44 35 45 78 46
REMARK SMILES IDX 72 47 71 48 36 50 62 51 45 52 61 53 46 54 49 55 60 56 76 57
REMARK SMILES IDX 47 58 48 59 59 61 77 62 50 63 37 64 38 65 43 66 39 67 40 68
REMARK SMILES IDX 42 69 44 70 41 71 63 72 64 73 69 74 65 75 66 76 68 77 70 78
REMARK SMILES IDX 67 79 51 80 52 81 57 82 53 83 54 84 56 85 58 86 55 87
REMARK H PARENT 20 5 10 11 13 13 25 30 75 49 49 60
REMARK Flexibility Score: inf
ROOT
ATOM      1  C   UNL A   1      35.814  21.429  25.506  1.00  0.00     0.116 C 
ENDROOT
BRANCH   1   2
ATOM      2  N   UNL A   1      34.824  22.286  24.914  1.00  0.00    -0.354 N 
ATOM      3  C   UNL A   1      34.999  23.645  25.030  1.00  0.00     0.245 C 
ATOM      4  O   UNL A   1      36.134  24.130  25.031  1.00  0.00    -0.272 OA
ATOM      5  H   UNL A   1      34.046  21.912  24.441  1.00  0.00     0.163 HD
BRANCH   3   6
ATOM      6  C   UNL A   1      33.714  24.504  25.215  1.00  0.00     0.117 C 
ATOM      7  C   UNL A   1      32.773  23.898  24.119  1.00  0.00     0.045 C 
BRANCH   6   8
ATOM      8  N   UNL A   1      32.921  24.386  26.461  1.00  0.00    -0.324 N 
ATOM      9  N   UNL A   1      30.929  25.672  26.521  1.00  0.00    -0.305 N 
ATOM     10  C   UNL A   1      31.627  24.558  26.729  1.00  0.00     0.320 C 
ATOM     11  H   UNL A   1      29.965  25.487  26.448  1.00  0.00     0.172 HD
ATOM     12  O   UNL A   1      31.033  23.596  27.230  1.00  0.00    -0.248 OA
ATOM     13  H   UNL A   1      33.457  24.132  27.247  1.00  0.00     0.166 HD
BRANCH   9  14
ATOM     14  C   UNL A   1      31.200  27.039  26.379  1.00  0.00     0.085 A 
ATOM     15  C   UNL A   1      30.868  27.608  25.141  1.00  0.00     0.142 A 
ATOM     16  C   UNL A   1      31.325  28.870  24.767  1.00  0.00     0.048 A 
ATOM     17  C   UNL A   1      31.999  29.643  25.706  1.00  0.00     0.004 A 
ATOM     18  C   UNL A   1      31.702  27.879  27.356  1.00  0.00     0.030 A 
ATOM     19  C   UNL A   1      32.131  29.170  27.014  1.00  0.00     0.002 A 
BRANCH  15  20
ATOM     20  O   UNL A   1      30.004  26.934  24.307  1.00  0.00    -0.492 OA
BRANCH  20  21
ATOM     21  C   UNL A   1      29.688  27.771  23.170  1.00  0.00     0.226 C 
ATOM     22  C   UNL A   1      28.212  28.146  23.149  1.00  0.00     0.049 C 
ENDBRANCH  20  21
ENDBRANCH  15  20
ENDBRANCH   9  14
ENDBRANCH   6   8
BRANCH   6  23
ATOM     23  C   UNL A   1      33.969  25.976  24.751  1.00  0.00     0.035 C 
ATOM     24  C   UNL A   1      33.627  26.354  23.315  1.00  0.00     0.007 C 
ENDBRANCH   6  23
ENDBRANCH   3   6
ENDBRANCH   1   2
BRANCH   1  25
ATOM     25  C   UNL A   1      36.938  21.060  24.552  1.00  0.00     0.023 C 
BRANCH  25  26
ATOM     26  C   UNL A   1      37.799  19.888  25.016  1.00  0.00     0.023 C 
BRANCH  26  27
ATOM     27  C   UNL A   1      39.067  20.270  25.776  1.00  0.00     0.116 C 
BRANCH  27  28
ATOM     28  N   UNL A   1      40.063  19.205  25.816  1.00  0.00    -0.352 N 
ATOM     29  C   UNL A   1      41.406  19.263  26.082  1.00  0.00     0.251 C 
ATOM     30  H   UNL A   1      39.716  18.305  25.623  1.00  0.00     0.163 HD
ATOM     31  O   UNL A   1      42.104  18.259  25.960  1.00  0.00    -0.269 OA
BRANCH  29  32
ATOM     32  C   UNL A   1      42.022  20.542  26.477  1.00  0.00     0.039 A 
ATOM     33  C   UNL A   1      42.522  21.380  25.477  1.00  0.00     0.014 A 
ATOM     34  C   UNL A   1      42.089  20.925  27.819  1.00  0.00     0.014 A 
ATOM     35  C   UNL A   1      43.016  22.639  25.819  1.00  0.00     0.010 A 
ATOM     36  C   UNL A   1      42.509  22.211  28.149  1.00  0.00     0.010 A 
ATOM     37  C   UNL A   1      42.972  23.082  27.150  1.00  0.00    -0.014 A 
BRANCH  37  38
ATOM     38  C   UNL A   1      43.398  24.458  27.509  1.00  0.00     0.031 A 
ATOM     39  C   UNL A   1      42.378  25.489  27.903  1.00  0.00     0.074 A 
ATOM     40  C   UNL A   1      44.703  24.789  27.440  1.00  0.00     0.049 A 
ATOM     41  N   UNL A   1      42.555  26.751  28.203  1.00  0.00    -0.248 NA
ATOM     42  C   UNL A   1      40.974  25.052  27.951  1.00  0.00     0.031 C 
ATOM     43  C   UNL A   1      45.787  23.890  27.035  1.00  0.00     0.029 A 
ATOM     44  N   UNL A   1      45.342  25.975  27.706  1.00  0.00    -0.354 N 
ATOM     45  C   UNL A   1      41.290  27.255  28.477  1.00  0.00     0.074 A 
ATOM     46  C   UNL A   1      40.348  26.181  28.248  1.00  0.00     0.031 C 
ATOM     47  C   UNL A   1      46.955  24.549  27.104  1.00  0.00     0.029 A 
ATOM     48  C   UNL A   1      46.702  25.926  27.515  1.00  0.00     0.049 A 
ATOM     49  H   UNL A   1      44.869  26.785  28.005  1.00  0.00     0.167 HD
ATOM     50  C   UNL A   1      40.947  28.492  28.909  1.00  0.00     0.037 A 
ATOM     51  C   UNL A   1      47.638  26.885  27.648  1.00  0.00     0.037 A 
ATOM     52  C   UNL A   1      41.885  29.557  29.148  1.00  0.00     0.049 A 
ATOM     53  C   UNL A   1      47.219  28.262  28.088  1.00  0.00     0.074 A 
ATOM     54  C   UNL A   1      41.634  30.837  29.611  1.00  0.00     0.029 A 
ATOM     55  N   UNL A   1      43.253  29.466  28.945  1.00  0.00    -0.354 N 
ATOM     56  N   UNL A   1      46.025  28.706  28.399  1.00  0.00    -0.248 NA
ATOM     57  C   UNL A   1      48.281  29.272  28.202  1.00  0.00     0.031 C 
ATOM     58  C   UNL A   1      42.845  31.535  29.648  1.00  0.00     0.029 A 
ATOM     59  C   UNL A   1      43.856  30.673  29.258  1.00  0.00     0.049 A 
ATOM     60  H   UNL A   1      43.726  28.664  28.626  1.00  0.00     0.167 HD
ATOM     61  C   UNL A   1      46.200  30.030  28.779  1.00  0.00     0.074 A 
ATOM     62  C   UNL A   1      47.615  30.313  28.677  1.00  0.00     0.031 C 
ATOM     63  C   UNL A   1      45.270  30.934  29.175  1.00  0.00     0.037 A 
BRANCH  50  64
ATOM     64  C   UNL A   1      39.494  28.760  29.171  1.00  0.00     0.057 A 
ATOM     65  C   UNL A   1      38.928  28.552  30.435  1.00  0.00     0.134 A 
ATOM     66  C   UNL A   1      38.670  29.293  28.173  1.00  0.00     0.134 A 
ATOM     67  F   UNL A   1      39.661  28.032  31.431  1.00  0.00    -0.206 F 
ATOM     68  C   UNL A   1      37.590  28.853  30.694  1.00  0.00     0.040 A 
ATOM     69  C   UNL A   1      37.338  29.623  28.427  1.00  0.00     0.040 A 
ATOM     70  F   UNL A   1      39.150  29.523  26.941  1.00  0.00    -0.206 F 
ATOM     71  C   UNL A   1      36.793  29.401  29.690  1.00  0.00     0.006 A 
ENDBRANCH  50  64
BRANCH  51  72
ATOM     72  C   UNL A   1      49.067  26.593  27.364  1.00  0.00     0.057 A 
ATOM     73  C   UNL A   1      49.613  26.814  26.094  1.00  0.00     0.134 A 
ATOM     74  C   UNL A   1      49.906  26.033  28.336  1.00  0.00     0.134 A 
ATOM     75  F   UNL A   1      48.857  27.330  25.115  1.00  0.00    -0.206 F 
ATOM     76  C   UNL A   1      50.927  26.452  25.788  1.00  0.00     0.040 A 
ATOM     77  C   UNL A   1      51.231  25.695  28.053  1.00  0.00     0.040 A 
ATOM     78  F   UNL A   1      49.449  25.804  29.575  1.00  0.00    -0.206 F 
ATOM     79  C   UNL A   1      51.740  25.891  26.771  1.00  0.00     0.006 A 
ENDBRANCH  51  72
BRANCH  63  80
ATOM     80  C   UNL A   1      45.759  32.295  29.578  1.00  0.00     0.057 A 
ATOM     81  C   UNL A   1      46.157  32.582  30.889  1.00  0.00     0.134 A 
ATOM     82  C   UNL A   1      45.864  33.322  28.630  1.00  0.00     0.134 A 
ATOM     83  F   UNL A   1      46.070  31.647  31.847  1.00  0.00    -0.206 F 
ATOM     84  C   UNL A   1      46.617  33.850  31.249  1.00  0.00     0.040 A 
ATOM     85  C   UNL A   1      46.350  34.583  28.972  1.00  0.00     0.040 A 
ATOM     86  F   UNL A   1      45.509  33.110  27.354  1.00  0.00    -0.206 F 
ATOM     87  C   UNL A   1      46.721  34.853  30.287  1.00  0.00     0.006 A 
ENDBRANCH  63  80
ENDBRANCH  37  38
ENDBRANCH  29  32
ENDBRANCH  27  28
ENDBRANCH  26  27
ENDBRANCH  25  26
ENDBRANCH   1  25
TORSDOF 16
ENDMDL
