MODEL 1
REMARK VINA RESULT:     -12.8      0.000      0.000
REMARK SMILES CCn1ccc2ccc(C[NH+]3CCC4(CC3)C[C@H](C(=O)NCCCCNC(=O)c3ccc(-c5c6nc(c(-c7c(F)cccc7F)c7ccc([nH]7)c(-c7c(F)cccc7F)c7nc(c(-c8c(F)cccc8F)c8ccc5[nH]8)C=C7)C=C6)cc3)N(C(C)=O)C4)cc21
REMARK SMILES IDX 23 1 22 2 21 3 19 4 20 5 18 7 11 8 12 9 16 10 13 12 15 13
REMARK SMILES IDX 14 14 17 15 87 16 83 17 10 18 9 19 3 20 4 21 89 22 5 23 6 24
REMARK SMILES IDX 88 25 7 26 8 27 2 28 1 29 84 30 85 31 86 32 24 33 25 34
REMARK SMILES IDX 26 35 27 36 28 38 29 39 30 40 82 41 31 42 81 43 32 44 33 45
REMARK SMILES IDX 34 46 75 47 35 48 80 49 74 50 76 51 36 52 79 53 73 54 72 55
REMARK SMILES IDX 37 57 63 58 46 59 62 60 47 61 50 62 61 63 77 64 48 65 49 66
REMARK SMILES IDX 60 68 78 69 51 70 38 71 39 72 44 73 40 74 41 75 43 76 45 77
REMARK SMILES IDX 42 78 64 79 65 80 70 81 66 82 67 83 69 84 71 85 68 86 52 87
REMARK SMILES IDX 53 88 58 89 54 90 55 91 57 92 59 93 56 94
REMARK H PARENT 21 6 11 11 26 37 76 56 50 67
REMARK Flexibility Score: inf
ROOT
ATOM      1  C   UNL A   1      33.613  28.900  26.659  1.00  0.00     0.023 C 
ENDROOT
BRANCH   1   2
ATOM      2  C   UNL A   1      32.773  29.714  25.689  1.00  0.00     0.116 C 
BRANCH   2   3
ATOM      3  N   UNL A   1      33.299  29.675  24.331  1.00  0.00    -0.354 N 
ATOM      4  C   UNL A   1      33.386  28.694  23.390  1.00  0.00     0.242 C 
ATOM      5  O   UNL A   1      34.295  28.870  22.563  1.00  0.00    -0.273 OA
ATOM      6  H   UNL A   1      33.670  30.537  24.031  1.00  0.00     0.163 HD
BRANCH   4   7
ATOM      7  C   UNL A   1      32.437  27.453  23.226  1.00  0.00     0.175 C 
ATOM      8  N   UNL A   1      31.017  22.927  25.909  1.00  0.00    -0.331 N 
ATOM      9  C   UNL A   1      30.312  24.146  26.265  1.00  0.00     0.263 C 
ATOM     10  C   UNL A   1      31.217  22.820  24.473  1.00  0.00     0.263 C 
ATOM     11  H   UNL A   1      30.381  22.159  26.124  1.00  0.00     0.348 HD
ATOM     12  C   UNL A   1      31.058  25.392  25.833  1.00  0.00     0.070 C 
ATOM     13  C   UNL A   1      31.890  24.021  23.799  1.00  0.00     0.070 C 
ATOM     14  C   UNL A   1      31.507  25.411  24.346  1.00  0.00     0.001 C 
ATOM     15  C   UNL A   1      32.703  26.381  24.265  1.00  0.00     0.044 C 
ATOM     16  C   UNL A   1      30.463  26.117  23.475  1.00  0.00     0.127 C 
ATOM     17  N   UNL A   1      30.956  27.482  23.268  1.00  0.00    -0.330 N 
BRANCH   8  18
ATOM     18  C   UNL A   1      32.093  22.487  26.810  1.00  0.00     0.299 C 
BRANCH  18  19
ATOM     19  C   UNL A   1      33.372  21.918  26.222  1.00  0.00     0.008 A 
ATOM     20  N   UNL A   1      36.969  22.713  25.524  1.00  0.00    -0.348 N 
ATOM     21  C   UNL A   1      37.810  21.807  24.935  1.00  0.00     0.087 A 
ATOM     22  C   UNL A   1      35.686  22.189  25.568  1.00  0.00     0.048 A 
ATOM     23  C   UNL A   1      37.086  20.666  24.668  1.00  0.00     0.028 A 
ATOM     24  C   UNL A   1      35.775  20.855  25.178  1.00  0.00    -0.000 A 
ATOM     25  C   UNL A   1      34.469  22.758  25.972  1.00  0.00     0.036 A 
ATOM     26  C   UNL A   1      34.649  20.024  25.333  1.00  0.00     0.011 A 
ATOM     27  C   UNL A   1      33.475  20.558  25.893  1.00  0.00     0.010 A 
BRANCH  20  28
ATOM     28  C   UNL A   1      37.345  23.972  26.151  1.00  0.00     0.119 C 
ATOM     29  C   UNL A   1      38.706  24.018  26.830  1.00  0.00     0.027 C 
ENDBRANCH  20  28
ENDBRANCH  18  19
ENDBRANCH   8  18
BRANCH  17  30
ATOM     30  C   UNL A   1      30.049  28.381  22.751  1.00  0.00     0.220 C 
ATOM     31  C   UNL A   1      28.626  28.393  23.223  1.00  0.00     0.114 C 
ATOM     32  O   UNL A   1      30.352  29.114  21.802  1.00  0.00    -0.275 OA
ENDBRANCH  17  30
ENDBRANCH   4   7
ENDBRANCH   2   3
ENDBRANCH   1   2
BRANCH   1  33
ATOM     33  C   UNL A   1      34.761  29.620  27.344  1.00  0.00     0.023 C 
BRANCH  33  34
ATOM     34  C   UNL A   1      34.583  31.137  27.489  1.00  0.00     0.116 C 
BRANCH  34  35
ATOM     35  N   UNL A   1      34.341  31.607  28.841  1.00  0.00    -0.352 N 
ATOM     36  C   UNL A   1      35.124  31.806  29.949  1.00  0.00     0.251 C 
ATOM     37  H   UNL A   1      33.397  31.837  28.999  1.00  0.00     0.163 HD
ATOM     38  O   UNL A   1      34.642  32.497  30.838  1.00  0.00    -0.269 OA
BRANCH  36  39
ATOM     39  C   UNL A   1      36.448  31.166  30.180  1.00  0.00     0.039 A 
ATOM     40  C   UNL A   1      37.680  31.775  29.959  1.00  0.00     0.014 A 
ATOM     41  C   UNL A   1      36.422  29.795  30.507  1.00  0.00     0.014 A 
ATOM     42  C   UNL A   1      38.838  31.012  29.910  1.00  0.00     0.010 A 
ATOM     43  C   UNL A   1      37.581  29.030  30.491  1.00  0.00     0.010 A 
ATOM     44  C   UNL A   1      38.779  29.632  30.126  1.00  0.00    -0.014 A 
BRANCH  44  45
ATOM     45  C   UNL A   1      40.030  28.884  30.099  1.00  0.00     0.031 A 
ATOM     46  C   UNL A   1      40.674  28.757  31.434  1.00  0.00     0.074 A 
ATOM     47  C   UNL A   1      40.536  28.300  28.994  1.00  0.00     0.049 A 
ATOM     48  N   UNL A   1      41.796  29.276  31.814  1.00  0.00    -0.248 NA
ATOM     49  C   UNL A   1      39.910  28.127  32.522  1.00  0.00     0.031 C 
ATOM     50  C   UNL A   1      39.934  28.163  27.668  1.00  0.00     0.029 A 
ATOM     51  N   UNL A   1      41.715  27.627  28.858  1.00  0.00    -0.354 N 
ATOM     52  C   UNL A   1      41.973  28.889  33.140  1.00  0.00     0.074 A 
ATOM     53  C   UNL A   1      40.723  28.315  33.563  1.00  0.00     0.031 C 
ATOM     54  C   UNL A   1      40.641  27.263  26.943  1.00  0.00     0.029 A 
ATOM     55  C   UNL A   1      41.814  26.860  27.701  1.00  0.00     0.049 A 
ATOM     56  H   UNL A   1      42.438  27.679  29.524  1.00  0.00     0.167 HD
ATOM     57  C   UNL A   1      43.208  28.889  33.713  1.00  0.00     0.037 A 
ATOM     58  C   UNL A   1      42.771  25.935  27.425  1.00  0.00     0.037 A 
ATOM     59  C   UNL A   1      44.131  29.695  32.953  1.00  0.00     0.049 A 
ATOM     60  C   UNL A   1      43.937  26.235  28.295  1.00  0.00     0.074 A 
ATOM     61  C   UNL A   1      44.198  31.032  32.610  1.00  0.00     0.029 A 
ATOM     62  N   UNL A   1      44.996  29.046  32.107  1.00  0.00    -0.354 N 
ATOM     63  N   UNL A   1      44.703  27.277  28.127  1.00  0.00    -0.248 NA
ATOM     64  C   UNL A   1      43.955  25.655  29.632  1.00  0.00     0.031 C 
ATOM     65  C   UNL A   1      44.699  31.040  31.275  1.00  0.00     0.029 A 
ATOM     66  C   UNL A   1      44.979  29.722  30.917  1.00  0.00     0.049 A 
ATOM     67  H   UNL A   1      45.529  28.246  32.318  1.00  0.00     0.167 HD
ATOM     68  C   UNL A   1      44.932  27.752  29.409  1.00  0.00     0.074 A 
ATOM     69  C   UNL A   1      44.512  26.670  30.300  1.00  0.00     0.031 C 
ATOM     70  C   UNL A   1      45.153  29.078  29.639  1.00  0.00     0.037 A 
BRANCH  57  71
ATOM     71  C   UNL A   1      43.691  27.864  34.711  1.00  0.00     0.057 A 
ATOM     72  C   UNL A   1      43.861  28.120  36.085  1.00  0.00     0.134 A 
ATOM     73  C   UNL A   1      43.654  26.502  34.356  1.00  0.00     0.134 A 
ATOM     74  F   UNL A   1      43.881  29.358  36.590  1.00  0.00    -0.206 F 
ATOM     75  C   UNL A   1      43.916  27.103  37.041  1.00  0.00     0.040 A 
ATOM     76  C   UNL A   1      43.660  25.478  35.310  1.00  0.00     0.040 A 
ATOM     77  F   UNL A   1      43.512  26.125  33.075  1.00  0.00    -0.206 F 
ATOM     78  C   UNL A   1      43.772  25.779  36.660  1.00  0.00     0.006 A 
ENDBRANCH  57  71
BRANCH  58  79
ATOM     79  C   UNL A   1      42.673  24.672  26.653  1.00  0.00     0.057 A 
ATOM     80  C   UNL A   1      42.185  23.490  27.238  1.00  0.00     0.134 A 
ATOM     81  C   UNL A   1      43.309  24.519  25.409  1.00  0.00     0.134 A 
ATOM     82  F   UNL A   1      41.626  23.500  28.455  1.00  0.00    -0.206 F 
ATOM     83  C   UNL A   1      42.338  22.234  26.638  1.00  0.00     0.040 A 
ATOM     84  C   UNL A   1      43.472  23.266  24.800  1.00  0.00     0.040 A 
ATOM     85  F   UNL A   1      43.847  25.575  24.783  1.00  0.00    -0.206 F 
ATOM     86  C   UNL A   1      42.996  22.116  25.421  1.00  0.00     0.006 A 
ENDBRANCH  58  79
BRANCH  70  87
ATOM     87  C   UNL A   1      45.357  29.975  28.451  1.00  0.00     0.057 A 
ATOM     88  C   UNL A   1      46.663  30.309  28.077  1.00  0.00     0.134 A 
ATOM     89  C   UNL A   1      44.316  30.625  27.770  1.00  0.00     0.134 A 
ATOM     90  F   UNL A   1      47.708  29.776  28.728  1.00  0.00    -0.206 F 
ATOM     91  C   UNL A   1      46.925  31.234  27.065  1.00  0.00     0.040 A 
ATOM     92  C   UNL A   1      44.565  31.527  26.731  1.00  0.00     0.040 A 
ATOM     93  F   UNL A   1      43.038  30.454  28.130  1.00  0.00    -0.206 F 
ATOM     94  C   UNL A   1      45.875  31.837  26.379  1.00  0.00     0.006 A 
ENDBRANCH  70  87
ENDBRANCH  44  45
ENDBRANCH  36  39
ENDBRANCH  34  35
ENDBRANCH  33  34
ENDBRANCH   1  33
TORSDOF 15
ENDMDL
MODEL 2
REMARK VINA RESULT:     -12.3      2.828      8.148
REMARK SMILES CCn1ccc2ccc(C[NH+]3CCC4(CC3)C[C@H](C(=O)NCCCCNC(=O)c3ccc(-c5c6nc(c(-c7c(F)cccc7F)c7ccc([nH]7)c(-c7c(F)cccc7F)c7nc(c(-c8c(F)cccc8F)c8ccc5[nH]8)C=C7)C=C6)cc3)N(C(C)=O)C4)cc21
REMARK SMILES IDX 23 1 22 2 21 3 19 4 20 5 18 7 11 8 12 9 16 10 13 12 15 13
REMARK SMILES IDX 14 14 17 15 87 16 83 17 10 18 9 19 3 20 4 21 89 22 5 23 6 24
REMARK SMILES IDX 88 25 7 26 8 27 2 28 1 29 84 30 85 31 86 32 24 33 25 34
REMARK SMILES IDX 26 35 27 36 28 38 29 39 30 40 82 41 31 42 81 43 32 44 33 45
REMARK SMILES IDX 34 46 75 47 35 48 80 49 74 50 76 51 36 52 79 53 73 54 72 55
REMARK SMILES IDX 37 57 63 58 46 59 62 60 47 61 50 62 61 63 77 64 48 65 49 66
REMARK SMILES IDX 60 68 78 69 51 70 38 71 39 72 44 73 40 74 41 75 43 76 45 77
REMARK SMILES IDX 42 78 64 79 65 80 70 81 66 82 67 83 69 84 71 85 68 86 52 87
REMARK SMILES IDX 53 88 58 89 54 90 55 91 57 92 59 93 56 94
REMARK H PARENT 21 6 11 11 26 37 76 56 50 67
REMARK Flexibility Score: inf
ROOT
ATOM      1  C   UNL A   1      37.718  21.207  25.041  1.00  0.00     0.023 C 
ENDROOT
BRANCH   1   2
ATOM      2  C   UNL A   1      36.240  20.893  24.867  1.00  0.00     0.116 C 
BRANCH   2   3
ATOM      3  N   UNL A   1      35.512  20.937  26.128  1.00  0.00    -0.354 N 
ATOM      4  C   UNL A   1      34.388  21.589  26.536  1.00  0.00     0.242 C 
ATOM      5  O   UNL A   1      34.333  21.776  27.762  1.00  0.00    -0.273 OA
ATOM      6  H   UNL A   1      35.917  20.379  26.831  1.00  0.00     0.163 HD
BRANCH   4   7
ATOM      7  C   UNL A   1      33.180  22.044  25.641  1.00  0.00     0.175 C 
ATOM      8  N   UNL A   1      31.923  25.910  22.012  1.00  0.00    -0.331 N 
ATOM      9  C   UNL A   1      32.604  24.733  21.503  1.00  0.00     0.263 C 
ATOM     10  C   UNL A   1      30.914  25.565  23.001  1.00  0.00     0.263 C 
ATOM     11  H   UNL A   1      31.382  26.285  21.233  1.00  0.00     0.348 HD
ATOM     12  C   UNL A   1      33.309  23.955  22.595  1.00  0.00     0.070 C 
ATOM     13  C   UNL A   1      31.391  24.699  24.171  1.00  0.00     0.070 C 
ATOM     14  C   UNL A   1      32.434  23.614  23.833  1.00  0.00     0.001 C 
ATOM     15  C   UNL A   1      33.409  23.404  25.010  1.00  0.00     0.044 C 
ATOM     16  C   UNL A   1      31.807  22.224  23.685  1.00  0.00     0.127 C 
ATOM     17  N   UNL A   1      32.643  21.310  24.471  1.00  0.00    -0.330 N 
BRANCH   8  18
ATOM     18  C   UNL A   1      32.737  27.118  22.222  1.00  0.00     0.299 C 
BRANCH  18  19
ATOM     19  C   UNL A   1      32.384  28.069  23.352  1.00  0.00     0.008 A 
ATOM     20  N   UNL A   1      33.618  29.447  26.613  1.00  0.00    -0.348 N 
ATOM     21  C   UNL A   1      32.898  30.365  27.330  1.00  0.00     0.087 A 
ATOM     22  C   UNL A   1      32.881  29.045  25.510  1.00  0.00     0.048 A 
ATOM     23  C   UNL A   1      31.726  30.611  26.650  1.00  0.00     0.028 A 
ATOM     24  C   UNL A   1      31.765  29.874  25.437  1.00  0.00    -0.000 A 
ATOM     25  C   UNL A   1      33.131  28.060  24.541  1.00  0.00     0.036 A 
ATOM     26  C   UNL A   1      30.951  29.822  24.289  1.00  0.00     0.011 A 
ATOM     27  C   UNL A   1      31.297  28.949  23.243  1.00  0.00     0.010 A 
BRANCH  20  28
ATOM     28  C   UNL A   1      34.998  29.044  26.849  1.00  0.00     0.119 C 
ATOM     29  C   UNL A   1      35.856  29.994  27.673  1.00  0.00     0.027 C 
ENDBRANCH  20  28
ENDBRANCH  18  19
ENDBRANCH   8  18
BRANCH  17  30
ATOM     30  C   UNL A   1      32.434  19.965  24.259  1.00  0.00     0.220 C 
ATOM     31  C   UNL A   1      32.385  19.407  22.869  1.00  0.00     0.114 C 
ATOM     32  O   UNL A   1      32.161  19.209  25.198  1.00  0.00    -0.275 OA
ENDBRANCH  17  30
ENDBRANCH   4   7
ENDBRANCH   2   3
ENDBRANCH   1   2
BRANCH   1  33
ATOM     33  C   UNL A   1      38.065  22.479  25.792  1.00  0.00     0.023 C 
BRANCH  33  34
ATOM     34  C   UNL A   1      39.323  22.395  26.666  1.00  0.00     0.116 C 
BRANCH  34  35
ATOM     35  N   UNL A   1      40.580  22.354  25.942  1.00  0.00    -0.352 N 
ATOM     36  C   UNL A   1      41.753  23.062  26.001  1.00  0.00     0.251 C 
ATOM     37  H   UNL A   1      40.596  21.654  25.249  1.00  0.00     0.163 HD
ATOM     38  O   UNL A   1      42.719  22.562  25.437  1.00  0.00    -0.269 OA
BRANCH  36  39
ATOM     39  C   UNL A   1      41.897  24.417  26.601  1.00  0.00     0.039 A 
ATOM     40  C   UNL A   1      42.579  24.700  27.781  1.00  0.00     0.014 A 
ATOM     41  C   UNL A   1      41.158  25.447  25.985  1.00  0.00     0.014 A 
ATOM     42  C   UNL A   1      42.403  25.924  28.413  1.00  0.00     0.010 A 
ATOM     43  C   UNL A   1      41.002  26.684  26.596  1.00  0.00     0.010 A 
ATOM     44  C   UNL A   1      41.574  26.894  27.844  1.00  0.00    -0.014 A 
BRANCH  44  45
ATOM     45  C   UNL A   1      41.454  28.174  28.532  1.00  0.00     0.031 A 
ATOM     46  C   UNL A   1      42.583  29.105  28.256  1.00  0.00     0.074 A 
ATOM     47  C   UNL A   1      40.398  28.526  29.294  1.00  0.00     0.049 A 
ATOM     48  N   UNL A   1      43.473  29.523  29.094  1.00  0.00    -0.248 NA
ATOM     49  C   UNL A   1      42.855  29.478  26.860  1.00  0.00     0.031 C 
ATOM     50  C   UNL A   1      39.136  27.816  29.499  1.00  0.00     0.029 A 
ATOM     51  N   UNL A   1      40.217  29.671  30.012  1.00  0.00    -0.354 N 
ATOM     52  C   UNL A   1      44.321  30.361  28.374  1.00  0.00     0.074 A 
ATOM     53  C   UNL A   1      43.984  30.179  26.986  1.00  0.00     0.031 C 
ATOM     54  C   UNL A   1      38.244  28.646  30.093  1.00  0.00     0.029 A 
ATOM     55  C   UNL A   1      38.908  29.895  30.426  1.00  0.00     0.049 A 
ATOM     56  H   UNL A   1      40.954  30.290  30.221  1.00  0.00     0.167 HD
ATOM     57  C   UNL A   1      45.092  31.291  29.002  1.00  0.00     0.037 A 
ATOM     58  C   UNL A   1      38.415  31.045  30.958  1.00  0.00     0.037 A 
ATOM     59  C   UNL A   1      45.215  30.995  30.408  1.00  0.00     0.049 A 
ATOM     60  C   UNL A   1      39.570  31.816  31.486  1.00  0.00     0.074 A 
ATOM     61  C   UNL A   1      45.740  29.945  31.136  1.00  0.00     0.029 A 
ATOM     62  N   UNL A   1      44.418  31.695  31.279  1.00  0.00    -0.354 N 
ATOM     63  N   UNL A   1      40.245  31.455  32.542  1.00  0.00    -0.248 NA
ATOM     64  C   UNL A   1      40.272  32.703  30.567  1.00  0.00     0.031 C 
ATOM     65  C   UNL A   1      44.848  29.783  32.237  1.00  0.00     0.029 A 
ATOM     66  C   UNL A   1      43.885  30.788  32.155  1.00  0.00     0.049 A 
ATOM     67  H   UNL A   1      44.260  32.667  31.275  1.00  0.00     0.167 HD
ATOM     68  C   UNL A   1      41.570  31.681  32.202  1.00  0.00     0.074 A 
ATOM     69  C   UNL A   1      41.522  32.522  31.005  1.00  0.00     0.031 C 
ATOM     70  C   UNL A   1      42.573  30.926  32.736  1.00  0.00     0.037 A 
BRANCH  57  71
ATOM     71  C   UNL A   1      45.398  32.664  28.454  1.00  0.00     0.057 A 
ATOM     72  C   UNL A   1      44.437  33.680  28.292  1.00  0.00     0.134 A 
ATOM     73  C   UNL A   1      46.737  33.095  28.411  1.00  0.00     0.134 A 
ATOM     74  F   UNL A   1      43.121  33.443  28.343  1.00  0.00    -0.206 F 
ATOM     75  C   UNL A   1      44.777  35.029  28.172  1.00  0.00     0.040 A 
ATOM     76  C   UNL A   1      47.088  34.447  28.338  1.00  0.00     0.040 A 
ATOM     77  F   UNL A   1      47.749  32.221  28.537  1.00  0.00    -0.206 F 
ATOM     78  C   UNL A   1      46.105  35.422  28.238  1.00  0.00     0.006 A 
ENDBRANCH  57  71
BRANCH  58  79
ATOM     79  C   UNL A   1      37.064  31.643  30.833  1.00  0.00     0.057 A 
ATOM     80  C   UNL A   1      36.748  32.529  29.788  1.00  0.00     0.134 A 
ATOM     81  C   UNL A   1      36.132  31.582  31.882  1.00  0.00     0.134 A 
ATOM     82  F   UNL A   1      37.595  32.728  28.769  1.00  0.00    -0.206 F 
ATOM     83  C   UNL A   1      35.592  33.321  29.794  1.00  0.00     0.040 A 
ATOM     84  C   UNL A   1      34.972  32.372  31.903  1.00  0.00     0.040 A 
ATOM     85  F   UNL A   1      36.354  30.801  32.948  1.00  0.00    -0.206 F 
ATOM     86  C   UNL A   1      34.706  33.254  30.861  1.00  0.00     0.006 A 
ENDBRANCH  58  79
BRANCH  70  87
ATOM     87  C   UNL A   1      42.227  29.990  33.859  1.00  0.00     0.057 A 
ATOM     88  C   UNL A   1      42.484  30.395  35.174  1.00  0.00     0.134 A 
ATOM     89  C   UNL A   1      41.796  28.667  33.676  1.00  0.00     0.134 A 
ATOM     90  F   UNL A   1      42.960  31.625  35.420  1.00  0.00    -0.206 F 
ATOM     91  C   UNL A   1      42.306  29.533  36.257  1.00  0.00     0.040 A 
ATOM     92  C   UNL A   1      41.581  27.806  34.755  1.00  0.00     0.040 A 
ATOM     93  F   UNL A   1      41.631  28.155  32.450  1.00  0.00    -0.206 F 
ATOM     94  C   UNL A   1      41.841  28.237  36.052  1.00  0.00     0.006 A 
ENDBRANCH  70  87
ENDBRANCH  44  45
ENDBRANCH  36  39
ENDBRANCH  34  35
ENDBRANCH  33  34
ENDBRANCH   1  33
TORSDOF 15
ENDMDL
MODEL 3
REMARK VINA RESULT:     -12.2      1.744      3.381
REMARK SMILES CCn1ccc2ccc(C[NH+]3CCC4(CC3)C[C@H](C(=O)NCCCCNC(=O)c3ccc(-c5c6nc(c(-c7c(F)cccc7F)c7ccc([nH]7)c(-c7c(F)cccc7F)c7nc(c(-c8c(F)cccc8F)c8ccc5[nH]8)C=C7)C=C6)cc3)N(C(C)=O)C4)cc21
REMARK SMILES IDX 23 1 22 2 21 3 19 4 20 5 18 7 11 8 12 9 16 10 13 12 15 13
REMARK SMILES IDX 14 14 17 15 87 16 83 17 10 18 9 19 3 20 4 21 89 22 5 23 6 24
REMARK SMILES IDX 88 25 7 26 8 27 2 28 1 29 84 30 85 31 86 32 24 33 25 34
REMARK SMILES IDX 26 35 27 36 28 38 29 39 30 40 82 41 31 42 81 43 32 44 33 45
REMARK SMILES IDX 34 46 75 47 35 48 80 49 74 50 76 51 36 52 79 53 73 54 72 55
REMARK SMILES IDX 37 57 63 58 46 59 62 60 47 61 50 62 61 63 77 64 48 65 49 66
REMARK SMILES IDX 60 68 78 69 51 70 38 71 39 72 44 73 40 74 41 75 43 76 45 77
REMARK SMILES IDX 42 78 64 79 65 80 70 81 66 82 67 83 69 84 71 85 68 86 52 87
REMARK SMILES IDX 53 88 58 89 54 90 55 91 57 92 59 93 56 94
REMARK H PARENT 21 6 11 11 26 37 76 56 50 67
REMARK Flexibility Score: inf
ROOT
ATOM      1  C   UNL A   1      32.744  28.857  24.217  1.00  0.00     0.023 C 
ENDROOT
BRANCH   1   2
ATOM      2  C   UNL A   1      31.586  28.396  23.347  1.00  0.00     0.116 C 
BRANCH   2   3
ATOM      3  N   UNL A   1      32.036  27.689  22.155  1.00  0.00    -0.354 N 
ATOM      4  C   UNL A   1      32.697  26.515  21.958  1.00  0.00     0.242 C 
ATOM      5  O   UNL A   1      33.321  26.463  20.886  1.00  0.00    -0.273 OA
ATOM      6  H   UNL A   1      31.816  28.159  21.317  1.00  0.00     0.163 HD
BRANCH   4   7
ATOM      7  C   UNL A   1      32.683  25.252  22.892  1.00  0.00     0.175 C 
ATOM      8  N   UNL A   1      36.115  22.275  25.902  1.00  0.00    -0.331 N 
ATOM      9  C   UNL A   1      35.555  23.459  26.529  1.00  0.00     0.263 C 
ATOM     10  C   UNL A   1      35.123  21.562  25.114  1.00  0.00     0.263 C 
ATOM     11  H   UNL A   1      36.334  21.629  26.660  1.00  0.00     0.348 HD
ATOM     12  C   UNL A   1      35.009  24.446  25.517  1.00  0.00     0.070 C 
ATOM     13  C   UNL A   1      34.374  22.394  24.068  1.00  0.00     0.070 C 
ATOM     14  C   UNL A   1      34.033  23.844  24.469  1.00  0.00     0.001 C 
ATOM     15  C   UNL A   1      34.081  24.778  23.242  1.00  0.00     0.044 C 
ATOM     16  C   UNL A   1      32.581  23.998  24.931  1.00  0.00     0.127 C 
ATOM     17  N   UNL A   1      32.047  25.168  24.227  1.00  0.00    -0.330 N 
BRANCH   8  18
ATOM     18  C   UNL A   1      37.490  22.374  25.389  1.00  0.00     0.299 C 
BRANCH  18  19
ATOM     19  C   UNL A   1      38.583  22.928  26.287  1.00  0.00     0.008 A 
ATOM     20  N   UNL A   1      41.903  22.115  27.828  1.00  0.00    -0.348 N 
ATOM     21  C   UNL A   1      42.569  23.006  28.627  1.00  0.00     0.087 A 
ATOM     22  C   UNL A   1      40.668  22.640  27.482  1.00  0.00     0.048 A 
ATOM     23  C   UNL A   1      41.794  24.140  28.736  1.00  0.00     0.028 A 
ATOM     24  C   UNL A   1      40.649  23.965  27.915  1.00  0.00    -0.000 A 
ATOM     25  C   UNL A   1      39.590  22.081  26.778  1.00  0.00     0.036 A 
ATOM     26  C   UNL A   1      39.590  24.799  27.508  1.00  0.00     0.011 A 
ATOM     27  C   UNL A   1      38.594  24.279  26.664  1.00  0.00     0.010 A 
BRANCH  20  28
ATOM     28  C   UNL A   1      42.430  20.872  27.281  1.00  0.00     0.119 C 
ATOM     29  C   UNL A   1      42.749  20.861  25.793  1.00  0.00     0.027 C 
ENDBRANCH  20  28
ENDBRANCH  18  19
ENDBRANCH   8  18
BRANCH  17  30
ATOM     30  C   UNL A   1      30.849  25.663  24.697  1.00  0.00     0.220 C 
ATOM     31  C   UNL A   1      30.740  26.214  26.086  1.00  0.00     0.114 C 
ATOM     32  O   UNL A   1      29.813  25.552  24.032  1.00  0.00    -0.275 OA
ENDBRANCH  17  30
ENDBRANCH   4   7
ENDBRANCH   2   3
ENDBRANCH   1   2
BRANCH   1  33
ATOM     33  C   UNL A   1      32.396  29.698  25.433  1.00  0.00     0.023 C 
BRANCH  33  34
ATOM     34  C   UNL A   1      33.229  29.403  26.687  1.00  0.00     0.116 C 
BRANCH  34  35
ATOM     35  N   UNL A   1      33.406  30.524  27.592  1.00  0.00    -0.352 N 
ATOM     36  C   UNL A   1      34.486  31.229  28.056  1.00  0.00     0.251 C 
ATOM     37  H   UNL A   1      32.554  30.856  27.955  1.00  0.00     0.163 HD
ATOM     38  O   UNL A   1      34.246  32.310  28.580  1.00  0.00    -0.269 OA
BRANCH  36  39
ATOM     39  C   UNL A   1      35.889  30.731  28.058  1.00  0.00     0.039 A 
ATOM     40  C   UNL A   1      36.289  29.467  27.634  1.00  0.00     0.014 A 
ATOM     41  C   UNL A   1      36.841  31.567  28.676  1.00  0.00     0.014 A 
ATOM     42  C   UNL A   1      37.553  28.989  27.954  1.00  0.00     0.010 A 
ATOM     43  C   UNL A   1      38.117  31.108  28.973  1.00  0.00     0.010 A 
ATOM     44  C   UNL A   1      38.446  29.793  28.669  1.00  0.00    -0.014 A 
BRANCH  44  45
ATOM     45  C   UNL A   1      39.772  29.255  28.947  1.00  0.00     0.031 A 
ATOM     46  C   UNL A   1      39.997  28.943  30.385  1.00  0.00     0.074 A 
ATOM     47  C   UNL A   1      40.696  28.996  27.999  1.00  0.00     0.049 A 
ATOM     48  N   UNL A   1      40.821  29.525  31.192  1.00  0.00    -0.248 NA
ATOM     49  C   UNL A   1      39.086  27.995  31.045  1.00  0.00     0.031 C 
ATOM     50  C   UNL A   1      40.561  29.056  26.544  1.00  0.00     0.029 A 
ATOM     51  N   UNL A   1      41.971  28.542  28.163  1.00  0.00    -0.354 N 
ATOM     52  C   UNL A   1      40.666  28.897  32.425  1.00  0.00     0.074 A 
ATOM     53  C   UNL A   1      39.491  28.074  32.313  1.00  0.00     0.031 C 
ATOM     54  C   UNL A   1      41.622  28.440  25.968  1.00  0.00     0.029 A 
ATOM     55  C   UNL A   1      42.568  28.059  27.002  1.00  0.00     0.049 A 
ATOM     56  H   UNL A   1      42.434  28.555  29.032  1.00  0.00     0.167 HD
ATOM     57  C   UNL A   1      41.644  28.954  33.371  1.00  0.00     0.037 A 
ATOM     58  C   UNL A   1      43.732  27.359  26.924  1.00  0.00     0.037 A 
ATOM     59  C   UNL A   1      42.568  30.025  33.095  1.00  0.00     0.049 A 
ATOM     60  C   UNL A   1      44.495  27.633  28.169  1.00  0.00     0.074 A 
ATOM     61  C   UNL A   1      42.462  31.400  33.003  1.00  0.00     0.029 A 
ATOM     62  N   UNL A   1      43.761  29.700  32.498  1.00  0.00    -0.354 N 
ATOM     63  N   UNL A   1      45.046  28.787  28.427  1.00  0.00    -0.248 NA
ATOM     64  C   UNL A   1      44.227  26.794  29.329  1.00  0.00     0.031 C 
ATOM     65  C   UNL A   1      43.329  31.761  31.931  1.00  0.00     0.029 A 
ATOM     66  C   UNL A   1      43.966  30.603  31.489  1.00  0.00     0.049 A 
ATOM     67  H   UNL A   1      44.358  28.958  32.750  1.00  0.00     0.167 HD
ATOM     68  C   UNL A   1      44.777  29.008  29.769  1.00  0.00     0.074 A 
ATOM     69  C   UNL A   1      44.338  27.714  30.292  1.00  0.00     0.031 C 
ATOM     70  C   UNL A   1      44.644  30.274  30.260  1.00  0.00     0.037 A 
BRANCH  57  71
ATOM     71  C   UNL A   1      42.002  27.821  34.302  1.00  0.00     0.057 A 
ATOM     72  C   UNL A   1      42.840  26.745  33.950  1.00  0.00     0.134 A 
ATOM     73  C   UNL A   1      41.788  27.985  35.685  1.00  0.00     0.134 A 
ATOM     74  F   UNL A   1      43.171  26.475  32.683  1.00  0.00    -0.206 F 
ATOM     75  C   UNL A   1      43.475  25.941  34.899  1.00  0.00     0.040 A 
ATOM     76  C   UNL A   1      42.457  27.215  36.643  1.00  0.00     0.040 A 
ATOM     77  F   UNL A   1      40.997  28.965  36.150  1.00  0.00    -0.206 F 
ATOM     78  C   UNL A   1      43.319  26.201  36.251  1.00  0.00     0.006 A 
ENDBRANCH  57  71
BRANCH  58  79
ATOM     79  C   UNL A   1      44.129  26.287  25.979  1.00  0.00     0.057 A 
ATOM     80  C   UNL A   1      43.201  25.342  25.509  1.00  0.00     0.134 A 
ATOM     81  C   UNL A   1      45.480  25.991  25.729  1.00  0.00     0.134 A 
ATOM     82  F   UNL A   1      41.890  25.479  25.752  1.00  0.00    -0.206 F 
ATOM     83  C   UNL A   1      43.587  24.168  24.851  1.00  0.00     0.040 A 
ATOM     84  C   UNL A   1      45.881  24.816  25.075  1.00  0.00     0.040 A 
ATOM     85  F   UNL A   1      46.450  26.803  26.171  1.00  0.00    -0.206 F 
ATOM     86  C   UNL A   1      44.933  23.894  24.644  1.00  0.00     0.006 A 
ENDBRANCH  58  79
BRANCH  70  87
ATOM     87  C   UNL A   1      45.008  31.420  29.360  1.00  0.00     0.057 A 
ATOM     88  C   UNL A   1      44.036  31.929  28.493  1.00  0.00     0.134 A 
ATOM     89  C   UNL A   1      46.310  31.927  29.221  1.00  0.00     0.134 A 
ATOM     90  F   UNL A   1      42.784  31.446  28.525  1.00  0.00    -0.206 F 
ATOM     91  C   UNL A   1      44.335  32.906  27.543  1.00  0.00     0.040 A 
ATOM     92  C   UNL A   1      46.615  32.930  28.296  1.00  0.00     0.040 A 
ATOM     93  F   UNL A   1      47.330  31.424  29.928  1.00  0.00    -0.206 F 
ATOM     94  C   UNL A   1      45.626  33.420  27.450  1.00  0.00     0.006 A 
ENDBRANCH  70  87
ENDBRANCH  44  45
ENDBRANCH  36  39
ENDBRANCH  34  35
ENDBRANCH  33  34
ENDBRANCH   1  33
TORSDOF 15
ENDMDL
