MODEL 1
REMARK VINA RESULT:     -11.8      0.000      0.000
REMARK SMILES COC(=O)c1cc(F)cc(-c2ccc(C(=O)NCCCCNC(=O)c3ccc(-c4c5nc(c(-c6c(F)cccc6F)c6ccc([nH]6)c(-c6c(F)cccc6F)c6nc(c(-c7c(F)cccc7F)c7ccc4[nH]7)C=C6)C=C5)cc3)cc2C)c1
REMARK SMILES IDX 19 1 18 2 17 3 15 4 16 5 14 7 11 8 12 9 80 10 13 11 79 12
REMARK SMILES IDX 81 13 10 14 5 15 6 16 82 17 7 18 8 19 9 20 3 21 4 22 2 23
REMARK SMILES IDX 1 24 20 25 21 26 22 27 23 28 24 30 25 31 26 32 78 33 27 34
REMARK SMILES IDX 77 35 28 36 29 37 30 38 71 39 31 40 76 41 70 42 72 43 32 44
REMARK SMILES IDX 75 45 69 46 68 47 33 49 59 50 42 51 58 52 43 53 46 54 57 55
REMARK SMILES IDX 73 56 44 57 45 58 56 60 74 61 47 62 34 63 35 64 40 65 36 66
REMARK SMILES IDX 37 67 39 68 41 69 38 70 60 71 61 72 66 73 62 74 63 75 65 76
REMARK SMILES IDX 67 77 64 78 48 79 49 80 54 81 50 82 51 83 53 84 55 85 52 86
REMARK H PARENT 17 6 22 29 72 48 46 59
REMARK Flexibility Score: inf
ROOT
ATOM      1  C   UNL A   1      32.953  29.550  25.012  1.00  0.00     0.023 C 
ENDROOT
BRANCH   1   2
ATOM      2  C   UNL A   1      31.442  29.358  25.103  1.00  0.00     0.116 C 
BRANCH   2   3
ATOM      3  N   UNL A   1      30.819  29.051  23.829  1.00  0.00    -0.352 N 
ATOM      4  C   UNL A   1      30.837  27.945  23.009  1.00  0.00     0.251 C 
ATOM      5  O   UNL A   1      30.236  28.037  21.937  1.00  0.00    -0.269 OA
ATOM      6  H   UNL A   1      30.269  29.787  23.476  1.00  0.00     0.163 HD
BRANCH   4   7
ATOM      7  C   UNL A   1      31.551  26.669  23.321  1.00  0.00     0.040 A 
ATOM      8  C   UNL A   1      32.768  24.176  24.000  1.00  0.00    -0.015 A 
ATOM      9  C   UNL A   1      33.338  25.062  23.065  1.00  0.00     0.010 A 
ATOM     10  C   UNL A   1      31.596  24.590  24.659  1.00  0.00    -0.042 A 
ATOM     11  C   UNL A   1      32.782  26.311  22.789  1.00  0.00     0.014 A 
ATOM     12  C   UNL A   1      30.983  25.809  24.279  1.00  0.00     0.018 A 
ATOM     13  C   UNL A   1      30.982  23.840  25.812  1.00  0.00     0.045 C 
BRANCH   8  14
ATOM     14  C   UNL A   1      33.485  22.913  24.254  1.00  0.00    -0.014 A 
ATOM     15  C   UNL A   1      33.410  20.467  24.351  1.00  0.00     0.063 A 
ATOM     16  C   UNL A   1      34.667  20.440  24.951  1.00  0.00     0.055 A 
ATOM     17  C   UNL A   1      32.843  21.692  23.982  1.00  0.00     0.024 A 
ATOM     18  C   UNL A   1      35.326  21.642  25.186  1.00  0.00     0.124 A 
ATOM     19  F   UNL A   1      36.534  21.622  25.764  1.00  0.00    -0.207 F 
ATOM     20  C   UNL A   1      34.748  22.869  24.858  1.00  0.00     0.048 A 
BRANCH  15  21
ATOM     21  C   UNL A   1      32.600  19.249  24.113  1.00  0.00     0.337 C 
ATOM     22  O   UNL A   1      32.316  18.842  23.004  1.00  0.00    -0.246 OA
BRANCH  21  23
ATOM     23  O   UNL A   1      32.153  18.753  25.294  1.00  0.00    -0.465 OA
ATOM     24  C   UNL A   1      32.595  17.417  25.547  1.00  0.00     0.282 C 
ENDBRANCH  21  23
ENDBRANCH  15  21
ENDBRANCH   8  14
ENDBRANCH   4   7
ENDBRANCH   2   3
ENDBRANCH   1   2
BRANCH   1  25
ATOM     25  C   UNL A   1      33.818  28.505  25.720  1.00  0.00     0.023 C 
BRANCH  25  26
ATOM     26  C   UNL A   1      33.839  28.590  27.244  1.00  0.00     0.116 C 
BRANCH  26  27
ATOM     27  N   UNL A   1      33.804  29.951  27.752  1.00  0.00    -0.352 N 
ATOM     28  C   UNL A   1      34.785  30.683  28.374  1.00  0.00     0.251 C 
ATOM     29  H   UNL A   1      32.948  30.421  27.629  1.00  0.00     0.163 HD
ATOM     30  O   UNL A   1      34.497  31.782  28.843  1.00  0.00    -0.269 OA
BRANCH  28  31
ATOM     31  C   UNL A   1      36.171  30.172  28.516  1.00  0.00     0.039 A 
ATOM     32  C   UNL A   1      36.561  29.652  29.757  1.00  0.00     0.014 A 
ATOM     33  C   UNL A   1      37.111  30.263  27.487  1.00  0.00     0.014 A 
ATOM     34  C   UNL A   1      37.874  29.217  29.958  1.00  0.00     0.010 A 
ATOM     35  C   UNL A   1      38.398  29.760  27.662  1.00  0.00     0.010 A 
ATOM     36  C   UNL A   1      38.801  29.258  28.907  1.00  0.00    -0.014 A 
BRANCH  36  37
ATOM     37  C   UNL A   1      40.208  28.826  29.096  1.00  0.00     0.031 A 
ATOM     38  C   UNL A   1      41.207  29.769  29.710  1.00  0.00     0.074 A 
ATOM     39  C   UNL A   1      40.596  27.610  28.672  1.00  0.00     0.049 A 
ATOM     40  N   UNL A   1      42.492  29.602  29.900  1.00  0.00    -0.248 NA
ATOM     41  C   UNL A   1      40.703  31.080  30.148  1.00  0.00     0.031 C 
ATOM     42  C   UNL A   1      39.723  26.623  28.035  1.00  0.00     0.029 A 
ATOM     43  N   UNL A   1      41.824  27.001  28.704  1.00  0.00    -0.354 N 
ATOM     44  C   UNL A   1      42.946  30.785  30.469  1.00  0.00     0.074 A 
ATOM     45  C   UNL A   1      41.815  31.684  30.540  1.00  0.00     0.031 C 
ATOM     46  C   UNL A   1      40.440  25.522  27.758  1.00  0.00     0.029 A 
ATOM     47  C   UNL A   1      41.826  25.741  28.159  1.00  0.00     0.049 A 
ATOM     48  H   UNL A   1      42.628  27.428  29.081  1.00  0.00     0.167 HD
ATOM     49  C   UNL A   1      44.188  31.086  30.916  1.00  0.00     0.037 A 
ATOM     50  C   UNL A   1      42.834  24.862  27.994  1.00  0.00     0.037 A 
ATOM     51  C   UNL A   1      45.305  30.179  30.858  1.00  0.00     0.049 A 
ATOM     52  C   UNL A   1      44.211  25.225  28.473  1.00  0.00     0.074 A 
ATOM     53  C   UNL A   1      46.592  30.370  31.328  1.00  0.00     0.029 A 
ATOM     54  N   UNL A   1      45.267  28.913  30.293  1.00  0.00    -0.354 N 
ATOM     55  N   UNL A   1      44.617  26.328  29.055  1.00  0.00    -0.248 NA
ATOM     56  C   UNL A   1      45.269  24.224  28.279  1.00  0.00     0.031 C 
ATOM     57  C   UNL A   1      47.348  29.242  31.000  1.00  0.00     0.029 A 
ATOM     58  C   UNL A   1      46.517  28.321  30.381  1.00  0.00     0.049 A 
ATOM     59  H   UNL A   1      44.471  28.497  29.891  1.00  0.00     0.167 HD
ATOM     60  C   UNL A   1      45.968  26.146  29.316  1.00  0.00     0.074 A 
ATOM     61  C   UNL A   1      46.312  24.822  28.840  1.00  0.00     0.031 C 
ATOM     62  C   UNL A   1      46.844  27.001  29.902  1.00  0.00     0.037 A 
BRANCH  49  63
ATOM     63  C   UNL A   1      44.407  32.446  31.517  1.00  0.00     0.057 A 
ATOM     64  C   UNL A   1      44.845  33.517  30.728  1.00  0.00     0.134 A 
ATOM     65  C   UNL A   1      44.237  32.683  32.888  1.00  0.00     0.134 A 
ATOM     66  F   UNL A   1      45.037  33.360  29.409  1.00  0.00    -0.206 F 
ATOM     67  C   UNL A   1      45.117  34.770  31.282  1.00  0.00     0.040 A 
ATOM     68  C   UNL A   1      44.476  33.940  33.447  1.00  0.00     0.040 A 
ATOM     69  F   UNL A   1      43.809  31.704  33.700  1.00  0.00    -0.206 F 
ATOM     70  C   UNL A   1      44.927  34.985  32.645  1.00  0.00     0.006 A 
ENDBRANCH  49  63
BRANCH  50  71
ATOM     71  C   UNL A   1      42.550  23.541  27.382  1.00  0.00     0.057 A 
ATOM     72  C   UNL A   1      42.224  22.425  28.163  1.00  0.00     0.134 A 
ATOM     73  C   UNL A   1      42.661  23.351  26.000  1.00  0.00     0.134 A 
ATOM     74  F   UNL A   1      42.111  22.540  29.494  1.00  0.00    -0.206 F 
ATOM     75  C   UNL A   1      42.044  21.163  27.595  1.00  0.00     0.040 A 
ATOM     76  C   UNL A   1      42.461  22.099  25.416  1.00  0.00     0.040 A 
ATOM     77  F   UNL A   1      42.956  24.384  25.198  1.00  0.00    -0.206 F 
ATOM     78  C   UNL A   1      42.163  20.998  26.216  1.00  0.00     0.006 A 
ENDBRANCH  50  71
BRANCH  62  79
ATOM     79  C   UNL A   1      48.258  26.534  30.084  1.00  0.00     0.057 A 
ATOM     80  C   UNL A   1      48.637  25.843  31.244  1.00  0.00     0.134 A 
ATOM     81  C   UNL A   1      49.263  26.849  29.162  1.00  0.00     0.134 A 
ATOM     82  F   UNL A   1      47.724  25.522  32.174  1.00  0.00    -0.206 F 
ATOM     83  C   UNL A   1      49.967  25.500  31.489  1.00  0.00     0.040 A 
ATOM     84  C   UNL A   1      50.594  26.485  29.382  1.00  0.00     0.040 A 
ATOM     85  F   UNL A   1      48.966  27.500  28.027  1.00  0.00    -0.206 F 
ATOM     86  C   UNL A   1      50.950  25.819  30.554  1.00  0.00     0.006 A 
ENDBRANCH  62  79
ENDBRANCH  36  37
ENDBRANCH  28  31
ENDBRANCH  26  27
ENDBRANCH  25  26
ENDBRANCH   1  25
TORSDOF 14
ENDMDL
MODEL 2
REMARK VINA RESULT:     -11.5      1.193      2.271
REMARK SMILES COC(=O)c1cc(F)cc(-c2ccc(C(=O)NCCCCNC(=O)c3ccc(-c4c5nc(c(-c6c(F)cccc6F)c6ccc([nH]6)c(-c6c(F)cccc6F)c6nc(c(-c7c(F)cccc7F)c7ccc4[nH]7)C=C6)C=C5)cc3)cc2C)c1
REMARK SMILES IDX 19 1 18 2 17 3 15 4 16 5 14 7 11 8 12 9 80 10 13 11 79 12
REMARK SMILES IDX 81 13 10 14 5 15 6 16 82 17 7 18 8 19 9 20 3 21 4 22 2 23
REMARK SMILES IDX 1 24 20 25 21 26 22 27 23 28 24 30 25 31 26 32 78 33 27 34
REMARK SMILES IDX 77 35 28 36 29 37 30 38 71 39 31 40 76 41 70 42 72 43 32 44
REMARK SMILES IDX 75 45 69 46 68 47 33 49 59 50 42 51 58 52 43 53 46 54 57 55
REMARK SMILES IDX 73 56 44 57 45 58 56 60 74 61 47 62 34 63 35 64 40 65 36 66
REMARK SMILES IDX 37 67 39 68 41 69 38 70 60 71 61 72 66 73 62 74 63 75 65 76
REMARK SMILES IDX 67 77 64 78 48 79 49 80 54 81 50 82 51 83 53 84 55 85 52 86
REMARK H PARENT 17 6 22 29 72 48 46 59
REMARK Flexibility Score: inf
ROOT
ATOM      1  C   UNL A   1      32.895  29.701  25.021  1.00  0.00     0.023 C 
ENDROOT
BRANCH   1   2
ATOM      2  C   UNL A   1      31.376  29.794  25.133  1.00  0.00     0.116 C 
BRANCH   2   3
ATOM      3  N   UNL A   1      30.687  29.553  23.879  1.00  0.00    -0.352 N 
ATOM      4  C   UNL A   1      30.583  28.457  23.052  1.00  0.00     0.251 C 
ATOM      5  O   UNL A   1      29.956  28.609  22.001  1.00  0.00    -0.269 OA
ATOM      6  H   UNL A   1      30.190  30.337  23.550  1.00  0.00     0.163 HD
BRANCH   4   7
ATOM      7  C   UNL A   1      31.196  27.123  23.331  1.00  0.00     0.040 A 
ATOM      8  C   UNL A   1      32.229  24.539  23.975  1.00  0.00    -0.015 A 
ATOM      9  C   UNL A   1      32.726  25.302  22.899  1.00  0.00     0.010 A 
ATOM     10  C   UNL A   1      31.240  25.123  24.786  1.00  0.00    -0.042 A 
ATOM     11  C   UNL A   1      32.271  26.593  22.631  1.00  0.00     0.014 A 
ATOM     12  C   UNL A   1      30.709  26.386  24.426  1.00  0.00     0.018 A 
ATOM     13  C   UNL A   1      30.753  24.511  26.073  1.00  0.00     0.045 C 
BRANCH   8  14
ATOM     14  C   UNL A   1      32.837  23.214  24.195  1.00  0.00    -0.014 A 
ATOM     15  C   UNL A   1      34.860  21.907  24.640  1.00  0.00     0.063 A 
ATOM     16  C   UNL A   1      34.167  20.725  24.384  1.00  0.00     0.055 A 
ATOM     17  C   UNL A   1      34.189  23.133  24.574  1.00  0.00     0.024 A 
ATOM     18  C   UNL A   1      32.819  20.795  24.049  1.00  0.00     0.124 A 
ATOM     19  F   UNL A   1      32.149  19.662  23.800  1.00  0.00    -0.207 F 
ATOM     20  C   UNL A   1      32.155  22.017  23.941  1.00  0.00     0.048 A 
BRANCH  15  21
ATOM     21  C   UNL A   1      36.309  21.946  24.946  1.00  0.00     0.337 C 
ATOM     22  O   UNL A   1      36.929  20.993  25.373  1.00  0.00    -0.246 OA
BRANCH  21  23
ATOM     23  O   UNL A   1      36.782  23.208  24.781  1.00  0.00    -0.465 OA
ATOM     24  C   UNL A   1      37.556  23.669  25.890  1.00  0.00     0.282 C 
ENDBRANCH  21  23
ENDBRANCH  15  21
ENDBRANCH   8  14
ENDBRANCH   4   7
ENDBRANCH   2   3
ENDBRANCH   1   2
BRANCH   1  25
ATOM     25  C   UNL A   1      33.549  28.459  25.630  1.00  0.00     0.023 C 
BRANCH  25  26
ATOM     26  C   UNL A   1      33.846  28.537  27.125  1.00  0.00     0.116 C 
BRANCH  26  27
ATOM     27  N   UNL A   1      33.797  29.888  27.659  1.00  0.00    -0.352 N 
ATOM     28  C   UNL A   1      34.769  30.617  28.299  1.00  0.00     0.251 C 
ATOM     29  H   UNL A   1      32.937  30.352  27.542  1.00  0.00     0.163 HD
ATOM     30  O   UNL A   1      34.469  31.704  28.788  1.00  0.00    -0.269 OA
BRANCH  28  31
ATOM     31  C   UNL A   1      36.159  30.117  28.435  1.00  0.00     0.039 A 
ATOM     32  C   UNL A   1      36.564  29.621  29.681  1.00  0.00     0.014 A 
ATOM     33  C   UNL A   1      37.088  30.196  27.396  1.00  0.00     0.014 A 
ATOM     34  C   UNL A   1      37.882  29.197  29.877  1.00  0.00     0.010 A 
ATOM     35  C   UNL A   1      38.381  29.703  27.567  1.00  0.00     0.010 A 
ATOM     36  C   UNL A   1      38.798  29.225  28.816  1.00  0.00    -0.014 A 
BRANCH  36  37
ATOM     37  C   UNL A   1      40.210  28.805  28.999  1.00  0.00     0.031 A 
ATOM     38  C   UNL A   1      41.210  29.764  29.586  1.00  0.00     0.074 A 
ATOM     39  C   UNL A   1      40.600  27.583  28.593  1.00  0.00     0.049 A 
ATOM     40  N   UNL A   1      42.497  29.608  29.765  1.00  0.00    -0.248 NA
ATOM     41  C   UNL A   1      40.702  31.080  30.004  1.00  0.00     0.031 C 
ATOM     42  C   UNL A   1      39.727  26.580  27.984  1.00  0.00     0.029 A 
ATOM     43  N   UNL A   1      41.833  26.982  28.624  1.00  0.00    -0.354 N 
ATOM     44  C   UNL A   1      42.950  30.804  30.307  1.00  0.00     0.074 A 
ATOM     45  C   UNL A   1      41.814  31.697  30.373  1.00  0.00     0.031 C 
ATOM     46  C   UNL A   1      40.447  25.478  27.720  1.00  0.00     0.029 A 
ATOM     47  C   UNL A   1      41.837  25.712  28.102  1.00  0.00     0.049 A 
ATOM     48  H   UNL A   1      42.637  27.420  28.985  1.00  0.00     0.167 HD
ATOM     49  C   UNL A   1      44.194  31.120  30.736  1.00  0.00     0.037 A 
ATOM     50  C   UNL A   1      42.847  24.835  27.944  1.00  0.00     0.037 A 
ATOM     51  C   UNL A   1      45.316  30.218  30.684  1.00  0.00     0.049 A 
ATOM     52  C   UNL A   1      44.227  25.215  28.401  1.00  0.00     0.074 A 
ATOM     53  C   UNL A   1      46.607  30.426  31.137  1.00  0.00     0.029 A 
ATOM     54  N   UNL A   1      45.280  28.942  30.143  1.00  0.00    -0.354 N 
ATOM     55  N   UNL A   1      44.632  26.331  28.959  1.00  0.00    -0.248 NA
ATOM     56  C   UNL A   1      45.289  24.217  28.216  1.00  0.00     0.031 C 
ATOM     57  C   UNL A   1      47.366  29.296  30.822  1.00  0.00     0.029 A 
ATOM     58  C   UNL A   1      46.534  28.359  30.228  1.00  0.00     0.049 A 
ATOM     59  H   UNL A   1      44.482  28.514  29.757  1.00  0.00     0.167 HD
ATOM     60  C   UNL A   1      45.988  26.162  29.210  1.00  0.00     0.074 A 
ATOM     61  C   UNL A   1      46.334  24.831  28.754  1.00  0.00     0.031 C 
ATOM     62  C   UNL A   1      46.864  27.032  29.770  1.00  0.00     0.037 A 
BRANCH  49  63
ATOM     63  C   UNL A   1      44.412  32.492  31.310  1.00  0.00     0.057 A 
ATOM     64  C   UNL A   1      44.199  32.743  32.671  1.00  0.00     0.134 A 
ATOM     65  C   UNL A   1      44.778  33.579  30.504  1.00  0.00     0.134 A 
ATOM     66  F   UNL A   1      43.838  31.751  33.500  1.00  0.00    -0.206 F 
ATOM     67  C   UNL A   1      44.333  34.026  33.207  1.00  0.00     0.040 A 
ATOM     68  C   UNL A   1      44.945  34.859  31.035  1.00  0.00     0.040 A 
ATOM     69  F   UNL A   1      45.009  33.407  29.193  1.00  0.00    -0.206 F 
ATOM     70  C   UNL A   1      44.712  35.088  32.389  1.00  0.00     0.006 A 
ENDBRANCH  49  63
BRANCH  50  71
ATOM     71  C   UNL A   1      42.565  23.502  27.359  1.00  0.00     0.057 A 
ATOM     72  C   UNL A   1      42.626  23.279  25.978  1.00  0.00     0.134 A 
ATOM     73  C   UNL A   1      42.165  22.433  28.168  1.00  0.00     0.134 A 
ATOM     74  F   UNL A   1      42.995  24.266  25.148  1.00  0.00    -0.206 F 
ATOM     75  C   UNL A   1      42.275  22.049  25.420  1.00  0.00     0.040 A 
ATOM     76  C   UNL A   1      41.832  21.190  27.625  1.00  0.00     0.040 A 
ATOM     77  F   UNL A   1      42.100  22.580  29.499  1.00  0.00    -0.206 F 
ATOM     78  C   UNL A   1      41.876  20.999  26.246  1.00  0.00     0.006 A 
ENDBRANCH  50  71
BRANCH  62  79
ATOM     79  C   UNL A   1      48.283  26.577  29.947  1.00  0.00     0.057 A 
ATOM     80  C   UNL A   1      49.226  26.771  28.928  1.00  0.00     0.134 A 
ATOM     81  C   UNL A   1      48.693  25.863  31.080  1.00  0.00     0.134 A 
ATOM     82  F   UNL A   1      48.894  27.436  27.811  1.00  0.00    -0.206 F 
ATOM     83  C   UNL A   1      50.519  26.257  29.022  1.00  0.00     0.040 A 
ATOM     84  C   UNL A   1      49.993  25.368  31.198  1.00  0.00     0.040 A 
ATOM     85  F   UNL A   1      47.842  25.650  32.095  1.00  0.00    -0.206 F 
ATOM     86  C   UNL A   1      50.906  25.554  30.161  1.00  0.00     0.006 A 
ENDBRANCH  62  79
ENDBRANCH  36  37
ENDBRANCH  28  31
ENDBRANCH  26  27
ENDBRANCH  25  26
ENDBRANCH   1  25
TORSDOF 14
ENDMDL
MODEL 3
REMARK VINA RESULT:     -11.5      4.258      8.738
REMARK SMILES COC(=O)c1cc(F)cc(-c2ccc(C(=O)NCCCCNC(=O)c3ccc(-c4c5nc(c(-c6c(F)cccc6F)c6ccc([nH]6)c(-c6c(F)cccc6F)c6nc(c(-c7c(F)cccc7F)c7ccc4[nH]7)C=C6)C=C5)cc3)cc2C)c1
REMARK SMILES IDX 19 1 18 2 17 3 15 4 16 5 14 7 11 8 12 9 80 10 13 11 79 12
REMARK SMILES IDX 81 13 10 14 5 15 6 16 82 17 7 18 8 19 9 20 3 21 4 22 2 23
REMARK SMILES IDX 1 24 20 25 21 26 22 27 23 28 24 30 25 31 26 32 78 33 27 34
REMARK SMILES IDX 77 35 28 36 29 37 30 38 71 39 31 40 76 41 70 42 72 43 32 44
REMARK SMILES IDX 75 45 69 46 68 47 33 49 59 50 42 51 58 52 43 53 46 54 57 55
REMARK SMILES IDX 73 56 44 57 45 58 56 60 74 61 47 62 34 63 35 64 40 65 36 66
REMARK SMILES IDX 37 67 39 68 41 69 38 70 60 71 61 72 66 73 62 74 63 75 65 76
REMARK SMILES IDX 67 77 64 78 48 79 49 80 54 81 50 82 51 83 53 84 55 85 52 86
REMARK H PARENT 17 6 22 29 72 48 46 59
REMARK Flexibility Score: inf
ROOT
ATOM      1  C   UNL A   1      42.053  21.401  27.419  1.00  0.00     0.023 C 
ENDROOT
BRANCH   1   2
ATOM      2  C   UNL A   1      40.561  21.660  27.236  1.00  0.00     0.116 C 
BRANCH   2   3
ATOM      3  N   UNL A   1      40.230  23.065  27.090  1.00  0.00    -0.352 N 
ATOM      4  C   UNL A   1      39.136  23.733  26.586  1.00  0.00     0.251 C 
ATOM      5  O   UNL A   1      39.203  24.963  26.550  1.00  0.00    -0.269 OA
ATOM      6  H   UNL A   1      40.935  23.668  27.421  1.00  0.00     0.163 HD
BRANCH   4   7
ATOM      7  C   UNL A   1      37.904  23.068  26.062  1.00  0.00     0.040 A 
ATOM      8  C   UNL A   1      35.459  21.946  25.103  1.00  0.00    -0.015 A 
ATOM      9  C   UNL A   1      36.712  21.359  24.837  1.00  0.00     0.010 A 
ATOM     10  C   UNL A   1      35.435  23.082  25.930  1.00  0.00    -0.042 A 
ATOM     11  C   UNL A   1      37.898  21.866  25.368  1.00  0.00     0.014 A 
ATOM     12  C   UNL A   1      36.659  23.650  26.361  1.00  0.00     0.018 A 
ATOM     13  C   UNL A   1      34.166  23.703  26.454  1.00  0.00     0.045 C 
BRANCH   8  14
ATOM     14  C   UNL A   1      34.272  21.279  24.539  1.00  0.00    -0.014 A 
ATOM     15  C   UNL A   1      32.964  19.221  24.303  1.00  0.00     0.063 A 
ATOM     16  C   UNL A   1      32.177  19.819  23.321  1.00  0.00     0.055 A 
ATOM     17  C   UNL A   1      33.980  19.957  24.923  1.00  0.00     0.024 A 
ATOM     18  C   UNL A   1      32.433  21.139  22.966  1.00  0.00     0.124 A 
ATOM     19  F   UNL A   1      31.681  21.719  22.021  1.00  0.00    -0.207 F 
ATOM     20  C   UNL A   1      33.471  21.865  23.551  1.00  0.00     0.048 A 
BRANCH  15  21
ATOM     21  C   UNL A   1      32.813  17.804  24.710  1.00  0.00     0.337 C 
ATOM     22  O   UNL A   1      31.837  17.376  25.293  1.00  0.00    -0.246 OA
BRANCH  21  23
ATOM     23  O   UNL A   1      33.952  17.120  24.434  1.00  0.00    -0.465 OA
ATOM     24  C   UNL A   1      34.062  16.738  23.061  1.00  0.00     0.282 C 
ENDBRANCH  21  23
ENDBRANCH  15  21
ENDBRANCH   8  14
ENDBRANCH   4   7
ENDBRANCH   2   3
ENDBRANCH   1   2
BRANCH   1  25
ATOM     25  C   UNL A   1      42.919  21.482  26.161  1.00  0.00     0.023 C 
BRANCH  25  26
ATOM     26  C   UNL A   1      42.689  22.708  25.280  1.00  0.00     0.116 C 
BRANCH  26  27
ATOM     27  N   UNL A   1      43.916  23.373  24.876  1.00  0.00    -0.352 N 
ATOM     28  C   UNL A   1      44.431  24.585  25.267  1.00  0.00     0.251 C 
ATOM     29  H   UNL A   1      44.464  22.879  24.224  1.00  0.00     0.163 HD
ATOM     30  O   UNL A   1      45.428  25.017  24.694  1.00  0.00    -0.269 OA
BRANCH  28  31
ATOM     31  C   UNL A   1      43.800  25.392  26.340  1.00  0.00     0.039 A 
ATOM     32  C   UNL A   1      43.998  26.778  26.329  1.00  0.00     0.014 A 
ATOM     33  C   UNL A   1      43.090  24.812  27.393  1.00  0.00     0.014 A 
ATOM     34  C   UNL A   1      43.478  27.574  27.353  1.00  0.00     0.010 A 
ATOM     35  C   UNL A   1      42.506  25.611  28.374  1.00  0.00     0.010 A 
ATOM     36  C   UNL A   1      42.717  26.996  28.380  1.00  0.00    -0.014 A 
BRANCH  36  37
ATOM     37  C   UNL A   1      42.173  27.810  29.494  1.00  0.00     0.031 A 
ATOM     38  C   UNL A   1      42.835  27.777  30.844  1.00  0.00     0.074 A 
ATOM     39  C   UNL A   1      41.056  28.538  29.306  1.00  0.00     0.049 A 
ATOM     40  N   UNL A   1      42.475  28.364  31.957  1.00  0.00    -0.248 NA
ATOM     41  C   UNL A   1      44.051  26.957  30.967  1.00  0.00     0.031 C 
ATOM     42  C   UNL A   1      40.310  28.624  28.051  1.00  0.00     0.029 A 
ATOM     43  N   UNL A   1      40.351  29.334  30.171  1.00  0.00    -0.354 N 
ATOM     44  C   UNL A   1      43.411  27.979  32.908  1.00  0.00     0.074 A 
ATOM     45  C   UNL A   1      44.322  27.061  32.260  1.00  0.00     0.031 C 
ATOM     46  C   UNL A   1      39.264  29.448  28.221  1.00  0.00     0.029 A 
ATOM     47  C   UNL A   1      39.243  29.914  29.604  1.00  0.00     0.049 A 
ATOM     48  H   UNL A   1      40.614  29.476  31.109  1.00  0.00     0.167 HD
ATOM     49  C   UNL A   1      43.518  28.375  34.198  1.00  0.00     0.037 A 
ATOM     50  C   UNL A   1      38.311  30.726  30.140  1.00  0.00     0.037 A 
ATOM     51  C   UNL A   1      42.617  29.303  34.832  1.00  0.00     0.049 A 
ATOM     52  C   UNL A   1      38.431  31.132  31.581  1.00  0.00     0.074 A 
ATOM     53  C   UNL A   1      42.667  29.806  36.120  1.00  0.00     0.029 A 
ATOM     54  N   UNL A   1      41.504  29.864  34.224  1.00  0.00    -0.354 N 
ATOM     55  N   UNL A   1      39.350  30.800  32.457  1.00  0.00    -0.248 NA
ATOM     56  C   UNL A   1      37.394  32.028  32.110  1.00  0.00     0.031 C 
ATOM     57  C   UNL A   1      41.554  30.629  36.310  1.00  0.00     0.029 A 
ATOM     58  C   UNL A   1      40.844  30.688  35.120  1.00  0.00     0.049 A 
ATOM     59  H   UNL A   1      41.225  29.701  33.294  1.00  0.00     0.167 HD
ATOM     60  C   UNL A   1      39.015  31.462  33.630  1.00  0.00     0.074 A 
ATOM     61  C   UNL A   1      37.814  32.224  33.352  1.00  0.00     0.031 C 
ATOM     62  C   UNL A   1      39.649  31.441  34.829  1.00  0.00     0.037 A 
BRANCH  49  63
ATOM     63  C   UNL A   1      44.651  27.817  35.012  1.00  0.00     0.057 A 
ATOM     64  C   UNL A   1      44.486  26.649  35.766  1.00  0.00     0.134 A 
ATOM     65  C   UNL A   1      45.891  28.467  35.093  1.00  0.00     0.134 A 
ATOM     66  F   UNL A   1      43.323  25.979  35.742  1.00  0.00    -0.206 F 
ATOM     67  C   UNL A   1      45.508  26.153  36.579  1.00  0.00     0.040 A 
ATOM     68  C   UNL A   1      46.930  27.963  35.879  1.00  0.00     0.040 A 
ATOM     69  F   UNL A   1      46.121  29.584  34.388  1.00  0.00    -0.206 F 
ATOM     70  C   UNL A   1      46.736  26.808  36.633  1.00  0.00     0.006 A 
ENDBRANCH  49  63
BRANCH  50  71
ATOM     71  C   UNL A   1      37.211  31.230  29.282  1.00  0.00     0.057 A 
ATOM     72  C   UNL A   1      37.225  32.529  28.759  1.00  0.00     0.134 A 
ATOM     73  C   UNL A   1      36.086  30.441  29.019  1.00  0.00     0.134 A 
ATOM     74  F   UNL A   1      38.271  33.338  28.983  1.00  0.00    -0.206 F 
ATOM     75  C   UNL A   1      36.150  33.033  28.026  1.00  0.00     0.040 A 
ATOM     76  C   UNL A   1      35.012  30.925  28.269  1.00  0.00     0.040 A 
ATOM     77  F   UNL A   1      36.019  29.184  29.481  1.00  0.00    -0.206 F 
ATOM     78  C   UNL A   1      35.038  32.229  27.779  1.00  0.00     0.006 A 
ENDBRANCH  50  71
BRANCH  62  79
ATOM     79  C   UNL A   1      39.077  32.279  35.936  1.00  0.00     0.057 A 
ATOM     80  C   UNL A   1      39.463  33.618  36.088  1.00  0.00     0.134 A 
ATOM     81  C   UNL A   1      38.221  31.739  36.903  1.00  0.00     0.134 A 
ATOM     82  F   UNL A   1      40.292  34.193  35.203  1.00  0.00    -0.206 F 
ATOM     83  C   UNL A   1      39.035  34.383  37.173  1.00  0.00     0.040 A 
ATOM     84  C   UNL A   1      37.762  32.502  37.978  1.00  0.00     0.040 A 
ATOM     85  F   UNL A   1      37.806  30.466  36.810  1.00  0.00    -0.206 F 
ATOM     86  C   UNL A   1      38.180  33.825  38.121  1.00  0.00     0.006 A 
ENDBRANCH  62  79
ENDBRANCH  36  37
ENDBRANCH  28  31
ENDBRANCH  26  27
ENDBRANCH  25  26
ENDBRANCH   1  25
TORSDOF 14
ENDMDL
