MODEL 1
REMARK VINA RESULT:     -12.7      0.000      0.000
REMARK SMILES O=C(C[C@@H](C(=O)NCCCCNC(=O)c1ccc(-c2c3nc(c(-c4c(F)cccc4F)c4ccc([nH]4)c(-c4c(F)cccc4F)c4nc(c(-c5c(F)cccc5F)c5ccc2[nH]5)C=C4)C=C3)cc1)[NH+]1CCN(c2cccc(Cl)c2)CC1)c1ccc(F)cc1
REMARK SMILES IDX 9 1 8 2 7 3 5 4 6 5 4 7 3 8 2 9 1 10 82 11 83 12 88 13 84 14
REMARK SMILES IDX 87 15 85 16 86 17 69 18 70 19 81 20 71 22 80 23 72 24 73 25
REMARK SMILES IDX 74 26 79 27 75 28 77 29 76 30 78 31 10 32 11 33 12 34 13 35
REMARK SMILES IDX 14 37 15 38 16 39 68 40 17 41 67 42 18 43 19 44 20 45 61 46
REMARK SMILES IDX 21 47 66 48 60 49 62 50 22 51 65 52 59 53 58 54 23 56 49 57
REMARK SMILES IDX 32 58 48 59 33 60 36 61 47 62 63 63 34 64 35 65 46 67 64 68
REMARK SMILES IDX 37 69 24 70 25 71 30 72 26 73 27 74 29 75 31 76 28 77 50 78
REMARK SMILES IDX 51 79 56 80 52 81 53 82 55 83 57 84 54 85 38 86 39 87 44 88
REMARK SMILES IDX 40 89 41 90 43 91 45 92 42 93
REMARK H PARENT 7 6 69 21 12 36 62 55 36 66
REMARK Flexibility Score: inf
ROOT
ATOM      1  C   UNL A   1      31.920  28.414  26.014  1.00  0.00     0.023 C 
ENDROOT
BRANCH   1   2
ATOM      2  C   UNL A   1      32.322  27.059  26.607  1.00  0.00     0.116 C 
BRANCH   2   3
ATOM      3  N   UNL A   1      31.186  26.207  26.894  1.00  0.00    -0.351 N 
ATOM      4  C   UNL A   1      30.419  25.382  26.133  1.00  0.00     0.278 C 
ATOM      5  O   UNL A   1      29.468  24.883  26.740  1.00  0.00    -0.268 OA
ATOM      6  H   UNL A   1      30.912  26.229  27.839  1.00  0.00     0.163 HD
BRANCH   4   7
ATOM      7  C   UNL A   1      30.747  25.095  24.641  1.00  0.00     0.282 C 
BRANCH   7   8
ATOM      8  C   UNL A   1      29.893  25.825  23.576  1.00  0.00     0.156 C 
BRANCH   8   9
ATOM      9  C   UNL A   1      30.104  27.177  22.909  1.00  0.00     0.169 C 
ATOM     10  O   UNL A   1      30.957  27.232  22.013  1.00  0.00    -0.294 OA
BRANCH   9  11
ATOM     11  C   UNL A   1      29.365  28.437  23.189  1.00  0.00     0.018 A 
ATOM     12  C   UNL A   1      29.970  29.650  23.496  1.00  0.00     0.015 A 
ATOM     13  C   UNL A   1      27.959  28.387  23.110  1.00  0.00     0.015 A 
ATOM     14  C   UNL A   1      29.207  30.819  23.582  1.00  0.00     0.040 A 
ATOM     15  C   UNL A   1      27.190  29.546  23.230  1.00  0.00     0.040 A 
ATOM     16  C   UNL A   1      27.827  30.759  23.436  1.00  0.00     0.123 A 
ATOM     17  F   UNL A   1      27.102  31.884  23.495  1.00  0.00    -0.207 F 
ENDBRANCH   9  11
ENDBRANCH   8   9
ENDBRANCH   7   8
BRANCH   7  18
ATOM     18  N   UNL A   1      31.213  23.695  24.313  1.00  0.00    -0.321 N 
ATOM     19  C   UNL A   1      32.154  23.469  23.197  1.00  0.00     0.284 C 
ATOM     20  C   UNL A   1      31.620  22.796  25.410  1.00  0.00     0.284 C 
ATOM     21  H   UNL A   1      30.277  23.441  23.995  1.00  0.00     0.348 HD
ATOM     22  C   UNL A   1      33.656  23.649  23.539  1.00  0.00     0.178 C 
ATOM     23  C   UNL A   1      33.058  23.040  25.919  1.00  0.00     0.178 C 
ATOM     24  N   UNL A   1      34.016  22.987  24.806  1.00  0.00    -0.360 N 
BRANCH  24  25
ATOM     25  C   UNL A   1      35.356  22.808  25.117  1.00  0.00     0.038 A 
ATOM     26  C   UNL A   1      36.176  23.857  25.559  1.00  0.00     0.026 A 
ATOM     27  C   UNL A   1      35.939  21.545  24.956  1.00  0.00     0.046 A 
ATOM     28  C   UNL A   1      37.538  23.657  25.813  1.00  0.00     0.004 A 
ATOM     29  C   UNL A   1      37.301  21.348  25.189  1.00  0.00     0.043 A 
ATOM     30  C   UNL A   1      38.105  22.401  25.616  1.00  0.00     0.020 A 
ATOM     31  Cl  UNL A   1      37.996  19.796  24.921  1.00  0.00    -0.084 Cl
ENDBRANCH  24  25
ENDBRANCH   7  18
ENDBRANCH   4   7
ENDBRANCH   2   3
ENDBRANCH   1   2
BRANCH   1  32
ATOM     32  C   UNL A   1      32.210  29.640  26.888  1.00  0.00     0.023 C 
BRANCH  32  33
ATOM     33  C   UNL A   1      33.669  29.825  27.266  1.00  0.00     0.116 C 
BRANCH  33  34
ATOM     34  N   UNL A   1      33.838  30.977  28.137  1.00  0.00    -0.352 N 
ATOM     35  C   UNL A   1      34.837  31.269  29.027  1.00  0.00     0.251 C 
ATOM     36  H   UNL A   1      33.124  31.651  28.077  1.00  0.00     0.163 HD
ATOM     37  O   UNL A   1      34.642  32.157  29.863  1.00  0.00    -0.269 OA
BRANCH  35  38
ATOM     38  C   UNL A   1      36.142  30.566  29.004  1.00  0.00     0.039 A 
ATOM     39  C   UNL A   1      36.564  29.899  30.161  1.00  0.00     0.014 A 
ATOM     40  C   UNL A   1      37.002  30.644  27.906  1.00  0.00     0.014 A 
ATOM     41  C   UNL A   1      37.836  29.322  30.217  1.00  0.00     0.010 A 
ATOM     42  C   UNL A   1      38.232  29.991  27.928  1.00  0.00     0.010 A 
ATOM     43  C   UNL A   1      38.683  29.367  29.100  1.00  0.00    -0.014 A 
BRANCH  43  44
ATOM     44  C   UNL A   1      40.083  28.877  29.170  1.00  0.00     0.031 A 
ATOM     45  C   UNL A   1      41.163  29.799  29.678  1.00  0.00     0.074 A 
ATOM     46  C   UNL A   1      40.395  27.636  28.752  1.00  0.00     0.049 A 
ATOM     47  N   UNL A   1      42.459  29.621  29.719  1.00  0.00    -0.248 NA
ATOM     48  C   UNL A   1      40.728  31.117  30.173  1.00  0.00     0.031 C 
ATOM     49  C   UNL A   1      39.450  26.661  28.206  1.00  0.00     0.029 A 
ATOM     50  N   UNL A   1      41.603  26.986  28.713  1.00  0.00    -0.354 N 
ATOM     51  C   UNL A   1      42.989  30.807  30.213  1.00  0.00     0.074 A 
ATOM     52  C   UNL A   1      41.884  31.719  30.404  1.00  0.00     0.031 C 
ATOM     53  C   UNL A   1      40.110  25.531  27.902  1.00  0.00     0.029 A 
ATOM     54  C   UNL A   1      41.527  25.711  28.204  1.00  0.00     0.049 A 
ATOM     55  H   UNL A   1      42.445  27.393  29.020  1.00  0.00     0.167 HD
ATOM     56  C   UNL A   1      44.276  31.102  30.513  1.00  0.00     0.037 A 
ATOM     57  C   UNL A   1      42.494  24.796  28.006  1.00  0.00     0.037 A 
ATOM     58  C   UNL A   1      45.367  30.176  30.374  1.00  0.00     0.049 A 
ATOM     59  C   UNL A   1      43.908  25.132  28.395  1.00  0.00     0.074 A 
ATOM     60  C   UNL A   1      46.707  30.364  30.664  1.00  0.00     0.029 A 
ATOM     61  N   UNL A   1      45.233  28.871  29.924  1.00  0.00    -0.354 N 
ATOM     62  N   UNL A   1      44.391  26.251  28.877  1.00  0.00    -0.248 NA
ATOM     63  C   UNL A   1      44.911  24.069  28.228  1.00  0.00     0.031 C 
ATOM     64  C   UNL A   1      47.385  29.175  30.381  1.00  0.00     0.029 A 
ATOM     65  C   UNL A   1      46.462  28.237  29.946  1.00  0.00     0.049 A 
ATOM     66  H   UNL A   1      44.388  28.458  29.633  1.00  0.00     0.167 HD
ATOM     67  C   UNL A   1      45.740  26.018  29.105  1.00  0.00     0.074 A 
ATOM     68  C   UNL A   1      45.999  24.646  28.718  1.00  0.00     0.031 C 
ATOM     69  C   UNL A   1      46.685  26.862  29.586  1.00  0.00     0.037 A 
BRANCH  56  70
ATOM     70  C   UNL A   1      44.565  32.475  31.049  1.00  0.00     0.057 A 
ATOM     71  C   UNL A   1      44.549  32.746  32.424  1.00  0.00     0.134 A 
ATOM     72  C   UNL A   1      44.885  33.532  30.187  1.00  0.00     0.134 A 
ATOM     73  F   UNL A   1      44.235  31.781  33.302  1.00  0.00    -0.206 F 
ATOM     74  C   UNL A   1      44.815  34.023  32.921  1.00  0.00     0.040 A 
ATOM     75  C   UNL A   1      45.180  34.808  30.675  1.00  0.00     0.040 A 
ATOM     76  F   UNL A   1      44.922  33.343  28.860  1.00  0.00    -0.206 F 
ATOM     77  C   UNL A   1      45.139  35.056  32.045  1.00  0.00     0.006 A 
ENDBRANCH  56  70
BRANCH  57  78
ATOM     78  C   UNL A   1      42.159  23.465  27.441  1.00  0.00     0.057 A 
ATOM     79  C   UNL A   1      41.807  22.395  28.274  1.00  0.00     0.134 A 
ATOM     80  C   UNL A   1      42.200  23.222  26.064  1.00  0.00     0.134 A 
ATOM     81  F   UNL A   1      41.767  22.561  29.605  1.00  0.00    -0.206 F 
ATOM     82  C   UNL A   1      41.536  21.126  27.761  1.00  0.00     0.040 A 
ATOM     83  C   UNL A   1      41.907  21.965  25.534  1.00  0.00     0.040 A 
ATOM     84  F   UNL A   1      42.521  24.207  25.213  1.00  0.00    -0.206 F 
ATOM     85  C   UNL A   1      41.582  20.909  26.385  1.00  0.00     0.006 A 
ENDBRANCH  57  78
BRANCH  69  86
ATOM     86  C   UNL A   1      48.063  26.307  29.777  1.00  0.00     0.057 A 
ATOM     87  C   UNL A   1      49.005  26.289  28.742  1.00  0.00     0.134 A 
ATOM     88  C   UNL A   1      48.461  25.817  31.028  1.00  0.00     0.134 A 
ATOM     89  F   UNL A   1      48.679  26.734  27.519  1.00  0.00    -0.206 F 
ATOM     90  C   UNL A   1      50.288  25.778  28.935  1.00  0.00     0.040 A 
ATOM     91  C   UNL A   1      49.749  25.325  31.240  1.00  0.00     0.040 A 
ATOM     92  F   UNL A   1      47.609  25.817  32.063  1.00  0.00    -0.206 F 
ATOM     93  C   UNL A   1      50.666  25.299  30.190  1.00  0.00     0.006 A 
ENDBRANCH  69  86
ENDBRANCH  43  44
ENDBRANCH  35  38
ENDBRANCH  33  34
ENDBRANCH  32  33
ENDBRANCH   1  32
TORSDOF 16
ENDMDL
MODEL 2
REMARK VINA RESULT:     -12.5      1.381      6.052
REMARK SMILES O=C(C[C@@H](C(=O)NCCCCNC(=O)c1ccc(-c2c3nc(c(-c4c(F)cccc4F)c4ccc([nH]4)c(-c4c(F)cccc4F)c4nc(c(-c5c(F)cccc5F)c5ccc2[nH]5)C=C4)C=C3)cc1)[NH+]1CCN(c2cccc(Cl)c2)CC1)c1ccc(F)cc1
REMARK SMILES IDX 9 1 8 2 7 3 5 4 6 5 4 7 3 8 2 9 1 10 82 11 83 12 88 13 84 14
REMARK SMILES IDX 87 15 85 16 86 17 69 18 70 19 81 20 71 22 80 23 72 24 73 25
REMARK SMILES IDX 74 26 79 27 75 28 77 29 76 30 78 31 10 32 11 33 12 34 13 35
REMARK SMILES IDX 14 37 15 38 16 39 68 40 17 41 67 42 18 43 19 44 20 45 61 46
REMARK SMILES IDX 21 47 66 48 60 49 62 50 22 51 65 52 59 53 58 54 23 56 49 57
REMARK SMILES IDX 32 58 48 59 33 60 36 61 47 62 63 63 34 64 35 65 46 67 64 68
REMARK SMILES IDX 37 69 24 70 25 71 30 72 26 73 27 74 29 75 31 76 28 77 50 78
REMARK SMILES IDX 51 79 56 80 52 81 53 82 55 83 57 84 54 85 38 86 39 87 44 88
REMARK SMILES IDX 40 89 41 90 43 91 45 92 42 93
REMARK H PARENT 7 6 69 21 12 36 62 55 36 66
REMARK Flexibility Score: inf
ROOT
ATOM      1  C   UNL A   1      32.558  28.225  26.014  1.00  0.00     0.023 C 
ENDROOT
BRANCH   1   2
ATOM      2  C   UNL A   1      32.477  26.945  26.854  1.00  0.00     0.116 C 
BRANCH   2   3
ATOM      3  N   UNL A   1      31.147  26.374  26.888  1.00  0.00    -0.351 N 
ATOM      4  C   UNL A   1      30.396  25.696  25.980  1.00  0.00     0.278 C 
ATOM      5  O   UNL A   1      29.251  25.445  26.366  1.00  0.00    -0.268 OA
ATOM      6  H   UNL A   1      30.691  26.502  27.751  1.00  0.00     0.163 HD
BRANCH   4   7
ATOM      7  C   UNL A   1      30.960  25.270  24.596  1.00  0.00     0.282 C 
BRANCH   7   8
ATOM      8  C   UNL A   1      30.391  25.988  23.348  1.00  0.00     0.156 C 
BRANCH   8   9
ATOM      9  C   UNL A   1      30.561  27.428  22.883  1.00  0.00     0.169 C 
ATOM     10  O   UNL A   1      31.623  27.710  22.311  1.00  0.00    -0.294 OA
BRANCH   9  11
ATOM     11  C   UNL A   1      29.570  28.529  23.004  1.00  0.00     0.018 A 
ATOM     12  C   UNL A   1      28.200  28.376  22.825  1.00  0.00     0.015 A 
ATOM     13  C   UNL A   1      30.064  29.804  23.346  1.00  0.00     0.015 A 
ATOM     14  C   UNL A   1      27.325  29.427  23.119  1.00  0.00     0.040 A 
ATOM     15  C   UNL A   1      29.198  30.866  23.606  1.00  0.00     0.040 A 
ATOM     16  C   UNL A   1      27.831  30.658  23.519  1.00  0.00     0.123 A 
ATOM     17  F   UNL A   1      26.990  31.655  23.821  1.00  0.00    -0.207 F 
ENDBRANCH   9  11
ENDBRANCH   8   9
ENDBRANCH   7   8
BRANCH   7  18
ATOM     18  N   UNL A   1      31.338  23.814  24.444  1.00  0.00    -0.321 N 
ATOM     19  C   UNL A   1      32.225  23.390  23.341  1.00  0.00     0.284 C 
ATOM     20  C   UNL A   1      31.736  23.046  25.638  1.00  0.00     0.284 C 
ATOM     21  H   UNL A   1      30.379  23.576  24.190  1.00  0.00     0.348 HD
ATOM     22  C   UNL A   1      33.747  23.526  23.613  1.00  0.00     0.178 C 
ATOM     23  C   UNL A   1      33.203  23.271  26.068  1.00  0.00     0.178 C 
ATOM     24  N   UNL A   1      34.116  23.017  24.945  1.00  0.00    -0.360 N 
BRANCH  24  25
ATOM     25  C   UNL A   1      35.455  22.803  25.239  1.00  0.00     0.038 A 
ATOM     26  C   UNL A   1      36.297  23.820  25.714  1.00  0.00     0.026 A 
ATOM     27  C   UNL A   1      36.015  21.538  25.025  1.00  0.00     0.046 A 
ATOM     28  C   UNL A   1      37.656  23.587  25.949  1.00  0.00     0.004 A 
ATOM     29  C   UNL A   1      37.375  21.308  25.239  1.00  0.00     0.043 A 
ATOM     30  C   UNL A   1      38.200  22.330  25.700  1.00  0.00     0.020 A 
ATOM     31  Cl  UNL A   1      38.041  19.757  24.906  1.00  0.00    -0.084 Cl
ENDBRANCH  24  25
ENDBRANCH   7  18
ENDBRANCH   4   7
ENDBRANCH   2   3
ENDBRANCH   1   2
BRANCH   1  32
ATOM     32  C   UNL A   1      33.067  29.474  26.745  1.00  0.00     0.023 C 
BRANCH  32  33
ATOM     33  C   UNL A   1      34.429  29.322  27.399  1.00  0.00     0.116 C 
BRANCH  33  34
ATOM     34  N   UNL A   1      34.636  30.343  28.412  1.00  0.00    -0.352 N 
ATOM     35  C   UNL A   1      35.707  30.563  29.236  1.00  0.00     0.251 C 
ATOM     36  H   UNL A   1      33.890  30.976  28.522  1.00  0.00     0.163 HD
ATOM     37  O   UNL A   1      35.561  31.307  30.210  1.00  0.00    -0.269 OA
BRANCH  35  38
ATOM     38  C   UNL A   1      37.033  29.949  28.983  1.00  0.00     0.039 A 
ATOM     39  C   UNL A   1      37.730  29.390  30.062  1.00  0.00     0.014 A 
ATOM     40  C   UNL A   1      37.648  30.012  27.730  1.00  0.00     0.014 A 
ATOM     41  C   UNL A   1      39.029  28.905  29.886  1.00  0.00     0.010 A 
ATOM     42  C   UNL A   1      38.905  29.446  27.534  1.00  0.00     0.010 A 
ATOM     43  C   UNL A   1      39.629  28.933  28.619  1.00  0.00    -0.014 A 
BRANCH  43  44
ATOM     44  C   UNL A   1      41.049  28.544  28.426  1.00  0.00     0.031 A 
ATOM     45  C   UNL A   1      41.382  27.117  28.069  1.00  0.00     0.074 A 
ATOM     46  C   UNL A   1      42.035  29.444  28.604  1.00  0.00     0.049 A 
ATOM     47  N   UNL A   1      42.550  26.535  27.964  1.00  0.00    -0.248 NA
ATOM     48  C   UNL A   1      40.243  26.212  27.833  1.00  0.00     0.031 C 
ATOM     49  C   UNL A   1      41.847  30.844  28.986  1.00  0.00     0.029 A 
ATOM     50  N   UNL A   1      43.396  29.309  28.494  1.00  0.00    -0.354 N 
ATOM     51  C   UNL A   1      42.284  25.200  27.681  1.00  0.00     0.074 A 
ATOM     52  C   UNL A   1      40.847  25.043  27.687  1.00  0.00     0.031 C 
ATOM     53  C   UNL A   1      43.047  31.443  29.062  1.00  0.00     0.029 A 
ATOM     54  C   UNL A   1      44.088  30.465  28.763  1.00  0.00     0.049 A 
ATOM     55  H   UNL A   1      43.836  28.463  28.246  1.00  0.00     0.167 HD
ATOM     56  C   UNL A   1      43.155  24.200  27.408  1.00  0.00     0.037 A 
ATOM     57  C   UNL A   1      45.413  30.703  28.768  1.00  0.00     0.037 A 
ATOM     58  C   UNL A   1      44.582  24.370  27.350  1.00  0.00     0.049 A 
ATOM     59  C   UNL A   1      46.357  29.587  28.412  1.00  0.00     0.074 A 
ATOM     60  C   UNL A   1      45.556  23.429  27.066  1.00  0.00     0.029 A 
ATOM     61  N   UNL A   1      45.235  25.576  27.557  1.00  0.00    -0.354 N 
ATOM     62  N   UNL A   1      46.089  28.334  28.130  1.00  0.00    -0.248 NA
ATOM     63  C   UNL A   1      47.788  29.921  28.357  1.00  0.00     0.031 C 
ATOM     64  C   UNL A   1      46.801  24.065  27.110  1.00  0.00     0.029 A 
ATOM     65  C   UNL A   1      46.597  25.407  27.390  1.00  0.00     0.049 A 
ATOM     66  H   UNL A   1      44.794  26.425  27.789  1.00  0.00     0.167 HD
ATOM     67  C   UNL A   1      47.309  27.742  27.830  1.00  0.00     0.074 A 
ATOM     68  C   UNL A   1      48.317  28.775  27.954  1.00  0.00     0.031 C 
ATOM     69  C   UNL A   1      47.575  26.458  27.488  1.00  0.00     0.037 A 
BRANCH  56  70
ATOM     70  C   UNL A   1      42.582  22.841  27.125  1.00  0.00     0.057 A 
ATOM     71  C   UNL A   1      42.181  21.984  28.159  1.00  0.00     0.134 A 
ATOM     72  C   UNL A   1      42.408  22.393  25.810  1.00  0.00     0.134 A 
ATOM     73  F   UNL A   1      42.337  22.346  29.441  1.00  0.00    -0.206 F 
ATOM     74  C   UNL A   1      41.651  20.720  27.895  1.00  0.00     0.040 A 
ATOM     75  C   UNL A   1      41.853  21.140  25.534  1.00  0.00     0.040 A 
ATOM     76  F   UNL A   1      42.766  23.163  24.773  1.00  0.00    -0.206 F 
ATOM     77  C   UNL A   1      41.479  20.298  26.579  1.00  0.00     0.006 A 
ENDBRANCH  56  70
BRANCH  57  78
ATOM     78  C   UNL A   1      45.928  32.057  29.088  1.00  0.00     0.057 A 
ATOM     79  C   UNL A   1      46.188  32.438  30.411  1.00  0.00     0.134 A 
ATOM     80  C   UNL A   1      46.153  33.010  28.088  1.00  0.00     0.134 A 
ATOM     81  F   UNL A   1      45.975  31.574  31.415  1.00  0.00    -0.206 F 
ATOM     82  C   UNL A   1      46.627  33.723  30.731  1.00  0.00     0.040 A 
ATOM     83  C   UNL A   1      46.616  34.292  28.391  1.00  0.00     0.040 A 
ATOM     84  F   UNL A   1      45.932  32.706  26.802  1.00  0.00    -0.206 F 
ATOM     85  C   UNL A   1      46.845  34.655  29.718  1.00  0.00     0.006 A 
ENDBRANCH  57  78
BRANCH  69  86
ATOM     86  C   UNL A   1      48.998  26.118  27.165  1.00  0.00     0.057 A 
ATOM     87  C   UNL A   1      49.508  26.227  25.866  1.00  0.00     0.134 A 
ATOM     88  C   UNL A   1      49.876  25.711  28.177  1.00  0.00     0.134 A 
ATOM     89  F   UNL A   1      48.713  26.601  24.853  1.00  0.00    -0.206 F 
ATOM     90  C   UNL A   1      50.838  25.917  25.579  1.00  0.00     0.040 A 
ATOM     91  C   UNL A   1      51.213  25.420  27.907  1.00  0.00     0.040 A 
ATOM     92  F   UNL A   1      49.450  25.596  29.444  1.00  0.00    -0.206 F 
ATOM     93  C   UNL A   1      51.696  25.517  26.603  1.00  0.00     0.006 A 
ENDBRANCH  69  86
ENDBRANCH  43  44
ENDBRANCH  35  38
ENDBRANCH  33  34
ENDBRANCH  32  33
ENDBRANCH   1  32
TORSDOF 16
ENDMDL
MODEL 3
REMARK VINA RESULT:     -12.3      2.410      6.896
REMARK SMILES O=C(C[C@@H](C(=O)NCCCCNC(=O)c1ccc(-c2c3nc(c(-c4c(F)cccc4F)c4ccc([nH]4)c(-c4c(F)cccc4F)c4nc(c(-c5c(F)cccc5F)c5ccc2[nH]5)C=C4)C=C3)cc1)[NH+]1CCN(c2cccc(Cl)c2)CC1)c1ccc(F)cc1
REMARK SMILES IDX 9 1 8 2 7 3 5 4 6 5 4 7 3 8 2 9 1 10 82 11 83 12 88 13 84 14
REMARK SMILES IDX 87 15 85 16 86 17 69 18 70 19 81 20 71 22 80 23 72 24 73 25
REMARK SMILES IDX 74 26 79 27 75 28 77 29 76 30 78 31 10 32 11 33 12 34 13 35
REMARK SMILES IDX 14 37 15 38 16 39 68 40 17 41 67 42 18 43 19 44 20 45 61 46
REMARK SMILES IDX 21 47 66 48 60 49 62 50 22 51 65 52 59 53 58 54 23 56 49 57
REMARK SMILES IDX 32 58 48 59 33 60 36 61 47 62 63 63 34 64 35 65 46 67 64 68
REMARK SMILES IDX 37 69 24 70 25 71 30 72 26 73 27 74 29 75 31 76 28 77 50 78
REMARK SMILES IDX 51 79 56 80 52 81 53 82 55 83 57 84 54 85 38 86 39 87 44 88
REMARK SMILES IDX 40 89 41 90 43 91 45 92 42 93
REMARK H PARENT 7 6 69 21 12 36 62 55 36 66
REMARK Flexibility Score: inf
ROOT
ATOM      1  C   UNL A   1      32.027  29.529  26.555  1.00  0.00     0.023 C 
ENDROOT
BRANCH   1   2
ATOM      2  C   UNL A   1      32.202  29.687  25.040  1.00  0.00     0.116 C 
BRANCH   2   3
ATOM      3  N   UNL A   1      30.944  29.677  24.321  1.00  0.00    -0.351 N 
ATOM      4  C   UNL A   1      30.289  28.733  23.595  1.00  0.00     0.278 C 
ATOM      5  O   UNL A   1      29.259  29.145  23.053  1.00  0.00    -0.268 OA
ATOM      6  H   UNL A   1      30.463  30.535  24.368  1.00  0.00     0.163 HD
BRANCH   4   7
ATOM      7  C   UNL A   1      30.800  27.269  23.491  1.00  0.00     0.282 C 
BRANCH   7   8
ATOM      8  C   UNL A   1      31.564  26.876  22.203  1.00  0.00     0.156 C 
BRANCH   8   9
ATOM      9  C   UNL A   1      32.878  26.127  22.032  1.00  0.00     0.169 C 
ATOM     10  O   UNL A   1      33.293  25.982  20.874  1.00  0.00    -0.294 OA
BRANCH   9  11
ATOM     11  C   UNL A   1      33.744  25.582  23.111  1.00  0.00     0.018 A 
ATOM     12  C   UNL A   1      34.006  26.233  24.311  1.00  0.00     0.015 A 
ATOM     13  C   UNL A   1      34.311  24.310  22.898  1.00  0.00     0.015 A 
ATOM     14  C   UNL A   1      34.696  25.578  25.336  1.00  0.00     0.040 A 
ATOM     15  C   UNL A   1      35.031  23.666  23.905  1.00  0.00     0.040 A 
ATOM     16  C   UNL A   1      35.191  24.296  25.129  1.00  0.00     0.123 A 
ATOM     17  F   UNL A   1      35.831  23.663  26.119  1.00  0.00    -0.207 F 
ENDBRANCH   9  11
ENDBRANCH   8   9
ENDBRANCH   7   8
BRANCH   7  18
ATOM     18  N   UNL A   1      29.937  26.208  24.134  1.00  0.00    -0.321 N 
ATOM     19  C   UNL A   1      29.827  24.869  23.521  1.00  0.00     0.284 C 
ATOM     20  C   UNL A   1      30.009  26.010  25.595  1.00  0.00     0.284 C 
ATOM     21  H   UNL A   1      29.093  26.733  23.904  1.00  0.00     0.348 HD
ATOM     22  C   UNL A   1      30.950  23.865  23.894  1.00  0.00     0.178 C 
ATOM     23  C   UNL A   1      31.212  25.155  26.052  1.00  0.00     0.178 C 
ATOM     24  N   UNL A   1      31.234  23.871  25.340  1.00  0.00    -0.360 N 
BRANCH  24  25
ATOM     25  C   UNL A   1      32.000  22.847  25.881  1.00  0.00     0.038 A 
ATOM     26  C   UNL A   1      32.579  22.928  27.156  1.00  0.00     0.026 A 
ATOM     27  C   UNL A   1      32.244  21.695  25.124  1.00  0.00     0.046 A 
ATOM     28  C   UNL A   1      33.391  21.903  27.652  1.00  0.00     0.004 A 
ATOM     29  C   UNL A   1      33.070  20.679  25.608  1.00  0.00     0.043 A 
ATOM     30  C   UNL A   1      33.647  20.779  26.871  1.00  0.00     0.020 A 
ATOM     31  Cl  UNL A   1      33.399  19.305  24.625  1.00  0.00    -0.084 Cl
ENDBRANCH  24  25
ENDBRANCH   7  18
ENDBRANCH   4   7
ENDBRANCH   2   3
ENDBRANCH   1   2
BRANCH   1  32
ATOM     32  C   UNL A   1      33.082  28.672  27.264  1.00  0.00     0.023 C 
BRANCH  32  33
ATOM     33  C   UNL A   1      34.488  29.243  27.246  1.00  0.00     0.116 C 
BRANCH  33  34
ATOM     34  N   UNL A   1      34.676  30.198  28.325  1.00  0.00    -0.352 N 
ATOM     35  C   UNL A   1      35.735  30.370  29.177  1.00  0.00     0.251 C 
ATOM     36  H   UNL A   1      33.925  30.819  28.465  1.00  0.00     0.163 HD
ATOM     37  O   UNL A   1      35.571  31.049  30.195  1.00  0.00    -0.269 OA
BRANCH  35  38
ATOM     38  C   UNL A   1      37.067  29.780  28.904  1.00  0.00     0.039 A 
ATOM     39  C   UNL A   1      37.780  29.212  29.968  1.00  0.00     0.014 A 
ATOM     40  C   UNL A   1      37.671  29.872  27.647  1.00  0.00     0.014 A 
ATOM     41  C   UNL A   1      39.084  28.749  29.774  1.00  0.00     0.010 A 
ATOM     42  C   UNL A   1      38.935  29.328  27.432  1.00  0.00     0.010 A 
ATOM     43  C   UNL A   1      39.674  28.807  28.503  1.00  0.00    -0.014 A 
BRANCH  43  44
ATOM     44  C   UNL A   1      41.099  28.442  28.293  1.00  0.00     0.031 A 
ATOM     45  C   UNL A   1      41.452  27.020  27.934  1.00  0.00     0.074 A 
ATOM     46  C   UNL A   1      42.071  29.359  28.456  1.00  0.00     0.049 A 
ATOM     47  N   UNL A   1      42.627  26.458  27.816  1.00  0.00    -0.248 NA
ATOM     48  C   UNL A   1      40.326  26.095  27.714  1.00  0.00     0.031 C 
ATOM     49  C   UNL A   1      41.864  30.757  28.838  1.00  0.00     0.029 A 
ATOM     50  N   UNL A   1      43.433  29.247  28.330  1.00  0.00    -0.354 N 
ATOM     51  C   UNL A   1      42.381  25.119  27.539  1.00  0.00     0.074 A 
ATOM     52  C   UNL A   1      40.947  24.937  27.563  1.00  0.00     0.031 C 
ATOM     53  C   UNL A   1      43.055  31.376  28.898  1.00  0.00     0.029 A 
ATOM     54  C   UNL A   1      44.108  30.416  28.588  1.00  0.00     0.049 A 
ATOM     55  H   UNL A   1      43.884  28.409  28.078  1.00  0.00     0.167 HD
ATOM     56  C   UNL A   1      43.266  24.133  27.257  1.00  0.00     0.037 A 
ATOM     57  C   UNL A   1      45.429  30.676  28.576  1.00  0.00     0.037 A 
ATOM     58  C   UNL A   1      44.688  24.327  27.180  1.00  0.00     0.049 A 
ATOM     59  C   UNL A   1      46.387  29.575  28.210  1.00  0.00     0.074 A 
ATOM     60  C   UNL A   1      45.675  23.402  26.886  1.00  0.00     0.029 A 
ATOM     61  N   UNL A   1      45.323  25.544  27.377  1.00  0.00    -0.354 N 
ATOM     62  N   UNL A   1      46.138  28.318  27.934  1.00  0.00    -0.248 NA
ATOM     63  C   UNL A   1      47.811  29.934  28.136  1.00  0.00     0.031 C 
ATOM     64  C   UNL A   1      46.909  24.059  26.913  1.00  0.00     0.029 A 
ATOM     65  C   UNL A   1      46.686  25.398  27.193  1.00  0.00     0.049 A 
ATOM     66  H   UNL A   1      44.871  26.386  27.612  1.00  0.00     0.167 HD
ATOM     67  C   UNL A   1      47.364  27.746  27.620  1.00  0.00     0.074 A 
ATOM     68  C   UNL A   1      48.355  28.796  27.729  1.00  0.00     0.031 C 
ATOM     69  C   UNL A   1      47.647  26.466  27.277  1.00  0.00     0.037 A 
BRANCH  56  70
ATOM     70  C   UNL A   1      42.713  22.763  26.984  1.00  0.00     0.057 A 
ATOM     71  C   UNL A   1      42.629  22.251  25.682  1.00  0.00     0.134 A 
ATOM     72  C   UNL A   1      42.281  21.939  28.030  1.00  0.00     0.134 A 
ATOM     73  F   UNL A   1      43.011  22.997  24.633  1.00  0.00    -0.206 F 
ATOM     74  C   UNL A   1      42.113  20.980  25.428  1.00  0.00     0.040 A 
ATOM     75  C   UNL A   1      41.788  20.654  27.790  1.00  0.00     0.040 A 
ATOM     76  F   UNL A   1      42.337  22.364  29.300  1.00  0.00    -0.206 F 
ATOM     77  C   UNL A   1      41.698  20.175  26.485  1.00  0.00     0.006 A 
ENDBRANCH  56  70
BRANCH  57  78
ATOM     78  C   UNL A   1      45.925  32.040  28.887  1.00  0.00     0.057 A 
ATOM     79  C   UNL A   1      46.093  32.995  27.877  1.00  0.00     0.134 A 
ATOM     80  C   UNL A   1      46.260  32.417  30.192  1.00  0.00     0.134 A 
ATOM     81  F   UNL A   1      45.805  32.688  26.603  1.00  0.00    -0.206 F 
ATOM     82  C   UNL A   1      46.603  34.266  28.148  1.00  0.00     0.040 A 
ATOM     83  C   UNL A   1      46.748  33.692  30.482  1.00  0.00     0.040 A 
ATOM     84  F   UNL A   1      46.114  31.551  31.205  1.00  0.00    -0.206 F 
ATOM     85  C   UNL A   1      46.930  34.618  29.456  1.00  0.00     0.006 A 
ENDBRANCH  57  78
BRANCH  69  86
ATOM     86  C   UNL A   1      49.071  26.150  26.936  1.00  0.00     0.057 A 
ATOM     87  C   UNL A   1      49.560  26.253  25.629  1.00  0.00     0.134 A 
ATOM     88  C   UNL A   1      49.972  25.771  27.940  1.00  0.00     0.134 A 
ATOM     89  F   UNL A   1      48.743  26.600  24.623  1.00  0.00    -0.206 F 
ATOM     90  C   UNL A   1      50.891  25.965  25.326  1.00  0.00     0.040 A 
ATOM     91  C   UNL A   1      51.310  25.504  27.654  1.00  0.00     0.040 A 
ATOM     92  F   UNL A   1      49.567  25.664  29.214  1.00  0.00    -0.206 F 
ATOM     93  C   UNL A   1      51.772  25.594  26.341  1.00  0.00     0.006 A 
ENDBRANCH  69  86
ENDBRANCH  43  44
ENDBRANCH  35  38
ENDBRANCH  33  34
ENDBRANCH  32  33
ENDBRANCH   1  32
TORSDOF 16
ENDMDL
