MODEL 1
REMARK VINA RESULT:      -8.6      0.000      0.000
REMARK SMILES CCCCCCCCNC(=O)Oc1cccc(-c2ccc([C@@H](C)C(=O)NCCCCNC(=O)c3ccc(-c4c5nc(c(-c6c(F)cccc6F)c6ccc([nH]6)c(-c6c(F)cccc6F)c6nc(c(-c7c(F)cccc7F)c7ccc4[nH]7)C=C6)C=C5)cc3)cc2F)c1
REMARK SMILES IDX 18 1 19 2 20 3 21 4 88 5 89 6 90 7 17 8 13 9 14 10 91 11
REMARK SMILES IDX 15 12 16 13 12 14 10 15 9 16 11 18 8 19 7 20 6 21 5 22 4 23
REMARK SMILES IDX 3 24 2 25 1 26 22 27 23 28 24 29 25 30 26 31 27 33 28 34
REMARK SMILES IDX 29 35 30 36 31 37 32 38 33 40 34 41 35 42 87 43 36 44 86 45
REMARK SMILES IDX 37 46 38 47 39 48 80 49 40 50 85 51 79 52 81 53 41 54 84 55
REMARK SMILES IDX 78 56 77 57 42 59 68 60 51 61 67 62 52 63 55 64 66 65 82 66
REMARK SMILES IDX 53 67 54 68 65 70 83 71 56 72 43 73 44 74 49 75 45 76 46 77
REMARK SMILES IDX 48 78 50 79 47 80 69 81 70 82 75 83 71 84 72 85 74 86 76 87
REMARK SMILES IDX 73 88 57 89 58 90 63 91 59 92 60 93 62 94 64 95 61 96
REMARK H PARENT 9 17 26 32 31 39 81 58 55 69
REMARK Flexibility Score: inf
ROOT
ATOM      1  C   UNL A   1      41.002  34.758  29.848  1.00  0.00     0.018 A 
ATOM      2  C   UNL A   1      41.423  34.539  31.170  1.00  0.00     0.012 A 
ATOM      3  C   UNL A   1      40.561  34.015  32.144  1.00  0.00     0.005 A 
ATOM      4  C   UNL A   1      39.218  33.761  31.858  1.00  0.00    -0.033 A 
ATOM      5  C   UNL A   1      38.795  33.937  30.533  1.00  0.00     0.044 A 
ATOM      6  C   UNL A   1      39.676  34.399  29.554  1.00  0.00     0.131 A 
ATOM      7  F   UNL A   1      39.202  34.493  28.301  1.00  0.00    -0.206 F 
ENDROOT
BRANCH   1   8
ATOM      8  C   UNL A   1      41.911  35.365  28.845  1.00  0.00    -0.012 A 
ATOM      9  C   UNL A   1      43.625  35.154  27.126  1.00  0.00     0.133 A 
ATOM     10  C   UNL A   1      43.634  36.526  26.910  1.00  0.00     0.047 A 
ATOM     11  C   UNL A   1      42.779  34.574  28.073  1.00  0.00     0.056 A 
ATOM     12  C   UNL A   1      42.775  37.329  27.649  1.00  0.00     0.004 A 
ATOM     13  C   UNL A   1      41.933  36.756  28.611  1.00  0.00     0.009 A 
BRANCH   9  14
ATOM     14  O   UNL A   1      44.612  34.399  26.475  1.00  0.00    -0.410 OA
BRANCH  14  15
ATOM     15  C   UNL A   1      44.248  33.593  25.407  1.00  0.00     0.412 C 
ATOM     16  N   UNL A   1      44.749  32.325  25.512  1.00  0.00    -0.321 N 
ATOM     17  H   UNL A   1      44.574  31.715  24.759  1.00  0.00     0.167 HD
ATOM     18  O   UNL A   1      43.563  33.929  24.450  1.00  0.00    -0.224 OA
BRANCH  16  19
ATOM     19  C   UNL A   1      45.514  31.792  26.621  1.00  0.00     0.119 C 
BRANCH  19  20
ATOM     20  C   UNL A   1      46.362  30.589  26.205  1.00  0.00     0.021 C 
BRANCH  20  21
ATOM     21  C   UNL A   1      45.976  29.267  26.878  1.00  0.00     0.002 C 
BRANCH  21  22
ATOM     22  C   UNL A   1      45.338  28.225  25.952  1.00  0.00     0.000 C 
BRANCH  22  23
ATOM     23  C   UNL A   1      46.275  27.644  24.889  1.00  0.00    -0.000 C 
BRANCH  23  24
ATOM     24  C   UNL A   1      47.663  27.241  25.399  1.00  0.00    -0.000 C 
BRANCH  24  25
ATOM     25  C   UNL A   1      48.019  25.762  25.227  1.00  0.00    -0.003 C 
ATOM     26  C   UNL A   1      46.809  24.874  24.974  1.00  0.00     0.004 C 
ENDBRANCH  24  25
ENDBRANCH  23  24
ENDBRANCH  22  23
ENDBRANCH  21  22
ENDBRANCH  20  21
ENDBRANCH  19  20
ENDBRANCH  16  19
ENDBRANCH  14  15
ENDBRANCH   9  14
ENDBRANCH   1   8
BRANCH   4  27
ATOM     27  C   UNL A   1      38.200  33.359  32.913  1.00  0.00     0.105 C 
ATOM     28  C   UNL A   1      38.654  32.298  33.914  1.00  0.00     0.023 C 
BRANCH  27  29
ATOM     29  C   UNL A   1      37.477  34.557  33.553  1.00  0.00     0.227 C 
ATOM     30  O   UNL A   1      37.992  35.146  34.511  1.00  0.00    -0.274 OA
ATOM     31  N   UNL A   1      36.278  35.037  33.122  1.00  0.00    -0.356 N 
ATOM     32  H   UNL A   1      35.975  35.848  33.590  1.00  0.00     0.163 HD
BRANCH  31  33
ATOM     33  C   UNL A   1      35.369  34.565  32.100  1.00  0.00     0.116 C 
BRANCH  33  34
ATOM     34  C   UNL A   1      34.682  33.258  32.498  1.00  0.00     0.023 C 
BRANCH  34  35
ATOM     35  C   UNL A   1      35.186  32.015  31.766  1.00  0.00     0.023 C 
BRANCH  35  36
ATOM     36  C   UNL A   1      35.623  32.240  30.323  1.00  0.00     0.116 C 
BRANCH  36  37
ATOM     37  N   UNL A   1      34.747  31.632  29.332  1.00  0.00    -0.352 N 
ATOM     38  C   UNL A   1      35.021  30.581  28.488  1.00  0.00     0.251 C 
ATOM     39  H   UNL A   1      33.845  32.021  29.257  1.00  0.00     0.163 HD
ATOM     40  O   UNL A   1      34.203  30.219  27.651  1.00  0.00    -0.269 OA
BRANCH  38  41
ATOM     41  C   UNL A   1      36.342  29.926  28.571  1.00  0.00     0.039 A 
ATOM     42  C   UNL A   1      37.231  30.061  27.502  1.00  0.00     0.014 A 
ATOM     43  C   UNL A   1      36.726  29.250  29.731  1.00  0.00     0.014 A 
ATOM     44  C   UNL A   1      38.538  29.591  27.633  1.00  0.00     0.010 A 
ATOM     45  C   UNL A   1      38.048  28.853  29.889  1.00  0.00     0.010 A 
ATOM     46  C   UNL A   1      38.970  29.026  28.844  1.00  0.00    -0.014 A 
BRANCH  46  47
ATOM     47  C   UNL A   1      40.382  28.621  29.048  1.00  0.00     0.031 A 
ATOM     48  C   UNL A   1      41.355  29.578  29.677  1.00  0.00     0.074 A 
ATOM     49  C   UNL A   1      40.807  27.428  28.590  1.00  0.00     0.049 A 
ATOM     50  N   UNL A   1      42.643  29.444  29.864  1.00  0.00    -0.248 NA
ATOM     51  C   UNL A   1      40.815  30.873  30.123  1.00  0.00     0.031 C 
ATOM     52  C   UNL A   1      39.975  26.438  27.903  1.00  0.00     0.029 A 
ATOM     53  N   UNL A   1      42.052  26.851  28.619  1.00  0.00    -0.354 N 
ATOM     54  C   UNL A   1      43.069  30.640  30.427  1.00  0.00     0.074 A 
ATOM     55  C   UNL A   1      41.914  31.507  30.504  1.00  0.00     0.031 C 
ATOM     56  C   UNL A   1      40.727  25.369  27.596  1.00  0.00     0.029 A 
ATOM     57  C   UNL A   1      42.098  25.609  28.033  1.00  0.00     0.049 A 
ATOM     58  H   UNL A   1      42.838  27.285  29.023  1.00  0.00     0.167 HD
ATOM     59  C   UNL A   1      44.306  30.976  30.863  1.00  0.00     0.037 A 
ATOM     60  C   UNL A   1      43.132  24.763  27.862  1.00  0.00     0.037 A 
ATOM     61  C   UNL A   1      45.445  30.098  30.819  1.00  0.00     0.049 A 
ATOM     62  C   UNL A   1      44.490  25.150  28.376  1.00  0.00     0.074 A 
ATOM     63  C   UNL A   1      46.720  30.316  31.309  1.00  0.00     0.029 A 
ATOM     64  N   UNL A   1      45.444  28.833  30.251  1.00  0.00    -0.354 N 
ATOM     65  N   UNL A   1      44.861  26.253  28.981  1.00  0.00    -0.248 NA
ATOM     66  C   UNL A   1      45.571  24.172  28.192  1.00  0.00     0.031 C 
ATOM     67  C   UNL A   1      47.502  29.196  31.003  1.00  0.00     0.029 A 
ATOM     68  C   UNL A   1      46.701  28.265  30.361  1.00  0.00     0.049 A 
ATOM     69  H   UNL A   1      44.663  28.402  29.832  1.00  0.00     0.167 HD
ATOM     70  C   UNL A   1      46.209  26.092  29.270  1.00  0.00     0.074 A 
ATOM     71  C   UNL A   1      46.588  24.780  28.787  1.00  0.00     0.031 C 
ATOM     72  C   UNL A   1      47.059  26.955  29.879  1.00  0.00     0.037 A 
BRANCH  59  73
ATOM     73  C   UNL A   1      44.485  32.352  31.433  1.00  0.00     0.057 A 
ATOM     74  C   UNL A   1      44.186  32.641  32.772  1.00  0.00     0.134 A 
ATOM     75  C   UNL A   1      44.985  33.395  30.644  1.00  0.00     0.134 A 
ATOM     76  F   UNL A   1      43.692  31.690  33.578  1.00  0.00    -0.206 F 
ATOM     77  C   UNL A   1      44.351  33.924  33.296  1.00  0.00     0.040 A 
ATOM     78  C   UNL A   1      45.178  34.676  31.163  1.00  0.00     0.040 A 
ATOM     79  F   UNL A   1      45.296  33.186  29.355  1.00  0.00    -0.206 F 
ATOM     80  C   UNL A   1      44.854  34.945  32.492  1.00  0.00     0.006 A 
ENDBRANCH  59  73
BRANCH  60  81
ATOM     81  C   UNL A   1      42.917  23.453  27.198  1.00  0.00     0.057 A 
ATOM     82  C   UNL A   1      43.163  23.291  25.830  1.00  0.00     0.134 A 
ATOM     83  C   UNL A   1      42.463  22.337  27.910  1.00  0.00     0.134 A 
ATOM     84  F   UNL A   1      43.582  24.329  25.093  1.00  0.00    -0.206 F 
ATOM     85  C   UNL A   1      42.948  22.069  25.188  1.00  0.00     0.040 A 
ATOM     86  C   UNL A   1      42.266  21.103  27.287  1.00  0.00     0.040 A 
ATOM     87  F   UNL A   1      42.217  22.426  29.226  1.00  0.00    -0.206 F 
ATOM     88  C   UNL A   1      42.503  20.970  25.919  1.00  0.00     0.006 A 
ENDBRANCH  60  81
BRANCH  72  89
ATOM     89  C   UNL A   1      48.471  26.496  30.084  1.00  0.00     0.057 A 
ATOM     90  C   UNL A   1      49.491  26.819  29.179  1.00  0.00     0.134 A 
ATOM     91  C   UNL A   1      48.823  25.759  31.222  1.00  0.00     0.134 A 
ATOM     92  F   UNL A   1      49.215  27.512  28.063  1.00  0.00    -0.206 F 
ATOM     93  C   UNL A   1      50.807  26.406  29.388  1.00  0.00     0.040 A 
ATOM     94  C   UNL A   1      50.140  25.362  31.454  1.00  0.00     0.040 A 
ATOM     95  F   UNL A   1      47.895  25.426  32.131  1.00  0.00    -0.206 F 
ATOM     96  C   UNL A   1      51.136  25.682  30.533  1.00  0.00     0.006 A 
ENDBRANCH  72  89
ENDBRANCH  46  47
ENDBRANCH  38  41
ENDBRANCH  36  37
ENDBRANCH  35  36
ENDBRANCH  34  35
ENDBRANCH  33  34
ENDBRANCH  31  33
ENDBRANCH  27  29
ENDBRANCH   4  27
TORSDOF 22
ENDMDL
MODEL 2
REMARK VINA RESULT:      -8.4      2.505      8.608
REMARK SMILES CCCCCCCCNC(=O)Oc1cccc(-c2ccc([C@@H](C)C(=O)NCCCCNC(=O)c3ccc(-c4c5nc(c(-c6c(F)cccc6F)c6ccc([nH]6)c(-c6c(F)cccc6F)c6nc(c(-c7c(F)cccc7F)c7ccc4[nH]7)C=C6)C=C5)cc3)cc2F)c1
REMARK SMILES IDX 18 1 19 2 20 3 21 4 88 5 89 6 90 7 17 8 13 9 14 10 91 11
REMARK SMILES IDX 15 12 16 13 12 14 10 15 9 16 11 18 8 19 7 20 6 21 5 22 4 23
REMARK SMILES IDX 3 24 2 25 1 26 22 27 23 28 24 29 25 30 26 31 27 33 28 34
REMARK SMILES IDX 29 35 30 36 31 37 32 38 33 40 34 41 35 42 87 43 36 44 86 45
REMARK SMILES IDX 37 46 38 47 39 48 80 49 40 50 85 51 79 52 81 53 41 54 84 55
REMARK SMILES IDX 78 56 77 57 42 59 68 60 51 61 67 62 52 63 55 64 66 65 82 66
REMARK SMILES IDX 53 67 54 68 65 70 83 71 56 72 43 73 44 74 49 75 45 76 46 77
REMARK SMILES IDX 48 78 50 79 47 80 69 81 70 82 75 83 71 84 72 85 74 86 76 87
REMARK SMILES IDX 73 88 57 89 58 90 63 91 59 92 60 93 62 94 64 95 61 96
REMARK H PARENT 9 17 26 32 31 39 81 58 55 69
REMARK Flexibility Score: inf
ROOT
ATOM      1  C   UNL A   1      36.105  34.504  33.479  1.00  0.00     0.018 A 
ATOM      2  C   UNL A   1      36.046  33.738  34.654  1.00  0.00     0.012 A 
ATOM      3  C   UNL A   1      37.163  33.047  35.144  1.00  0.00     0.005 A 
ATOM      4  C   UNL A   1      38.367  33.028  34.436  1.00  0.00    -0.033 A 
ATOM      5  C   UNL A   1      38.451  33.820  33.283  1.00  0.00     0.044 A 
ATOM      6  C   UNL A   1      37.352  34.557  32.836  1.00  0.00     0.131 A 
ATOM      7  F   UNL A   1      37.533  35.326  31.750  1.00  0.00    -0.206 F 
ENDROOT
BRANCH   1   8
ATOM      8  C   UNL A   1      34.897  35.182  32.946  1.00  0.00    -0.012 A 
ATOM      9  C   UNL A   1      33.174  35.425  31.240  1.00  0.00     0.133 A 
ATOM     10  C   UNL A   1      32.574  36.467  31.937  1.00  0.00     0.047 A 
ATOM     11  C   UNL A   1      34.315  34.786  31.729  1.00  0.00     0.056 A 
ATOM     12  C   UNL A   1      33.122  36.868  33.149  1.00  0.00     0.004 A 
ATOM     13  C   UNL A   1      34.274  36.240  33.640  1.00  0.00     0.009 A 
BRANCH   9  14
ATOM     14  O   UNL A   1      32.687  35.155  29.952  1.00  0.00    -0.410 OA
BRANCH  14  15
ATOM     15  C   UNL A   1      33.305  35.747  28.862  1.00  0.00     0.412 C 
ATOM     16  N   UNL A   1      33.760  34.830  27.955  1.00  0.00    -0.321 N 
ATOM     17  H   UNL A   1      34.258  35.180  27.181  1.00  0.00     0.167 HD
ATOM     18  O   UNL A   1      33.459  36.948  28.683  1.00  0.00    -0.224 OA
BRANCH  16  19
ATOM     19  C   UNL A   1      33.582  33.393  28.023  1.00  0.00     0.119 C 
BRANCH  19  20
ATOM     20  C   UNL A   1      34.910  32.661  28.225  1.00  0.00     0.021 C 
BRANCH  20  21
ATOM     21  C   UNL A   1      36.044  33.530  28.782  1.00  0.00     0.002 C 
BRANCH  21  22
ATOM     22  C   UNL A   1      36.923  32.855  29.841  1.00  0.00     0.000 C 
BRANCH  22  23
ATOM     23  C   UNL A   1      38.420  32.829  29.518  1.00  0.00    -0.000 C 
BRANCH  23  24
ATOM     24  C   UNL A   1      39.026  34.184  29.139  1.00  0.00    -0.000 C 
BRANCH  24  25
ATOM     25  C   UNL A   1      40.277  34.583  29.925  1.00  0.00    -0.003 C 
ATOM     26  C   UNL A   1      41.445  34.988  29.038  1.00  0.00     0.004 C 
ENDBRANCH  24  25
ENDBRANCH  23  24
ENDBRANCH  22  23
ENDBRANCH  21  22
ENDBRANCH  20  21
ENDBRANCH  19  20
ENDBRANCH  16  19
ENDBRANCH  14  15
ENDBRANCH   9  14
ENDBRANCH   1   8
BRANCH   4  27
ATOM     27  C   UNL A   1      39.553  32.160  34.826  1.00  0.00     0.105 C 
ATOM     28  C   UNL A   1      39.274  31.065  35.855  1.00  0.00     0.023 C 
BRANCH  27  29
ATOM     29  C   UNL A   1      40.389  31.692  33.623  1.00  0.00     0.227 C 
ATOM     30  O   UNL A   1      40.101  30.637  33.045  1.00  0.00    -0.274 OA
ATOM     31  N   UNL A   1      41.453  32.382  33.126  1.00  0.00    -0.356 N 
ATOM     32  H   UNL A   1      41.846  31.989  32.313  1.00  0.00     0.163 HD
BRANCH  31  33
ATOM     33  C   UNL A   1      42.110  33.588  33.581  1.00  0.00     0.116 C 
BRANCH  33  34
ATOM     34  C   UNL A   1      42.684  34.404  32.422  1.00  0.00     0.023 C 
BRANCH  34  35
ATOM     35  C   UNL A   1      43.298  35.745  32.819  1.00  0.00     0.023 C 
BRANCH  35  36
ATOM     36  C   UNL A   1      44.787  35.709  33.143  1.00  0.00     0.116 C 
BRANCH  36  37
ATOM     37  N   UNL A   1      45.610  36.527  32.264  1.00  0.00    -0.352 N 
ATOM     38  C   UNL A   1      46.257  36.146  31.110  1.00  0.00     0.251 C 
ATOM     39  H   UNL A   1      45.716  37.470  32.526  1.00  0.00     0.163 HD
ATOM     40  O   UNL A   1      46.977  36.933  30.506  1.00  0.00    -0.269 OA
BRANCH  38  41
ATOM     41  C   UNL A   1      46.112  34.755  30.638  1.00  0.00     0.039 A 
ATOM     42  C   UNL A   1      46.331  33.710  31.539  1.00  0.00     0.014 A 
ATOM     43  C   UNL A   1      45.685  34.489  29.335  1.00  0.00     0.014 A 
ATOM     44  C   UNL A   1      46.038  32.401  31.156  1.00  0.00     0.010 A 
ATOM     45  C   UNL A   1      45.321  33.196  28.982  1.00  0.00     0.010 A 
ATOM     46  C   UNL A   1      45.487  32.139  29.891  1.00  0.00    -0.014 A 
BRANCH  46  47
ATOM     47  C   UNL A   1      45.061  30.773  29.501  1.00  0.00     0.031 A 
ATOM     48  C   UNL A   1      46.082  29.767  29.049  1.00  0.00     0.074 A 
ATOM     49  C   UNL A   1      43.750  30.466  29.472  1.00  0.00     0.049 A 
ATOM     50  N   UNL A   1      45.902  28.555  28.590  1.00  0.00    -0.248 NA
ATOM     51  C   UNL A   1      47.491  30.192  29.084  1.00  0.00     0.031 C 
ATOM     52  C   UNL A   1      42.658  31.376  29.824  1.00  0.00     0.029 A 
ATOM     53  N   UNL A   1      43.112  29.305  29.114  1.00  0.00    -0.354 N 
ATOM     54  C   UNL A   1      47.167  28.084  28.263  1.00  0.00     0.074 A 
ATOM     55  C   UNL A   1      48.100  29.157  28.527  1.00  0.00     0.031 C 
ATOM     56  C   UNL A   1      41.488  30.732  29.684  1.00  0.00     0.029 A 
ATOM     57  C   UNL A   1      41.742  29.379  29.203  1.00  0.00     0.049 A 
ATOM     58  H   UNL A   1      43.590  28.495  28.820  1.00  0.00     0.167 HD
ATOM     59  C   UNL A   1      47.521  26.859  27.807  1.00  0.00     0.037 A 
ATOM     60  C   UNL A   1      40.799  28.459  28.924  1.00  0.00     0.037 A 
ATOM     61  C   UNL A   1      46.595  25.782  27.581  1.00  0.00     0.049 A 
ATOM     62  C   UNL A   1      41.220  27.099  28.442  1.00  0.00     0.074 A 
ATOM     63  C   UNL A   1      46.864  24.480  27.198  1.00  0.00     0.029 A 
ATOM     64  N   UNL A   1      45.219  25.883  27.719  1.00  0.00    -0.354 N 
ATOM     65  N   UNL A   1      42.428  26.640  28.214  1.00  0.00    -0.248 NA
ATOM     66  C   UNL A   1      40.149  26.126  28.185  1.00  0.00     0.031 C 
ATOM     67  C   UNL A   1      45.646  23.803  27.067  1.00  0.00     0.029 A 
ATOM     68  C   UNL A   1      44.624  24.672  27.410  1.00  0.00     0.049 A 
ATOM     69  H   UNL A   1      44.737  26.696  27.997  1.00  0.00     0.167 HD
ATOM     70  C   UNL A   1      42.263  25.321  27.812  1.00  0.00     0.074 A 
ATOM     71  C   UNL A   1      40.841  25.049  27.840  1.00  0.00     0.031 C 
ATOM     72  C   UNL A   1      43.206  24.418  27.449  1.00  0.00     0.037 A 
BRANCH  59  73
ATOM     73  C   UNL A   1      48.976  26.621  27.532  1.00  0.00     0.057 A 
ATOM     74  C   UNL A   1      49.547  26.902  26.283  1.00  0.00     0.134 A 
ATOM     75  C   UNL A   1      49.823  26.128  28.532  1.00  0.00     0.134 A 
ATOM     76  F   UNL A   1      48.789  27.364  25.277  1.00  0.00    -0.206 F 
ATOM     77  C   UNL A   1      50.901  26.674  26.031  1.00  0.00     0.040 A 
ATOM     78  C   UNL A   1      51.184  25.919  28.299  1.00  0.00     0.040 A 
ATOM     79  F   UNL A   1      49.343  25.842  29.752  1.00  0.00    -0.206 F 
ATOM     80  C   UNL A   1      51.725  26.187  27.043  1.00  0.00     0.006 A 
ENDBRANCH  59  73
BRANCH  60  81
ATOM     81  C   UNL A   1      39.364  28.783  29.119  1.00  0.00     0.057 A 
ATOM     82  C   UNL A   1      38.755  28.627  30.369  1.00  0.00     0.134 A 
ATOM     83  C   UNL A   1      38.571  29.256  28.067  1.00  0.00     0.134 A 
ATOM     84  F   UNL A   1      39.460  28.161  31.410  1.00  0.00    -0.206 F 
ATOM     85  C   UNL A   1      37.401  28.910  30.563  1.00  0.00     0.040 A 
ATOM     86  C   UNL A   1      37.222  29.565  28.252  1.00  0.00     0.040 A 
ATOM     87  F   UNL A   1      39.099  29.434  26.847  1.00  0.00    -0.206 F 
ATOM     88  C   UNL A   1      36.633  29.386  29.503  1.00  0.00     0.006 A 
ENDBRANCH  60  81
BRANCH  72  89
ATOM     89  C   UNL A   1      42.732  23.043  27.083  1.00  0.00     0.057 A 
ATOM     90  C   UNL A   1      42.319  22.122  28.055  1.00  0.00     0.134 A 
ATOM     91  C   UNL A   1      42.648  22.652  25.741  1.00  0.00     0.134 A 
ATOM     92  F   UNL A   1      42.388  22.432  29.359  1.00  0.00    -0.206 F 
ATOM     93  C   UNL A   1      41.858  20.852  27.704  1.00  0.00     0.040 A 
ATOM     94  C   UNL A   1      42.166  21.394  25.377  1.00  0.00     0.040 A 
ATOM     95  F   UNL A   1      43.019  23.491  24.763  1.00  0.00    -0.206 F 
ATOM     96  C   UNL A   1      41.773  20.488  26.361  1.00  0.00     0.006 A 
ENDBRANCH  72  89
ENDBRANCH  46  47
ENDBRANCH  38  41
ENDBRANCH  36  37
ENDBRANCH  35  36
ENDBRANCH  34  35
ENDBRANCH  33  34
ENDBRANCH  31  33
ENDBRANCH  27  29
ENDBRANCH   4  27
TORSDOF 22
ENDMDL
MODEL 3
REMARK VINA RESULT:      -8.0      2.647      8.238
REMARK SMILES CCCCCCCCNC(=O)Oc1cccc(-c2ccc([C@@H](C)C(=O)NCCCCNC(=O)c3ccc(-c4c5nc(c(-c6c(F)cccc6F)c6ccc([nH]6)c(-c6c(F)cccc6F)c6nc(c(-c7c(F)cccc7F)c7ccc4[nH]7)C=C6)C=C5)cc3)cc2F)c1
REMARK SMILES IDX 18 1 19 2 20 3 21 4 88 5 89 6 90 7 17 8 13 9 14 10 91 11
REMARK SMILES IDX 15 12 16 13 12 14 10 15 9 16 11 18 8 19 7 20 6 21 5 22 4 23
REMARK SMILES IDX 3 24 2 25 1 26 22 27 23 28 24 29 25 30 26 31 27 33 28 34
REMARK SMILES IDX 29 35 30 36 31 37 32 38 33 40 34 41 35 42 87 43 36 44 86 45
REMARK SMILES IDX 37 46 38 47 39 48 80 49 40 50 85 51 79 52 81 53 41 54 84 55
REMARK SMILES IDX 78 56 77 57 42 59 68 60 51 61 67 62 52 63 55 64 66 65 82 66
REMARK SMILES IDX 53 67 54 68 65 70 83 71 56 72 43 73 44 74 49 75 45 76 46 77
REMARK SMILES IDX 48 78 50 79 47 80 69 81 70 82 75 83 71 84 72 85 74 86 76 87
REMARK SMILES IDX 73 88 57 89 58 90 63 91 59 92 60 93 62 94 64 95 61 96
REMARK H PARENT 9 17 26 32 31 39 81 58 55 69
REMARK Flexibility Score: inf
ROOT
ATOM      1  C   UNL A   1      36.021  34.679  33.616  1.00  0.00     0.018 A 
ATOM      2  C   UNL A   1      35.974  34.065  34.878  1.00  0.00     0.012 A 
ATOM      3  C   UNL A   1      37.110  33.487  35.462  1.00  0.00     0.005 A 
ATOM      4  C   UNL A   1      38.324  33.427  34.773  1.00  0.00    -0.033 A 
ATOM      5  C   UNL A   1      38.394  34.070  33.531  1.00  0.00     0.044 A 
ATOM      6  C   UNL A   1      37.275  34.700  32.984  1.00  0.00     0.131 A 
ATOM      7  F   UNL A   1      37.441  35.334  31.811  1.00  0.00    -0.206 F 
ENDROOT
BRANCH   1   8
ATOM      8  C   UNL A   1      34.796  35.236  32.990  1.00  0.00    -0.012 A 
ATOM      9  C   UNL A   1      33.135  35.244  31.206  1.00  0.00     0.133 A 
ATOM     10  C   UNL A   1      32.440  36.287  31.804  1.00  0.00     0.047 A 
ATOM     11  C   UNL A   1      34.294  34.719  31.783  1.00  0.00     0.056 A 
ATOM     12  C   UNL A   1      32.908  36.807  33.004  1.00  0.00     0.004 A 
ATOM     13  C   UNL A   1      34.076  36.294  33.582  1.00  0.00     0.009 A 
BRANCH   9  14
ATOM     14  O   UNL A   1      32.723  34.854  29.923  1.00  0.00    -0.410 OA
BRANCH  14  15
ATOM     15  C   UNL A   1      33.319  35.441  28.817  1.00  0.00     0.412 C 
ATOM     16  N   UNL A   1      33.909  34.525  27.991  1.00  0.00    -0.321 N 
ATOM     17  H   UNL A   1      34.399  34.880  27.214  1.00  0.00     0.167 HD
ATOM     18  O   UNL A   1      33.349  36.638  28.564  1.00  0.00    -0.224 OA
BRANCH  16  19
ATOM     19  C   UNL A   1      33.886  33.085  28.149  1.00  0.00     0.119 C 
BRANCH  19  20
ATOM     20  C   UNL A   1      35.287  32.478  28.063  1.00  0.00     0.021 C 
BRANCH  20  21
ATOM     21  C   UNL A   1      36.427  33.501  27.976  1.00  0.00     0.002 C 
BRANCH  21  22
ATOM     22  C   UNL A   1      37.118  33.823  29.305  1.00  0.00     0.000 C 
BRANCH  22  23
ATOM     23  C   UNL A   1      38.624  33.544  29.335  1.00  0.00    -0.000 C 
BRANCH  23  24
ATOM     24  C   UNL A   1      39.506  34.774  29.573  1.00  0.00    -0.000 C 
BRANCH  24  25
ATOM     25  C   UNL A   1      40.766  34.852  28.706  1.00  0.00    -0.003 C 
ATOM     26  C   UNL A   1      41.418  36.227  28.710  1.00  0.00     0.004 C 
ENDBRANCH  24  25
ENDBRANCH  23  24
ENDBRANCH  22  23
ENDBRANCH  21  22
ENDBRANCH  20  21
ENDBRANCH  19  20
ENDBRANCH  16  19
ENDBRANCH  14  15
ENDBRANCH   9  14
ENDBRANCH   1   8
BRANCH   4  27
ATOM     27  C   UNL A   1      39.537  32.663  35.282  1.00  0.00     0.105 C 
ATOM     28  C   UNL A   1      39.252  31.521  36.255  1.00  0.00     0.023 C 
BRANCH  27  29
ATOM     29  C   UNL A   1      40.542  32.307  34.173  1.00  0.00     0.227 C 
ATOM     30  O   UNL A   1      40.524  31.179  33.665  1.00  0.00    -0.274 OA
ATOM     31  N   UNL A   1      41.475  33.173  33.689  1.00  0.00    -0.356 N 
ATOM     32  H   UNL A   1      42.002  32.820  32.936  1.00  0.00     0.163 HD
BRANCH  31  33
ATOM     33  C   UNL A   1      41.830  34.518  34.086  1.00  0.00     0.116 C 
BRANCH  33  34
ATOM     34  C   UNL A   1      42.309  35.360  32.903  1.00  0.00     0.023 C 
BRANCH  34  35
ATOM     35  C   UNL A   1      43.368  36.407  33.243  1.00  0.00     0.023 C 
BRANCH  35  36
ATOM     36  C   UNL A   1      44.804  36.010  32.923  1.00  0.00     0.116 C 
BRANCH  36  37
ATOM     37  N   UNL A   1      45.452  36.857  31.933  1.00  0.00    -0.352 N 
ATOM     38  C   UNL A   1      45.844  36.524  30.656  1.00  0.00     0.251 C 
ATOM     39  H   UNL A   1      45.632  37.785  32.210  1.00  0.00     0.163 HD
ATOM     40  O   UNL A   1      46.446  37.329  29.955  1.00  0.00    -0.269 OA
BRANCH  38  41
ATOM     41  C   UNL A   1      45.572  35.159  30.161  1.00  0.00     0.039 A 
ATOM     42  C   UNL A   1      46.031  34.069  30.904  1.00  0.00     0.014 A 
ATOM     43  C   UNL A   1      44.803  34.962  29.012  1.00  0.00     0.014 A 
ATOM     44  C   UNL A   1      45.642  32.779  30.540  1.00  0.00     0.010 A 
ATOM     45  C   UNL A   1      44.354  33.685  28.698  1.00  0.00     0.010 A 
ATOM     46  C   UNL A   1      44.763  32.581  29.463  1.00  0.00    -0.014 A 
BRANCH  46  47
ATOM     47  C   UNL A   1      44.245  31.233  29.125  1.00  0.00     0.031 A 
ATOM     48  C   UNL A   1      42.860  30.831  29.547  1.00  0.00     0.074 A 
ATOM     49  C   UNL A   1      45.052  30.342  28.517  1.00  0.00     0.049 A 
ATOM     50  N   UNL A   1      42.259  29.676  29.421  1.00  0.00    -0.248 NA
ATOM     51  C   UNL A   1      42.055  31.855  30.233  1.00  0.00     0.031 C 
ATOM     52  C   UNL A   1      46.439  30.589  28.116  1.00  0.00     0.029 A 
ATOM     53  N   UNL A   1      44.825  29.041  28.142  1.00  0.00    -0.354 N 
ATOM     54  C   UNL A   1      41.020  29.827  30.029  1.00  0.00     0.074 A 
ATOM     55  C   UNL A   1      40.973  31.169  30.568  1.00  0.00     0.031 C 
ATOM     56  C   UNL A   1      46.931  29.483  27.534  1.00  0.00     0.029 A 
ATOM     57  C   UNL A   1      45.910  28.442  27.548  1.00  0.00     0.049 A 
ATOM     58  H   UNL A   1      43.966  28.581  28.285  1.00  0.00     0.167 HD
ATOM     59  C   UNL A   1      40.003  28.937  30.108  1.00  0.00     0.037 A 
ATOM     60  C   UNL A   1      46.064  27.191  27.074  1.00  0.00     0.037 A 
ATOM     61  C   UNL A   1      40.038  27.616  29.538  1.00  0.00     0.049 A 
ATOM     62  C   UNL A   1      44.912  26.229  27.153  1.00  0.00     0.074 A 
ATOM     63  C   UNL A   1      39.031  26.670  29.494  1.00  0.00     0.029 A 
ATOM     64  N   UNL A   1      41.142  27.058  28.911  1.00  0.00    -0.354 N 
ATOM     65  N   UNL A   1      43.715  26.412  27.658  1.00  0.00    -0.248 NA
ATOM     66  C   UNL A   1      45.127  24.889  26.589  1.00  0.00     0.031 C 
ATOM     67  C   UNL A   1      39.538  25.522  28.873  1.00  0.00     0.029 A 
ATOM     68  C   UNL A   1      40.846  25.771  28.494  1.00  0.00     0.049 A 
ATOM     69  H   UNL A   1      42.007  27.510  28.780  1.00  0.00     0.167 HD
ATOM     70  C   UNL A   1      43.030  25.222  27.452  1.00  0.00     0.074 A 
ATOM     71  C   UNL A   1      43.938  24.329  26.764  1.00  0.00     0.031 C 
ATOM     72  C   UNL A   1      41.761  24.898  27.804  1.00  0.00     0.037 A 
BRANCH  59  73
ATOM     73  C   UNL A   1      38.763  29.370  30.833  1.00  0.00     0.057 A 
ATOM     74  C   UNL A   1      37.741  30.079  30.188  1.00  0.00     0.134 A 
ATOM     75  C   UNL A   1      38.577  29.054  32.184  1.00  0.00     0.134 A 
ATOM     76  F   UNL A   1      37.862  30.425  28.897  1.00  0.00    -0.206 F 
ATOM     77  C   UNL A   1      36.591  30.484  30.868  1.00  0.00     0.040 A 
ATOM     78  C   UNL A   1      37.420  29.431  32.869  1.00  0.00     0.040 A 
ATOM     79  F   UNL A   1      39.514  28.373  32.861  1.00  0.00    -0.206 F 
ATOM     80  C   UNL A   1      36.426  30.154  32.212  1.00  0.00     0.006 A 
ENDBRANCH  59  73
BRANCH  60  81
ATOM     81  C   UNL A   1      47.350  26.784  26.456  1.00  0.00     0.057 A 
ATOM     82  C   UNL A   1      47.583  26.970  25.089  1.00  0.00     0.134 A 
ATOM     83  C   UNL A   1      48.374  26.202  27.213  1.00  0.00     0.134 A 
ATOM     84  F   UNL A   1      46.633  27.507  24.310  1.00  0.00    -0.206 F 
ATOM     85  C   UNL A   1      48.781  26.575  24.491  1.00  0.00     0.040 A 
ATOM     86  C   UNL A   1      49.586  25.823  26.632  1.00  0.00     0.040 A 
ATOM     87  F   UNL A   1      48.215  26.004  28.530  1.00  0.00    -0.206 F 
ATOM     88  C   UNL A   1      49.789  26.004  25.265  1.00  0.00     0.006 A 
ENDBRANCH  60  81
BRANCH  72  89
ATOM     89  C   UNL A   1      41.273  23.533  27.423  1.00  0.00     0.057 A 
ATOM     90  C   UNL A   1      41.758  22.376  28.047  1.00  0.00     0.134 A 
ATOM     91  C   UNL A   1      40.276  23.377  26.452  1.00  0.00     0.134 A 
ATOM     92  F   UNL A   1      42.722  22.457  28.976  1.00  0.00    -0.206 F 
ATOM     93  C   UNL A   1      41.282  21.110  27.702  1.00  0.00     0.040 A 
ATOM     94  C   UNL A   1      39.775  22.119  26.117  1.00  0.00     0.040 A 
ATOM     95  F   UNL A   1      39.764  24.446  25.825  1.00  0.00    -0.206 F 
ATOM     96  C   UNL A   1      40.282  20.980  26.740  1.00  0.00     0.006 A 
ENDBRANCH  72  89
ENDBRANCH  46  47
ENDBRANCH  38  41
ENDBRANCH  36  37
ENDBRANCH  35  36
ENDBRANCH  34  35
ENDBRANCH  33  34
ENDBRANCH  31  33
ENDBRANCH  27  29
ENDBRANCH   4  27
TORSDOF 22
ENDMDL
