MODEL 1
REMARK VINA RESULT:     -10.9      0.000      0.000
REMARK SMILES C/C(=N\Nc1ccncc1[N+](=O)[O-])C(=O)NCCCCNC(=O)c1ccc(-c2c3nc(c(-c4c(F)cccc4F)c4ccc([nH]4)c(-c4c(F)cccc4F)c4nc(c(-c5c(F)cccc5F)c5ccc2[nH]5)C=C4)C=C3)cc1
REMARK SMILES IDX 18 1 17 2 16 3 14 4 15 5 2 7 1 8 3 9 4 10 5 12 6 13 10 14
REMARK SMILES IDX 7 15 9 16 8 17 11 18 12 19 13 20 19 21 20 22 21 23 22 24
REMARK SMILES IDX 23 26 24 27 25 28 77 29 26 30 76 31 27 32 28 33 29 34 70 35
REMARK SMILES IDX 30 36 75 37 69 38 71 39 31 40 74 41 68 42 67 43 32 45 58 46
REMARK SMILES IDX 41 47 57 48 42 49 45 50 56 51 72 52 43 53 44 54 55 56 73 57
REMARK SMILES IDX 46 58 33 59 34 60 39 61 35 62 36 63 38 64 40 65 37 66 59 67
REMARK SMILES IDX 60 68 65 69 61 70 62 71 64 72 66 73 63 74 47 75 48 76 53 77
REMARK SMILES IDX 49 78 50 79 52 80 54 81 51 82
REMARK H PARENT 16 6 4 11 21 25 71 44 45 55
REMARK Flexibility Score: inf
ROOT
ATOM      1  C   UNL A   1      36.743  20.752  24.744  1.00  0.00     0.023 C 
ENDROOT
BRANCH   1   2
ATOM      2  C   UNL A   1      35.305  20.295  25.000  1.00  0.00     0.116 C 
BRANCH   2   3
ATOM      3  N   UNL A   1      34.728  21.058  26.093  1.00  0.00    -0.351 N 
ATOM      4  C   UNL A   1      34.281  22.356  26.108  1.00  0.00     0.267 C 
ATOM      5  O   UNL A   1      34.002  22.913  27.163  1.00  0.00    -0.268 OA
ATOM      6  H   UNL A   1      34.644  20.574  26.946  1.00  0.00     0.163 HD
BRANCH   4   7
ATOM      7  C   UNL A   1      33.979  23.070  24.799  1.00  0.00     0.122 C 
ATOM      8  C   UNL A   1      35.075  24.011  24.360  1.00  0.00     0.075 C 
ATOM      9  N   UNL A   1      32.858  22.810  24.181  1.00  0.00    -0.175 NA
BRANCH   9  10
ATOM     10  N   UNL A   1      32.454  23.595  23.156  1.00  0.00    -0.271 N 
ATOM     11  H   UNL A   1      32.691  23.302  22.247  1.00  0.00     0.190 HD
BRANCH  10  12
ATOM     12  C   UNL A   1      31.726  24.793  23.272  1.00  0.00     0.137 A 
ATOM     13  C   UNL A   1      30.645  24.890  24.154  1.00  0.00     0.055 A 
ATOM     14  C   UNL A   1      31.938  25.866  22.387  1.00  0.00     0.312 A 
ATOM     15  C   UNL A   1      29.814  25.997  24.087  1.00  0.00     0.113 A 
ATOM     16  C   UNL A   1      31.045  26.926  22.374  1.00  0.00     0.198 A 
ATOM     17  N   UNL A   1      29.981  27.009  23.207  1.00  0.00    -0.257 NA
BRANCH  14  18
ATOM     18  N   UNL A   1      33.042  25.876  21.439  1.00  0.00     0.066 N 
ATOM     19  O   UNL A   1      34.036  26.562  21.717  1.00  0.00    -0.258 OA
ATOM     20  O   UNL A   1      32.932  25.187  20.412  1.00  0.00    -0.258 OA
ENDBRANCH  14  18
ENDBRANCH  10  12
ENDBRANCH   9  10
ENDBRANCH   4   7
ENDBRANCH   2   3
ENDBRANCH   1   2
BRANCH   1  21
ATOM     21  C   UNL A   1      37.791  19.662  24.999  1.00  0.00     0.023 C 
BRANCH  21  22
ATOM     22  C   UNL A   1      39.034  20.130  25.748  1.00  0.00     0.116 C 
BRANCH  22  23
ATOM     23  N   UNL A   1      40.060  19.104  25.831  1.00  0.00    -0.352 N 
ATOM     24  C   UNL A   1      41.408  19.247  26.060  1.00  0.00     0.251 C 
ATOM     25  H   UNL A   1      39.746  18.179  25.707  1.00  0.00     0.163 HD
ATOM     26  O   UNL A   1      42.161  18.291  25.951  1.00  0.00    -0.269 OA
BRANCH  24  27
ATOM     27  C   UNL A   1      41.945  20.580  26.407  1.00  0.00     0.039 A 
ATOM     28  C   UNL A   1      42.240  21.476  25.378  1.00  0.00     0.014 A 
ATOM     29  C   UNL A   1      42.135  20.950  27.742  1.00  0.00     0.014 A 
ATOM     30  C   UNL A   1      42.665  22.768  25.689  1.00  0.00     0.010 A 
ATOM     31  C   UNL A   1      42.484  22.261  28.051  1.00  0.00     0.010 A 
ATOM     32  C   UNL A   1      42.754  23.182  27.029  1.00  0.00    -0.014 A 
BRANCH  32  33
ATOM     33  C   UNL A   1      43.129  24.577  27.377  1.00  0.00     0.031 A 
ATOM     34  C   UNL A   1      44.570  25.003  27.342  1.00  0.00     0.074 A 
ATOM     35  C   UNL A   1      42.178  25.441  27.783  1.00  0.00     0.049 A 
ATOM     36  N   UNL A   1      45.100  26.154  27.670  1.00  0.00    -0.248 NA
ATOM     37  C   UNL A   1      45.549  23.994  26.906  1.00  0.00     0.031 C 
ATOM     38  C   UNL A   1      40.752  25.136  27.904  1.00  0.00     0.029 A 
ATOM     39  N   UNL A   1      42.272  26.753  28.179  1.00  0.00    -0.354 N 
ATOM     40  C   UNL A   1      46.470  26.004  27.492  1.00  0.00     0.074 A 
ATOM     41  C   UNL A   1      46.695  24.635  27.084  1.00  0.00     0.031 C 
ATOM     42  C   UNL A   1      40.101  26.235  28.320  1.00  0.00     0.029 A 
ATOM     43  C   UNL A   1      41.067  27.309  28.534  1.00  0.00     0.049 A 
ATOM     44  H   UNL A   1      43.122  27.248  28.206  1.00  0.00     0.167 HD
ATOM     45  C   UNL A   1      47.448  26.929  27.632  1.00  0.00     0.037 A 
ATOM     46  C   UNL A   1      40.774  28.541  28.990  1.00  0.00     0.037 A 
ATOM     47  C   UNL A   1      47.218  28.296  28.019  1.00  0.00     0.049 A 
ATOM     48  C   UNL A   1      41.882  29.545  29.155  1.00  0.00     0.074 A 
ATOM     49  C   UNL A   1      48.136  29.326  28.132  1.00  0.00     0.029 A 
ATOM     50  N   UNL A   1      45.983  28.823  28.363  1.00  0.00    -0.354 N 
ATOM     51  N   UNL A   1      43.164  29.410  28.913  1.00  0.00    -0.248 NA
ATOM     52  C   UNL A   1      41.502  30.875  29.651  1.00  0.00     0.031 C 
ATOM     53  C   UNL A   1      47.466  30.462  28.594  1.00  0.00     0.029 A 
ATOM     54  C   UNL A   1      46.119  30.156  28.714  1.00  0.00     0.049 A 
ATOM     55  H   UNL A   1      45.134  28.324  28.357  1.00  0.00     0.167 HD
ATOM     56  C   UNL A   1      43.737  30.643  29.199  1.00  0.00     0.074 A 
ATOM     57  C   UNL A   1      42.661  31.517  29.616  1.00  0.00     0.031 C 
ATOM     58  C   UNL A   1      45.038  31.017  29.121  1.00  0.00     0.037 A 
BRANCH  45  59
ATOM     59  C   UNL A   1      48.859  26.492  27.360  1.00  0.00     0.057 A 
ATOM     60  C   UNL A   1      49.685  25.984  28.372  1.00  0.00     0.134 A 
ATOM     61  C   UNL A   1      49.387  26.545  26.063  1.00  0.00     0.134 A 
ATOM     62  F   UNL A   1      49.246  25.916  29.638  1.00  0.00    -0.206 F 
ATOM     63  C   UNL A   1      50.993  25.573  28.111  1.00  0.00     0.040 A 
ATOM     64  C   UNL A   1      50.684  26.109  25.784  1.00  0.00     0.040 A 
ATOM     65  F   UNL A   1      48.650  27.013  25.045  1.00  0.00    -0.206 F 
ATOM     66  C   UNL A   1      51.493  25.628  26.812  1.00  0.00     0.006 A 
ENDBRANCH  45  59
BRANCH  46  67
ATOM     67  C   UNL A   1      39.370  28.904  29.309  1.00  0.00     0.057 A 
ATOM     68  C   UNL A   1      38.530  29.468  28.340  1.00  0.00     0.134 A 
ATOM     69  C   UNL A   1      38.837  28.715  30.590  1.00  0.00     0.134 A 
ATOM     70  F   UNL A   1      38.988  29.690  27.100  1.00  0.00    -0.206 F 
ATOM     71  C   UNL A   1      37.222  29.850  28.638  1.00  0.00     0.040 A 
ATOM     72  C   UNL A   1      37.521  29.068  30.894  1.00  0.00     0.040 A 
ATOM     73  F   UNL A   1      39.586  28.174  31.563  1.00  0.00    -0.206 F 
ATOM     74  C   UNL A   1      36.713  29.646  29.919  1.00  0.00     0.006 A 
ENDBRANCH  46  67
BRANCH  58  75
ATOM     75  C   UNL A   1      45.365  32.443  29.461  1.00  0.00     0.057 A 
ATOM     76  C   UNL A   1      45.752  32.828  30.751  1.00  0.00     0.134 A 
ATOM     77  C   UNL A   1      45.332  33.435  28.473  1.00  0.00     0.134 A 
ATOM     78  F   UNL A   1      45.792  31.929  31.746  1.00  0.00    -0.206 F 
ATOM     79  C   UNL A   1      46.072  34.153  31.051  1.00  0.00     0.040 A 
ATOM     80  C   UNL A   1      45.679  34.758  28.754  1.00  0.00     0.040 A 
ATOM     81  F   UNL A   1      44.980  33.132  27.215  1.00  0.00    -0.206 F 
ATOM     82  C   UNL A   1      46.043  35.121  30.049  1.00  0.00     0.006 A 
ENDBRANCH  58  75
ENDBRANCH  32  33
ENDBRANCH  24  27
ENDBRANCH  22  23
ENDBRANCH  21  22
ENDBRANCH   1  21
TORSDOF 14
ENDMDL
MODEL 2
REMARK VINA RESULT:     -10.9      1.750      2.548
REMARK SMILES C/C(=N\Nc1ccncc1[N+](=O)[O-])C(=O)NCCCCNC(=O)c1ccc(-c2c3nc(c(-c4c(F)cccc4F)c4ccc([nH]4)c(-c4c(F)cccc4F)c4nc(c(-c5c(F)cccc5F)c5ccc2[nH]5)C=C4)C=C3)cc1
REMARK SMILES IDX 18 1 17 2 16 3 14 4 15 5 2 7 1 8 3 9 4 10 5 12 6 13 10 14
REMARK SMILES IDX 7 15 9 16 8 17 11 18 12 19 13 20 19 21 20 22 21 23 22 24
REMARK SMILES IDX 23 26 24 27 25 28 77 29 26 30 76 31 27 32 28 33 29 34 70 35
REMARK SMILES IDX 30 36 75 37 69 38 71 39 31 40 74 41 68 42 67 43 32 45 58 46
REMARK SMILES IDX 41 47 57 48 42 49 45 50 56 51 72 52 43 53 44 54 55 56 73 57
REMARK SMILES IDX 46 58 33 59 34 60 39 61 35 62 36 63 38 64 40 65 37 66 59 67
REMARK SMILES IDX 60 68 65 69 61 70 62 71 64 72 66 73 63 74 47 75 48 76 53 77
REMARK SMILES IDX 49 78 50 79 52 80 54 81 51 82
REMARK H PARENT 16 6 4 11 21 25 71 44 45 55
REMARK Flexibility Score: inf
ROOT
ATOM      1  C   UNL A   1      36.280  20.438  25.013  1.00  0.00     0.023 C 
ENDROOT
BRANCH   1   2
ATOM      2  C   UNL A   1      36.083  21.775  25.730  1.00  0.00     0.116 C 
BRANCH   2   3
ATOM      3  N   UNL A   1      35.178  21.608  26.855  1.00  0.00    -0.351 N 
ATOM      4  C   UNL A   1      34.007  22.265  27.134  1.00  0.00     0.267 C 
ATOM      5  O   UNL A   1      33.462  22.144  28.225  1.00  0.00    -0.268 OA
ATOM      6  H   UNL A   1      35.443  20.922  27.510  1.00  0.00     0.163 HD
BRANCH   4   7
ATOM      7  C   UNL A   1      33.286  23.034  26.037  1.00  0.00     0.122 C 
ATOM      8  C   UNL A   1      32.547  22.146  25.067  1.00  0.00     0.075 C 
ATOM      9  N   UNL A   1      33.346  24.339  26.035  1.00  0.00    -0.175 NA
BRANCH   9  10
ATOM     10  N   UNL A   1      32.925  25.032  24.952  1.00  0.00    -0.271 N 
ATOM     11  H   UNL A   1      32.294  24.580  24.348  1.00  0.00     0.190 HD
BRANCH  10  12
ATOM     12  C   UNL A   1      33.307  26.342  24.612  1.00  0.00     0.137 A 
ATOM     13  C   UNL A   1      33.236  27.376  25.552  1.00  0.00     0.055 A 
ATOM     14  C   UNL A   1      33.600  26.696  23.282  1.00  0.00     0.312 A 
ATOM     15  C   UNL A   1      33.404  28.686  25.132  1.00  0.00     0.113 A 
ATOM     16  C   UNL A   1      33.733  28.034  22.946  1.00  0.00     0.198 A 
ATOM     17  N   UNL A   1      33.636  29.038  23.849  1.00  0.00    -0.257 NA
BRANCH  14  18
ATOM     18  N   UNL A   1      33.715  25.701  22.227  1.00  0.00     0.066 N 
ATOM     19  O   UNL A   1      33.306  26.006  21.098  1.00  0.00    -0.258 OA
ATOM     20  O   UNL A   1      34.229  24.607  22.513  1.00  0.00    -0.258 OA
ENDBRANCH  14  18
ENDBRANCH  10  12
ENDBRANCH   9  10
ENDBRANCH   4   7
ENDBRANCH   2   3
ENDBRANCH   1   2
BRANCH   1  21
ATOM     21  C   UNL A   1      37.737  20.156  24.624  1.00  0.00     0.023 C 
BRANCH  21  22
ATOM     22  C   UNL A   1      38.756  20.405  25.730  1.00  0.00     0.116 C 
BRANCH  22  23
ATOM     23  N   UNL A   1      39.813  19.407  25.755  1.00  0.00    -0.352 N 
ATOM     24  C   UNL A   1      41.140  19.563  26.081  1.00  0.00     0.251 C 
ATOM     25  H   UNL A   1      39.542  18.495  25.504  1.00  0.00     0.163 HD
ATOM     26  O   UNL A   1      41.933  18.650  25.906  1.00  0.00    -0.269 OA
BRANCH  24  27
ATOM     27  C   UNL A   1      41.606  20.861  26.614  1.00  0.00     0.039 A 
ATOM     28  C   UNL A   1      41.997  21.856  25.716  1.00  0.00     0.014 A 
ATOM     29  C   UNL A   1      41.634  21.101  27.991  1.00  0.00     0.014 A 
ATOM     30  C   UNL A   1      42.357  23.116  26.196  1.00  0.00     0.010 A 
ATOM     31  C   UNL A   1      41.918  22.378  28.463  1.00  0.00     0.010 A 
ATOM     32  C   UNL A   1      42.284  23.398  27.571  1.00  0.00    -0.014 A 
BRANCH  32  33
ATOM     33  C   UNL A   1      42.588  24.755  28.093  1.00  0.00     0.031 A 
ATOM     34  C   UNL A   1      43.985  25.103  28.529  1.00  0.00     0.074 A 
ATOM     35  C   UNL A   1      41.594  25.655  28.230  1.00  0.00     0.049 A 
ATOM     36  N   UNL A   1      44.432  26.209  29.066  1.00  0.00    -0.248 NA
ATOM     37  C   UNL A   1      45.009  24.059  28.363  1.00  0.00     0.031 C 
ATOM     38  C   UNL A   1      40.190  25.424  27.887  1.00  0.00     0.029 A 
ATOM     39  N   UNL A   1      41.613  26.943  28.705  1.00  0.00    -0.354 N 
ATOM     40  C   UNL A   1      45.781  25.990  29.313  1.00  0.00     0.074 A 
ATOM     41  C   UNL A   1      46.067  24.628  28.922  1.00  0.00     0.031 C 
ATOM     42  C   UNL A   1      39.487  26.540  28.139  1.00  0.00     0.029 A 
ATOM     43  C   UNL A   1      40.380  27.550  28.699  1.00  0.00     0.049 A 
ATOM     44  H   UNL A   1      42.431  27.389  29.021  1.00  0.00     0.167 HD
ATOM     45  C   UNL A   1      46.704  26.854  29.798  1.00  0.00     0.037 A 
ATOM     46  C   UNL A   1      40.010  28.779  29.108  1.00  0.00     0.037 A 
ATOM     47  C   UNL A   1      46.420  28.216  30.168  1.00  0.00     0.049 A 
ATOM     48  C   UNL A   1      41.051  29.713  29.661  1.00  0.00     0.074 A 
ATOM     49  C   UNL A   1      47.298  29.188  30.615  1.00  0.00     0.029 A 
ATOM     50  N   UNL A   1      45.162  28.797  30.140  1.00  0.00    -0.354 N 
ATOM     51  N   UNL A   1      42.338  29.516  29.821  1.00  0.00    -0.248 NA
ATOM     52  C   UNL A   1      40.589  31.042  30.086  1.00  0.00     0.031 C 
ATOM     53  C   UNL A   1      46.564  30.341  30.907  1.00  0.00     0.029 A 
ATOM     54  C   UNL A   1      45.235  30.106  30.587  1.00  0.00     0.049 A 
ATOM     55  H   UNL A   1      44.337  28.346  29.845  1.00  0.00     0.167 HD
ATOM     56  C   UNL A   1      42.843  30.704  30.336  1.00  0.00     0.074 A 
ATOM     57  C   UNL A   1      41.727  31.619  30.446  1.00  0.00     0.031 C 
ATOM     58  C   UNL A   1      44.117  31.009  30.685  1.00  0.00     0.037 A 
BRANCH  45  59
ATOM     59  C   UNL A   1      48.110  26.350  29.954  1.00  0.00     0.057 A 
ATOM     60  C   UNL A   1      49.053  26.457  28.922  1.00  0.00     0.134 A 
ATOM     61  C   UNL A   1      48.537  25.783  31.162  1.00  0.00     0.134 A 
ATOM     62  F   UNL A   1      48.708  26.979  27.736  1.00  0.00    -0.206 F 
ATOM     63  C   UNL A   1      50.360  25.992  29.076  1.00  0.00     0.040 A 
ATOM     64  C   UNL A   1      49.851  25.343  31.338  1.00  0.00     0.040 A 
ATOM     65  F   UNL A   1      47.690  25.657  32.193  1.00  0.00    -0.206 F 
ATOM     66  C   UNL A   1      50.764  25.439  30.290  1.00  0.00     0.006 A 
ENDBRANCH  45  59
BRANCH  46  67
ATOM     67  C   UNL A   1      38.592  29.206  28.995  1.00  0.00     0.057 A 
ATOM     68  C   UNL A   1      37.731  29.149  30.098  1.00  0.00     0.134 A 
ATOM     69  C   UNL A   1      38.059  29.664  27.785  1.00  0.00     0.134 A 
ATOM     70  F   UNL A   1      38.178  28.702  31.281  1.00  0.00    -0.206 F 
ATOM     71  C   UNL A   1      36.387  29.510  29.996  1.00  0.00     0.040 A 
ATOM     72  C   UNL A   1      36.723  30.054  27.676  1.00  0.00     0.040 A 
ATOM     73  F   UNL A   1      38.832  29.750  26.692  1.00  0.00    -0.206 F 
ATOM     74  C   UNL A   1      35.880  29.968  28.781  1.00  0.00     0.006 A 
ENDBRANCH  46  67
BRANCH  58  75
ATOM     75  C   UNL A   1      44.380  32.400  31.186  1.00  0.00     0.057 A 
ATOM     76  C   UNL A   1      44.674  33.458  30.317  1.00  0.00     0.134 A 
ATOM     77  C   UNL A   1      44.296  32.691  32.554  1.00  0.00     0.134 A 
ATOM     78  F   UNL A   1      44.781  33.245  28.997  1.00  0.00    -0.206 F 
ATOM     79  C   UNL A   1      44.898  34.751  30.792  1.00  0.00     0.040 A 
ATOM     80  C   UNL A   1      44.489  33.986  33.038  1.00  0.00     0.040 A 
ATOM     81  F   UNL A   1      44.009  31.726  33.440  1.00  0.00    -0.206 F 
ATOM     82  C   UNL A   1      44.798  35.019  32.156  1.00  0.00     0.006 A 
ENDBRANCH  58  75
ENDBRANCH  32  33
ENDBRANCH  24  27
ENDBRANCH  22  23
ENDBRANCH  21  22
ENDBRANCH   1  21
TORSDOF 14
ENDMDL
MODEL 3
REMARK VINA RESULT:     -10.9      2.946      7.921
REMARK SMILES C/C(=N\Nc1ccncc1[N+](=O)[O-])C(=O)NCCCCNC(=O)c1ccc(-c2c3nc(c(-c4c(F)cccc4F)c4ccc([nH]4)c(-c4c(F)cccc4F)c4nc(c(-c5c(F)cccc5F)c5ccc2[nH]5)C=C4)C=C3)cc1
REMARK SMILES IDX 18 1 17 2 16 3 14 4 15 5 2 7 1 8 3 9 4 10 5 12 6 13 10 14
REMARK SMILES IDX 7 15 9 16 8 17 11 18 12 19 13 20 19 21 20 22 21 23 22 24
REMARK SMILES IDX 23 26 24 27 25 28 77 29 26 30 76 31 27 32 28 33 29 34 70 35
REMARK SMILES IDX 30 36 75 37 69 38 71 39 31 40 74 41 68 42 67 43 32 45 58 46
REMARK SMILES IDX 41 47 57 48 42 49 45 50 56 51 72 52 43 53 44 54 55 56 73 57
REMARK SMILES IDX 46 58 33 59 34 60 39 61 35 62 36 63 38 64 40 65 37 66 59 67
REMARK SMILES IDX 60 68 65 69 61 70 62 71 64 72 66 73 63 74 47 75 48 76 53 77
REMARK SMILES IDX 49 78 50 79 52 80 54 81 51 82
REMARK H PARENT 16 6 4 11 21 25 71 44 45 55
REMARK Flexibility Score: inf
ROOT
ATOM      1  C   UNL A   1      31.551  28.255  26.175  1.00  0.00     0.023 C 
ENDROOT
BRANCH   1   2
ATOM      2  C   UNL A   1      32.214  28.061  24.810  1.00  0.00     0.116 C 
BRANCH   2   3
ATOM      3  N   UNL A   1      31.378  28.626  23.766  1.00  0.00    -0.351 N 
ATOM      4  C   UNL A   1      30.449  28.010  22.966  1.00  0.00     0.267 C 
ATOM      5  O   UNL A   1      29.968  28.589  21.999  1.00  0.00    -0.268 OA
ATOM      6  H   UNL A   1      31.494  29.592  23.611  1.00  0.00     0.163 HD
BRANCH   4   7
ATOM      7  C   UNL A   1      29.887  26.652  23.360  1.00  0.00     0.122 C 
ATOM      8  C   UNL A   1      28.486  26.720  23.915  1.00  0.00     0.075 C 
ATOM      9  N   UNL A   1      30.621  25.588  23.177  1.00  0.00    -0.175 NA
BRANCH   9  10
ATOM     10  N   UNL A   1      30.251  24.410  23.732  1.00  0.00    -0.271 N 
ATOM     11  H   UNL A   1      29.287  24.248  23.838  1.00  0.00     0.190 HD
BRANCH  10  12
ATOM     12  C   UNL A   1      31.122  23.396  24.171  1.00  0.00     0.137 A 
ATOM     13  C   UNL A   1      31.811  22.597  23.252  1.00  0.00     0.055 A 
ATOM     14  C   UNL A   1      31.195  23.033  25.528  1.00  0.00     0.312 A 
ATOM     15  C   UNL A   1      32.482  21.472  23.704  1.00  0.00     0.113 A 
ATOM     16  C   UNL A   1      31.873  21.879  25.889  1.00  0.00     0.198 A 
ATOM     17  N   UNL A   1      32.516  21.087  24.999  1.00  0.00    -0.257 NA
BRANCH  14  18
ATOM     18  N   UNL A   1      30.531  23.802  26.569  1.00  0.00     0.066 N 
ATOM     19  O   UNL A   1      29.854  23.184  27.402  1.00  0.00    -0.258 OA
ATOM     20  O   UNL A   1      30.692  25.034  26.574  1.00  0.00    -0.258 OA
ENDBRANCH  14  18
ENDBRANCH  10  12
ENDBRANCH   9  10
ENDBRANCH   4   7
ENDBRANCH   2   3
ENDBRANCH   1   2
BRANCH   1  21
ATOM     21  C   UNL A   1      32.509  28.071  27.359  1.00  0.00     0.023 C 
BRANCH  21  22
ATOM     22  C   UNL A   1      33.835  28.812  27.232  1.00  0.00     0.116 C 
BRANCH  22  23
ATOM     23  N   UNL A   1      33.784  30.154  27.789  1.00  0.00    -0.352 N 
ATOM     24  C   UNL A   1      34.749  30.833  28.494  1.00  0.00     0.251 C 
ATOM     25  H   UNL A   1      32.942  30.643  27.641  1.00  0.00     0.163 HD
ATOM     26  O   UNL A   1      34.492  31.904  29.024  1.00  0.00    -0.269 OA
BRANCH  24  27
ATOM     27  C   UNL A   1      36.095  30.238  28.634  1.00  0.00     0.039 A 
ATOM     28  C   UNL A   1      36.975  30.301  27.552  1.00  0.00     0.014 A 
ATOM     29  C   UNL A   1      36.493  29.642  29.835  1.00  0.00     0.014 A 
ATOM     30  C   UNL A   1      38.278  29.822  27.694  1.00  0.00     0.010 A 
ATOM     31  C   UNL A   1      37.813  29.236  29.999  1.00  0.00     0.010 A 
ATOM     32  C   UNL A   1      38.719  29.320  28.931  1.00  0.00    -0.014 A 
BRANCH  32  33
ATOM     33  C   UNL A   1      40.124  28.879  29.123  1.00  0.00     0.031 A 
ATOM     34  C   UNL A   1      41.135  29.817  29.721  1.00  0.00     0.074 A 
ATOM     35  C   UNL A   1      40.502  27.655  28.704  1.00  0.00     0.049 A 
ATOM     36  N   UNL A   1      42.418  29.638  29.912  1.00  0.00    -0.248 NA
ATOM     37  C   UNL A   1      40.645  31.142  30.136  1.00  0.00     0.031 C 
ATOM     38  C   UNL A   1      39.627  26.670  28.067  1.00  0.00     0.029 A 
ATOM     39  N   UNL A   1      41.727  27.036  28.744  1.00  0.00    -0.354 N 
ATOM     40  C   UNL A   1      42.888  30.827  30.455  1.00  0.00     0.074 A 
ATOM     41  C   UNL A   1      41.767  31.739  30.509  1.00  0.00     0.031 C 
ATOM     42  C   UNL A   1      40.336  25.562  27.798  1.00  0.00     0.029 A 
ATOM     43  C   UNL A   1      41.723  25.772  28.204  1.00  0.00     0.049 A 
ATOM     44  H   UNL A   1      42.532  27.457  29.122  1.00  0.00     0.167 HD
ATOM     45  C   UNL A   1      44.135  31.124  30.891  1.00  0.00     0.037 A 
ATOM     46  C   UNL A   1      42.724  24.886  28.047  1.00  0.00     0.037 A 
ATOM     47  C   UNL A   1      45.243  30.206  30.854  1.00  0.00     0.049 A 
ATOM     48  C   UNL A   1      44.105  25.247  28.524  1.00  0.00     0.074 A 
ATOM     49  C   UNL A   1      46.531  30.392  31.326  1.00  0.00     0.029 A 
ATOM     50  N   UNL A   1      45.197  28.932  30.308  1.00  0.00    -0.354 N 
ATOM     51  N   UNL A   1      44.519  26.348  29.102  1.00  0.00    -0.248 NA
ATOM     52  C   UNL A   1      45.156  24.238  28.330  1.00  0.00     0.031 C 
ATOM     53  C   UNL A   1      47.279  29.250  31.019  1.00  0.00     0.029 A 
ATOM     54  C   UNL A   1      46.441  28.331  30.407  1.00  0.00     0.049 A 
ATOM     55  H   UNL A   1      44.399  28.517  29.910  1.00  0.00     0.167 HD
ATOM     56  C   UNL A   1      45.869  26.154  29.367  1.00  0.00     0.074 A 
ATOM     57  C   UNL A   1      46.199  24.824  28.902  1.00  0.00     0.031 C 
ATOM     58  C   UNL A   1      46.755  27.003  29.945  1.00  0.00     0.037 A 
BRANCH  45  59
ATOM     59  C   UNL A   1      44.364  32.498  31.451  1.00  0.00     0.057 A 
ATOM     60  C   UNL A   1      44.749  33.574  30.639  1.00  0.00     0.134 A 
ATOM     61  C   UNL A   1      44.163  32.758  32.813  1.00  0.00     0.134 A 
ATOM     62  F   UNL A   1      44.970  33.392  29.328  1.00  0.00    -0.206 F 
ATOM     63  C   UNL A   1      44.954  34.850  31.165  1.00  0.00     0.040 A 
ATOM     64  C   UNL A   1      44.336  34.038  33.346  1.00  0.00     0.040 A 
ATOM     65  F   UNL A   1      43.788  31.777  33.647  1.00  0.00    -0.206 F 
ATOM     66  C   UNL A   1      44.740  35.086  32.522  1.00  0.00     0.006 A 
ENDBRANCH  45  59
BRANCH  46  67
ATOM     67  C   UNL A   1      42.459  23.563  27.425  1.00  0.00     0.057 A 
ATOM     68  C   UNL A   1      42.595  23.374  26.044  1.00  0.00     0.134 A 
ATOM     69  C   UNL A   1      42.049  22.464  28.188  1.00  0.00     0.134 A 
ATOM     70  F   UNL A   1      42.967  24.393  25.257  1.00  0.00    -0.206 F 
ATOM     71  C   UNL A   1      42.311  22.148  25.443  1.00  0.00     0.040 A 
ATOM     72  C   UNL A   1      41.788  21.224  27.603  1.00  0.00     0.040 A 
ATOM     73  F   UNL A   1      41.906  22.576  29.518  1.00  0.00    -0.206 F 
ATOM     74  C   UNL A   1      41.909  21.066  26.224  1.00  0.00     0.006 A 
ENDBRANCH  46  67
BRANCH  58  75
ATOM     75  C   UNL A   1      48.158  26.504  30.140  1.00  0.00     0.057 A 
ATOM     76  C   UNL A   1      49.162  26.726  29.189  1.00  0.00     0.134 A 
ATOM     77  C   UNL A   1      48.517  25.830  31.314  1.00  0.00     0.134 A 
ATOM     78  F   UNL A   1      48.882  27.355  28.038  1.00  0.00    -0.206 F 
ATOM     79  C   UNL A   1      50.467  26.274  29.389  1.00  0.00     0.040 A 
ATOM     80  C   UNL A   1      49.825  25.400  31.539  1.00  0.00     0.040 A 
ATOM     81  F   UNL A   1      47.606  25.593  32.270  1.00  0.00    -0.206 F 
ATOM     82  C   UNL A   1      50.804  25.616  30.571  1.00  0.00     0.006 A 
ENDBRANCH  58  75
ENDBRANCH  32  33
ENDBRANCH  24  27
ENDBRANCH  22  23
ENDBRANCH  21  22
ENDBRANCH   1  21
TORSDOF 14
ENDMDL
