MODEL 1
REMARK VINA RESULT:     -10.3      0.000      0.000
REMARK SMILES CC(=O)N1CCC[C@H]1COCC(=O)NCCCCNC(=O)c1ccc(-c2c3nc(c(-c4c(F)cccc4F)c4ccc([nH]4)c(-c4c(F)cccc4F)c4nc(c(-c5c(F)cccc5F)c5ccc2[nH]5)C=C4)C=C3)cc1
REMARK SMILES IDX 15 1 14 2 12 3 13 4 11 6 10 7 9 8 8 9 4 10 5 11 6 12 7 13
REMARK SMILES IDX 2 14 1 15 3 16 16 17 17 18 18 19 19 20 20 21 21 23 22 24
REMARK SMILES IDX 23 25 75 26 24 27 74 28 25 29 26 30 27 31 68 32 28 33 73 34
REMARK SMILES IDX 67 35 69 36 29 37 72 38 66 39 65 40 30 42 56 43 39 44 55 45
REMARK SMILES IDX 40 46 43 47 54 48 70 49 41 50 42 51 53 53 71 54 44 55 31 56
REMARK SMILES IDX 32 57 37 58 33 59 34 60 36 61 38 62 35 63 57 64 58 65 63 66
REMARK SMILES IDX 59 67 60 68 62 69 64 70 61 71 45 72 46 73 51 74 47 75 48 76
REMARK SMILES IDX 50 77 52 78 49 79
REMARK H PARENT 14 5 19 22 69 41 43 52
REMARK Flexibility Score: inf
ROOT
ATOM      1  C   UNL A   1      31.866  29.924  25.121  1.00  0.00     0.116 C 
ENDROOT
BRANCH   1   2
ATOM      2  N   UNL A   1      30.695  30.324  24.367  1.00  0.00    -0.354 N 
ATOM      3  C   UNL A   1      30.026  29.620  23.414  1.00  0.00     0.245 C 
ATOM      4  O   UNL A   1      29.064  30.147  22.852  1.00  0.00    -0.272 OA
ATOM      5  H   UNL A   1      30.337  31.220  24.571  1.00  0.00     0.163 HD
BRANCH   3   6
ATOM      6  C   UNL A   1      30.451  28.180  23.106  1.00  0.00     0.260 C 
BRANCH   6   7
ATOM      7  O   UNL A   1      30.005  27.142  23.952  1.00  0.00    -0.370 OA
BRANCH   7   8
ATOM      8  C   UNL A   1      30.475  25.823  23.661  1.00  0.00     0.185 C 
BRANCH   8   9
ATOM      9  C   UNL A   1      31.742  25.358  24.423  1.00  0.00     0.111 C 
ATOM     10  N   UNL A   1      33.003  25.759  23.809  1.00  0.00    -0.338 N 
ATOM     11  C   UNL A   1      33.729  26.701  24.634  1.00  0.00     0.120 C 
ATOM     12  C   UNL A   1      33.194  26.483  26.038  1.00  0.00     0.024 C 
ATOM     13  C   UNL A   1      31.809  25.871  25.865  1.00  0.00     0.029 C 
BRANCH  10  14
ATOM     14  C   UNL A   1      33.411  25.244  22.598  1.00  0.00     0.219 C 
ATOM     15  C   UNL A   1      33.505  23.742  22.504  1.00  0.00     0.114 C 
ATOM     16  O   UNL A   1      33.651  25.955  21.623  1.00  0.00    -0.275 OA
ENDBRANCH  10  14
ENDBRANCH   8   9
ENDBRANCH   7   8
ENDBRANCH   6   7
ENDBRANCH   3   6
ENDBRANCH   1   2
BRANCH   1  17
ATOM     17  C   UNL A   1      31.778  30.376  26.575  1.00  0.00     0.023 C 
BRANCH  17  18
ATOM     18  C   UNL A   1      31.539  31.877  26.771  1.00  0.00     0.023 C 
BRANCH  18  19
ATOM     19  C   UNL A   1      32.740  32.678  27.263  1.00  0.00     0.116 C 
BRANCH  19  20
ATOM     20  N   UNL A   1      32.413  34.054  27.596  1.00  0.00    -0.352 N 
ATOM     21  C   UNL A   1      32.994  34.880  28.530  1.00  0.00     0.251 C 
ATOM     22  H   UNL A   1      31.673  34.449  27.082  1.00  0.00     0.163 HD
ATOM     23  O   UNL A   1      32.527  35.987  28.757  1.00  0.00    -0.269 OA
BRANCH  21  24
ATOM     24  C   UNL A   1      34.164  34.399  29.293  1.00  0.00     0.039 A 
ATOM     25  C   UNL A   1      33.951  33.783  30.528  1.00  0.00     0.014 A 
ATOM     26  C   UNL A   1      35.456  34.516  28.773  1.00  0.00     0.014 A 
ATOM     27  C   UNL A   1      35.025  33.203  31.205  1.00  0.00     0.010 A 
ATOM     28  C   UNL A   1      36.515  33.884  29.418  1.00  0.00     0.010 A 
ATOM     29  C   UNL A   1      36.306  33.209  30.631  1.00  0.00    -0.014 A 
BRANCH  29  30
ATOM     30  C   UNL A   1      37.430  32.468  31.255  1.00  0.00     0.031 A 
ATOM     31  C   UNL A   1      38.046  32.953  32.534  1.00  0.00     0.074 A 
ATOM     32  C   UNL A   1      37.958  31.409  30.611  1.00  0.00     0.049 A 
ATOM     33  N   UNL A   1      39.090  32.494  33.175  1.00  0.00    -0.248 NA
ATOM     34  C   UNL A   1      37.422  34.129  33.160  1.00  0.00     0.031 C 
ATOM     35  C   UNL A   1      37.485  30.877  29.333  1.00  0.00     0.029 A 
ATOM     36  N   UNL A   1      39.024  30.608  30.933  1.00  0.00    -0.354 N 
ATOM     37  C   UNL A   1      39.260  33.332  34.269  1.00  0.00     0.074 A 
ATOM     38  C   UNL A   1      38.239  34.354  34.178  1.00  0.00     0.031 C 
ATOM     39  C   UNL A   1      38.253  29.833  28.981  1.00  0.00     0.029 A 
ATOM     40  C   UNL A   1      39.295  29.650  29.988  1.00  0.00     0.049 A 
ATOM     41  H   UNL A   1      39.547  30.710  31.762  1.00  0.00     0.167 HD
ATOM     42  C   UNL A   1      40.174  33.246  35.264  1.00  0.00     0.037 A 
ATOM     43  C   UNL A   1      40.282  28.737  29.924  1.00  0.00     0.037 A 
ATOM     44  C   UNL A   1      41.177  32.218  35.356  1.00  0.00     0.049 A 
ATOM     45  C   UNL A   1      41.293  28.666  31.032  1.00  0.00     0.074 A 
ATOM     46  C   UNL A   1      42.084  31.985  36.375  1.00  0.00     0.029 A 
ATOM     47  N   UNL A   1      41.415  31.258  34.384  1.00  0.00    -0.354 N 
ATOM     48  N   UNL A   1      41.386  29.406  32.110  1.00  0.00    -0.248 NA
ATOM     49  C   UNL A   1      42.336  27.637  30.916  1.00  0.00     0.031 C 
ATOM     50  C   UNL A   1      42.907  30.921  35.994  1.00  0.00     0.029 A 
ATOM     51  C   UNL A   1      42.485  30.459  34.758  1.00  0.00     0.049 A 
ATOM     52  H   UNL A   1      40.902  31.158  33.551  1.00  0.00     0.167 HD
ATOM     53  C   UNL A   1      42.492  28.932  32.804  1.00  0.00     0.074 A 
ATOM     54  C   UNL A   1      43.023  27.825  32.034  1.00  0.00     0.031 C 
ATOM     55  C   UNL A   1      43.019  29.376  33.970  1.00  0.00     0.037 A 
BRANCH  42  56
ATOM     56  C   UNL A   1      40.134  34.307  36.326  1.00  0.00     0.057 A 
ATOM     57  C   UNL A   1      40.883  35.487  36.227  1.00  0.00     0.134 A 
ATOM     58  C   UNL A   1      39.329  34.148  37.462  1.00  0.00     0.134 A 
ATOM     59  F   UNL A   1      41.683  35.697  35.171  1.00  0.00    -0.206 F 
ATOM     60  C   UNL A   1      40.863  36.453  37.235  1.00  0.00     0.040 A 
ATOM     61  C   UNL A   1      39.279  35.120  38.463  1.00  0.00     0.040 A 
ATOM     62  F   UNL A   1      38.580  33.046  37.618  1.00  0.00    -0.206 F 
ATOM     63  C   UNL A   1      40.055  36.272  38.356  1.00  0.00     0.006 A 
ENDBRANCH  42  56
BRANCH  43  64
ATOM     64  C   UNL A   1      40.352  27.819  28.761  1.00  0.00     0.057 A 
ATOM     65  C   UNL A   1      39.657  26.605  28.756  1.00  0.00     0.134 A 
ATOM     66  C   UNL A   1      41.083  28.151  27.614  1.00  0.00     0.134 A 
ATOM     67  F   UNL A   1      38.955  26.225  29.834  1.00  0.00    -0.206 F 
ATOM     68  C   UNL A   1      39.685  25.753  27.651  1.00  0.00     0.040 A 
ATOM     69  C   UNL A   1      41.103  27.318  26.494  1.00  0.00     0.040 A 
ATOM     70  F   UNL A   1      41.765  29.305  27.555  1.00  0.00    -0.206 F 
ATOM     71  C   UNL A   1      40.403  26.113  26.512  1.00  0.00     0.006 A 
ENDBRANCH  43  64
BRANCH  55  72
ATOM     72  C   UNL A   1      44.243  28.673  34.480  1.00  0.00     0.057 A 
ATOM     73  C   UNL A   1      44.150  27.529  35.283  1.00  0.00     0.134 A 
ATOM     74  C   UNL A   1      45.525  29.117  34.132  1.00  0.00     0.134 A 
ATOM     75  F   UNL A   1      42.950  27.061  35.664  1.00  0.00    -0.206 F 
ATOM     76  C   UNL A   1      45.289  26.860  35.735  1.00  0.00     0.040 A 
ATOM     77  C   UNL A   1      46.671  28.441  34.557  1.00  0.00     0.040 A 
ATOM     78  F   UNL A   1      45.685  30.202  33.360  1.00  0.00    -0.206 F 
ATOM     79  C   UNL A   1      46.553  27.311  35.364  1.00  0.00     0.006 A 
ENDBRANCH  55  72
ENDBRANCH  29  30
ENDBRANCH  21  24
ENDBRANCH  19  20
ENDBRANCH  18  19
ENDBRANCH  17  18
ENDBRANCH   1  17
TORSDOF 15
ENDMDL
MODEL 2
REMARK VINA RESULT:     -10.3      5.573      9.960
REMARK SMILES CC(=O)N1CCC[C@H]1COCC(=O)NCCCCNC(=O)c1ccc(-c2c3nc(c(-c4c(F)cccc4F)c4ccc([nH]4)c(-c4c(F)cccc4F)c4nc(c(-c5c(F)cccc5F)c5ccc2[nH]5)C=C4)C=C3)cc1
REMARK SMILES IDX 15 1 14 2 12 3 13 4 11 6 10 7 9 8 8 9 4 10 5 11 6 12 7 13
REMARK SMILES IDX 2 14 1 15 3 16 16 17 17 18 18 19 19 20 20 21 21 23 22 24
REMARK SMILES IDX 23 25 75 26 24 27 74 28 25 29 26 30 27 31 68 32 28 33 73 34
REMARK SMILES IDX 67 35 69 36 29 37 72 38 66 39 65 40 30 42 56 43 39 44 55 45
REMARK SMILES IDX 40 46 43 47 54 48 70 49 41 50 42 51 53 53 71 54 44 55 31 56
REMARK SMILES IDX 32 57 37 58 33 59 34 60 36 61 38 62 35 63 57 64 58 65 63 66
REMARK SMILES IDX 59 67 60 68 62 69 64 70 61 71 45 72 46 73 51 74 47 75 48 76
REMARK SMILES IDX 50 77 52 78 49 79
REMARK H PARENT 14 5 19 22 69 41 43 52
REMARK Flexibility Score: inf
ROOT
ATOM      1  C   UNL A   1      35.697  21.434  25.659  1.00  0.00     0.116 C 
ENDROOT
BRANCH   1   2
ATOM      2  N   UNL A   1      34.885  20.271  25.367  1.00  0.00    -0.354 N 
ATOM      3  C   UNL A   1      33.559  20.225  25.065  1.00  0.00     0.245 C 
ATOM      4  O   UNL A   1      33.029  19.127  24.882  1.00  0.00    -0.272 OA
ATOM      5  H   UNL A   1      35.352  19.403  25.389  1.00  0.00     0.163 HD
BRANCH   3   6
ATOM      6  C   UNL A   1      32.777  21.534  24.908  1.00  0.00     0.260 C 
BRANCH   6   7
ATOM      7  O   UNL A   1      31.991  21.991  25.987  1.00  0.00    -0.370 OA
BRANCH   7   8
ATOM      8  C   UNL A   1      32.357  23.245  26.568  1.00  0.00     0.185 C 
BRANCH   8   9
ATOM      9  C   UNL A   1      32.583  24.422  25.585  1.00  0.00     0.111 C 
ATOM     10  N   UNL A   1      31.722  25.577  25.810  1.00  0.00    -0.338 N 
ATOM     11  C   UNL A   1      32.475  26.736  26.241  1.00  0.00     0.120 C 
ATOM     12  C   UNL A   1      33.891  26.481  25.760  1.00  0.00     0.024 C 
ATOM     13  C   UNL A   1      34.014  24.970  25.608  1.00  0.00     0.029 C 
BRANCH  10  14
ATOM     14  C   UNL A   1      30.362  25.516  25.593  1.00  0.00     0.219 C 
ATOM     15  C   UNL A   1      29.903  25.653  24.164  1.00  0.00     0.114 C 
ATOM     16  O   UNL A   1      29.555  25.320  26.501  1.00  0.00    -0.275 OA
ENDBRANCH  10  14
ENDBRANCH   8   9
ENDBRANCH   7   8
ENDBRANCH   6   7
ENDBRANCH   3   6
ENDBRANCH   1   2
BRANCH   1  17
ATOM     17  C   UNL A   1      36.943  21.484  24.780  1.00  0.00     0.023 C 
BRANCH  17  18
ATOM     18  C   UNL A   1      37.869  20.269  24.904  1.00  0.00     0.023 C 
BRANCH  18  19
ATOM     19  C   UNL A   1      39.110  20.470  25.768  1.00  0.00     0.116 C 
BRANCH  19  20
ATOM     20  N   UNL A   1      39.996  19.319  25.775  1.00  0.00    -0.352 N 
ATOM     21  C   UNL A   1      41.350  19.270  26.012  1.00  0.00     0.251 C 
ATOM     22  H   UNL A   1      39.567  18.454  25.583  1.00  0.00     0.163 HD
ATOM     23  O   UNL A   1      41.967  18.223  25.877  1.00  0.00    -0.269 OA
BRANCH  21  24
ATOM     24  C   UNL A   1      42.064  20.508  26.387  1.00  0.00     0.039 A 
ATOM     25  C   UNL A   1      42.624  21.291  25.375  1.00  0.00     0.014 A 
ATOM     26  C   UNL A   1      42.141  20.913  27.722  1.00  0.00     0.014 A 
ATOM     27  C   UNL A   1      43.186  22.528  25.692  1.00  0.00     0.010 A 
ATOM     28  C   UNL A   1      42.646  22.174  28.028  1.00  0.00     0.010 A 
ATOM     29  C   UNL A   1      43.158  22.999  27.014  1.00  0.00    -0.014 A 
BRANCH  29  30
ATOM     30  C   UNL A   1      43.608  24.372  27.350  1.00  0.00     0.031 A 
ATOM     31  C   UNL A   1      42.617  25.417  27.771  1.00  0.00     0.074 A 
ATOM     32  C   UNL A   1      44.903  24.700  27.182  1.00  0.00     0.049 A 
ATOM     33  N   UNL A   1      42.810  26.689  28.012  1.00  0.00    -0.248 NA
ATOM     34  C   UNL A   1      41.220  24.981  27.909  1.00  0.00     0.031 C 
ATOM     35  C   UNL A   1      45.952  23.788  26.722  1.00  0.00     0.029 A 
ATOM     36  N   UNL A   1      45.553  25.896  27.353  1.00  0.00    -0.354 N 
ATOM     37  C   UNL A   1      41.558  27.208  28.314  1.00  0.00     0.074 A 
ATOM     38  C   UNL A   1      40.608  26.124  28.181  1.00  0.00     0.031 C 
ATOM     39  C   UNL A   1      47.115  24.455  26.654  1.00  0.00     0.029 A 
ATOM     40  C   UNL A   1      46.885  25.848  27.026  1.00  0.00     0.049 A 
ATOM     41  H   UNL A   1      45.107  26.711  27.679  1.00  0.00     0.167 HD
ATOM     42  C   UNL A   1      41.235  28.470  28.684  1.00  0.00     0.037 A 
ATOM     43  C   UNL A   1      47.817  26.820  27.006  1.00  0.00     0.037 A 
ATOM     44  C   UNL A   1      42.187  29.540  28.831  1.00  0.00     0.049 A 
ATOM     45  C   UNL A   1      47.436  28.216  27.407  1.00  0.00     0.074 A 
ATOM     46  C   UNL A   1      41.976  30.826  29.297  1.00  0.00     0.029 A 
ATOM     47  N   UNL A   1      43.531  29.452  28.499  1.00  0.00    -0.354 N 
ATOM     48  N   UNL A   1      46.266  28.673  27.783  1.00  0.00    -0.248 NA
ATOM     49  C   UNL A   1      48.500  29.228  27.383  1.00  0.00     0.031 C 
ATOM     50  C   UNL A   1      43.179  31.533  29.192  1.00  0.00     0.029 A 
ATOM     51  C   UNL A   1      44.152  30.675  28.706  1.00  0.00     0.049 A 
ATOM     52  H   UNL A   1      43.979  28.642  28.165  1.00  0.00     0.167 HD
ATOM     53  C   UNL A   1      46.452  30.025  28.043  1.00  0.00     0.074 A 
ATOM     54  C   UNL A   1      47.854  30.306  27.804  1.00  0.00     0.031 C 
ATOM     55  C   UNL A   1      45.543  30.947  28.441  1.00  0.00     0.037 A 
BRANCH  42  56
ATOM     56  C   UNL A   1      39.785  28.760  28.943  1.00  0.00     0.057 A 
ATOM     57  C   UNL A   1      38.916  29.172  27.924  1.00  0.00     0.134 A 
ATOM     58  C   UNL A   1      39.248  28.619  30.229  1.00  0.00     0.134 A 
ATOM     59  F   UNL A   1      39.367  29.338  26.671  1.00  0.00    -0.206 F 
ATOM     60  C   UNL A   1      37.576  29.469  28.181  1.00  0.00     0.040 A 
ATOM     61  C   UNL A   1      37.904  28.885  30.493  1.00  0.00     0.040 A 
ATOM     62  F   UNL A   1      40.022  28.221  31.251  1.00  0.00    -0.206 F 
ATOM     63  C   UNL A   1      37.066  29.321  29.470  1.00  0.00     0.006 A 
ENDBRANCH  42  56
BRANCH  43  64
ATOM     64  C   UNL A   1      49.202  26.493  26.586  1.00  0.00     0.057 A 
ATOM     65  C   UNL A   1      50.117  25.938  27.487  1.00  0.00     0.134 A 
ATOM     66  C   UNL A   1      49.631  26.691  25.268  1.00  0.00     0.134 A 
ATOM     67  F   UNL A   1      49.769  25.742  28.767  1.00  0.00    -0.206 F 
ATOM     68  C   UNL A   1      51.410  25.591  27.092  1.00  0.00     0.040 A 
ATOM     69  C   UNL A   1      50.913  26.329  24.854  1.00  0.00     0.040 A 
ATOM     70  F   UNL A   1      48.796  27.213  24.356  1.00  0.00    -0.206 F 
ATOM     71  C   UNL A   1      51.808  25.778  25.770  1.00  0.00     0.006 A 
ENDBRANCH  43  64
BRANCH  55  72
ATOM     72  C   UNL A   1      46.032  32.353  28.631  1.00  0.00     0.057 A 
ATOM     73  C   UNL A   1      46.568  32.784  29.850  1.00  0.00     0.134 A 
ATOM     74  C   UNL A   1      46.007  33.273  27.574  1.00  0.00     0.134 A 
ATOM     75  F   UNL A   1      46.607  31.957  30.907  1.00  0.00    -0.206 F 
ATOM     76  C   UNL A   1      47.048  34.085  30.018  1.00  0.00     0.040 A 
ATOM     77  C   UNL A   1      46.506  34.568  27.723  1.00  0.00     0.040 A 
ATOM     78  F   UNL A   1      45.512  32.922  26.377  1.00  0.00    -0.206 F 
ATOM     79  C   UNL A   1      47.025  34.977  28.949  1.00  0.00     0.006 A 
ENDBRANCH  55  72
ENDBRANCH  29  30
ENDBRANCH  21  24
ENDBRANCH  19  20
ENDBRANCH  18  19
ENDBRANCH  17  18
ENDBRANCH   1  17
TORSDOF 15
ENDMDL
MODEL 3
REMARK VINA RESULT:     -10.2      1.442      6.681
REMARK SMILES CC(=O)N1CCC[C@H]1COCC(=O)NCCCCNC(=O)c1ccc(-c2c3nc(c(-c4c(F)cccc4F)c4ccc([nH]4)c(-c4c(F)cccc4F)c4nc(c(-c5c(F)cccc5F)c5ccc2[nH]5)C=C4)C=C3)cc1
REMARK SMILES IDX 15 1 14 2 12 3 13 4 11 6 10 7 9 8 8 9 4 10 5 11 6 12 7 13
REMARK SMILES IDX 2 14 1 15 3 16 16 17 17 18 18 19 19 20 20 21 21 23 22 24
REMARK SMILES IDX 23 25 75 26 24 27 74 28 25 29 26 30 27 31 68 32 28 33 73 34
REMARK SMILES IDX 67 35 69 36 29 37 72 38 66 39 65 40 30 42 56 43 39 44 55 45
REMARK SMILES IDX 40 46 43 47 54 48 70 49 41 50 42 51 53 53 71 54 44 55 31 56
REMARK SMILES IDX 32 57 37 58 33 59 34 60 36 61 38 62 35 63 57 64 58 65 63 66
REMARK SMILES IDX 59 67 60 68 62 69 64 70 61 71 45 72 46 73 51 74 47 75 48 76
REMARK SMILES IDX 50 77 52 78 49 79
REMARK H PARENT 14 5 19 22 69 41 43 52
REMARK Flexibility Score: inf
ROOT
ATOM      1  C   UNL A   1      33.248  29.620  26.268  1.00  0.00     0.116 C 
ENDROOT
BRANCH   1   2
ATOM      2  N   UNL A   1      33.358  29.702  24.825  1.00  0.00    -0.354 N 
ATOM      3  C   UNL A   1      33.269  28.694  23.915  1.00  0.00     0.245 C 
ATOM      4  O   UNL A   1      33.428  28.956  22.722  1.00  0.00    -0.272 OA
ATOM      5  H   UNL A   1      33.516  30.602  24.457  1.00  0.00     0.163 HD
BRANCH   3   6
ATOM      6  C   UNL A   1      32.924  27.279  24.392  1.00  0.00     0.260 C 
BRANCH   6   7
ATOM      7  O   UNL A   1      33.955  26.321  24.486  1.00  0.00    -0.370 OA
BRANCH   7   8
ATOM      8  C   UNL A   1      33.853  25.362  25.543  1.00  0.00     0.185 C 
BRANCH   8   9
ATOM      9  C   UNL A   1      33.942  23.870  25.132  1.00  0.00     0.111 C 
ATOM     10  N   UNL A   1      32.853  23.037  25.627  1.00  0.00    -0.338 N 
ATOM     11  C   UNL A   1      32.022  22.539  24.551  1.00  0.00     0.120 C 
ATOM     12  C   UNL A   1      32.903  22.601  23.318  1.00  0.00     0.024 C 
ATOM     13  C   UNL A   1      33.962  23.656  23.615  1.00  0.00     0.029 C 
BRANCH  10  14
ATOM     14  C   UNL A   1      32.703  22.769  26.971  1.00  0.00     0.219 C 
ATOM     15  C   UNL A   1      33.805  21.976  27.625  1.00  0.00     0.114 C 
ATOM     16  O   UNL A   1      31.747  23.183  27.626  1.00  0.00    -0.275 OA
ENDBRANCH  10  14
ENDBRANCH   8   9
ENDBRANCH   7   8
ENDBRANCH   6   7
ENDBRANCH   3   6
ENDBRANCH   1   2
BRANCH   1  17
ATOM     17  C   UNL A   1      31.913  30.170  26.761  1.00  0.00     0.023 C 
BRANCH  17  18
ATOM     18  C   UNL A   1      31.771  31.693  26.672  1.00  0.00     0.023 C 
BRANCH  18  19
ATOM     19  C   UNL A   1      32.876  32.499  27.346  1.00  0.00     0.116 C 
BRANCH  19  20
ATOM     20  N   UNL A   1      32.495  33.874  27.623  1.00  0.00    -0.352 N 
ATOM     21  C   UNL A   1      33.040  34.758  28.525  1.00  0.00     0.251 C 
ATOM     22  H   UNL A   1      31.742  34.219  27.091  1.00  0.00     0.163 HD
ATOM     23  O   UNL A   1      32.529  35.854  28.706  1.00  0.00    -0.269 OA
BRANCH  21  24
ATOM     24  C   UNL A   1      34.225  34.354  29.309  1.00  0.00     0.039 A 
ATOM     25  C   UNL A   1      34.029  33.723  30.540  1.00  0.00     0.014 A 
ATOM     26  C   UNL A   1      35.515  34.555  28.813  1.00  0.00     0.014 A 
ATOM     27  C   UNL A   1      35.126  33.215  31.237  1.00  0.00     0.010 A 
ATOM     28  C   UNL A   1      36.601  33.993  29.477  1.00  0.00     0.010 A 
ATOM     29  C   UNL A   1      36.414  33.304  30.687  1.00  0.00    -0.014 A 
BRANCH  29  30
ATOM     30  C   UNL A   1      37.573  32.637  31.331  1.00  0.00     0.031 A 
ATOM     31  C   UNL A   1      38.254  31.480  30.661  1.00  0.00     0.074 A 
ATOM     32  C   UNL A   1      37.947  33.017  32.567  1.00  0.00     0.049 A 
ATOM     33  N   UNL A   1      39.217  30.716  31.111  1.00  0.00    -0.248 NA
ATOM     34  C   UNL A   1      37.770  31.116  29.322  1.00  0.00     0.031 C 
ATOM     35  C   UNL A   1      37.325  34.089  33.346  1.00  0.00     0.029 A 
ATOM     36  N   UNL A   1      38.924  32.527  33.396  1.00  0.00    -0.354 N 
ATOM     37  C   UNL A   1      39.442  29.771  30.119  1.00  0.00     0.074 A 
ATOM     38  C   UNL A   1      38.484  30.031  29.065  1.00  0.00     0.031 C 
ATOM     39  C   UNL A   1      37.939  34.181  34.536  1.00  0.00     0.029 A 
ATOM     40  C   UNL A   1      38.969  33.149  34.619  1.00  0.00     0.049 A 
ATOM     41  H   UNL A   1      39.535  31.798  33.140  1.00  0.00     0.167 HD
ATOM     42  C   UNL A   1      40.373  28.788  30.085  1.00  0.00     0.037 A 
ATOM     43  C   UNL A   1      39.737  32.906  35.698  1.00  0.00     0.037 A 
ATOM     44  C   UNL A   1      41.333  28.545  31.130  1.00  0.00     0.049 A 
ATOM     45  C   UNL A   1      40.755  31.803  35.644  1.00  0.00     0.074 A 
ATOM     46  C   UNL A   1      42.379  27.640  31.147  1.00  0.00     0.029 A 
ATOM     47  N   UNL A   1      41.354  29.202  32.351  1.00  0.00    -0.354 N 
ATOM     48  N   UNL A   1      41.022  30.977  34.662  1.00  0.00    -0.248 NA
ATOM     49  C   UNL A   1      41.576  31.597  36.845  1.00  0.00     0.031 C 
ATOM     50  C   UNL A   1      42.997  27.709  32.400  1.00  0.00     0.029 A 
ATOM     51  C   UNL A   1      42.366  28.690  33.148  1.00  0.00     0.049 A 
ATOM     52  H   UNL A   1      40.739  29.924  32.615  1.00  0.00     0.167 HD
ATOM     53  C   UNL A   1      42.043  30.155  35.123  1.00  0.00     0.074 A 
ATOM     54  C   UNL A   1      42.362  30.600  36.465  1.00  0.00     0.031 C 
ATOM     55  C   UNL A   1      42.657  29.126  34.492  1.00  0.00     0.037 A 
BRANCH  42  56
ATOM     56  C   UNL A   1      40.383  27.894  28.879  1.00  0.00     0.057 A 
ATOM     57  C   UNL A   1      39.642  26.706  28.828  1.00  0.00     0.134 A 
ATOM     58  C   UNL A   1      41.141  28.229  27.750  1.00  0.00     0.134 A 
ATOM     59  F   UNL A   1      38.903  26.320  29.879  1.00  0.00    -0.206 F 
ATOM     60  C   UNL A   1      39.683  25.866  27.713  1.00  0.00     0.040 A 
ATOM     61  C   UNL A   1      41.168  27.412  26.618  1.00  0.00     0.040 A 
ATOM     62  F   UNL A   1      41.869  29.356  27.728  1.00  0.00    -0.206 F 
ATOM     63  C   UNL A   1      40.446  26.221  26.602  1.00  0.00     0.006 A 
ENDBRANCH  42  56
BRANCH  43  64
ATOM     64  C   UNL A   1      39.563  33.732  36.918  1.00  0.00     0.057 A 
ATOM     65  C   UNL A   1      38.722  33.319  37.955  1.00  0.00     0.134 A 
ATOM     66  C   UNL A   1      40.264  34.932  37.091  1.00  0.00     0.134 A 
ATOM     67  F   UNL A   1      38.011  32.188  37.838  1.00  0.00    -0.206 F 
ATOM     68  C   UNL A   1      38.581  34.071  39.123  1.00  0.00     0.040 A 
ATOM     69  C   UNL A   1      40.150  35.682  38.261  1.00  0.00     0.040 A 
ATOM     70  F   UNL A   1      41.093  35.377  36.134  1.00  0.00    -0.206 F 
ATOM     71  C   UNL A   1      39.304  35.252  39.282  1.00  0.00     0.006 A 
ENDBRANCH  43  64
BRANCH  55  72
ATOM     72  C   UNL A   1      43.729  28.399  35.250  1.00  0.00     0.057 A 
ATOM     73  C   UNL A   1      43.447  27.248  35.995  1.00  0.00     0.134 A 
ATOM     74  C   UNL A   1      45.062  28.829  35.201  1.00  0.00     0.134 A 
ATOM     75  F   UNL A   1      42.188  26.793  36.095  1.00  0.00    -0.206 F 
ATOM     76  C   UNL A   1      44.450  26.557  36.679  1.00  0.00     0.040 A 
ATOM     77  C   UNL A   1      46.076  28.132  35.859  1.00  0.00     0.040 A 
ATOM     78  F   UNL A   1      45.401  29.920  34.499  1.00  0.00    -0.206 F 
ATOM     79  C   UNL A   1      45.770  26.995  36.604  1.00  0.00     0.006 A 
ENDBRANCH  55  72
ENDBRANCH  29  30
ENDBRANCH  21  24
ENDBRANCH  19  20
ENDBRANCH  18  19
ENDBRANCH  17  18
ENDBRANCH   1  17
TORSDOF 15
ENDMDL
