MODEL 1
REMARK VINA RESULT:     -11.6      0.000      0.000
REMARK SMILES O=C(NCCCCNC(=O)[C@@H]1CCCN(C(=O)/C=C/c2c(F)cccc2Cl)C1)c1ccc(-c2c3nc(c(-c4c(F)cccc4F)c4ccc([nH]4)c(-c4c(F)cccc4F)c4nc(c(-c5c(F)cccc5F)c5ccc2[nH]5)C=C4)C=C3)cc1
REMARK SMILES IDX 6 1 5 2 4 3 3 4 1 5 2 6 29 8 30 9 82 10 31 11 81 12 32 13
REMARK SMILES IDX 33 14 34 15 75 16 35 17 80 18 74 19 76 20 36 21 79 22 73 23
REMARK SMILES IDX 72 24 37 26 63 27 46 28 62 29 47 30 50 31 61 32 77 33 48 34
REMARK SMILES IDX 49 35 60 37 78 38 51 39 38 40 39 41 44 42 40 43 41 44 43 45
REMARK SMILES IDX 45 46 42 47 64 48 65 49 70 50 66 51 67 52 69 53 71 54 68 55
REMARK SMILES IDX 52 56 53 57 58 58 54 59 55 60 57 61 59 62 56 63 7 64 8 65
REMARK SMILES IDX 9 66 10 68 11 69 12 70 28 71 13 72 15 73 14 74 16 75 17 76
REMARK SMILES IDX 18 77 19 78 20 79 21 80 26 81 22 82 23 83 25 84 27 85 24 86
REMARK H PARENT 3 7 76 25 50 36 8 67
REMARK Flexibility Score: inf
ROOT
ATOM      1  C   UNL A   1      38.970  22.855  26.184  1.00  0.00     0.023 C 
ENDROOT
BRANCH   1   2
ATOM      2  C   UNL A   1      38.895  21.430  25.630  1.00  0.00     0.023 C 
BRANCH   2   3
ATOM      3  C   UNL A   1      39.451  20.358  26.555  1.00  0.00     0.116 C 
BRANCH   3   4
ATOM      4  N   UNL A   1      40.507  19.560  25.946  1.00  0.00    -0.352 N 
ATOM      5  O   UNL A   1      42.596  19.125  25.198  1.00  0.00    -0.269 OA
ATOM      6  C   UNL A   1      41.845  19.857  25.826  1.00  0.00     0.251 C 
ATOM      7  H   UNL A   1      40.226  18.695  25.572  1.00  0.00     0.163 HD
BRANCH   6   8
ATOM      8  C   UNL A   1      42.347  21.105  26.434  1.00  0.00     0.039 A 
ATOM      9  C   UNL A   1      42.416  21.227  27.822  1.00  0.00     0.014 A 
ATOM     10  C   UNL A   1      42.673  22.183  25.607  1.00  0.00     0.014 A 
ATOM     11  C   UNL A   1      42.636  22.475  28.385  1.00  0.00     0.010 A 
ATOM     12  C   UNL A   1      42.986  23.418  26.179  1.00  0.00     0.010 A 
ATOM     13  C   UNL A   1      42.921  23.585  27.571  1.00  0.00    -0.014 A 
BRANCH  13  14
ATOM     14  C   UNL A   1      43.156  24.902  28.212  1.00  0.00     0.031 A 
ATOM     15  C   UNL A   1      44.545  25.361  28.561  1.00  0.00     0.074 A 
ATOM     16  C   UNL A   1      42.102  25.714  28.419  1.00  0.00     0.049 A 
ATOM     17  N   UNL A   1      44.928  26.498  29.084  1.00  0.00    -0.248 NA
ATOM     18  C   UNL A   1      45.648  24.422  28.301  1.00  0.00     0.031 C 
ATOM     19  C   UNL A   1      40.707  25.373  28.123  1.00  0.00     0.029 A 
ATOM     20  N   UNL A   1      42.038  26.998  28.890  1.00  0.00    -0.354 N 
ATOM     21  C   UNL A   1      46.304  26.400  29.248  1.00  0.00     0.074 A 
ATOM     22  C   UNL A   1      46.691  25.086  28.781  1.00  0.00     0.031 C 
ATOM     23  C   UNL A   1      39.935  26.444  28.353  1.00  0.00     0.029 A 
ATOM     24  C   UNL A   1      40.768  27.523  28.872  1.00  0.00     0.049 A 
ATOM     25  H   UNL A   1      42.824  27.497  29.211  1.00  0.00     0.167 HD
ATOM     26  C   UNL A   1      47.165  27.323  29.739  1.00  0.00     0.037 A 
ATOM     27  C   UNL A   1      40.322  28.738  29.236  1.00  0.00     0.037 A 
ATOM     28  C   UNL A   1      46.781  28.645  30.166  1.00  0.00     0.049 A 
ATOM     29  C   UNL A   1      41.300  29.747  29.758  1.00  0.00     0.074 A 
ATOM     30  C   UNL A   1      47.584  29.665  30.647  1.00  0.00     0.029 A 
ATOM     31  N   UNL A   1      45.482  29.131  30.154  1.00  0.00    -0.354 N 
ATOM     32  N   UNL A   1      42.600  29.641  29.897  1.00  0.00    -0.248 NA
ATOM     33  C   UNL A   1      40.750  31.041  30.180  1.00  0.00     0.031 C 
ATOM     34  C   UNL A   1      46.766  30.757  30.956  1.00  0.00     0.029 A 
ATOM     35  C   UNL A   1      45.459  30.432  30.631  1.00  0.00     0.049 A 
ATOM     36  H   UNL A   1      44.693  28.627  29.851  1.00  0.00     0.167 HD
ATOM     37  C   UNL A   1      43.026  30.857  30.408  1.00  0.00     0.074 A 
ATOM     38  C   UNL A   1      41.848  31.693  30.535  1.00  0.00     0.031 C 
ATOM     39  C   UNL A   1      44.279  31.248  30.746  1.00  0.00     0.037 A 
BRANCH  26  40
ATOM     40  C   UNL A   1      48.609  26.932  29.866  1.00  0.00     0.057 A 
ATOM     41  C   UNL A   1      49.107  26.280  31.000  1.00  0.00     0.134 A 
ATOM     42  C   UNL A   1      49.505  27.176  28.816  1.00  0.00     0.134 A 
ATOM     43  F   UNL A   1      48.306  26.028  32.046  1.00  0.00    -0.206 F 
ATOM     44  C   UNL A   1      50.448  25.899  31.093  1.00  0.00     0.040 A 
ATOM     45  C   UNL A   1      50.842  26.781  28.888  1.00  0.00     0.040 A 
ATOM     46  F   UNL A   1      49.093  27.793  27.698  1.00  0.00    -0.206 F 
ATOM     47  C   UNL A   1      51.318  26.143  30.033  1.00  0.00     0.006 A 
ENDBRANCH  26  40
BRANCH  27  48
ATOM     48  C   UNL A   1      38.882  29.061  29.104  1.00  0.00     0.057 A 
ATOM     49  C   UNL A   1      38.023  28.989  30.206  1.00  0.00     0.134 A 
ATOM     50  C   UNL A   1      38.335  29.475  27.884  1.00  0.00     0.134 A 
ATOM     51  F   UNL A   1      38.487  28.586  31.398  1.00  0.00    -0.206 F 
ATOM     52  C   UNL A   1      36.668  29.307  30.098  1.00  0.00     0.040 A 
ATOM     53  C   UNL A   1      36.989  29.820  27.766  1.00  0.00     0.040 A 
ATOM     54  F   UNL A   1      39.111  29.575  26.793  1.00  0.00    -0.206 F 
ATOM     55  C   UNL A   1      36.150  29.731  28.875  1.00  0.00     0.006 A 
ENDBRANCH  27  48
BRANCH  39  56
ATOM     56  C   UNL A   1      44.434  32.648  31.254  1.00  0.00     0.057 A 
ATOM     57  C   UNL A   1      44.564  33.737  30.383  1.00  0.00     0.134 A 
ATOM     58  C   UNL A   1      44.444  32.910  32.629  1.00  0.00     0.134 A 
ATOM     59  F   UNL A   1      44.577  33.549  29.054  1.00  0.00    -0.206 F 
ATOM     60  C   UNL A   1      44.725  35.037  30.864  1.00  0.00     0.040 A 
ATOM     61  C   UNL A   1      44.582  34.208  33.121  1.00  0.00     0.040 A 
ATOM     62  F   UNL A   1      44.318  31.909  33.514  1.00  0.00    -0.206 F 
ATOM     63  C   UNL A   1      44.731  35.275  32.237  1.00  0.00     0.006 A 
ENDBRANCH  39  56
ENDBRANCH  13  14
ENDBRANCH   6   8
ENDBRANCH   3   4
ENDBRANCH   2   3
ENDBRANCH   1   2
BRANCH   1  64
ATOM     64  C   UNL A   1      37.746  23.717  25.876  1.00  0.00     0.116 C 
BRANCH  64  65
ATOM     65  N   UNL A   1      37.330  23.549  24.503  1.00  0.00    -0.356 N 
ATOM     66  C   UNL A   1      36.169  23.160  23.922  1.00  0.00     0.224 C 
ATOM     67  H   UNL A   1      38.038  23.762  23.853  1.00  0.00     0.163 HD
ATOM     68  O   UNL A   1      36.216  23.115  22.688  1.00  0.00    -0.275 OA
BRANCH  66  69
ATOM     69  C   UNL A   1      34.846  22.949  24.677  1.00  0.00     0.098 C 
ATOM     70  C   UNL A   1      33.843  21.888  24.194  1.00  0.00     0.017 C 
ATOM     71  C   UNL A   1      34.107  24.309  24.781  1.00  0.00     0.133 C 
ATOM     72  C   UNL A   1      33.101  22.297  22.924  1.00  0.00     0.022 C 
ATOM     73  N   UNL A   1      33.380  24.630  23.544  1.00  0.00    -0.338 N 
ATOM     74  C   UNL A   1      32.405  23.630  23.126  1.00  0.00     0.120 C 
BRANCH  73  75
ATOM     75  C   UNL A   1      33.585  25.858  22.939  1.00  0.00     0.246 C 
ATOM     76  O   UNL A   1      33.927  25.989  21.765  1.00  0.00    -0.270 OA
BRANCH  75  77
ATOM     77  C   UNL A   1      33.450  27.095  23.753  1.00  0.00     0.072 C 
ATOM     78  C   UNL A   1      32.456  27.296  24.632  1.00  0.00     0.018 C 
BRANCH  78  79
ATOM     79  C   UNL A   1      32.308  28.575  25.339  1.00  0.00     0.029 A 
ATOM     80  C   UNL A   1      33.117  28.836  26.453  1.00  0.00     0.131 A 
ATOM     81  C   UNL A   1      31.376  29.558  24.965  1.00  0.00     0.051 A 
ATOM     82  F   UNL A   1      34.033  27.937  26.845  1.00  0.00    -0.206 F 
ATOM     83  C   UNL A   1      33.005  30.019  27.183  1.00  0.00     0.040 A 
ATOM     84  C   UNL A   1      31.258  30.749  25.695  1.00  0.00     0.021 A 
ATOM     85  Cl  UNL A   1      30.340  29.362  23.594  1.00  0.00    -0.084 Cl
ATOM     86  C   UNL A   1      32.070  30.978  26.805  1.00  0.00     0.005 A 
ENDBRANCH  78  79
ENDBRANCH  75  77
ENDBRANCH  73  75
ENDBRANCH  66  69
ENDBRANCH  64  65
ENDBRANCH   1  64
TORSDOF 14
ENDMDL
MODEL 2
REMARK VINA RESULT:     -11.6      1.265      1.931
REMARK SMILES O=C(NCCCCNC(=O)[C@@H]1CCCN(C(=O)/C=C/c2c(F)cccc2Cl)C1)c1ccc(-c2c3nc(c(-c4c(F)cccc4F)c4ccc([nH]4)c(-c4c(F)cccc4F)c4nc(c(-c5c(F)cccc5F)c5ccc2[nH]5)C=C4)C=C3)cc1
REMARK SMILES IDX 6 1 5 2 4 3 3 4 1 5 2 6 29 8 30 9 82 10 31 11 81 12 32 13
REMARK SMILES IDX 33 14 34 15 75 16 35 17 80 18 74 19 76 20 36 21 79 22 73 23
REMARK SMILES IDX 72 24 37 26 63 27 46 28 62 29 47 30 50 31 61 32 77 33 48 34
REMARK SMILES IDX 49 35 60 37 78 38 51 39 38 40 39 41 44 42 40 43 41 44 43 45
REMARK SMILES IDX 45 46 42 47 64 48 65 49 70 50 66 51 67 52 69 53 71 54 68 55
REMARK SMILES IDX 52 56 53 57 58 58 54 59 55 60 57 61 59 62 56 63 7 64 8 65
REMARK SMILES IDX 9 66 10 68 11 69 12 70 28 71 13 72 15 73 14 74 16 75 17 76
REMARK SMILES IDX 18 77 19 78 20 79 21 80 26 81 22 82 23 83 25 84 27 85 24 86
REMARK H PARENT 3 7 76 25 50 36 8 67
REMARK Flexibility Score: inf
ROOT
ATOM      1  C   UNL A   1      37.179  21.769  24.291  1.00  0.00     0.023 C 
ENDROOT
BRANCH   1   2
ATOM      2  C   UNL A   1      37.733  20.472  24.885  1.00  0.00     0.023 C 
BRANCH   2   3
ATOM      3  C   UNL A   1      38.910  20.658  25.831  1.00  0.00     0.116 C 
BRANCH   3   4
ATOM      4  N   UNL A   1      39.880  19.573  25.768  1.00  0.00    -0.352 N 
ATOM      5  O   UNL A   1      41.930  18.626  25.881  1.00  0.00    -0.269 OA
ATOM      6  C   UNL A   1      41.220  19.601  26.079  1.00  0.00     0.251 C 
ATOM      7  H   UNL A   1      39.530  18.705  25.464  1.00  0.00     0.163 HD
BRANCH   6   8
ATOM      8  C   UNL A   1      41.792  20.851  26.614  1.00  0.00     0.039 A 
ATOM      9  C   UNL A   1      41.919  21.028  27.992  1.00  0.00     0.014 A 
ATOM     10  C   UNL A   1      42.128  21.881  25.730  1.00  0.00     0.014 A 
ATOM     11  C   UNL A   1      42.208  22.288  28.493  1.00  0.00     0.010 A 
ATOM     12  C   UNL A   1      42.511  23.124  26.238  1.00  0.00     0.010 A 
ATOM     13  C   UNL A   1      42.505  23.351  27.623  1.00  0.00    -0.014 A 
BRANCH  13  14
ATOM     14  C   UNL A   1      42.814  24.683  28.198  1.00  0.00     0.031 A 
ATOM     15  C   UNL A   1      44.233  25.096  28.483  1.00  0.00     0.074 A 
ATOM     16  C   UNL A   1      41.803  25.546  28.403  1.00  0.00     0.049 A 
ATOM     17  N   UNL A   1      44.679  26.238  28.944  1.00  0.00    -0.248 NA
ATOM     18  C   UNL A   1      45.286  24.101  28.230  1.00  0.00     0.031 C 
ATOM     19  C   UNL A   1      40.386  25.253  28.166  1.00  0.00     0.029 A 
ATOM     20  N   UNL A   1      41.807  26.851  28.819  1.00  0.00    -0.354 N 
ATOM     21  C   UNL A   1      46.054  26.088  29.068  1.00  0.00     0.074 A 
ATOM     22  C   UNL A   1      46.371  24.740  28.647  1.00  0.00     0.031 C 
ATOM     23  C   UNL A   1      39.667  26.365  28.373  1.00  0.00     0.029 A 
ATOM     24  C   UNL A   1      40.560  27.428  28.817  1.00  0.00     0.049 A 
ATOM     25  H   UNL A   1      42.623  27.329  29.093  1.00  0.00     0.167 HD
ATOM     26  C   UNL A   1      46.969  26.994  29.492  1.00  0.00     0.037 A 
ATOM     27  C   UNL A   1      40.177  28.675  29.142  1.00  0.00     0.037 A 
ATOM     28  C   UNL A   1      46.654  28.347  29.872  1.00  0.00     0.049 A 
ATOM     29  C   UNL A   1      41.212  29.663  29.589  1.00  0.00     0.074 A 
ATOM     30  C   UNL A   1      47.513  29.351  30.284  1.00  0.00     0.029 A 
ATOM     31  N   UNL A   1      45.376  28.887  29.880  1.00  0.00    -0.354 N 
ATOM     32  N   UNL A   1      42.510  29.508  29.692  1.00  0.00    -0.248 NA
ATOM     33  C   UNL A   1      40.730  30.996  29.971  1.00  0.00     0.031 C 
ATOM     34  C   UNL A   1      46.751  30.490  30.570  1.00  0.00     0.029 A 
ATOM     35  C   UNL A   1      45.423  30.207  30.301  1.00  0.00     0.049 A 
ATOM     36  H   UNL A   1      44.557  28.405  29.625  1.00  0.00     0.167 HD
ATOM     37  C   UNL A   1      43.002  30.725  30.135  1.00  0.00     0.074 A 
ATOM     38  C   UNL A   1      41.865  31.615  30.263  1.00  0.00     0.031 C 
ATOM     39  C   UNL A   1      44.281  31.076  30.417  1.00  0.00     0.037 A 
BRANCH  26  40
ATOM     40  C   UNL A   1      48.398  26.547  29.590  1.00  0.00     0.057 A 
ATOM     41  C   UNL A   1      49.320  26.770  28.560  1.00  0.00     0.134 A 
ATOM     42  C   UNL A   1      48.869  25.922  30.753  1.00  0.00     0.134 A 
ATOM     43  F   UNL A   1      48.933  27.352  27.415  1.00  0.00    -0.206 F 
ATOM     44  C   UNL A   1      50.654  26.372  28.677  1.00  0.00     0.040 A 
ATOM     45  C   UNL A   1      50.204  25.540  30.890  1.00  0.00     0.040 A 
ATOM     46  F   UNL A   1      48.039  25.682  31.780  1.00  0.00    -0.206 F 
ATOM     47  C   UNL A   1      51.101  25.761  29.846  1.00  0.00     0.006 A 
ENDBRANCH  26  40
BRANCH  27  48
ATOM     48  C   UNL A   1      38.747  29.054  29.042  1.00  0.00     0.057 A 
ATOM     49  C   UNL A   1      37.903  28.984  30.155  1.00  0.00     0.134 A 
ATOM     50  C   UNL A   1      38.198  29.518  27.841  1.00  0.00     0.134 A 
ATOM     51  F   UNL A   1      38.370  28.535  31.329  1.00  0.00    -0.206 F 
ATOM     52  C   UNL A   1      36.559  29.354  30.076  1.00  0.00     0.040 A 
ATOM     53  C   UNL A   1      36.864  29.914  27.754  1.00  0.00     0.040 A 
ATOM     54  F   UNL A   1      38.960  29.617  26.741  1.00  0.00    -0.206 F 
ATOM     55  C   UNL A   1      36.039  29.828  28.873  1.00  0.00     0.006 A 
ENDBRANCH  27  48
BRANCH  39  56
ATOM     56  C   UNL A   1      44.511  32.489  30.858  1.00  0.00     0.057 A 
ATOM     57  C   UNL A   1      44.487  32.851  32.211  1.00  0.00     0.134 A 
ATOM     58  C   UNL A   1      44.768  33.496  29.920  1.00  0.00     0.134 A 
ATOM     59  F   UNL A   1      44.231  31.934  33.157  1.00  0.00    -0.206 F 
ATOM     60  C   UNL A   1      44.686  34.172  32.613  1.00  0.00     0.040 A 
ATOM     61  C   UNL A   1      44.990  34.816  30.312  1.00  0.00     0.040 A 
ATOM     62  F   UNL A   1      44.808  33.210  28.609  1.00  0.00    -0.206 F 
ATOM     63  C   UNL A   1      44.942  35.158  31.662  1.00  0.00     0.006 A 
ENDBRANCH  39  56
ENDBRANCH  13  14
ENDBRANCH   6   8
ENDBRANCH   3   4
ENDBRANCH   2   3
ENDBRANCH   1   2
BRANCH   1  64
ATOM     64  C   UNL A   1      36.832  22.839  25.326  1.00  0.00     0.116 C 
BRANCH  64  65
ATOM     65  N   UNL A   1      35.981  23.854  24.752  1.00  0.00    -0.356 N 
ATOM     66  C   UNL A   1      34.794  23.816  24.098  1.00  0.00     0.224 C 
ATOM     67  H   UNL A   1      36.338  24.766  24.856  1.00  0.00     0.163 HD
ATOM     68  O   UNL A   1      34.389  24.923  23.729  1.00  0.00    -0.275 OA
BRANCH  66  69
ATOM     69  C   UNL A   1      33.919  22.559  23.958  1.00  0.00     0.098 C 
ATOM     70  C   UNL A   1      32.896  22.455  22.814  1.00  0.00     0.017 C 
ATOM     71  C   UNL A   1      33.178  22.313  25.300  1.00  0.00     0.133 C 
ATOM     72  C   UNL A   1      31.669  23.338  23.024  1.00  0.00     0.022 C 
ATOM     73  N   UNL A   1      31.985  23.163  25.427  1.00  0.00    -0.338 N 
ATOM     74  C   UNL A   1      31.009  23.018  24.353  1.00  0.00     0.120 C 
BRANCH  73  75
ATOM     75  C   UNL A   1      31.823  23.934  26.564  1.00  0.00     0.246 C 
ATOM     76  O   UNL A   1      31.456  23.480  27.647  1.00  0.00    -0.270 OA
BRANCH  75  77
ATOM     77  C   UNL A   1      32.036  25.403  26.477  1.00  0.00     0.072 C 
ATOM     78  C   UNL A   1      31.046  26.281  26.249  1.00  0.00     0.018 C 
BRANCH  78  79
ATOM     79  C   UNL A   1      31.321  27.713  26.072  1.00  0.00     0.029 A 
ATOM     80  C   UNL A   1      31.640  28.490  27.193  1.00  0.00     0.131 A 
ATOM     81  C   UNL A   1      31.265  28.358  24.825  1.00  0.00     0.051 A 
ATOM     82  F   UNL A   1      31.720  27.921  28.406  1.00  0.00    -0.206 F 
ATOM     83  C   UNL A   1      31.883  29.860  27.093  1.00  0.00     0.040 A 
ATOM     84  C   UNL A   1      31.508  29.735  24.719  1.00  0.00     0.021 A 
ATOM     85  Cl  UNL A   1      30.907  27.501  23.366  1.00  0.00    -0.084 Cl
ATOM     86  C   UNL A   1      31.814  30.486  25.853  1.00  0.00     0.005 A 
ENDBRANCH  78  79
ENDBRANCH  75  77
ENDBRANCH  73  75
ENDBRANCH  66  69
ENDBRANCH  64  65
ENDBRANCH   1  64
TORSDOF 14
ENDMDL
MODEL 3
REMARK VINA RESULT:     -11.6      3.086      8.194
REMARK SMILES O=C(NCCCCNC(=O)[C@@H]1CCCN(C(=O)/C=C/c2c(F)cccc2Cl)C1)c1ccc(-c2c3nc(c(-c4c(F)cccc4F)c4ccc([nH]4)c(-c4c(F)cccc4F)c4nc(c(-c5c(F)cccc5F)c5ccc2[nH]5)C=C4)C=C3)cc1
REMARK SMILES IDX 6 1 5 2 4 3 3 4 1 5 2 6 29 8 30 9 82 10 31 11 81 12 32 13
REMARK SMILES IDX 33 14 34 15 75 16 35 17 80 18 74 19 76 20 36 21 79 22 73 23
REMARK SMILES IDX 72 24 37 26 63 27 46 28 62 29 47 30 50 31 61 32 77 33 48 34
REMARK SMILES IDX 49 35 60 37 78 38 51 39 38 40 39 41 44 42 40 43 41 44 43 45
REMARK SMILES IDX 45 46 42 47 64 48 65 49 70 50 66 51 67 52 69 53 71 54 68 55
REMARK SMILES IDX 52 56 53 57 58 58 54 59 55 60 57 61 59 62 56 63 7 64 8 65
REMARK SMILES IDX 9 66 10 68 11 69 12 70 28 71 13 72 15 73 14 74 16 75 17 76
REMARK SMILES IDX 18 77 19 78 20 79 21 80 26 81 22 82 23 83 25 84 27 85 24 86
REMARK H PARENT 3 7 76 25 50 36 8 67
REMARK Flexibility Score: inf
ROOT
ATOM      1  C   UNL A   1      32.323  30.099  27.021  1.00  0.00     0.023 C 
ENDROOT
BRANCH   1   2
ATOM      2  C   UNL A   1      33.273  28.916  27.219  1.00  0.00     0.023 C 
BRANCH   2   3
ATOM      3  C   UNL A   1      34.711  29.302  27.535  1.00  0.00     0.116 C 
BRANCH   3   4
ATOM      4  N   UNL A   1      34.826  30.272  28.616  1.00  0.00    -0.352 N 
ATOM      5  O   UNL A   1      35.834  31.334  30.339  1.00  0.00    -0.269 OA
ATOM      6  C   UNL A   1      35.920  30.557  29.399  1.00  0.00     0.251 C 
ATOM      7  H   UNL A   1      34.013  30.791  28.811  1.00  0.00     0.163 HD
BRANCH   6   8
ATOM      8  C   UNL A   1      37.193  29.868  29.109  1.00  0.00     0.039 A 
ATOM      9  C   UNL A   1      37.910  29.261  30.140  1.00  0.00     0.014 A 
ATOM     10  C   UNL A   1      37.705  29.903  27.809  1.00  0.00     0.014 A 
ATOM     11  C   UNL A   1      39.214  28.849  29.911  1.00  0.00     0.010 A 
ATOM     12  C   UNL A   1      38.984  29.401  27.562  1.00  0.00     0.010 A 
ATOM     13  C   UNL A   1      39.767  28.916  28.621  1.00  0.00    -0.014 A 
BRANCH  13  14
ATOM     14  C   UNL A   1      41.165  28.461  28.417  1.00  0.00     0.031 A 
ATOM     15  C   UNL A   1      41.471  27.038  28.038  1.00  0.00     0.074 A 
ATOM     16  C   UNL A   1      42.157  29.365  28.513  1.00  0.00     0.049 A 
ATOM     17  N   UNL A   1      42.631  26.487  27.780  1.00  0.00    -0.248 NA
ATOM     18  C   UNL A   1      40.335  26.107  27.946  1.00  0.00     0.031 C 
ATOM     19  C   UNL A   1      41.978  30.774  28.878  1.00  0.00     0.029 A 
ATOM     20  N   UNL A   1      43.501  29.250  28.280  1.00  0.00    -0.354 N 
ATOM     21  C   UNL A   1      42.370  25.146  27.531  1.00  0.00     0.074 A 
ATOM     22  C   UNL A   1      40.943  24.959  27.681  1.00  0.00     0.031 C 
ATOM     23  C   UNL A   1      43.155  31.406  28.776  1.00  0.00     0.029 A 
ATOM     24  C   UNL A   1      44.180  30.438  28.403  1.00  0.00     0.049 A 
ATOM     25  H   UNL A   1      43.939  28.400  28.048  1.00  0.00     0.167 HD
ATOM     26  C   UNL A   1      43.242  24.162  27.203  1.00  0.00     0.037 A 
ATOM     27  C   UNL A   1      45.484  30.718  28.237  1.00  0.00     0.037 A 
ATOM     28  C   UNL A   1      44.657  24.360  27.016  1.00  0.00     0.049 A 
ATOM     29  C   UNL A   1      46.424  29.614  27.856  1.00  0.00     0.074 A 
ATOM     30  C   UNL A   1      45.619  23.434  26.652  1.00  0.00     0.029 A 
ATOM     31  N   UNL A   1      45.310  25.574  27.173  1.00  0.00    -0.354 N 
ATOM     32  N   UNL A   1      46.159  28.352  27.615  1.00  0.00    -0.248 NA
ATOM     33  C   UNL A   1      47.842  29.970  27.730  1.00  0.00     0.031 C 
ATOM     34  C   UNL A   1      46.859  24.081  26.618  1.00  0.00     0.029 A 
ATOM     35  C   UNL A   1      46.665  25.418  26.924  1.00  0.00     0.049 A 
ATOM     36  H   UNL A   1      44.876  26.421  27.424  1.00  0.00     0.167 HD
ATOM     37  C   UNL A   1      47.374  27.766  27.294  1.00  0.00     0.074 A 
ATOM     38  C   UNL A   1      48.373  28.814  27.353  1.00  0.00     0.031 C 
ATOM     39  C   UNL A   1      47.641  26.474  26.983  1.00  0.00     0.037 A 
BRANCH  26  40
ATOM     40  C   UNL A   1      42.698  22.771  27.048  1.00  0.00     0.057 A 
ATOM     41  C   UNL A   1      42.354  21.979  28.149  1.00  0.00     0.134 A 
ATOM     42  C   UNL A   1      42.475  22.235  25.772  1.00  0.00     0.134 A 
ATOM     43  F   UNL A   1      42.554  22.427  29.398  1.00  0.00    -0.206 F 
ATOM     44  C   UNL A   1      41.825  20.696  27.988  1.00  0.00     0.040 A 
ATOM     45  C   UNL A   1      41.926  20.964  25.599  1.00  0.00     0.040 A 
ATOM     46  F   UNL A   1      42.778  22.943  24.673  1.00  0.00    -0.206 F 
ATOM     47  C   UNL A   1      41.604  20.188  26.710  1.00  0.00     0.006 A 
ENDBRANCH  26  40
BRANCH  27  48
ATOM     48  C   UNL A   1      45.967  32.107  28.421  1.00  0.00     0.057 A 
ATOM     49  C   UNL A   1      45.965  33.018  27.360  1.00  0.00     0.134 A 
ATOM     50  C   UNL A   1      46.415  32.565  29.665  1.00  0.00     0.134 A 
ATOM     51  F   UNL A   1      45.559  32.633  26.140  1.00  0.00    -0.206 F 
ATOM     52  C   UNL A   1      46.402  34.334  27.525  1.00  0.00     0.040 A 
ATOM     53  C   UNL A   1      46.831  33.883  29.852  1.00  0.00     0.040 A 
ATOM     54  F   UNL A   1      46.431  31.741  30.725  1.00  0.00    -0.206 F 
ATOM     55  C   UNL A   1      46.829  34.770  28.779  1.00  0.00     0.006 A 
ENDBRANCH  27  48
BRANCH  39  56
ATOM     56  C   UNL A   1      49.064  26.140  26.654  1.00  0.00     0.057 A 
ATOM     57  C   UNL A   1      49.574  26.290  25.358  1.00  0.00     0.134 A 
ATOM     58  C   UNL A   1      49.934  25.674  27.647  1.00  0.00     0.134 A 
ATOM     59  F   UNL A   1      48.786  26.718  24.361  1.00  0.00    -0.206 F 
ATOM     60  C   UNL A   1      50.896  25.961  25.057  1.00  0.00     0.040 A 
ATOM     61  C   UNL A   1      51.264  25.364  27.361  1.00  0.00     0.040 A 
ATOM     62  F   UNL A   1      49.505  25.515  28.908  1.00  0.00    -0.206 F 
ATOM     63  C   UNL A   1      51.746  25.500  26.061  1.00  0.00     0.006 A 
ENDBRANCH  39  56
ENDBRANCH  13  14
ENDBRANCH   6   8
ENDBRANCH   3   4
ENDBRANCH   2   3
ENDBRANCH   1   2
BRANCH   1  64
ATOM     64  C   UNL A   1      31.623  30.124  25.662  1.00  0.00     0.116 C 
BRANCH  64  65
ATOM     65  N   UNL A   1      32.520  29.704  24.612  1.00  0.00    -0.356 N 
ATOM     66  C   UNL A   1      32.384  28.884  23.541  1.00  0.00     0.224 C 
ATOM     67  H   UNL A   1      33.421  30.094  24.691  1.00  0.00     0.163 HD
ATOM     68  O   UNL A   1      33.416  28.753  22.875  1.00  0.00    -0.275 OA
BRANCH  66  69
ATOM     69  C   UNL A   1      31.047  28.290  23.066  1.00  0.00     0.098 C 
ATOM     70  C   UNL A   1      30.080  27.658  24.081  1.00  0.00     0.017 C 
ATOM     71  C   UNL A   1      31.330  27.252  21.948  1.00  0.00     0.133 C 
ATOM     72  C   UNL A   1      30.551  26.298  24.592  1.00  0.00     0.022 C 
ATOM     73  N   UNL A   1      31.741  25.954  22.502  1.00  0.00    -0.338 N 
ATOM     74  C   UNL A   1      30.791  25.352  23.430  1.00  0.00     0.120 C 
BRANCH  73  75
ATOM     75  C   UNL A   1      32.905  25.361  22.045  1.00  0.00     0.246 C 
ATOM     76  O   UNL A   1      33.273  25.402  20.872  1.00  0.00    -0.270 OA
BRANCH  75  77
ATOM     77  C   UNL A   1      33.737  24.575  22.993  1.00  0.00     0.072 C 
ATOM     78  C   UNL A   1      34.237  23.363  22.707  1.00  0.00     0.018 C 
BRANCH  78  79
ATOM     79  C   UNL A   1      34.969  22.580  23.713  1.00  0.00     0.029 A 
ATOM     80  C   UNL A   1      36.369  22.561  23.675  1.00  0.00     0.131 A 
ATOM     81  C   UNL A   1      34.332  21.828  24.714  1.00  0.00     0.051 A 
ATOM     82  F   UNL A   1      37.028  23.272  22.748  1.00  0.00    -0.206 F 
ATOM     83  C   UNL A   1      37.119  21.815  24.585  1.00  0.00     0.040 A 
ATOM     84  C   UNL A   1      35.080  21.076  25.631  1.00  0.00     0.021 A 
ATOM     85  Cl  UNL A   1      32.610  21.794  24.878  1.00  0.00    -0.084 Cl
ATOM     86  C   UNL A   1      36.473  21.067  25.565  1.00  0.00     0.005 A 
ENDBRANCH  78  79
ENDBRANCH  75  77
ENDBRANCH  73  75
ENDBRANCH  66  69
ENDBRANCH  64  65
ENDBRANCH   1  64
TORSDOF 14
ENDMDL
