MODEL 1
REMARK VINA RESULT:     -11.2      0.000      0.000
REMARK SMILES CCCN1C(=O)CO[C@H](C(=O)NCCCCNC(=O)c2ccc(-c3c4nc(c(-c5c(F)cccc5F)c5ccc([nH]5)c(-c5c(F)cccc5F)c5nc(c(-c6c(F)cccc6F)c6ccc3[nH]6)C=C5)C=C4)cc2)[C@@H]1c1cncn1C1CC1
REMARK SMILES IDX 14 1 13 2 12 3 10 4 11 5 9 7 4 8 5 9 74 10 6 11 7 12 8 13
REMARK SMILES IDX 3 14 2 15 1 16 75 17 76 18 79 19 77 20 78 21 80 22 81 23
REMARK SMILES IDX 82 24 15 25 16 26 17 27 18 28 19 30 20 31 21 32 73 33 22 34
REMARK SMILES IDX 72 35 23 36 24 37 25 38 66 39 26 40 71 41 65 42 67 43 27 44
REMARK SMILES IDX 70 45 64 46 63 47 28 49 54 50 37 51 53 52 38 53 41 54 52 55
REMARK SMILES IDX 68 56 39 57 40 58 51 60 69 61 42 62 29 63 30 64 35 65 31 66
REMARK SMILES IDX 32 67 34 68 36 69 33 70 55 71 56 72 61 73 57 74 58 75 60 76
REMARK SMILES IDX 62 77 59 78 43 79 44 80 49 81 45 82 46 83 48 84 50 85 47 86
REMARK H PARENT 12 6 17 29 67 48 41 59
REMARK Flexibility Score: inf
ROOT
ATOM      1  C   UNL A   1      36.917  22.310  23.891  1.00  0.00     0.023 C 
ENDROOT
BRANCH   1   2
ATOM      2  C   UNL A   1      35.758  23.190  24.330  1.00  0.00     0.116 C 
BRANCH   2   3
ATOM      3  N   UNL A   1      34.464  22.803  23.819  1.00  0.00    -0.354 N 
ATOM      4  C   UNL A   1      33.571  23.583  23.141  1.00  0.00     0.251 C 
ATOM      5  O   UNL A   1      32.663  23.016  22.526  1.00  0.00    -0.272 OA
ATOM      6  H   UNL A   1      34.194  21.870  23.978  1.00  0.00     0.163 HD
BRANCH   4   7
ATOM      7  C   UNL A   1      33.674  25.124  23.122  1.00  0.00     0.236 C 
ATOM      8  N   UNL A   1      33.426  27.307  24.420  1.00  0.00    -0.329 N 
ATOM      9  C   UNL A   1      33.867  27.889  23.225  1.00  0.00     0.249 C 
ATOM     10  C   UNL A   1      33.340  25.829  24.467  1.00  0.00     0.172 C 
ATOM     11  O   UNL A   1      34.445  28.970  23.148  1.00  0.00    -0.272 OA
ATOM     12  C   UNL A   1      33.567  27.102  21.931  1.00  0.00     0.261 C 
ATOM     13  O   UNL A   1      33.041  25.790  22.042  1.00  0.00    -0.356 OA
BRANCH   8  14
ATOM     14  C   UNL A   1      33.516  28.016  25.712  1.00  0.00     0.120 C 
BRANCH  14  15
ATOM     15  C   UNL A   1      32.297  28.773  26.272  1.00  0.00     0.018 C 
ATOM     16  C   UNL A   1      31.610  28.152  27.481  1.00  0.00     0.006 C 
ENDBRANCH  14  15
ENDBRANCH   8  14
BRANCH  10  17
ATOM     17  C   UNL A   1      32.185  25.266  25.257  1.00  0.00     0.064 A 
ATOM     18  C   UNL A   1      32.370  24.592  26.468  1.00  0.00     0.136 A 
ATOM     19  N   UNL A   1      30.812  25.200  25.077  1.00  0.00    -0.330 N 
ATOM     20  N   UNL A   1      31.209  24.134  27.003  1.00  0.00    -0.245 NA
ATOM     21  C   UNL A   1      30.289  24.531  26.162  1.00  0.00     0.199 A 
BRANCH  19  22
ATOM     22  C   UNL A   1      29.883  25.597  24.035  1.00  0.00     0.088 C 
ATOM     23  C   UNL A   1      28.676  26.478  24.205  1.00  0.00     0.027 C 
ATOM     24  C   UNL A   1      29.821  26.967  23.398  1.00  0.00     0.027 C 
ENDBRANCH  19  22
ENDBRANCH  10  17
ENDBRANCH   4   7
ENDBRANCH   2   3
ENDBRANCH   1   2
BRANCH   1  25
ATOM     25  C   UNL A   1      37.215  21.115  24.794  1.00  0.00     0.023 C 
BRANCH  25  26
ATOM     26  C   UNL A   1      38.465  21.226  25.665  1.00  0.00     0.116 C 
BRANCH  26  27
ATOM     27  N   UNL A   1      39.341  20.066  25.578  1.00  0.00    -0.352 N 
ATOM     28  C   UNL A   1      40.660  19.922  25.944  1.00  0.00     0.251 C 
ATOM     29  H   UNL A   1      38.924  19.259  25.199  1.00  0.00     0.163 HD
ATOM     30  O   UNL A   1      41.252  18.875  25.714  1.00  0.00    -0.269 OA
BRANCH  28  31
ATOM     31  C   UNL A   1      41.377  21.056  26.565  1.00  0.00     0.039 A 
ATOM     32  C   UNL A   1      41.956  22.019  25.735  1.00  0.00     0.014 A 
ATOM     33  C   UNL A   1      41.430  21.200  27.954  1.00  0.00     0.014 A 
ATOM     34  C   UNL A   1      42.479  23.189  26.293  1.00  0.00     0.010 A 
ATOM     35  C   UNL A   1      41.886  22.397  28.503  1.00  0.00     0.010 A 
ATOM     36  C   UNL A   1      42.385  23.415  27.676  1.00  0.00    -0.014 A 
BRANCH  36  37
ATOM     37  C   UNL A   1      42.727  24.735  28.267  1.00  0.00     0.031 A 
ATOM     38  C   UNL A   1      41.670  25.785  28.461  1.00  0.00     0.074 A 
ATOM     39  C   UNL A   1      44.017  25.022  28.538  1.00  0.00     0.049 A 
ATOM     40  N   UNL A   1      41.804  27.027  28.854  1.00  0.00    -0.248 NA
ATOM     41  C   UNL A   1      40.285  25.397  28.151  1.00  0.00     0.031 C 
ATOM     42  C   UNL A   1      45.147  24.109  28.346  1.00  0.00     0.029 A 
ATOM     43  N   UNL A   1      44.600  26.172  29.011  1.00  0.00    -0.354 N 
ATOM     44  C   UNL A   1      40.528  27.573  28.824  1.00  0.00     0.074 A 
ATOM     45  C   UNL A   1      39.637  26.538  28.342  1.00  0.00     0.031 C 
ATOM     46  C   UNL A   1      46.282  24.731  28.704  1.00  0.00     0.029 A 
ATOM     47  C   UNL A   1      45.969  26.096  29.109  1.00  0.00     0.049 A 
ATOM     48  H   UNL A   1      44.086  26.975  29.256  1.00  0.00     0.167 HD
ATOM     49  C   UNL A   1      40.133  28.818  29.181  1.00  0.00     0.037 A 
ATOM     50  C   UNL A   1      46.875  27.027  29.465  1.00  0.00     0.037 A 
ATOM     51  C   UNL A   1      41.014  29.838  29.687  1.00  0.00     0.049 A 
ATOM     52  C   UNL A   1      46.407  28.405  29.843  1.00  0.00     0.074 A 
ATOM     53  C   UNL A   1      40.689  31.101  30.153  1.00  0.00     0.029 A 
ATOM     54  N   UNL A   1      42.390  29.717  29.789  1.00  0.00    -0.354 N 
ATOM     55  N   UNL A   1      45.187  28.881  29.886  1.00  0.00    -0.248 NA
ATOM     56  C   UNL A   1      47.444  29.377  30.220  1.00  0.00     0.031 C 
ATOM     57  C   UNL A   1      41.873  31.761  30.496  1.00  0.00     0.029 A 
ATOM     58  C   UNL A   1      42.931  30.893  30.282  1.00  0.00     0.049 A 
ATOM     59  H   UNL A   1      42.906  28.915  29.547  1.00  0.00     0.167 HD
ATOM     60  C   UNL A   1      45.307  30.197  30.313  1.00  0.00     0.074 A 
ATOM     61  C   UNL A   1      46.717  30.439  30.534  1.00  0.00     0.031 C 
ATOM     62  C   UNL A   1      44.336  31.122  30.500  1.00  0.00     0.037 A 
BRANCH  49  63
ATOM     63  C   UNL A   1      38.678  29.156  29.045  1.00  0.00     0.057 A 
ATOM     64  C   UNL A   1      37.807  29.106  30.140  1.00  0.00     0.134 A 
ATOM     65  C   UNL A   1      38.162  29.607  27.825  1.00  0.00     0.134 A 
ATOM     66  F   UNL A   1      38.241  28.674  31.335  1.00  0.00    -0.206 F 
ATOM     67  C   UNL A   1      36.469  29.484  30.024  1.00  0.00     0.040 A 
ATOM     68  C   UNL A   1      36.830  30.008  27.701  1.00  0.00     0.040 A 
ATOM     69  F   UNL A   1      38.946  29.684  26.739  1.00  0.00    -0.206 F 
ATOM     70  C   UNL A   1      35.980  29.945  28.803  1.00  0.00     0.006 A 
ENDBRANCH  49  63
BRANCH  50  71
ATOM     71  C   UNL A   1      48.323  26.699  29.473  1.00  0.00     0.057 A 
ATOM     72  C   UNL A   1      49.126  26.951  28.355  1.00  0.00     0.134 A 
ATOM     73  C   UNL A   1      48.929  26.095  30.581  1.00  0.00     0.134 A 
ATOM     74  F   UNL A   1      48.598  27.506  27.256  1.00  0.00    -0.206 F 
ATOM     75  C   UNL A   1      50.475  26.592  28.329  1.00  0.00     0.040 A 
ATOM     76  C   UNL A   1      50.282  25.754  30.578  1.00  0.00     0.040 A 
ATOM     77  F   UNL A   1      48.214  25.832  31.685  1.00  0.00    -0.206 F 
ATOM     78  C   UNL A   1      51.057  25.994  29.445  1.00  0.00     0.006 A 
ENDBRANCH  50  71
BRANCH  62  79
ATOM     79  C   UNL A   1      44.763  32.474  30.986  1.00  0.00     0.057 A 
ATOM     80  C   UNL A   1      44.887  32.760  32.351  1.00  0.00     0.134 A 
ATOM     81  C   UNL A   1      45.085  33.492  30.079  1.00  0.00     0.134 A 
ATOM     82  F   UNL A   1      44.578  31.833  33.271  1.00  0.00    -0.206 F 
ATOM     83  C   UNL A   1      45.298  34.017  32.798  1.00  0.00     0.040 A 
ATOM     84  C   UNL A   1      45.520  34.744  30.513  1.00  0.00     0.040 A 
ATOM     85  F   UNL A   1      44.993  33.281  28.758  1.00  0.00    -0.206 F 
ATOM     86  C   UNL A   1      45.623  35.010  31.877  1.00  0.00     0.006 A 
ENDBRANCH  62  79
ENDBRANCH  36  37
ENDBRANCH  28  31
ENDBRANCH  26  27
ENDBRANCH  25  26
ENDBRANCH   1  25
TORSDOF 15
ENDMDL
MODEL 2
REMARK VINA RESULT:     -11.0      0.615      6.143
REMARK SMILES CCCN1C(=O)CO[C@H](C(=O)NCCCCNC(=O)c2ccc(-c3c4nc(c(-c5c(F)cccc5F)c5ccc([nH]5)c(-c5c(F)cccc5F)c5nc(c(-c6c(F)cccc6F)c6ccc3[nH]6)C=C5)C=C4)cc2)[C@@H]1c1cncn1C1CC1
REMARK SMILES IDX 14 1 13 2 12 3 10 4 11 5 9 7 4 8 5 9 74 10 6 11 7 12 8 13
REMARK SMILES IDX 3 14 2 15 1 16 75 17 76 18 79 19 77 20 78 21 80 22 81 23
REMARK SMILES IDX 82 24 15 25 16 26 17 27 18 28 19 30 20 31 21 32 73 33 22 34
REMARK SMILES IDX 72 35 23 36 24 37 25 38 66 39 26 40 71 41 65 42 67 43 27 44
REMARK SMILES IDX 70 45 64 46 63 47 28 49 54 50 37 51 53 52 38 53 41 54 52 55
REMARK SMILES IDX 68 56 39 57 40 58 51 60 69 61 42 62 29 63 30 64 35 65 31 66
REMARK SMILES IDX 32 67 34 68 36 69 33 70 55 71 56 72 61 73 57 74 58 75 60 76
REMARK SMILES IDX 62 77 59 78 43 79 44 80 49 81 45 82 46 83 48 84 50 85 47 86
REMARK H PARENT 12 6 17 29 67 48 41 59
REMARK Flexibility Score: inf
ROOT
ATOM      1  C   UNL A   1      36.081  21.619  25.180  1.00  0.00     0.023 C 
ENDROOT
BRANCH   1   2
ATOM      2  C   UNL A   1      35.472  22.497  24.099  1.00  0.00     0.116 C 
BRANCH   2   3
ATOM      3  N   UNL A   1      34.082  22.237  23.805  1.00  0.00    -0.354 N 
ATOM      4  C   UNL A   1      33.153  23.119  23.334  1.00  0.00     0.251 C 
ATOM      5  O   UNL A   1      32.109  22.657  22.861  1.00  0.00    -0.272 OA
ATOM      6  H   UNL A   1      33.769  21.317  23.963  1.00  0.00     0.163 HD
BRANCH   4   7
ATOM      7  C   UNL A   1      33.376  24.647  23.373  1.00  0.00     0.236 C 
ATOM      8  N   UNL A   1      33.424  26.772  24.784  1.00  0.00    -0.329 N 
ATOM      9  C   UNL A   1      33.797  27.380  23.579  1.00  0.00     0.249 C 
ATOM     10  C   UNL A   1      33.225  25.304  24.774  1.00  0.00     0.172 C 
ATOM     11  O   UNL A   1      34.449  28.418  23.494  1.00  0.00    -0.272 OA
ATOM     12  C   UNL A   1      33.316  26.686  22.286  1.00  0.00     0.261 C 
ATOM     13  O   UNL A   1      32.700  25.413  22.389  1.00  0.00    -0.356 OA
BRANCH   8  14
ATOM     14  C   UNL A   1      33.689  27.405  26.091  1.00  0.00     0.120 C 
BRANCH  14  15
ATOM     15  C   UNL A   1      32.795  28.554  26.597  1.00  0.00     0.018 C 
ATOM     16  C   UNL A   1      31.741  28.187  27.633  1.00  0.00     0.006 C 
ENDBRANCH  14  15
ENDBRANCH   8  14
BRANCH  10  17
ATOM     17  C   UNL A   1      32.107  24.789  25.646  1.00  0.00     0.064 A 
ATOM     18  C   UNL A   1      32.308  23.784  26.596  1.00  0.00     0.136 A 
ATOM     19  N   UNL A   1      30.752  25.056  25.763  1.00  0.00    -0.330 N 
ATOM     20  N   UNL A   1      31.170  23.439  27.252  1.00  0.00    -0.245 NA
ATOM     21  C   UNL A   1      30.258  24.231  26.750  1.00  0.00     0.199 A 
BRANCH  19  22
ATOM     22  C   UNL A   1      29.798  25.905  25.073  1.00  0.00     0.088 C 
ATOM     23  C   UNL A   1      30.108  27.184  24.346  1.00  0.00     0.027 C 
ATOM     24  C   UNL A   1      29.647  26.005  23.573  1.00  0.00     0.027 C 
ENDBRANCH  19  22
ENDBRANCH  10  17
ENDBRANCH   4   7
ENDBRANCH   2   3
ENDBRANCH   1   2
BRANCH   1  25
ATOM     25  C   UNL A   1      37.341  20.857  24.778  1.00  0.00     0.023 C 
BRANCH  25  26
ATOM     26  C   UNL A   1      38.541  21.004  25.711  1.00  0.00     0.116 C 
BRANCH  26  27
ATOM     27  N   UNL A   1      39.477  19.890  25.636  1.00  0.00    -0.352 N 
ATOM     28  C   UNL A   1      40.807  19.825  25.982  1.00  0.00     0.251 C 
ATOM     29  H   UNL A   1      39.098  19.053  25.283  1.00  0.00     0.163 HD
ATOM     30  O   UNL A   1      41.451  18.806  25.766  1.00  0.00    -0.269 OA
BRANCH  28  31
ATOM     31  C   UNL A   1      41.473  21.010  26.563  1.00  0.00     0.039 A 
ATOM     32  C   UNL A   1      42.121  21.903  25.706  1.00  0.00     0.014 A 
ATOM     33  C   UNL A   1      41.410  21.271  27.934  1.00  0.00     0.014 A 
ATOM     34  C   UNL A   1      42.599  23.118  26.206  1.00  0.00     0.010 A 
ATOM     35  C   UNL A   1      41.821  22.512  28.418  1.00  0.00     0.010 A 
ATOM     36  C   UNL A   1      42.390  23.459  27.552  1.00  0.00    -0.014 A 
BRANCH  36  37
ATOM     37  C   UNL A   1      42.684  24.826  28.057  1.00  0.00     0.031 A 
ATOM     38  C   UNL A   1      44.060  25.186  28.539  1.00  0.00     0.074 A 
ATOM     39  C   UNL A   1      41.677  25.717  28.171  1.00  0.00     0.049 A 
ATOM     40  N   UNL A   1      44.470  26.288  29.115  1.00  0.00    -0.248 NA
ATOM     41  C   UNL A   1      45.109  24.167  28.376  1.00  0.00     0.031 C 
ATOM     42  C   UNL A   1      40.284  25.475  27.787  1.00  0.00     0.029 A 
ATOM     43  N   UNL A   1      41.665  26.998  28.666  1.00  0.00    -0.354 N 
ATOM     44  C   UNL A   1      45.815  26.091  29.397  1.00  0.00     0.074 A 
ATOM     45  C   UNL A   1      46.146  24.751  28.960  1.00  0.00     0.031 C 
ATOM     46  C   UNL A   1      39.557  26.572  28.053  1.00  0.00     0.029 A 
ATOM     47  C   UNL A   1      40.418  27.578  28.664  1.00  0.00     0.049 A 
ATOM     48  H   UNL A   1      42.472  27.458  28.991  1.00  0.00     0.167 HD
ATOM     49  C   UNL A   1      46.697  26.955  29.954  1.00  0.00     0.037 A 
ATOM     50  C   UNL A   1      40.009  28.776  29.123  1.00  0.00     0.037 A 
ATOM     51  C   UNL A   1      46.376  28.298  30.362  1.00  0.00     0.049 A 
ATOM     52  C   UNL A   1      41.009  29.707  29.749  1.00  0.00     0.074 A 
ATOM     53  C   UNL A   1      47.225  29.271  30.859  1.00  0.00     0.029 A 
ATOM     54  N   UNL A   1      45.108  28.853  30.328  1.00  0.00    -0.354 N 
ATOM     55  N   UNL A   1      42.294  29.536  29.934  1.00  0.00    -0.248 NA
ATOM     56  C   UNL A   1      40.499  31.000  30.232  1.00  0.00     0.031 C 
ATOM     57  C   UNL A   1      46.463  30.403  31.167  1.00  0.00     0.029 A 
ATOM     58  C   UNL A   1      45.147  30.147  30.823  1.00  0.00     0.049 A 
ATOM     59  H   UNL A   1      44.299  28.397  30.001  1.00  0.00     0.167 HD
ATOM     60  C   UNL A   1      42.751  30.702  30.535  1.00  0.00     0.074 A 
ATOM     61  C   UNL A   1      41.608  31.581  30.666  1.00  0.00     0.031 C 
ATOM     62  C   UNL A   1      44.003  31.013  30.946  1.00  0.00     0.037 A 
BRANCH  49  63
ATOM     63  C   UNL A   1      48.106  26.482  30.154  1.00  0.00     0.057 A 
ATOM     64  C   UNL A   1      48.504  25.834  31.329  1.00  0.00     0.134 A 
ATOM     65  C   UNL A   1      49.053  26.612  29.131  1.00  0.00     0.134 A 
ATOM     66  F   UNL A   1      47.645  25.687  32.349  1.00  0.00    -0.206 F 
ATOM     67  C   UNL A   1      49.799  25.339  31.485  1.00  0.00     0.040 A 
ATOM     68  C   UNL A   1      50.346  26.102  29.266  1.00  0.00     0.040 A 
ATOM     69  F   UNL A   1      48.733  27.218  27.978  1.00  0.00    -0.206 F 
ATOM     70  C   UNL A   1      50.722  25.464  30.447  1.00  0.00     0.006 A 
ENDBRANCH  49  63
BRANCH  50  71
ATOM     71  C   UNL A   1      38.580  29.169  29.021  1.00  0.00     0.057 A 
ATOM     72  C   UNL A   1      38.050  29.657  27.821  1.00  0.00     0.134 A 
ATOM     73  C   UNL A   1      37.723  29.099  30.126  1.00  0.00     0.134 A 
ATOM     74  F   UNL A   1      38.828  29.769  26.735  1.00  0.00    -0.206 F 
ATOM     75  C   UNL A   1      36.725  30.086  27.729  1.00  0.00     0.040 A 
ATOM     76  C   UNL A   1      36.390  29.500  30.041  1.00  0.00     0.040 A 
ATOM     77  F   UNL A   1      38.169  28.636  31.302  1.00  0.00    -0.206 F 
ATOM     78  C   UNL A   1      35.890  30.005  28.842  1.00  0.00     0.006 A 
ENDBRANCH  50  71
BRANCH  62  79
ATOM     79  C   UNL A   1      44.207  32.368  31.555  1.00  0.00     0.057 A 
ATOM     80  C   UNL A   1      44.495  33.491  30.772  1.00  0.00     0.134 A 
ATOM     81  C   UNL A   1      44.082  32.556  32.937  1.00  0.00     0.134 A 
ATOM     82  F   UNL A   1      44.645  33.374  29.443  1.00  0.00    -0.206 F 
ATOM     83  C   UNL A   1      44.671  34.753  31.343  1.00  0.00     0.040 A 
ATOM     84  C   UNL A   1      44.231  33.816  33.518  1.00  0.00     0.040 A 
ATOM     85  F   UNL A   1      43.800  31.522  33.744  1.00  0.00    -0.206 F 
ATOM     86  C   UNL A   1      44.531  34.918  32.720  1.00  0.00     0.006 A 
ENDBRANCH  62  79
ENDBRANCH  36  37
ENDBRANCH  28  31
ENDBRANCH  26  27
ENDBRANCH  25  26
ENDBRANCH   1  25
TORSDOF 15
ENDMDL
MODEL 3
REMARK VINA RESULT:     -11.0      3.126      8.355
REMARK SMILES CCCN1C(=O)CO[C@H](C(=O)NCCCCNC(=O)c2ccc(-c3c4nc(c(-c5c(F)cccc5F)c5ccc([nH]5)c(-c5c(F)cccc5F)c5nc(c(-c6c(F)cccc6F)c6ccc3[nH]6)C=C5)C=C4)cc2)[C@@H]1c1cncn1C1CC1
REMARK SMILES IDX 14 1 13 2 12 3 10 4 11 5 9 7 4 8 5 9 74 10 6 11 7 12 8 13
REMARK SMILES IDX 3 14 2 15 1 16 75 17 76 18 79 19 77 20 78 21 80 22 81 23
REMARK SMILES IDX 82 24 15 25 16 26 17 27 18 28 19 30 20 31 21 32 73 33 22 34
REMARK SMILES IDX 72 35 23 36 24 37 25 38 66 39 26 40 71 41 65 42 67 43 27 44
REMARK SMILES IDX 70 45 64 46 63 47 28 49 54 50 37 51 53 52 38 53 41 54 52 55
REMARK SMILES IDX 68 56 39 57 40 58 51 60 69 61 42 62 29 63 30 64 35 65 31 66
REMARK SMILES IDX 32 67 34 68 36 69 33 70 55 71 56 72 61 73 57 74 58 75 60 76
REMARK SMILES IDX 62 77 59 78 43 79 44 80 49 81 45 82 46 83 48 84 50 85 47 86
REMARK H PARENT 12 6 17 29 67 48 41 59
REMARK Flexibility Score: inf
ROOT
ATOM      1  C   UNL A   1      32.723  28.903  27.282  1.00  0.00     0.023 C 
ENDROOT
BRANCH   1   2
ATOM      2  C   UNL A   1      31.740  27.760  27.478  1.00  0.00     0.116 C 
BRANCH   2   3
ATOM      3  N   UNL A   1      31.018  27.360  26.293  1.00  0.00    -0.354 N 
ATOM      4  C   UNL A   1      30.862  26.096  25.801  1.00  0.00     0.251 C 
ATOM      5  O   UNL A   1      29.975  25.910  24.962  1.00  0.00    -0.272 OA
ATOM      6  H   UNL A   1      30.588  28.083  25.780  1.00  0.00     0.163 HD
BRANCH   4   7
ATOM      7  C   UNL A   1      31.748  24.918  26.267  1.00  0.00     0.236 C 
ATOM      8  N   UNL A   1      33.984  23.707  26.067  1.00  0.00    -0.329 N 
ATOM      9  C   UNL A   1      33.446  22.873  27.055  1.00  0.00     0.249 C 
ATOM     10  C   UNL A   1      33.161  24.855  25.621  1.00  0.00     0.172 C 
ATOM     11  O   UNL A   1      34.112  22.223  27.858  1.00  0.00    -0.272 OA
ATOM     12  C   UNL A   1      31.906  22.766  27.094  1.00  0.00     0.261 C 
ATOM     13  O   UNL A   1      31.145  23.634  26.271  1.00  0.00    -0.356 OA
BRANCH   8  14
ATOM     14  C   UNL A   1      35.438  23.788  25.822  1.00  0.00     0.120 C 
BRANCH  14  15
ATOM     15  C   UNL A   1      36.155  22.688  25.017  1.00  0.00     0.018 C 
ATOM     16  C   UNL A   1      36.807  23.120  23.711  1.00  0.00     0.006 C 
ENDBRANCH  14  15
ENDBRANCH   8  14
BRANCH  10  17
ATOM     17  C   UNL A   1      33.251  25.194  24.154  1.00  0.00     0.064 A 
ATOM     18  C   UNL A   1      33.118  24.224  23.157  1.00  0.00     0.136 A 
ATOM     19  N   UNL A   1      33.487  26.351  23.428  1.00  0.00    -0.330 N 
ATOM     20  N   UNL A   1      33.265  24.728  21.905  1.00  0.00    -0.245 NA
ATOM     21  C   UNL A   1      33.463  26.007  22.094  1.00  0.00     0.199 A 
BRANCH  19  22
ATOM     22  C   UNL A   1      33.798  27.732  23.749  1.00  0.00     0.088 C 
ATOM     23  C   UNL A   1      34.101  28.829  22.767  1.00  0.00     0.027 C 
ATOM     24  C   UNL A   1      32.857  28.901  23.571  1.00  0.00     0.027 C 
ENDBRANCH  19  22
ENDBRANCH  10  17
ENDBRANCH   4   7
ENDBRANCH   2   3
ENDBRANCH   1   2
BRANCH   1  25
ATOM     25  C   UNL A   1      32.098  30.276  27.047  1.00  0.00     0.023 C 
BRANCH  25  26
ATOM     26  C   UNL A   1      33.074  31.438  26.873  1.00  0.00     0.116 C 
BRANCH  26  27
ATOM     27  N   UNL A   1      32.527  32.725  27.281  1.00  0.00    -0.352 N 
ATOM     28  C   UNL A   1      33.053  33.690  28.109  1.00  0.00     0.251 C 
ATOM     29  H   UNL A   1      31.643  32.938  26.903  1.00  0.00     0.163 HD
ATOM     30  O   UNL A   1      32.394  34.681  28.396  1.00  0.00    -0.269 OA
BRANCH  28  31
ATOM     31  C   UNL A   1      34.395  33.497  28.700  1.00  0.00     0.039 A 
ATOM     32  C   UNL A   1      34.499  32.839  29.928  1.00  0.00     0.014 A 
ATOM     33  C   UNL A   1      35.545  33.911  28.024  1.00  0.00     0.014 A 
ATOM     34  C   UNL A   1      35.759  32.485  30.417  1.00  0.00     0.010 A 
ATOM     35  C   UNL A   1      36.796  33.495  28.476  1.00  0.00     0.010 A 
ATOM     36  C   UNL A   1      36.912  32.751  29.660  1.00  0.00    -0.014 A 
BRANCH  36  37
ATOM     37  C   UNL A   1      38.235  32.192  30.045  1.00  0.00     0.031 A 
ATOM     38  C   UNL A   1      38.691  30.865  29.511  1.00  0.00     0.074 A 
ATOM     39  C   UNL A   1      38.983  32.842  30.960  1.00  0.00     0.049 A 
ATOM     40  N   UNL A   1      39.757  30.173  29.825  1.00  0.00    -0.248 NA
ATOM     41  C   UNL A   1      37.826  30.218  28.512  1.00  0.00     0.031 C 
ATOM     42  C   UNL A   1      38.630  34.114  31.596  1.00  0.00     0.029 A 
ATOM     43  N   UNL A   1      40.187  32.511  31.533  1.00  0.00    -0.354 N 
ATOM     44  C   UNL A   1      39.685  29.005  29.076  1.00  0.00     0.074 A 
ATOM     45  C   UNL A   1      38.452  29.066  28.318  1.00  0.00     0.031 C 
ATOM     46  C   UNL A   1      39.597  34.458  32.462  1.00  0.00     0.029 A 
ATOM     47  C   UNL A   1      40.615  33.414  32.477  1.00  0.00     0.049 A 
ATOM     48  H   UNL A   1      40.695  31.704  31.290  1.00  0.00     0.167 HD
ATOM     49  C   UNL A   1      40.572  27.984  29.015  1.00  0.00     0.037 A 
ATOM     50  C   UNL A   1      41.696  33.395  33.281  1.00  0.00     0.037 A 
ATOM     51  C   UNL A   1      41.811  27.937  29.746  1.00  0.00     0.049 A 
ATOM     52  C   UNL A   1      42.656  32.241  33.200  1.00  0.00     0.074 A 
ATOM     53  C   UNL A   1      42.811  26.981  29.683  1.00  0.00     0.029 A 
ATOM     54  N   UNL A   1      42.217  28.877  30.678  1.00  0.00    -0.354 N 
ATOM     55  N   UNL A   1      42.613  31.184  32.427  1.00  0.00    -0.248 NA
ATOM     56  C   UNL A   1      43.814  32.277  34.104  1.00  0.00     0.031 C 
ATOM     57  C   UNL A   1      43.803  27.321  30.608  1.00  0.00     0.029 A 
ATOM     58  C   UNL A   1      43.439  28.509  31.218  1.00  0.00     0.049 A 
ATOM     59  H   UNL A   1      41.713  29.687  30.920  1.00  0.00     0.167 HD
ATOM     60  C   UNL A   1      43.744  30.440  32.737  1.00  0.00     0.074 A 
ATOM     61  C   UNL A   1      44.465  31.177  33.754  1.00  0.00     0.031 C 
ATOM     62  C   UNL A   1      44.148  29.252  32.228  1.00  0.00     0.037 A 
BRANCH  49  63
ATOM     63  C   UNL A   1      40.245  26.827  28.119  1.00  0.00     0.057 A 
ATOM     64  C   UNL A   1      40.807  26.704  26.843  1.00  0.00     0.134 A 
ATOM     65  C   UNL A   1      39.419  25.789  28.567  1.00  0.00     0.134 A 
ATOM     66  F   UNL A   1      41.600  27.670  26.353  1.00  0.00    -0.206 F 
ATOM     67  C   UNL A   1      40.551  25.593  26.038  1.00  0.00     0.040 A 
ATOM     68  C   UNL A   1      39.172  24.663  27.780  1.00  0.00     0.040 A 
ATOM     69  F   UNL A   1      38.855  25.844  29.783  1.00  0.00    -0.206 F 
ATOM     70  C   UNL A   1      39.739  24.564  26.511  1.00  0.00     0.006 A 
ENDBRANCH  49  63
BRANCH  50  71
ATOM     71  C   UNL A   1      41.930  34.498  34.247  1.00  0.00     0.057 A 
ATOM     72  C   UNL A   1      41.476  34.409  35.568  1.00  0.00     0.134 A 
ATOM     73  C   UNL A   1      42.580  35.678  33.865  1.00  0.00     0.134 A 
ATOM     74  F   UNL A   1      40.826  33.314  35.986  1.00  0.00    -0.206 F 
ATOM     75  C   UNL A   1      41.638  35.464  36.468  1.00  0.00     0.040 A 
ATOM     76  C   UNL A   1      42.771  36.729  34.761  1.00  0.00     0.040 A 
ATOM     77  F   UNL A   1      43.043  35.823  32.614  1.00  0.00    -0.206 F 
ATOM     78  C   UNL A   1      42.290  36.628  36.065  1.00  0.00     0.006 A 
ENDBRANCH  50  71
BRANCH  62  79
ATOM     79  C   UNL A   1      45.435  28.685  32.746  1.00  0.00     0.057 A 
ATOM     80  C   UNL A   1      46.668  29.017  32.174  1.00  0.00     0.134 A 
ATOM     81  C   UNL A   1      45.443  27.825  33.851  1.00  0.00     0.134 A 
ATOM     82  F   UNL A   1      46.726  29.824  31.103  1.00  0.00    -0.206 F 
ATOM     83  C   UNL A   1      47.865  28.497  32.669  1.00  0.00     0.040 A 
ATOM     84  C   UNL A   1      46.635  27.318  34.371  1.00  0.00     0.040 A 
ATOM     85  F   UNL A   1      44.296  27.473  34.450  1.00  0.00    -0.206 F 
ATOM     86  C   UNL A   1      47.850  27.651  33.777  1.00  0.00     0.006 A 
ENDBRANCH  62  79
ENDBRANCH  36  37
ENDBRANCH  28  31
ENDBRANCH  26  27
ENDBRANCH  25  26
ENDBRANCH   1  25
TORSDOF 15
ENDMDL
