MODEL 1
REMARK VINA RESULT:     -13.3      0.000      0.000
REMARK SMILES Cc1ccccc1/C=C1\SC(=O)N(CC(=O)Nc2ccccc2C(=O)NCCCCNC(=O)c2ccc(-c3c4nc(c(-c5c(F)cccc5F)c5ccc([nH]5)c(-c5c(F)cccc5F)c5nc(c(-c6c(F)cccc6F)c6ccc3[nH]6)C=C5)C=C4)cc2)C1=O
REMARK SMILES IDX 27 1 26 2 24 3 25 4 23 6 18 7 19 8 20 9 22 10 21 11 17 12
REMARK SMILES IDX 15 13 16 14 14 16 13 17 8 18 9 19 10 20 88 21 11 22 89 23
REMARK SMILES IDX 12 24 7 25 1 26 2 27 3 28 4 29 6 30 5 31 28 32 29 33 30 34
REMARK SMILES IDX 31 35 32 36 33 38 34 39 35 40 87 41 36 42 86 43 37 44 38 45
REMARK SMILES IDX 39 46 80 47 40 48 85 49 79 50 81 51 41 52 84 53 78 54 77 55
REMARK SMILES IDX 42 57 68 58 51 59 67 60 52 61 55 62 66 63 82 64 53 65 54 66
REMARK SMILES IDX 65 68 83 69 56 70 43 71 44 72 49 73 45 74 46 75 48 76 50 77
REMARK SMILES IDX 47 78 69 79 70 80 75 81 71 82 72 83 74 84 76 85 73 86 57 87
REMARK SMILES IDX 58 88 63 89 59 90 60 91 62 92 64 93 61 94
REMARK H PARENT 26 5 17 15 31 37 81 56 55 67
REMARK Flexibility Score: inf
ROOT
ATOM      1  C   UNL A   1      32.722  28.684  27.146  1.00  0.00     0.116 C 
ENDROOT
BRANCH   1   2
ATOM      2  N   UNL A   1      31.899  29.565  26.315  1.00  0.00    -0.352 N 
ATOM      3  C   UNL A   1      31.476  29.538  24.991  1.00  0.00     0.253 C 
ATOM      4  O   UNL A   1      30.630  30.363  24.648  1.00  0.00    -0.269 OA
ATOM      5  H   UNL A   1      31.569  30.353  26.803  1.00  0.00     0.163 HD
BRANCH   3   6
ATOM      6  C   UNL A   1      31.990  28.590  23.967  1.00  0.00     0.063 A 
ATOM      7  C   UNL A   1      31.475  27.285  23.762  1.00  0.00     0.054 A 
ATOM      8  C   UNL A   1      32.131  26.433  22.846  1.00  0.00     0.027 A 
ATOM      9  C   UNL A   1      33.255  26.841  22.133  1.00  0.00     0.002 A 
ATOM     10  C   UNL A   1      33.205  28.917  23.335  1.00  0.00     0.016 A 
ATOM     11  C   UNL A   1      33.806  28.081  22.394  1.00  0.00     0.001 A 
BRANCH   7  12
ATOM     12  N   UNL A   1      30.577  26.588  24.592  1.00  0.00    -0.324 N 
ATOM     13  C   UNL A   1      30.681  25.887  25.751  1.00  0.00     0.244 C 
ATOM     14  O   UNL A   1      29.614  25.558  26.286  1.00  0.00    -0.273 OA
ATOM     15  H   UNL A   1      29.653  26.615  24.252  1.00  0.00     0.170 HD
BRANCH  13  16
ATOM     16  C   UNL A   1      31.991  25.603  26.463  1.00  0.00     0.230 C 
BRANCH  16  17
ATOM     17  N   UNL A   1      32.583  24.345  26.102  1.00  0.00    -0.259 N 
ATOM     18  C   UNL A   1      32.087  20.984  25.460  1.00  0.00     0.029 C 
ATOM     19  C   UNL A   1      32.796  22.054  25.831  1.00  0.00     0.083 C 
ATOM     20  S   UNL A   1      34.279  22.648  25.239  1.00  0.00    -0.022 SA
ATOM     21  C   UNL A   1      32.116  23.140  26.585  1.00  0.00     0.268 C 
ATOM     22  C   UNL A   1      33.761  24.303  25.427  1.00  0.00     0.294 C 
ATOM     23  O   UNL A   1      31.289  22.954  27.459  1.00  0.00    -0.268 OA
ATOM     24  O   UNL A   1      34.422  25.254  25.014  1.00  0.00    -0.261 OA
BRANCH  18  25
ATOM     25  C   UNL A   1      32.315  20.029  24.363  1.00  0.00    -0.021 A 
ATOM     26  C   UNL A   1      32.932  17.942  25.747  1.00  0.00     0.045 C 
ATOM     27  C   UNL A   1      32.570  18.655  24.476  1.00  0.00    -0.044 A 
ATOM     28  C   UNL A   1      32.537  17.880  23.308  1.00  0.00     0.004 A 
ATOM     29  C   UNL A   1      32.340  18.452  22.048  1.00  0.00     0.000 A 
ATOM     30  C   UNL A   1      32.154  20.594  23.074  1.00  0.00     0.008 A 
ATOM     31  C   UNL A   1      32.191  19.818  21.923  1.00  0.00     0.001 A 
ENDBRANCH  18  25
ENDBRANCH  16  17
ENDBRANCH  13  16
ENDBRANCH   7  12
ENDBRANCH   3   6
ENDBRANCH   1   2
BRANCH   1  32
ATOM     32  C   UNL A   1      34.208  29.023  27.320  1.00  0.00     0.023 C 
BRANCH  32  33
ATOM     33  C   UNL A   1      34.701  30.458  27.142  1.00  0.00     0.023 C 
BRANCH  33  34
ATOM     34  C   UNL A   1      34.746  31.353  28.366  1.00  0.00     0.116 C 
BRANCH  34  35
ATOM     35  N   UNL A   1      35.981  32.098  28.539  1.00  0.00    -0.352 N 
ATOM     36  C   UNL A   1      37.258  31.667  28.863  1.00  0.00     0.251 C 
ATOM     37  H   UNL A   1      35.897  33.069  28.406  1.00  0.00     0.163 HD
ATOM     38  O   UNL A   1      38.103  32.520  29.136  1.00  0.00    -0.269 OA
BRANCH  36  39
ATOM     39  C   UNL A   1      37.687  30.239  28.755  1.00  0.00     0.039 A 
ATOM     40  C   UNL A   1      37.398  29.353  29.815  1.00  0.00     0.014 A 
ATOM     41  C   UNL A   1      38.536  29.795  27.764  1.00  0.00     0.014 A 
ATOM     42  C   UNL A   1      38.229  28.245  30.065  1.00  0.00     0.010 A 
ATOM     43  C   UNL A   1      39.272  28.663  27.969  1.00  0.00     0.010 A 
ATOM     44  C   UNL A   1      39.276  28.021  29.193  1.00  0.00    -0.014 A 
BRANCH  44  45
ATOM     45  C   UNL A   1      40.617  27.481  29.442  1.00  0.00     0.031 A 
ATOM     46  C   UNL A   1      41.051  26.218  28.814  1.00  0.00     0.074 A 
ATOM     47  C   UNL A   1      41.555  28.442  29.664  1.00  0.00     0.049 A 
ATOM     48  N   UNL A   1      42.227  25.716  28.937  1.00  0.00    -0.248 NA
ATOM     49  C   UNL A   1      40.203  25.467  27.904  1.00  0.00     0.031 C 
ATOM     50  C   UNL A   1      42.992  28.441  29.384  1.00  0.00     0.029 A 
ATOM     51  N   UNL A   1      41.363  29.686  30.280  1.00  0.00    -0.354 N 
ATOM     52  C   UNL A   1      42.406  24.775  27.944  1.00  0.00     0.074 A 
ATOM     53  C   UNL A   1      41.085  24.609  27.380  1.00  0.00     0.031 C 
ATOM     54  C   UNL A   1      43.580  29.407  30.112  1.00  0.00     0.029 A 
ATOM     55  C   UNL A   1      42.561  29.960  30.981  1.00  0.00     0.049 A 
ATOM     56  H   UNL A   1      40.559  30.254  30.232  1.00  0.00     0.167 HD
ATOM     57  C   UNL A   1      43.678  24.344  27.680  1.00  0.00     0.037 A 
ATOM     58  C   UNL A   1      42.527  29.832  32.344  1.00  0.00     0.037 A 
ATOM     59  C   UNL A   1      44.626  24.949  28.635  1.00  0.00     0.049 A 
ATOM     60  C   UNL A   1      43.224  28.573  32.842  1.00  0.00     0.074 A 
ATOM     61  C   UNL A   1      45.578  25.955  28.585  1.00  0.00     0.029 A 
ATOM     62  N   UNL A   1      44.442  24.683  29.981  1.00  0.00    -0.354 N 
ATOM     63  N   UNL A   1      43.903  27.750  32.085  1.00  0.00    -0.248 NA
ATOM     64  C   UNL A   1      43.148  28.105  34.223  1.00  0.00     0.031 C 
ATOM     65  C   UNL A   1      45.855  26.363  29.933  1.00  0.00     0.029 A 
ATOM     66  C   UNL A   1      45.109  25.577  30.795  1.00  0.00     0.049 A 
ATOM     67  H   UNL A   1      43.895  23.939  30.321  1.00  0.00     0.167 HD
ATOM     68  C   UNL A   1      44.240  26.631  32.795  1.00  0.00     0.074 A 
ATOM     69  C   UNL A   1      43.757  26.908  34.139  1.00  0.00     0.031 C 
ATOM     70  C   UNL A   1      44.851  25.541  32.233  1.00  0.00     0.037 A 
BRANCH  57  71
ATOM     71  C   UNL A   1      44.142  23.475  26.518  1.00  0.00     0.057 A 
ATOM     72  C   UNL A   1      43.697  22.138  26.408  1.00  0.00     0.134 A 
ATOM     73  C   UNL A   1      45.025  23.851  25.486  1.00  0.00     0.134 A 
ATOM     74  F   UNL A   1      42.806  21.621  27.267  1.00  0.00    -0.206 F 
ATOM     75  C   UNL A   1      44.130  21.255  25.406  1.00  0.00     0.040 A 
ATOM     76  C   UNL A   1      45.472  22.978  24.482  1.00  0.00     0.040 A 
ATOM     77  F   UNL A   1      45.499  25.089  25.357  1.00  0.00    -0.206 F 
ATOM     78  C   UNL A   1      45.033  21.668  24.441  1.00  0.00     0.006 A 
ENDBRANCH  57  71
BRANCH  58  79
ATOM     79  C   UNL A   1      41.250  30.421  32.868  1.00  0.00     0.057 A 
ATOM     80  C   UNL A   1      41.112  31.822  32.761  1.00  0.00     0.134 A 
ATOM     81  C   UNL A   1      40.070  29.671  32.906  1.00  0.00     0.134 A 
ATOM     82  F   UNL A   1      42.203  32.605  32.726  1.00  0.00    -0.206 F 
ATOM     83  C   UNL A   1      39.879  32.424  32.494  1.00  0.00     0.040 A 
ATOM     84  C   UNL A   1      38.824  30.274  32.688  1.00  0.00     0.040 A 
ATOM     85  F   UNL A   1      40.110  28.332  32.978  1.00  0.00    -0.206 F 
ATOM     86  C   UNL A   1      38.735  31.640  32.413  1.00  0.00     0.006 A 
ENDBRANCH  58  79
BRANCH  70  87
ATOM     87  C   UNL A   1      45.227  24.325  33.043  1.00  0.00     0.057 A 
ATOM     88  C   UNL A   1      44.358  23.234  33.181  1.00  0.00     0.134 A 
ATOM     89  C   UNL A   1      46.420  24.242  33.789  1.00  0.00     0.134 A 
ATOM     90  F   UNL A   1      43.149  23.236  32.601  1.00  0.00    -0.206 F 
ATOM     91  C   UNL A   1      44.690  22.102  33.936  1.00  0.00     0.040 A 
ATOM     92  C   UNL A   1      46.732  23.149  34.603  1.00  0.00     0.040 A 
ATOM     93  F   UNL A   1      47.358  25.199  33.748  1.00  0.00    -0.206 F 
ATOM     94  C   UNL A   1      45.877  22.061  34.657  1.00  0.00     0.006 A 
ENDBRANCH  70  87
ENDBRANCH  44  45
ENDBRANCH  36  39
ENDBRANCH  34  35
ENDBRANCH  33  34
ENDBRANCH  32  33
ENDBRANCH   1  32
TORSDOF 15
ENDMDL
MODEL 2
REMARK VINA RESULT:     -13.3      3.085      8.409
REMARK SMILES Cc1ccccc1/C=C1\SC(=O)N(CC(=O)Nc2ccccc2C(=O)NCCCCNC(=O)c2ccc(-c3c4nc(c(-c5c(F)cccc5F)c5ccc([nH]5)c(-c5c(F)cccc5F)c5nc(c(-c6c(F)cccc6F)c6ccc3[nH]6)C=C5)C=C4)cc2)C1=O
REMARK SMILES IDX 27 1 26 2 24 3 25 4 23 6 18 7 19 8 20 9 22 10 21 11 17 12
REMARK SMILES IDX 15 13 16 14 14 16 13 17 8 18 9 19 10 20 88 21 11 22 89 23
REMARK SMILES IDX 12 24 7 25 1 26 2 27 3 28 4 29 6 30 5 31 28 32 29 33 30 34
REMARK SMILES IDX 31 35 32 36 33 38 34 39 35 40 87 41 36 42 86 43 37 44 38 45
REMARK SMILES IDX 39 46 80 47 40 48 85 49 79 50 81 51 41 52 84 53 78 54 77 55
REMARK SMILES IDX 42 57 68 58 51 59 67 60 52 61 55 62 66 63 82 64 53 65 54 66
REMARK SMILES IDX 65 68 83 69 56 70 43 71 44 72 49 73 45 74 46 75 48 76 50 77
REMARK SMILES IDX 47 78 69 79 70 80 75 81 71 82 72 83 74 84 76 85 73 86 57 87
REMARK SMILES IDX 58 88 63 89 59 90 60 91 62 92 64 93 61 94
REMARK H PARENT 26 5 17 15 31 37 81 56 55 67
REMARK Flexibility Score: inf
ROOT
ATOM      1  C   UNL A   1      35.964  23.301  26.104  1.00  0.00     0.116 C 
ENDROOT
BRANCH   1   2
ATOM      2  N   UNL A   1      35.501  21.944  25.802  1.00  0.00    -0.352 N 
ATOM      3  C   UNL A   1      34.260  21.376  25.541  1.00  0.00     0.253 C 
ATOM      4  O   UNL A   1      34.241  20.211  25.147  1.00  0.00    -0.269 OA
ATOM      5  H   UNL A   1      36.234  21.288  25.776  1.00  0.00     0.163 HD
BRANCH   3   6
ATOM      6  C   UNL A   1      32.962  22.078  25.724  1.00  0.00     0.063 A 
ATOM      7  C   UNL A   1      32.185  22.602  24.660  1.00  0.00     0.054 A 
ATOM      8  C   UNL A   1      31.035  23.360  24.968  1.00  0.00     0.027 A 
ATOM      9  C   UNL A   1      30.636  23.596  26.281  1.00  0.00     0.002 A 
ATOM     10  C   UNL A   1      32.608  22.453  27.034  1.00  0.00     0.016 A 
ATOM     11  C   UNL A   1      31.438  23.158  27.319  1.00  0.00     0.001 A 
BRANCH   7  12
ATOM     12  N   UNL A   1      32.579  22.750  23.315  1.00  0.00    -0.324 N 
ATOM     13  C   UNL A   1      33.446  23.555  22.649  1.00  0.00     0.244 C 
ATOM     14  O   UNL A   1      33.655  23.265  21.463  1.00  0.00    -0.273 OA
ATOM     15  H   UNL A   1      32.115  22.120  22.717  1.00  0.00     0.170 HD
BRANCH  13  16
ATOM     16  C   UNL A   1      34.236  24.679  23.292  1.00  0.00     0.230 C 
BRANCH  16  17
ATOM     17  N   UNL A   1      33.483  25.890  23.462  1.00  0.00    -0.259 N 
ATOM     18  C   UNL A   1      31.228  28.122  22.086  1.00  0.00     0.029 C 
ATOM     19  C   UNL A   1      32.223  27.751  22.897  1.00  0.00     0.083 C 
ATOM     20  S   UNL A   1      32.371  27.890  24.588  1.00  0.00    -0.022 SA
ATOM     21  C   UNL A   1      33.206  26.745  22.414  1.00  0.00     0.268 C 
ATOM     22  C   UNL A   1      33.184  26.351  24.705  1.00  0.00     0.294 C 
ATOM     23  O   UNL A   1      33.652  26.710  21.282  1.00  0.00    -0.268 OA
ATOM     24  O   UNL A   1      33.447  25.822  25.782  1.00  0.00    -0.261 OA
BRANCH  18  25
ATOM     25  C   UNL A   1      29.905  28.685  22.403  1.00  0.00    -0.021 A 
ATOM     26  C   UNL A   1      28.875  26.664  23.630  1.00  0.00     0.045 C 
ATOM     27  C   UNL A   1      28.901  28.098  23.187  1.00  0.00    -0.044 A 
ATOM     28  C   UNL A   1      27.804  28.890  23.551  1.00  0.00     0.004 A 
ATOM     29  C   UNL A   1      27.653  30.201  23.090  1.00  0.00     0.000 A 
ATOM     30  C   UNL A   1      29.716  30.001  21.915  1.00  0.00     0.008 A 
ATOM     31  C   UNL A   1      28.587  30.745  22.234  1.00  0.00     0.001 A 
ENDBRANCH  18  25
ENDBRANCH  16  17
ENDBRANCH  13  16
ENDBRANCH   7  12
ENDBRANCH   3   6
ENDBRANCH   1   2
BRANCH   1  32
ATOM     32  C   UNL A   1      37.475  23.557  26.180  1.00  0.00     0.023 C 
BRANCH  32  33
ATOM     33  C   UNL A   1      38.466  22.466  25.781  1.00  0.00     0.023 C 
BRANCH  33  34
ATOM     34  C   UNL A   1      39.844  22.489  26.415  1.00  0.00     0.116 C 
BRANCH  34  35
ATOM     35  N   UNL A   1      40.725  21.406  26.014  1.00  0.00    -0.352 N 
ATOM     36  C   UNL A   1      42.099  21.268  26.132  1.00  0.00     0.251 C 
ATOM     37  H   UNL A   1      40.272  20.644  25.586  1.00  0.00     0.163 HD
ATOM     38  O   UNL A   1      42.638  20.332  25.542  1.00  0.00    -0.269 OA
BRANCH  36  39
ATOM     39  C   UNL A   1      42.926  22.111  27.050  1.00  0.00     0.039 A 
ATOM     40  C   UNL A   1      42.709  22.025  28.443  1.00  0.00     0.014 A 
ATOM     41  C   UNL A   1      43.742  23.121  26.592  1.00  0.00     0.014 A 
ATOM     42  C   UNL A   1      42.972  23.129  29.274  1.00  0.00     0.010 A 
ATOM     43  C   UNL A   1      44.079  24.145  27.431  1.00  0.00     0.010 A 
ATOM     44  C   UNL A   1      43.519  24.254  28.690  1.00  0.00    -0.014 A 
BRANCH  44  45
ATOM     45  C   UNL A   1      43.323  25.674  29.002  1.00  0.00     0.031 A 
ATOM     46  C   UNL A   1      42.127  26.393  28.525  1.00  0.00     0.074 A 
ATOM     47  C   UNL A   1      43.861  26.045  30.196  1.00  0.00     0.049 A 
ATOM     48  N   UNL A   1      41.858  27.617  28.808  1.00  0.00    -0.248 NA
ATOM     49  C   UNL A   1      41.076  25.741  27.760  1.00  0.00     0.031 C 
ATOM     50  C   UNL A   1      43.447  27.090  31.133  1.00  0.00     0.029 A 
ATOM     51  N   UNL A   1      45.010  25.523  30.805  1.00  0.00    -0.354 N 
ATOM     52  C   UNL A   1      40.524  27.845  28.536  1.00  0.00     0.074 A 
ATOM     53  C   UNL A   1      40.109  26.664  27.815  1.00  0.00     0.031 C 
ATOM     54  C   UNL A   1      44.470  27.365  31.962  1.00  0.00     0.029 A 
ATOM     55  C   UNL A   1      45.610  26.606  31.490  1.00  0.00     0.049 A 
ATOM     56  H   UNL A   1      45.332  24.594  30.766  1.00  0.00     0.167 HD
ATOM     57  C   UNL A   1      39.940  28.970  29.054  1.00  0.00     0.037 A 
ATOM     58  C   UNL A   1      46.744  27.141  30.937  1.00  0.00     0.037 A 
ATOM     59  C   UNL A   1      40.948  29.788  29.754  1.00  0.00     0.049 A 
ATOM     60  C   UNL A   1      46.500  28.481  30.256  1.00  0.00     0.074 A 
ATOM     61  C   UNL A   1      41.268  30.049  31.076  1.00  0.00     0.029 A 
ATOM     62  N   UNL A   1      42.019  30.262  29.015  1.00  0.00    -0.354 N 
ATOM     63  N   UNL A   1      45.371  29.138  30.291  1.00  0.00    -0.248 NA
ATOM     64  C   UNL A   1      47.494  29.150  29.421  1.00  0.00     0.031 C 
ATOM     65  C   UNL A   1      42.605  30.570  31.109  1.00  0.00     0.029 A 
ATOM     66  C   UNL A   1      43.074  30.666  29.809  1.00  0.00     0.049 A 
ATOM     67  H   UNL A   1      42.028  30.305  28.032  1.00  0.00     0.167 HD
ATOM     68  C   UNL A   1      45.421  30.202  29.434  1.00  0.00     0.074 A 
ATOM     69  C   UNL A   1      46.783  30.176  28.922  1.00  0.00     0.031 C 
ATOM     70  C   UNL A   1      44.343  31.004  29.168  1.00  0.00     0.037 A 
BRANCH  57  71
ATOM     71  C   UNL A   1      38.459  29.330  29.058  1.00  0.00     0.057 A 
ATOM     72  C   UNL A   1      37.829  29.758  27.867  1.00  0.00     0.134 A 
ATOM     73  C   UNL A   1      37.591  29.305  30.166  1.00  0.00     0.134 A 
ATOM     74  F   UNL A   1      38.482  29.790  26.697  1.00  0.00    -0.206 F 
ATOM     75  C   UNL A   1      36.487  30.170  27.804  1.00  0.00     0.040 A 
ATOM     76  C   UNL A   1      36.250  29.719  30.120  1.00  0.00     0.040 A 
ATOM     77  F   UNL A   1      37.962  28.857  31.364  1.00  0.00    -0.206 F 
ATOM     78  C   UNL A   1      35.692  30.164  28.937  1.00  0.00     0.006 A 
ENDBRANCH  57  71
BRANCH  58  79
ATOM     79  C   UNL A   1      47.631  26.031  30.451  1.00  0.00     0.057 A 
ATOM     80  C   UNL A   1      47.655  25.808  29.057  1.00  0.00     0.134 A 
ATOM     81  C   UNL A   1      48.765  25.643  31.173  1.00  0.00     0.134 A 
ATOM     82  F   UNL A   1      46.597  26.150  28.303  1.00  0.00    -0.206 F 
ATOM     83  C   UNL A   1      48.820  25.417  28.392  1.00  0.00     0.040 A 
ATOM     84  C   UNL A   1      49.922  25.204  30.517  1.00  0.00     0.040 A 
ATOM     85  F   UNL A   1      48.838  25.846  32.497  1.00  0.00    -0.206 F 
ATOM     86  C   UNL A   1      49.973  25.156  29.122  1.00  0.00     0.006 A 
ENDBRANCH  58  79
BRANCH  70  87
ATOM     87  C   UNL A   1      44.430  32.182  28.229  1.00  0.00     0.057 A 
ATOM     88  C   UNL A   1      44.597  33.491  28.704  1.00  0.00     0.134 A 
ATOM     89  C   UNL A   1      44.254  32.065  26.836  1.00  0.00     0.134 A 
ATOM     90  F   UNL A   1      44.676  33.745  30.018  1.00  0.00    -0.206 F 
ATOM     91  C   UNL A   1      44.672  34.595  27.846  1.00  0.00     0.040 A 
ATOM     92  C   UNL A   1      44.256  33.168  25.975  1.00  0.00     0.040 A 
ATOM     93  F   UNL A   1      44.100  30.879  26.231  1.00  0.00    -0.206 F 
ATOM     94  C   UNL A   1      44.493  34.436  26.477  1.00  0.00     0.006 A 
ENDBRANCH  70  87
ENDBRANCH  44  45
ENDBRANCH  36  39
ENDBRANCH  34  35
ENDBRANCH  33  34
ENDBRANCH  32  33
ENDBRANCH   1  32
TORSDOF 15
ENDMDL
MODEL 3
REMARK VINA RESULT:     -13.0      1.712      2.736
REMARK SMILES Cc1ccccc1/C=C1\SC(=O)N(CC(=O)Nc2ccccc2C(=O)NCCCCNC(=O)c2ccc(-c3c4nc(c(-c5c(F)cccc5F)c5ccc([nH]5)c(-c5c(F)cccc5F)c5nc(c(-c6c(F)cccc6F)c6ccc3[nH]6)C=C5)C=C4)cc2)C1=O
REMARK SMILES IDX 27 1 26 2 24 3 25 4 23 6 18 7 19 8 20 9 22 10 21 11 17 12
REMARK SMILES IDX 15 13 16 14 14 16 13 17 8 18 9 19 10 20 88 21 11 22 89 23
REMARK SMILES IDX 12 24 7 25 1 26 2 27 3 28 4 29 6 30 5 31 28 32 29 33 30 34
REMARK SMILES IDX 31 35 32 36 33 38 34 39 35 40 87 41 36 42 86 43 37 44 38 45
REMARK SMILES IDX 39 46 80 47 40 48 85 49 79 50 81 51 41 52 84 53 78 54 77 55
REMARK SMILES IDX 42 57 68 58 51 59 67 60 52 61 55 62 66 63 82 64 53 65 54 66
REMARK SMILES IDX 65 68 83 69 56 70 43 71 44 72 49 73 45 74 46 75 48 76 50 77
REMARK SMILES IDX 47 78 69 79 70 80 75 81 71 82 72 83 74 84 76 85 73 86 57 87
REMARK SMILES IDX 58 88 63 89 59 90 60 91 62 92 64 93 61 94
REMARK H PARENT 26 5 17 15 31 37 81 56 55 67
REMARK Flexibility Score: inf
ROOT
ATOM      1  C   UNL A   1      32.753  29.273  26.993  1.00  0.00     0.116 C 
ENDROOT
BRANCH   1   2
ATOM      2  N   UNL A   1      33.510  28.903  25.795  1.00  0.00    -0.352 N 
ATOM      3  C   UNL A   1      33.198  28.781  24.446  1.00  0.00     0.253 C 
ATOM      4  O   UNL A   1      34.129  28.615  23.660  1.00  0.00    -0.269 OA
ATOM      5  H   UNL A   1      34.453  28.695  25.987  1.00  0.00     0.163 HD
BRANCH   3   6
ATOM      6  C   UNL A   1      31.815  28.822  23.900  1.00  0.00     0.063 A 
ATOM      7  C   UNL A   1      31.350  27.990  22.850  1.00  0.00     0.054 A 
ATOM      8  C   UNL A   1      30.056  28.211  22.331  1.00  0.00     0.027 A 
ATOM      9  C   UNL A   1      29.221  29.209  22.829  1.00  0.00     0.002 A 
ATOM     10  C   UNL A   1      31.001  29.906  24.280  1.00  0.00     0.016 A 
ATOM     11  C   UNL A   1      29.704  30.074  23.793  1.00  0.00     0.001 A 
BRANCH   7  12
ATOM     12  N   UNL A   1      32.128  27.166  22.013  1.00  0.00    -0.324 N 
ATOM     13  C   UNL A   1      32.251  25.827  21.825  1.00  0.00     0.244 C 
ATOM     14  O   UNL A   1      32.930  25.475  20.851  1.00  0.00    -0.273 OA
ATOM     15  H   UNL A   1      32.723  27.684  21.424  1.00  0.00     0.170 HD
BRANCH  13  16
ATOM     16  C   UNL A   1      31.526  24.778  22.647  1.00  0.00     0.230 C 
BRANCH  16  17
ATOM     17  N   UNL A   1      32.365  24.114  23.606  1.00  0.00    -0.259 N 
ATOM     18  C   UNL A   1      35.207  22.223  24.155  1.00  0.00     0.029 C 
ATOM     19  C   UNL A   1      33.982  22.678  24.436  1.00  0.00     0.083 C 
ATOM     20  S   UNL A   1      33.387  23.435  25.841  1.00  0.00    -0.022 SA
ATOM     21  C   UNL A   1      33.042  22.947  23.315  1.00  0.00     0.268 C 
ATOM     22  C   UNL A   1      32.365  24.498  24.909  1.00  0.00     0.294 C 
ATOM     23  O   UNL A   1      32.931  22.243  22.329  1.00  0.00    -0.268 OA
ATOM     24  O   UNL A   1      31.738  25.425  25.416  1.00  0.00    -0.261 OA
BRANCH  18  25
ATOM     25  C   UNL A   1      36.454  22.313  24.933  1.00  0.00    -0.021 A 
ATOM     26  C   UNL A   1      37.138  19.826  24.912  1.00  0.00     0.045 C 
ATOM     27  C   UNL A   1      37.378  21.285  25.173  1.00  0.00    -0.044 A 
ATOM     28  C   UNL A   1      38.609  21.628  25.749  1.00  0.00     0.004 A 
ATOM     29  C   UNL A   1      38.897  22.934  26.155  1.00  0.00     0.000 A 
ATOM     30  C   UNL A   1      36.748  23.622  25.386  1.00  0.00     0.008 A 
ATOM     31  C   UNL A   1      37.949  23.927  26.015  1.00  0.00     0.001 A 
ENDBRANCH  18  25
ENDBRANCH  16  17
ENDBRANCH  13  16
ENDBRANCH   7  12
ENDBRANCH   3   6
ENDBRANCH   1   2
BRANCH   1  32
ATOM     32  C   UNL A   1      32.520  30.763  27.278  1.00  0.00     0.023 C 
BRANCH  32  33
ATOM     33  C   UNL A   1      33.657  31.639  27.798  1.00  0.00     0.023 C 
BRANCH  33  34
ATOM     34  C   UNL A   1      35.082  31.198  27.518  1.00  0.00     0.116 C 
BRANCH  34  35
ATOM     35  N   UNL A   1      36.107  31.934  28.236  1.00  0.00    -0.352 N 
ATOM     36  C   UNL A   1      37.211  31.488  28.947  1.00  0.00     0.251 C 
ATOM     37  H   UNL A   1      36.001  32.913  28.215  1.00  0.00     0.163 HD
ATOM     38  O   UNL A   1      37.829  32.307  29.626  1.00  0.00    -0.269 OA
BRANCH  36  39
ATOM     39  C   UNL A   1      37.761  30.105  28.811  1.00  0.00     0.039 A 
ATOM     40  C   UNL A   1      37.455  29.144  29.799  1.00  0.00     0.014 A 
ATOM     41  C   UNL A   1      38.723  29.780  27.880  1.00  0.00     0.014 A 
ATOM     42  C   UNL A   1      38.348  28.091  30.070  1.00  0.00     0.010 A 
ATOM     43  C   UNL A   1      39.527  28.698  28.096  1.00  0.00     0.010 A 
ATOM     44  C   UNL A   1      39.479  27.994  29.284  1.00  0.00    -0.014 A 
BRANCH  44  45
ATOM     45  C   UNL A   1      40.834  27.544  29.626  1.00  0.00     0.031 A 
ATOM     46  C   UNL A   1      41.445  26.394  28.933  1.00  0.00     0.074 A 
ATOM     47  C   UNL A   1      41.651  28.553  30.038  1.00  0.00     0.049 A 
ATOM     48  N   UNL A   1      42.645  25.982  29.135  1.00  0.00    -0.248 NA
ATOM     49  C   UNL A   1      40.767  25.673  27.869  1.00  0.00     0.031 C 
ATOM     50  C   UNL A   1      43.102  28.701  29.917  1.00  0.00     0.029 A 
ATOM     51  N   UNL A   1      41.281  29.706  30.744  1.00  0.00    -0.354 N 
ATOM     52  C   UNL A   1      43.010  25.168  28.083  1.00  0.00     0.074 A 
ATOM     53  C   UNL A   1      41.774  24.951  27.366  1.00  0.00     0.031 C 
ATOM     54  C   UNL A   1      43.521  29.632  30.793  1.00  0.00     0.029 A 
ATOM     55  C   UNL A   1      42.372  30.005  31.594  1.00  0.00     0.049 A 
ATOM     56  H   UNL A   1      40.437  30.206  30.663  1.00  0.00     0.167 HD
ATOM     57  C   UNL A   1      44.337  24.875  27.920  1.00  0.00     0.037 A 
ATOM     58  C   UNL A   1      42.215  29.734  32.928  1.00  0.00     0.037 A 
ATOM     59  C   UNL A   1      45.124  25.454  29.025  1.00  0.00     0.049 A 
ATOM     60  C   UNL A   1      42.974  28.493  33.377  1.00  0.00     0.074 A 
ATOM     61  C   UNL A   1      45.977  26.536  29.174  1.00  0.00     0.029 A 
ATOM     62  N   UNL A   1      44.832  25.036  30.312  1.00  0.00    -0.354 N 
ATOM     63  N   UNL A   1      43.800  27.813  32.624  1.00  0.00    -0.248 NA
ATOM     64  C   UNL A   1      42.805  27.879  34.692  1.00  0.00     0.031 C 
ATOM     65  C   UNL A   1      46.078  26.824  30.576  1.00  0.00     0.029 A 
ATOM     66  C   UNL A   1      45.327  25.893  31.274  1.00  0.00     0.049 A 
ATOM     67  H   UNL A   1      44.326  24.217  30.518  1.00  0.00     0.167 HD
ATOM     68  C   UNL A   1      44.168  26.658  33.258  1.00  0.00     0.074 A 
ATOM     69  C   UNL A   1      43.528  26.753  34.561  1.00  0.00     0.031 C 
ATOM     70  C   UNL A   1      44.931  25.687  32.666  1.00  0.00     0.037 A 
BRANCH  57  71
ATOM     71  C   UNL A   1      44.995  24.172  26.738  1.00  0.00     0.057 A 
ATOM     72  C   UNL A   1      44.733  22.806  26.488  1.00  0.00     0.134 A 
ATOM     73  C   UNL A   1      45.898  24.740  25.819  1.00  0.00     0.134 A 
ATOM     74  F   UNL A   1      43.852  22.112  27.224  1.00  0.00    -0.206 F 
ATOM     75  C   UNL A   1      45.350  22.072  25.461  1.00  0.00     0.040 A 
ATOM     76  C   UNL A   1      46.527  24.018  24.792  1.00  0.00     0.040 A 
ATOM     77  F   UNL A   1      46.219  26.032  25.827  1.00  0.00    -0.206 F 
ATOM     78  C   UNL A   1      46.263  22.674  24.613  1.00  0.00     0.006 A 
ENDBRANCH  57  71
BRANCH  58  79
ATOM     79  C   UNL A   1      40.842  30.157  33.362  1.00  0.00     0.057 A 
ATOM     80  C   UNL A   1      40.591  31.546  33.393  1.00  0.00     0.134 A 
ATOM     81  C   UNL A   1      39.736  29.319  33.182  1.00  0.00     0.134 A 
ATOM     82  F   UNL A   1      41.606  32.409  33.570  1.00  0.00    -0.206 F 
ATOM     83  C   UNL A   1      39.345  32.079  33.055  1.00  0.00     0.040 A 
ATOM     84  C   UNL A   1      38.472  29.846  32.889  1.00  0.00     0.040 A 
ATOM     85  F   UNL A   1      39.889  27.988  33.111  1.00  0.00    -0.206 F 
ATOM     86  C   UNL A   1      38.290  31.224  32.758  1.00  0.00     0.006 A 
ENDBRANCH  58  79
BRANCH  70  87
ATOM     87  C   UNL A   1      45.337  24.429  33.394  1.00  0.00     0.057 A 
ATOM     88  C   UNL A   1      46.595  24.303  34.000  1.00  0.00     0.134 A 
ATOM     89  C   UNL A   1      44.533  23.273  33.430  1.00  0.00     0.134 A 
ATOM     90  F   UNL A   1      47.492  25.299  33.946  1.00  0.00    -0.206 F 
ATOM     91  C   UNL A   1      46.989  23.139  34.672  1.00  0.00     0.040 A 
ATOM     92  C   UNL A   1      44.943  22.082  34.037  1.00  0.00     0.040 A 
ATOM     93  F   UNL A   1      43.299  23.243  32.908  1.00  0.00    -0.206 F 
ATOM     94  C   UNL A   1      46.165  22.021  34.685  1.00  0.00     0.006 A 
ENDBRANCH  70  87
ENDBRANCH  44  45
ENDBRANCH  36  39
ENDBRANCH  34  35
ENDBRANCH  33  34
ENDBRANCH  32  33
ENDBRANCH   1  32
TORSDOF 15
ENDMDL
