MODEL 1
REMARK VINA RESULT:     -12.3      0.000      0.000
REMARK SMILES O=C(NCCCCNC(=O)c1cc(-c2ccc(Cl)cc2)nc2c3c(C4CC4)cc(C(F)(F)F)nc3nn12)c1ccc(-c2c3nc(c(-c4c(F)cccc4F)c4ccc([nH]4)c(-c4c(F)cccc4F)c4nc(c(-c5c(F)cccc5F)c5ccc2[nH]5)C=C4)C=C3)cc1
REMARK SMILES IDX 5 1 4 2 3 3 1 4 2 5 38 7 39 8 91 9 40 10 90 11 41 12 42 13
REMARK SMILES IDX 43 14 84 15 44 16 89 17 83 18 85 19 45 20 88 21 82 22 81 23
REMARK SMILES IDX 46 25 72 26 55 27 71 28 56 29 59 30 70 31 86 32 57 33 58 34
REMARK SMILES IDX 69 36 87 37 60 38 47 39 48 40 53 41 49 42 50 43 52 44 54 45
REMARK SMILES IDX 51 46 73 47 74 48 79 49 75 50 76 51 78 52 80 53 77 54 61 55
REMARK SMILES IDX 62 56 67 57 63 58 64 59 66 60 68 61 65 62 6 63 7 64 8 65
REMARK SMILES IDX 9 66 10 68 11 69 12 70 37 71 13 72 22 73 36 74 21 75 23 76
REMARK SMILES IDX 35 77 24 78 34 79 28 80 29 81 14 82 15 83 20 84 16 85 19 86
REMARK SMILES IDX 17 87 18 88 25 89 26 90 27 91 30 92 31 93 32 94 33 95
REMARK H PARENT 3 6 85 24 59 35 8 67
REMARK Flexibility Score: inf
ROOT
ATOM      1  C   UNL A   1      42.442  34.473  31.838  1.00  0.00     0.023 C 
ENDROOT
BRANCH   1   2
ATOM      2  C   UNL A   1      41.794  34.109  30.506  1.00  0.00     0.116 C 
BRANCH   2   3
ATOM      3  N   UNL A   1      42.652  33.265  29.694  1.00  0.00    -0.352 N 
ATOM      4  O   UNL A   1      44.022  32.838  27.935  1.00  0.00    -0.269 OA
ATOM      5  C   UNL A   1      43.433  33.646  28.624  1.00  0.00     0.251 C 
ATOM      6  H   UNL A   1      42.680  32.311  29.936  1.00  0.00     0.163 HD
BRANCH   5   7
ATOM      7  C   UNL A   1      43.510  35.088  28.326  1.00  0.00     0.039 A 
ATOM      8  C   UNL A   1      42.708  35.628  27.315  1.00  0.00     0.014 A 
ATOM      9  C   UNL A   1      44.457  35.863  28.994  1.00  0.00     0.014 A 
ATOM     10  C   UNL A   1      42.904  36.945  26.921  1.00  0.00     0.010 A 
ATOM     11  C   UNL A   1      44.636  37.189  28.611  1.00  0.00     0.010 A 
ATOM     12  C   UNL A   1      43.868  37.732  27.568  1.00  0.00    -0.014 A 
BRANCH  12  13
ATOM     13  C   UNL A   1      43.969  39.151  27.191  1.00  0.00     0.031 A 
ATOM     14  C   UNL A   1      43.508  40.114  28.228  1.00  0.00     0.074 A 
ATOM     15  C   UNL A   1      44.836  39.596  26.260  1.00  0.00     0.049 A 
ATOM     16  N   UNL A   1      44.287  40.533  29.182  1.00  0.00    -0.248 NA
ATOM     17  C   UNL A   1      42.100  40.460  28.411  1.00  0.00     0.031 C 
ATOM     18  C   UNL A   1      46.094  38.926  25.917  1.00  0.00     0.029 A 
ATOM     19  N   UNL A   1      44.908  40.810  25.618  1.00  0.00    -0.354 N 
ATOM     20  C   UNL A   1      43.479  41.114  30.137  1.00  0.00     0.074 A 
ATOM     21  C   UNL A   1      42.134  41.084  29.600  1.00  0.00     0.031 C 
ATOM     22  C   UNL A   1      46.890  39.811  25.281  1.00  0.00     0.029 A 
ATOM     23  C   UNL A   1      46.143  41.039  25.018  1.00  0.00     0.049 A 
ATOM     24  H   UNL A   1      44.162  41.451  25.585  1.00  0.00     0.167 HD
ATOM     25  C   UNL A   1      43.949  41.547  31.334  1.00  0.00     0.037 A 
ATOM     26  C   UNL A   1      46.725  42.256  24.852  1.00  0.00     0.037 A 
ATOM     27  C   UNL A   1      45.350  41.365  31.565  1.00  0.00     0.049 A 
ATOM     28  C   UNL A   1      46.928  42.717  26.267  1.00  0.00     0.074 A 
ATOM     29  C   UNL A   1      46.156  40.425  32.169  1.00  0.00     0.029 A 
ATOM     30  N   UNL A   1      46.217  42.295  31.046  1.00  0.00    -0.354 N 
ATOM     31  N   UNL A   1      47.926  42.388  27.040  1.00  0.00    -0.248 NA
ATOM     32  C   UNL A   1      45.796  43.337  26.960  1.00  0.00     0.031 C 
ATOM     33  C   UNL A   1      47.454  40.608  31.599  1.00  0.00     0.029 A 
ATOM     34  C   UNL A   1      47.335  41.611  30.639  1.00  0.00     0.049 A 
ATOM     35  H   UNL A   1      46.068  43.265  30.980  1.00  0.00     0.167 HD
ATOM     36  C   UNL A   1      47.438  42.507  28.343  1.00  0.00     0.074 A 
ATOM     37  C   UNL A   1      46.137  43.133  28.226  1.00  0.00     0.031 C 
ATOM     38  C   UNL A   1      48.037  41.916  29.416  1.00  0.00     0.037 A 
BRANCH  25  39
ATOM     39  C   UNL A   1      43.145  42.246  32.348  1.00  0.00     0.057 A 
ATOM     40  C   UNL A   1      42.805  41.661  33.568  1.00  0.00     0.134 A 
ATOM     41  C   UNL A   1      42.908  43.616  32.182  1.00  0.00     0.134 A 
ATOM     42  F   UNL A   1      43.025  40.356  33.784  1.00  0.00    -0.206 F 
ATOM     43  C   UNL A   1      42.282  42.430  34.609  1.00  0.00     0.040 A 
ATOM     44  C   UNL A   1      42.393  44.395  33.213  1.00  0.00     0.040 A 
ATOM     45  F   UNL A   1      43.229  44.219  31.026  1.00  0.00    -0.206 F 
ATOM     46  C   UNL A   1      42.092  43.804  34.438  1.00  0.00     0.006 A 
ENDBRANCH  25  39
BRANCH  26  47
ATOM     47  C   UNL A   1      46.143  43.131  23.788  1.00  0.00     0.057 A 
ATOM     48  C   UNL A   1      44.805  43.538  23.715  1.00  0.00     0.134 A 
ATOM     49  C   UNL A   1      46.991  43.649  22.789  1.00  0.00     0.134 A 
ATOM     50  F   UNL A   1      43.923  43.210  24.669  1.00  0.00    -0.206 F 
ATOM     51  C   UNL A   1      44.313  44.304  22.651  1.00  0.00     0.040 A 
ATOM     52  C   UNL A   1      46.519  44.433  21.733  1.00  0.00     0.040 A 
ATOM     53  F   UNL A   1      48.312  43.411  22.827  1.00  0.00    -0.206 F 
ATOM     54  C   UNL A   1      45.168  44.742  21.648  1.00  0.00     0.006 A 
ENDBRANCH  26  47
BRANCH  38  55
ATOM     55  C   UNL A   1      49.378  41.330  29.146  1.00  0.00     0.057 A 
ATOM     56  C   UNL A   1      49.535  40.050  28.600  1.00  0.00     0.134 A 
ATOM     57  C   UNL A   1      50.537  42.060  29.433  1.00  0.00     0.134 A 
ATOM     58  F   UNL A   1      48.470  39.300  28.279  1.00  0.00    -0.206 F 
ATOM     59  C   UNL A   1      50.801  39.504  28.380  1.00  0.00     0.040 A 
ATOM     60  C   UNL A   1      51.807  41.533  29.197  1.00  0.00     0.040 A 
ATOM     61  F   UNL A   1      50.452  43.291  29.964  1.00  0.00    -0.206 F 
ATOM     62  C   UNL A   1      51.941  40.247  28.677  1.00  0.00     0.006 A 
ENDBRANCH  38  55
ENDBRANCH  12  13
ENDBRANCH   5   7
ENDBRANCH   2   3
ENDBRANCH   1   2
BRANCH   1  63
ATOM     63  C   UNL A   1      42.009  33.587  33.008  1.00  0.00     0.023 C 
BRANCH  63  64
ATOM     64  C   UNL A   1      40.652  33.939  33.616  1.00  0.00     0.116 C 
BRANCH  64  65
ATOM     65  N   UNL A   1      40.166  32.930  34.545  1.00  0.00    -0.351 N 
ATOM     66  C   UNL A   1      39.226  31.963  34.355  1.00  0.00     0.270 C 
ATOM     67  H   UNL A   1      40.575  32.949  35.441  1.00  0.00     0.163 HD
ATOM     68  O   UNL A   1      38.941  31.197  35.272  1.00  0.00    -0.268 OA
BRANCH  66  69
ATOM     69  C   UNL A   1      38.481  31.929  33.086  1.00  0.00     0.134 A 
ATOM     70  C   UNL A   1      38.740  30.876  32.301  1.00  0.00     0.063 A 
ATOM     71  N   UNL A   1      37.550  32.891  32.709  1.00  0.00    -0.207 N 
ATOM     72  C   UNL A   1      37.970  30.829  31.028  1.00  0.00     0.075 A 
ATOM     73  C   UNL A   1      36.812  32.733  31.518  1.00  0.00     0.166 A 
ATOM     74  N   UNL A   1      37.197  34.010  33.387  1.00  0.00    -0.145 NA
ATOM     75  N   UNL A   1      37.073  31.696  30.653  1.00  0.00    -0.228 NA
ATOM     76  C   UNL A   1      35.867  33.741  31.547  1.00  0.00     0.069 A 
ATOM     77  C   UNL A   1      36.158  34.492  32.723  1.00  0.00     0.184 A 
ATOM     78  C   UNL A   1      34.816  33.978  30.648  1.00  0.00    -0.028 A 
ATOM     79  N   UNL A   1      35.424  35.558  33.113  1.00  0.00    -0.222 NA
ATOM     80  C   UNL A   1      34.067  35.089  31.092  1.00  0.00     0.038 A 
ATOM     81  C   UNL A   1      34.378  35.831  32.270  1.00  0.00     0.147 A 
BRANCH  72  82
ATOM     82  C   UNL A   1      38.332  29.691  30.154  1.00  0.00     0.000 A 
ATOM     83  C   UNL A   1      38.530  29.922  28.791  1.00  0.00     0.012 A 
ATOM     84  C   UNL A   1      38.557  28.423  30.704  1.00  0.00     0.012 A 
ATOM     85  C   UNL A   1      38.986  28.883  27.977  1.00  0.00     0.021 A 
ATOM     86  C   UNL A   1      39.005  27.386  29.884  1.00  0.00     0.021 A 
ATOM     87  C   UNL A   1      39.226  27.623  28.526  1.00  0.00     0.041 A 
ATOM     88  Cl  UNL A   1      39.813  26.353  27.526  1.00  0.00    -0.084 Cl
ENDBRANCH  72  82
BRANCH  78  89
ATOM     89  C   UNL A   1      34.568  33.141  29.434  1.00  0.00     0.020 C 
ATOM     90  C   UNL A   1      33.733  33.625  28.270  1.00  0.00     0.009 C 
ATOM     91  C   UNL A   1      35.223  33.542  28.132  1.00  0.00     0.009 C 
ENDBRANCH  78  89
BRANCH  81  92
ATOM     92  C   UNL A   1      33.476  37.001  32.655  1.00  0.00     0.433 C 
ATOM     93  F   UNL A   1      32.243  36.598  33.076  1.00  0.00    -0.165 F 
ATOM     94  F   UNL A   1      33.988  37.769  33.658  1.00  0.00    -0.165 F 
ATOM     95  F   UNL A   1      33.240  37.865  31.622  1.00  0.00    -0.165 F 
ENDBRANCH  81  92
ENDBRANCH  66  69
ENDBRANCH  64  65
ENDBRANCH  63  64
ENDBRANCH   1  63
TORSDOF 14
ENDMDL
MODEL 2
REMARK VINA RESULT:     -12.0      7.109     13.605
REMARK SMILES O=C(NCCCCNC(=O)c1cc(-c2ccc(Cl)cc2)nc2c3c(C4CC4)cc(C(F)(F)F)nc3nn12)c1ccc(-c2c3nc(c(-c4c(F)cccc4F)c4ccc([nH]4)c(-c4c(F)cccc4F)c4nc(c(-c5c(F)cccc5F)c5ccc2[nH]5)C=C4)C=C3)cc1
REMARK SMILES IDX 5 1 4 2 3 3 1 4 2 5 38 7 39 8 91 9 40 10 90 11 41 12 42 13
REMARK SMILES IDX 43 14 84 15 44 16 89 17 83 18 85 19 45 20 88 21 82 22 81 23
REMARK SMILES IDX 46 25 72 26 55 27 71 28 56 29 59 30 70 31 86 32 57 33 58 34
REMARK SMILES IDX 69 36 87 37 60 38 47 39 48 40 53 41 49 42 50 43 52 44 54 45
REMARK SMILES IDX 51 46 73 47 74 48 79 49 75 50 76 51 78 52 80 53 77 54 61 55
REMARK SMILES IDX 62 56 67 57 63 58 64 59 66 60 68 61 65 62 6 63 7 64 8 65
REMARK SMILES IDX 9 66 10 68 11 69 12 70 37 71 13 72 22 73 36 74 21 75 23 76
REMARK SMILES IDX 35 77 24 78 34 79 28 80 29 81 14 82 15 83 20 84 16 85 19 86
REMARK SMILES IDX 17 87 18 88 25 89 26 90 27 91 30 92 31 93 32 94 33 95
REMARK H PARENT 3 6 85 24 59 35 8 67
REMARK Flexibility Score: inf
ROOT
ATOM      1  C   UNL A   1      42.095  25.877  35.907  1.00  0.00     0.023 C 
ENDROOT
BRANCH   1   2
ATOM      2  C   UNL A   1      41.939  24.434  35.439  1.00  0.00     0.116 C 
BRANCH   2   3
ATOM      3  N   UNL A   1      42.997  23.579  35.947  1.00  0.00    -0.352 N 
ATOM      4  O   UNL A   1      44.999  22.515  35.824  1.00  0.00    -0.269 OA
ATOM      5  C   UNL A   1      44.231  23.344  35.380  1.00  0.00     0.251 C 
ATOM      6  H   UNL A   1      42.812  23.114  36.795  1.00  0.00     0.163 HD
BRANCH   5   7
ATOM      7  C   UNL A   1      44.581  24.129  34.182  1.00  0.00     0.039 A 
ATOM      8  C   UNL A   1      45.274  25.336  34.326  1.00  0.00     0.014 A 
ATOM      9  C   UNL A   1      44.124  23.698  32.937  1.00  0.00     0.014 A 
ATOM     10  C   UNL A   1      45.452  26.156  33.219  1.00  0.00     0.010 A 
ATOM     11  C   UNL A   1      44.323  24.512  31.826  1.00  0.00     0.010 A 
ATOM     12  C   UNL A   1      44.979  25.747  31.963  1.00  0.00    -0.014 A 
BRANCH  12  13
ATOM     13  C   UNL A   1      45.282  26.596  30.801  1.00  0.00     0.031 A 
ATOM     14  C   UNL A   1      45.301  25.889  29.490  1.00  0.00     0.074 A 
ATOM     15  C   UNL A   1      45.063  27.925  30.794  1.00  0.00     0.049 A 
ATOM     16  N   UNL A   1      44.221  25.688  28.794  1.00  0.00    -0.248 NA
ATOM     17  C   UNL A   1      46.467  25.147  29.013  1.00  0.00     0.031 C 
ATOM     18  C   UNL A   1      44.059  28.601  31.622  1.00  0.00     0.029 A 
ATOM     19  N   UNL A   1      45.493  28.895  29.918  1.00  0.00    -0.354 N 
ATOM     20  C   UNL A   1      44.524  24.732  27.846  1.00  0.00     0.074 A 
ATOM     21  C   UNL A   1      45.938  24.454  27.991  1.00  0.00     0.031 C 
ATOM     22  C   UNL A   1      43.819  29.819  31.093  1.00  0.00     0.029 A 
ATOM     23  C   UNL A   1      44.765  30.077  30.010  1.00  0.00     0.049 A 
ATOM     24  H   UNL A   1      46.241  28.766  29.290  1.00  0.00     0.167 HD
ATOM     25  C   UNL A   1      43.590  24.188  27.025  1.00  0.00     0.037 A 
ATOM     26  C   UNL A   1      44.522  30.936  28.984  1.00  0.00     0.037 A 
ATOM     27  C   UNL A   1      42.250  24.660  27.195  1.00  0.00     0.049 A 
ATOM     28  C   UNL A   1      43.713  30.094  28.038  1.00  0.00     0.074 A 
ATOM     29  C   UNL A   1      41.125  24.266  27.887  1.00  0.00     0.029 A 
ATOM     30  N   UNL A   1      41.896  25.838  26.586  1.00  0.00    -0.354 N 
ATOM     31  N   UNL A   1      42.428  29.882  28.115  1.00  0.00    -0.248 NA
ATOM     32  C   UNL A   1      44.429  29.191  27.133  1.00  0.00     0.031 C 
ATOM     33  C   UNL A   1      40.321  25.442  28.015  1.00  0.00     0.029 A 
ATOM     34  C   UNL A   1      41.042  26.487  27.442  1.00  0.00     0.049 A 
ATOM     35  H   UNL A   1      42.196  26.157  25.704  1.00  0.00     0.167 HD
ATOM     36  C   UNL A   1      42.219  28.655  27.484  1.00  0.00     0.074 A 
ATOM     37  C   UNL A   1      43.481  28.303  26.867  1.00  0.00     0.031 C 
ATOM     38  C   UNL A   1      41.090  27.912  27.664  1.00  0.00     0.037 A 
BRANCH  25  39
ATOM     39  C   UNL A   1      43.877  23.230  25.947  1.00  0.00     0.057 A 
ATOM     40  C   UNL A   1      44.590  23.584  24.801  1.00  0.00     0.134 A 
ATOM     41  C   UNL A   1      43.628  21.872  26.178  1.00  0.00     0.134 A 
ATOM     42  F   UNL A   1      44.869  24.870  24.540  1.00  0.00    -0.206 F 
ATOM     43  C   UNL A   1      45.078  22.607  23.932  1.00  0.00     0.040 A 
ATOM     44  C   UNL A   1      44.114  20.888  25.323  1.00  0.00     0.040 A 
ATOM     45  F   UNL A   1      42.953  21.489  27.275  1.00  0.00    -0.206 F 
ATOM     46  C   UNL A   1      44.856  21.255  24.202  1.00  0.00     0.006 A 
ENDBRANCH  25  39
BRANCH  26  47
ATOM     47  C   UNL A   1      45.672  31.780  28.538  1.00  0.00     0.057 A 
ATOM     48  C   UNL A   1      46.927  31.836  29.160  1.00  0.00     0.134 A 
ATOM     49  C   UNL A   1      45.537  32.560  27.373  1.00  0.00     0.134 A 
ATOM     50  F   UNL A   1      47.221  31.054  30.208  1.00  0.00    -0.206 F 
ATOM     51  C   UNL A   1      47.938  32.702  28.728  1.00  0.00     0.040 A 
ATOM     52  C   UNL A   1      46.545  33.414  26.917  1.00  0.00     0.040 A 
ATOM     53  F   UNL A   1      44.414  32.498  26.639  1.00  0.00    -0.206 F 
ATOM     54  C   UNL A   1      47.744  33.506  27.611  1.00  0.00     0.006 A 
ENDBRANCH  26  47
BRANCH  38  55
ATOM     55  C   UNL A   1      39.990  28.602  28.392  1.00  0.00     0.057 A 
ATOM     56  C   UNL A   1      39.029  29.376  27.728  1.00  0.00     0.134 A 
ATOM     57  C   UNL A   1      39.884  28.488  29.782  1.00  0.00     0.134 A 
ATOM     58  F   UNL A   1      39.053  29.513  26.393  1.00  0.00    -0.206 F 
ATOM     59  C   UNL A   1      38.020  30.040  28.428  1.00  0.00     0.040 A 
ATOM     60  C   UNL A   1      38.867  29.130  30.489  1.00  0.00     0.040 A 
ATOM     61  F   UNL A   1      40.778  27.766  30.476  1.00  0.00    -0.206 F 
ATOM     62  C   UNL A   1      37.936  29.916  29.812  1.00  0.00     0.006 A 
ENDBRANCH  38  55
ENDBRANCH  12  13
ENDBRANCH   5   7
ENDBRANCH   2   3
ENDBRANCH   1   2
BRANCH   1  63
ATOM     63  C   UNL A   1      41.798  26.921  34.828  1.00  0.00     0.023 C 
BRANCH  63  64
ATOM     64  C   UNL A   1      42.684  28.165  34.873  1.00  0.00     0.116 C 
BRANCH  64  65
ATOM     65  N   UNL A   1      42.467  28.977  36.061  1.00  0.00    -0.351 N 
ATOM     66  C   UNL A   1      42.039  30.266  36.159  1.00  0.00     0.270 C 
ATOM     67  H   UNL A   1      42.656  28.530  36.918  1.00  0.00     0.163 HD
ATOM     68  O   UNL A   1      41.921  30.791  37.263  1.00  0.00    -0.268 OA
BRANCH  66  69
ATOM     69  C   UNL A   1      41.840  31.049  34.929  1.00  0.00     0.134 A 
ATOM     70  C   UNL A   1      40.562  31.251  34.582  1.00  0.00     0.063 A 
ATOM     71  N   UNL A   1      42.878  31.577  34.169  1.00  0.00    -0.207 N 
ATOM     72  C   UNL A   1      40.358  32.061  33.351  1.00  0.00     0.075 A 
ATOM     73  C   UNL A   1      42.596  32.395  33.056  1.00  0.00     0.166 A 
ATOM     74  N   UNL A   1      44.210  31.444  34.385  1.00  0.00    -0.145 NA
ATOM     75  N   UNL A   1      41.304  32.594  32.630  1.00  0.00    -0.228 NA
ATOM     76  C   UNL A   1      43.823  32.892  32.658  1.00  0.00     0.069 A 
ATOM     77  C   UNL A   1      44.775  32.269  33.517  1.00  0.00     0.184 A 
ATOM     78  C   UNL A   1      44.099  33.834  31.656  1.00  0.00    -0.028 A 
ATOM     79  N   UNL A   1      46.101  32.527  33.453  1.00  0.00    -0.222 NA
ATOM     80  C   UNL A   1      45.488  34.086  31.626  1.00  0.00     0.038 A 
ATOM     81  C   UNL A   1      46.425  33.448  32.491  1.00  0.00     0.147 A 
BRANCH  72  82
ATOM     82  C   UNL A   1      38.939  32.205  32.960  1.00  0.00     0.000 A 
ATOM     83  C   UNL A   1      38.605  33.109  31.949  1.00  0.00     0.012 A 
ATOM     84  C   UNL A   1      37.961  31.384  33.536  1.00  0.00     0.012 A 
ATOM     85  C   UNL A   1      37.288  33.170  31.488  1.00  0.00     0.021 A 
ATOM     86  C   UNL A   1      36.645  31.456  33.078  1.00  0.00     0.021 A 
ATOM     87  C   UNL A   1      36.315  32.340  32.050  1.00  0.00     0.041 A 
ATOM     88  Cl  UNL A   1      34.700  32.398  31.463  1.00  0.00    -0.084 Cl
ENDBRANCH  72  82
BRANCH  78  89
ATOM     89  C   UNL A   1      43.045  34.452  30.794  1.00  0.00     0.020 C 
ATOM     90  C   UNL A   1      43.346  35.039  29.434  1.00  0.00     0.009 C 
ATOM     91  C   UNL A   1      42.623  33.730  29.535  1.00  0.00     0.009 C 
ENDBRANCH  78  89
BRANCH  81  92
ATOM     92  C   UNL A   1      47.900  33.823  32.373  1.00  0.00     0.433 C 
ATOM     93  F   UNL A   1      48.146  34.668  31.331  1.00  0.00    -0.165 F 
ATOM     94  F   UNL A   1      48.390  34.439  33.486  1.00  0.00    -0.165 F 
ATOM     95  F   UNL A   1      48.718  32.747  32.166  1.00  0.00    -0.165 F 
ENDBRANCH  81  92
ENDBRANCH  66  69
ENDBRANCH  64  65
ENDBRANCH  63  64
ENDBRANCH   1  63
TORSDOF 14
ENDMDL
MODEL 3
REMARK VINA RESULT:     -12.0      7.641     13.373
REMARK SMILES O=C(NCCCCNC(=O)c1cc(-c2ccc(Cl)cc2)nc2c3c(C4CC4)cc(C(F)(F)F)nc3nn12)c1ccc(-c2c3nc(c(-c4c(F)cccc4F)c4ccc([nH]4)c(-c4c(F)cccc4F)c4nc(c(-c5c(F)cccc5F)c5ccc2[nH]5)C=C4)C=C3)cc1
REMARK SMILES IDX 5 1 4 2 3 3 1 4 2 5 38 7 39 8 91 9 40 10 90 11 41 12 42 13
REMARK SMILES IDX 43 14 84 15 44 16 89 17 83 18 85 19 45 20 88 21 82 22 81 23
REMARK SMILES IDX 46 25 72 26 55 27 71 28 56 29 59 30 70 31 86 32 57 33 58 34
REMARK SMILES IDX 69 36 87 37 60 38 47 39 48 40 53 41 49 42 50 43 52 44 54 45
REMARK SMILES IDX 51 46 73 47 74 48 79 49 75 50 76 51 78 52 80 53 77 54 61 55
REMARK SMILES IDX 62 56 67 57 63 58 64 59 66 60 68 61 65 62 6 63 7 64 8 65
REMARK SMILES IDX 9 66 10 68 11 69 12 70 37 71 13 72 22 73 36 74 21 75 23 76
REMARK SMILES IDX 35 77 24 78 34 79 28 80 29 81 14 82 15 83 20 84 16 85 19 86
REMARK SMILES IDX 17 87 18 88 25 89 26 90 27 91 30 92 31 93 32 94 33 95
REMARK H PARENT 3 6 85 24 59 35 8 67
REMARK Flexibility Score: inf
ROOT
ATOM      1  C   UNL A   1      49.368  28.179  28.030  1.00  0.00     0.023 C 
ENDROOT
BRANCH   1   2
ATOM      2  C   UNL A   1      48.616  29.394  28.564  1.00  0.00     0.116 C 
BRANCH   2   3
ATOM      3  N   UNL A   1      48.622  30.497  27.619  1.00  0.00    -0.352 N 
ATOM      4  O   UNL A   1      47.640  32.090  26.333  1.00  0.00    -0.269 OA
ATOM      5  C   UNL A   1      47.550  31.267  27.222  1.00  0.00     0.251 C 
ATOM      6  H   UNL A   1      49.492  30.722  27.217  1.00  0.00     0.163 HD
BRANCH   5   7
ATOM      7  C   UNL A   1      46.265  31.037  27.909  1.00  0.00     0.039 A 
ATOM      8  C   UNL A   1      45.193  30.486  27.200  1.00  0.00     0.014 A 
ATOM      9  C   UNL A   1      46.120  31.469  29.226  1.00  0.00     0.014 A 
ATOM     10  C   UNL A   1      43.940  30.429  27.796  1.00  0.00     0.010 A 
ATOM     11  C   UNL A   1      44.867  31.391  29.827  1.00  0.00     0.010 A 
ATOM     12  C   UNL A   1      43.771  30.879  29.113  1.00  0.00    -0.014 A 
BRANCH  12  13
ATOM     13  C   UNL A   1      42.452  30.703  29.740  1.00  0.00     0.031 A 
ATOM     14  C   UNL A   1      42.341  29.536  30.659  1.00  0.00     0.074 A 
ATOM     15  C   UNL A   1      41.585  31.720  29.910  1.00  0.00     0.049 A 
ATOM     16  N   UNL A   1      42.691  29.602  31.910  1.00  0.00    -0.248 NA
ATOM     17  C   UNL A   1      42.083  28.180  30.180  1.00  0.00     0.031 C 
ATOM     18  C   UNL A   1      41.977  33.129  30.024  1.00  0.00     0.029 A 
ATOM     19  N   UNL A   1      40.251  31.708  30.244  1.00  0.00    -0.354 N 
ATOM     20  C   UNL A   1      42.793  28.304  32.369  1.00  0.00     0.074 A 
ATOM     21  C   UNL A   1      42.368  27.455  31.275  1.00  0.00     0.031 C 
ATOM     22  C   UNL A   1      40.956  33.812  30.581  1.00  0.00     0.029 A 
ATOM     23  C   UNL A   1      39.790  32.940  30.697  1.00  0.00     0.049 A 
ATOM     24  H   UNL A   1      39.680  30.909  30.170  1.00  0.00     0.167 HD
ATOM     25  C   UNL A   1      43.263  27.995  33.603  1.00  0.00     0.037 A 
ATOM     26  C   UNL A   1      38.797  33.125  31.608  1.00  0.00     0.037 A 
ATOM     27  C   UNL A   1      43.659  29.100  34.422  1.00  0.00     0.049 A 
ATOM     28  C   UNL A   1      39.364  32.483  32.843  1.00  0.00     0.074 A 
ATOM     29  C   UNL A   1      44.828  29.772  34.709  1.00  0.00     0.029 A 
ATOM     30  N   UNL A   1      42.684  29.775  35.116  1.00  0.00    -0.354 N 
ATOM     31  N   UNL A   1      40.188  33.045  33.684  1.00  0.00    -0.248 NA
ATOM     32  C   UNL A   1      39.244  31.030  32.983  1.00  0.00     0.031 C 
ATOM     33  C   UNL A   1      44.425  31.057  35.189  1.00  0.00     0.029 A 
ATOM     34  C   UNL A   1      43.035  31.102  35.104  1.00  0.00     0.049 A 
ATOM     35  H   UNL A   1      41.887  29.383  35.540  1.00  0.00     0.167 HD
ATOM     36  C   UNL A   1      40.891  31.991  34.271  1.00  0.00     0.074 A 
ATOM     37  C   UNL A   1      40.235  30.779  33.828  1.00  0.00     0.031 C 
ATOM     38  C   UNL A   1      42.075  32.163  34.924  1.00  0.00     0.037 A 
BRANCH  25  39
ATOM     39  C   UNL A   1      43.312  26.638  34.167  1.00  0.00     0.057 A 
ATOM     40  C   UNL A   1      44.494  25.901  34.241  1.00  0.00     0.134 A 
ATOM     41  C   UNL A   1      42.191  26.161  34.855  1.00  0.00     0.134 A 
ATOM     42  F   UNL A   1      45.602  26.321  33.613  1.00  0.00    -0.206 F 
ATOM     43  C   UNL A   1      44.567  24.742  35.016  1.00  0.00     0.040 A 
ATOM     44  C   UNL A   1      42.251  25.010  35.635  1.00  0.00     0.040 A 
ATOM     45  F   UNL A   1      41.035  26.846  34.816  1.00  0.00    -0.206 F 
ATOM     46  C   UNL A   1      43.449  24.304  35.729  1.00  0.00     0.006 A 
ENDBRANCH  25  39
BRANCH  26  47
ATOM     47  C   UNL A   1      37.403  32.874  31.131  1.00  0.00     0.057 A 
ATOM     48  C   UNL A   1      36.311  32.552  31.949  1.00  0.00     0.134 A 
ATOM     49  C   UNL A   1      37.114  33.014  29.760  1.00  0.00     0.134 A 
ATOM     50  F   UNL A   1      36.428  32.504  33.282  1.00  0.00    -0.206 F 
ATOM     51  C   UNL A   1      35.045  32.263  31.426  1.00  0.00     0.040 A 
ATOM     52  C   UNL A   1      35.850  32.750  29.225  1.00  0.00     0.040 A 
ATOM     53  F   UNL A   1      38.063  33.426  28.903  1.00  0.00    -0.206 F 
ATOM     54  C   UNL A   1      34.814  32.348  30.058  1.00  0.00     0.006 A 
ENDBRANCH  26  47
BRANCH  38  55
ATOM     55  C   UNL A   1      42.457  33.580  35.178  1.00  0.00     0.057 A 
ATOM     56  C   UNL A   1      43.183  34.332  34.247  1.00  0.00     0.134 A 
ATOM     57  C   UNL A   1      42.088  34.206  36.373  1.00  0.00     0.134 A 
ATOM     58  F   UNL A   1      43.553  33.806  33.069  1.00  0.00    -0.206 F 
ATOM     59  C   UNL A   1      43.558  35.651  34.511  1.00  0.00     0.040 A 
ATOM     60  C   UNL A   1      42.438  35.530  36.639  1.00  0.00     0.040 A 
ATOM     61  F   UNL A   1      41.397  33.535  37.309  1.00  0.00    -0.206 F 
ATOM     62  C   UNL A   1      43.183  36.254  35.710  1.00  0.00     0.006 A 
ENDBRANCH  38  55
ENDBRANCH  12  13
ENDBRANCH   5   7
ENDBRANCH   2   3
ENDBRANCH   1   2
BRANCH   1  63
ATOM     63  C   UNL A   1      48.505  26.926  27.874  1.00  0.00     0.023 C 
BRANCH  63  64
ATOM     64  C   UNL A   1      47.053  27.188  27.474  1.00  0.00     0.116 C 
BRANCH  64  65
ATOM     65  N   UNL A   1      46.911  27.606  26.088  1.00  0.00    -0.351 N 
ATOM     66  C   UNL A   1      45.881  27.390  25.222  1.00  0.00     0.270 C 
ATOM     67  H   UNL A   1      47.667  28.120  25.722  1.00  0.00     0.163 HD
ATOM     68  O   UNL A   1      45.946  27.821  24.074  1.00  0.00    -0.268 OA
BRANCH  66  69
ATOM     69  C   UNL A   1      44.760  26.536  25.644  1.00  0.00     0.134 A 
ATOM     70  C   UNL A   1      43.639  27.191  25.973  1.00  0.00     0.063 A 
ATOM     71  N   UNL A   1      44.816  25.147  25.687  1.00  0.00    -0.207 N 
ATOM     72  C   UNL A   1      42.495  26.328  26.379  1.00  0.00     0.075 A 
ATOM     73  C   UNL A   1      43.664  24.402  26.014  1.00  0.00     0.166 A 
ATOM     74  N   UNL A   1      45.877  24.355  25.400  1.00  0.00    -0.145 NA
ATOM     75  N   UNL A   1      42.503  25.025  26.405  1.00  0.00    -0.228 NA
ATOM     76  C   UNL A   1      44.013  23.086  25.780  1.00  0.00     0.069 A 
ATOM     77  C   UNL A   1      45.387  23.124  25.404  1.00  0.00     0.184 A 
ATOM     78  C   UNL A   1      43.203  21.942  25.853  1.00  0.00    -0.028 A 
ATOM     79  N   UNL A   1      46.087  22.018  25.066  1.00  0.00    -0.222 NA
ATOM     80  C   UNL A   1      43.963  20.811  25.485  1.00  0.00     0.038 A 
ATOM     81  C   UNL A   1      45.339  20.871  25.116  1.00  0.00     0.147 A 
BRANCH  72  82
ATOM     82  C   UNL A   1      41.297  27.086  26.802  1.00  0.00     0.000 A 
ATOM     83  C   UNL A   1      40.333  26.443  27.581  1.00  0.00     0.012 A 
ATOM     84  C   UNL A   1      41.179  28.447  26.497  1.00  0.00     0.012 A 
ATOM     85  C   UNL A   1      39.256  27.177  28.086  1.00  0.00     0.021 A 
ATOM     86  C   UNL A   1      40.097  29.174  26.997  1.00  0.00     0.021 A 
ATOM     87  C   UNL A   1      39.146  28.538  27.797  1.00  0.00     0.041 A 
ATOM     88  Cl  UNL A   1      37.835  29.445  28.442  1.00  0.00    -0.084 Cl
ENDBRANCH  72  82
BRANCH  78  89
ATOM     89  C   UNL A   1      41.762  21.979  26.251  1.00  0.00     0.020 C 
ATOM     90  C   UNL A   1      41.001  20.740  26.666  1.00  0.00     0.009 C 
ATOM     91  C   UNL A   1      41.405  21.746  27.701  1.00  0.00     0.009 C 
ENDBRANCH  78  89
BRANCH  81  92
ATOM     92  C   UNL A   1      46.044  19.576  24.717  1.00  0.00     0.433 C 
ATOM     93  F   UNL A   1      47.389  19.737  24.559  1.00  0.00    -0.165 F 
ATOM     94  F   UNL A   1      45.886  18.573  25.626  1.00  0.00    -0.165 F 
ATOM     95  F   UNL A   1      45.600  19.062  23.530  1.00  0.00    -0.165 F 
ENDBRANCH  81  92
ENDBRANCH  66  69
ENDBRANCH  64  65
ENDBRANCH  63  64
ENDBRANCH   1  63
TORSDOF 14
ENDMDL
