MODEL 1
REMARK VINA RESULT:     -11.7      0.000      0.000
REMARK SMILES O=C(NCCCCNC(=O)[C@H]1CS[C@@H](c2cccc(OCc3ccc(Cl)cc3Cl)c2)[NH2+]1)c1ccc(-c2c3nc(c(-c4c(F)cccc4F)c4ccc([nH]4)c(-c4c(F)cccc4F)c4nc(c(-c5c(F)cccc5F)c5ccc2[nH]5)C=C4)C=C3)cc1
REMARK SMILES IDX 6 1 5 2 4 3 3 4 1 5 2 6 32 8 33 9 85 10 34 11 84 12 35 13
REMARK SMILES IDX 36 14 37 15 78 16 38 17 83 18 77 19 79 20 39 21 82 22 76 23
REMARK SMILES IDX 75 24 40 26 66 27 49 28 65 29 50 30 53 31 64 32 80 33 51 34
REMARK SMILES IDX 52 35 63 37 81 38 54 39 41 40 42 41 47 42 43 43 44 44 46 45
REMARK SMILES IDX 48 46 45 47 67 48 68 49 73 50 69 51 70 52 72 53 74 54 71 55
REMARK SMILES IDX 55 56 56 57 61 58 57 59 58 60 60 61 62 62 59 63 7 64 8 65
REMARK SMILES IDX 9 66 10 68 11 69 12 70 31 71 13 72 14 73 15 76 16 77 30 78
REMARK SMILES IDX 17 79 19 80 18 81 20 82 21 83 22 84 23 85 28 86 24 87 27 88
REMARK SMILES IDX 29 89 25 90 26 91
REMARK H PARENT 3 7 79 25 53 36 8 67 31 74 31 75
REMARK Flexibility Score: inf
ROOT
ATOM      1  C   UNL A   1      31.712  28.907  26.279  1.00  0.00     0.023 C 
ENDROOT
BRANCH   1   2
ATOM      2  C   UNL A   1      32.761  27.925  26.799  1.00  0.00     0.023 C 
BRANCH   2   3
ATOM      3  C   UNL A   1      34.079  28.559  27.216  1.00  0.00     0.116 C 
BRANCH   3   4
ATOM      4  N   UNL A   1      33.913  29.912  27.724  1.00  0.00    -0.352 N 
ATOM      5  O   UNL A   1      34.454  31.741  28.931  1.00  0.00    -0.269 OA
ATOM      6  C   UNL A   1      34.804  30.672  28.440  1.00  0.00     0.251 C 
ATOM      7  H   UNL A   1      33.048  30.339  27.527  1.00  0.00     0.163 HD
BRANCH   6   8
ATOM      8  C   UNL A   1      36.186  30.185  28.627  1.00  0.00     0.039 A 
ATOM      9  C   UNL A   1      37.112  30.273  27.583  1.00  0.00     0.014 A 
ATOM     10  C   UNL A   1      36.560  29.646  29.861  1.00  0.00     0.014 A 
ATOM     11  C   UNL A   1      38.379  29.725  27.736  1.00  0.00     0.010 A 
ATOM     12  C   UNL A   1      37.861  29.170  30.040  1.00  0.00     0.010 A 
ATOM     13  C   UNL A   1      38.776  29.202  28.976  1.00  0.00    -0.014 A 
BRANCH  13  14
ATOM     14  C   UNL A   1      40.195  28.824  29.179  1.00  0.00     0.031 A 
ATOM     15  C   UNL A   1      41.189  29.785  29.762  1.00  0.00     0.074 A 
ATOM     16  C   UNL A   1      40.575  27.587  28.806  1.00  0.00     0.049 A 
ATOM     17  N   UNL A   1      42.471  29.617  29.959  1.00  0.00    -0.248 NA
ATOM     18  C   UNL A   1      40.687  31.107  30.171  1.00  0.00     0.031 C 
ATOM     19  C   UNL A   1      39.691  26.581  28.208  1.00  0.00     0.029 A 
ATOM     20  N   UNL A   1      41.794  26.962  28.863  1.00  0.00    -0.354 N 
ATOM     21  C   UNL A   1      42.936  30.811  30.492  1.00  0.00     0.074 A 
ATOM     22  C   UNL A   1      41.800  31.704  30.580  1.00  0.00     0.031 C 
ATOM     23  C   UNL A   1      40.392  25.462  27.972  1.00  0.00     0.029 A 
ATOM     24  C   UNL A   1      41.783  25.694  28.334  1.00  0.00     0.049 A 
ATOM     25  H   UNL A   1      42.598  27.382  29.246  1.00  0.00     0.167 HD
ATOM     26  C   UNL A   1      44.199  31.124  30.869  1.00  0.00     0.037 A 
ATOM     27  C   UNL A   1      42.789  24.827  28.123  1.00  0.00     0.037 A 
ATOM     28  C   UNL A   1      45.314  30.215  30.797  1.00  0.00     0.049 A 
ATOM     29  C   UNL A   1      44.179  25.222  28.518  1.00  0.00     0.074 A 
ATOM     30  C   UNL A   1      46.612  30.410  31.238  1.00  0.00     0.029 A 
ATOM     31  N   UNL A   1      45.269  28.949  30.235  1.00  0.00    -0.354 N 
ATOM     32  N   UNL A   1      44.589  26.327  29.093  1.00  0.00    -0.248 NA
ATOM     33  C   UNL A   1      45.250  24.260  28.228  1.00  0.00     0.031 C 
ATOM     34  C   UNL A   1      47.367  29.286  30.888  1.00  0.00     0.029 A 
ATOM     35  C   UNL A   1      46.528  28.370  30.274  1.00  0.00     0.049 A 
ATOM     36  H   UNL A   1      44.464  28.523  29.864  1.00  0.00     0.167 HD
ATOM     37  C   UNL A   1      45.962  26.191  29.238  1.00  0.00     0.074 A 
ATOM     38  C   UNL A   1      46.310  24.883  28.720  1.00  0.00     0.031 C 
ATOM     39  C   UNL A   1      46.856  27.072  29.746  1.00  0.00     0.037 A 
BRANCH  26  40
ATOM     40  C   UNL A   1      44.467  32.509  31.380  1.00  0.00     0.057 A 
ATOM     41  C   UNL A   1      44.812  33.564  30.527  1.00  0.00     0.134 A 
ATOM     42  C   UNL A   1      44.272  32.811  32.735  1.00  0.00     0.134 A 
ATOM     43  F   UNL A   1      45.017  33.340  29.220  1.00  0.00    -0.206 F 
ATOM     44  C   UNL A   1      44.956  34.869  31.002  1.00  0.00     0.040 A 
ATOM     45  C   UNL A   1      44.393  34.115  33.219  1.00  0.00     0.040 A 
ATOM     46  F   UNL A   1      43.933  31.848  33.605  1.00  0.00    -0.206 F 
ATOM     47  C   UNL A   1      44.735  35.149  32.350  1.00  0.00     0.006 A 
ENDBRANCH  26  40
BRANCH  27  48
ATOM     48  C   UNL A   1      42.521  23.528  27.457  1.00  0.00     0.057 A 
ATOM     49  C   UNL A   1      42.653  23.378  26.072  1.00  0.00     0.134 A 
ATOM     50  C   UNL A   1      42.114  22.406  28.192  1.00  0.00     0.134 A 
ATOM     51  F   UNL A   1      43.023  24.420  25.314  1.00  0.00    -0.206 F 
ATOM     52  C   UNL A   1      42.368  22.167  25.439  1.00  0.00     0.040 A 
ATOM     53  C   UNL A   1      41.857  21.182  27.576  1.00  0.00     0.040 A 
ATOM     54  F   UNL A   1      41.978  22.482  29.524  1.00  0.00    -0.206 F 
ATOM     55  C   UNL A   1      41.973  21.063  26.193  1.00  0.00     0.006 A 
ENDBRANCH  27  48
BRANCH  39  56
ATOM     56  C   UNL A   1      48.293  26.647  29.766  1.00  0.00     0.057 A 
ATOM     57  C   UNL A   1      49.175  27.002  28.736  1.00  0.00     0.134 A 
ATOM     58  C   UNL A   1      48.808  25.908  30.837  1.00  0.00     0.134 A 
ATOM     59  F   UNL A   1      48.737  27.694  27.674  1.00  0.00    -0.206 F 
ATOM     60  C   UNL A   1      50.517  26.622  28.766  1.00  0.00     0.040 A 
ATOM     61  C   UNL A   1      50.154  25.545  30.889  1.00  0.00     0.040 A 
ATOM     62  F   UNL A   1      48.017  25.541  31.855  1.00  0.00    -0.206 F 
ATOM     63  C   UNL A   1      51.011  25.899  29.849  1.00  0.00     0.006 A 
ENDBRANCH  39  56
ENDBRANCH  13  14
ENDBRANCH   6   8
ENDBRANCH   3   4
ENDBRANCH   2   3
ENDBRANCH   1   2
BRANCH   1  64
ATOM     64  C   UNL A   1      31.885  29.339  24.825  1.00  0.00     0.116 C 
BRANCH  64  65
ATOM     65  N   UNL A   1      30.679  29.953  24.306  1.00  0.00    -0.351 N 
ATOM     66  C   UNL A   1      29.778  29.504  23.391  1.00  0.00     0.279 C 
ATOM     67  H   UNL A   1      30.479  30.842  24.677  1.00  0.00     0.163 HD
ATOM     68  O   UNL A   1      28.883  30.281  23.046  1.00  0.00    -0.268 OA
BRANCH  66  69
ATOM     69  C   UNL A   1      29.876  28.092  22.791  1.00  0.00     0.283 C 
ATOM     70  C   UNL A   1      31.200  27.968  22.029  1.00  0.00     0.151 C 
ATOM     71  N   UNL A   1      29.825  27.112  23.904  1.00  0.00    -0.321 N 
ATOM     72  S   UNL A   1      31.888  26.354  22.469  1.00  0.00    -0.088 SA
ATOM     73  C   UNL A   1      30.438  25.872  23.420  1.00  0.00     0.274 C 
ATOM     74  H   UNL A   1      28.856  26.941  24.173  1.00  0.00     0.348 HD
ATOM     75  H   UNL A   1      30.322  27.467  24.721  1.00  0.00     0.348 HD
BRANCH  73  76
ATOM     76  C   UNL A   1      30.636  24.897  24.565  1.00  0.00     0.024 A 
ATOM     77  C   UNL A   1      30.269  25.136  25.895  1.00  0.00     0.011 A 
ATOM     78  C   UNL A   1      31.163  23.628  24.243  1.00  0.00     0.057 A 
ATOM     79  C   UNL A   1      30.430  24.142  26.865  1.00  0.00     0.004 A 
ATOM     80  C   UNL A   1      31.267  22.610  25.188  1.00  0.00     0.120 A 
ATOM     81  C   UNL A   1      30.918  22.885  26.508  1.00  0.00     0.046 A 
BRANCH  80  82
ATOM     82  O   UNL A   1      31.664  21.325  24.949  1.00  0.00    -0.489 OA
BRANCH  82  83
ATOM     83  C   UNL A   1      32.714  21.072  24.009  1.00  0.00     0.267 C 
BRANCH  83  84
ATOM     84  C   UNL A   1      34.065  21.639  24.398  1.00  0.00     0.008 A 
ATOM     85  C   UNL A   1      34.723  21.100  25.519  1.00  0.00     0.010 A 
ATOM     86  C   UNL A   1      34.686  22.689  23.703  1.00  0.00     0.049 A 
ATOM     87  C   UNL A   1      35.923  21.644  25.971  1.00  0.00     0.021 A 
ATOM     88  C   UNL A   1      35.890  23.235  24.161  1.00  0.00     0.041 A 
ATOM     89  Cl  UNL A   1      34.018  23.339  22.250  1.00  0.00    -0.084 Cl
ATOM     90  C   UNL A   1      36.493  22.721  25.304  1.00  0.00     0.042 A 
ATOM     91  Cl  UNL A   1      37.953  23.412  25.897  1.00  0.00    -0.084 Cl
ENDBRANCH  83  84
ENDBRANCH  82  83
ENDBRANCH  80  82
ENDBRANCH  73  76
ENDBRANCH  66  69
ENDBRANCH  64  65
ENDBRANCH   1  64
TORSDOF 15
ENDMDL
MODEL 2
REMARK VINA RESULT:     -11.6      4.576      9.427
REMARK SMILES O=C(NCCCCNC(=O)[C@H]1CS[C@@H](c2cccc(OCc3ccc(Cl)cc3Cl)c2)[NH2+]1)c1ccc(-c2c3nc(c(-c4c(F)cccc4F)c4ccc([nH]4)c(-c4c(F)cccc4F)c4nc(c(-c5c(F)cccc5F)c5ccc2[nH]5)C=C4)C=C3)cc1
REMARK SMILES IDX 6 1 5 2 4 3 3 4 1 5 2 6 32 8 33 9 85 10 34 11 84 12 35 13
REMARK SMILES IDX 36 14 37 15 78 16 38 17 83 18 77 19 79 20 39 21 82 22 76 23
REMARK SMILES IDX 75 24 40 26 66 27 49 28 65 29 50 30 53 31 64 32 80 33 51 34
REMARK SMILES IDX 52 35 63 37 81 38 54 39 41 40 42 41 47 42 43 43 44 44 46 45
REMARK SMILES IDX 48 46 45 47 67 48 68 49 73 50 69 51 70 52 72 53 74 54 71 55
REMARK SMILES IDX 55 56 56 57 61 58 57 59 58 60 60 61 62 62 59 63 7 64 8 65
REMARK SMILES IDX 9 66 10 68 11 69 12 70 31 71 13 72 14 73 15 76 16 77 30 78
REMARK SMILES IDX 17 79 19 80 18 81 20 82 21 83 22 84 23 85 28 86 24 87 27 88
REMARK SMILES IDX 29 89 25 90 26 91
REMARK H PARENT 3 7 79 25 53 36 8 67 31 74 31 75
REMARK Flexibility Score: inf
ROOT
ATOM      1  C   UNL A   1      40.666  21.259  26.648  1.00  0.00     0.023 C 
ENDROOT
BRANCH   1   2
ATOM      2  C   UNL A   1      40.844  22.276  27.775  1.00  0.00     0.023 C 
BRANCH   2   3
ATOM      3  C   UNL A   1      41.951  23.294  27.549  1.00  0.00     0.116 C 
BRANCH   3   4
ATOM      4  N   UNL A   1      41.792  24.025  26.301  1.00  0.00    -0.352 N 
ATOM      5  O   UNL A   1      41.121  25.730  24.983  1.00  0.00    -0.269 OA
ATOM      6  C   UNL A   1      41.346  25.310  26.114  1.00  0.00     0.251 C 
ATOM      7  H   UNL A   1      42.037  23.534  25.484  1.00  0.00     0.163 HD
BRANCH   6   8
ATOM      8  C   UNL A   1      41.127  26.180  27.287  1.00  0.00     0.039 A 
ATOM      9  C   UNL A   1      42.009  27.228  27.563  1.00  0.00     0.014 A 
ATOM     10  C   UNL A   1      40.023  25.949  28.112  1.00  0.00     0.014 A 
ATOM     11  C   UNL A   1      41.850  27.978  28.721  1.00  0.00     0.010 A 
ATOM     12  C   UNL A   1      39.817  26.758  29.232  1.00  0.00     0.010 A 
ATOM     13  C   UNL A   1      40.733  27.774  29.546  1.00  0.00    -0.014 A 
BRANCH  13  14
ATOM     14  C   UNL A   1      40.468  28.726  30.651  1.00  0.00     0.031 A 
ATOM     15  C   UNL A   1      39.408  29.782  30.541  1.00  0.00     0.074 A 
ATOM     16  C   UNL A   1      41.225  28.626  31.761  1.00  0.00     0.049 A 
ATOM     17  N   UNL A   1      39.089  30.713  31.403  1.00  0.00    -0.248 NA
ATOM     18  C   UNL A   1      38.606  29.805  29.308  1.00  0.00     0.031 C 
ATOM     19  C   UNL A   1      42.298  27.647  31.961  1.00  0.00     0.029 A 
ATOM     20  N   UNL A   1      41.219  29.351  32.924  1.00  0.00    -0.354 N 
ATOM     21  C   UNL A   1      38.069  31.447  30.813  1.00  0.00     0.074 A 
ATOM     22  C   UNL A   1      37.826  30.860  29.512  1.00  0.00     0.031 C 
ATOM     23  C   UNL A   1      42.833  27.820  33.178  1.00  0.00     0.029 A 
ATOM     24  C   UNL A   1      42.192  28.963  33.814  1.00  0.00     0.049 A 
ATOM     25  H   UNL A   1      40.581  30.079  33.104  1.00  0.00     0.167 HD
ATOM     26  C   UNL A   1      37.404  32.512  31.319  1.00  0.00     0.037 A 
ATOM     27  C   UNL A   1      42.558  29.494  34.994  1.00  0.00     0.037 A 
ATOM     28  C   UNL A   1      37.642  33.070  32.626  1.00  0.00     0.049 A 
ATOM     29  C   UNL A   1      41.823  30.696  35.505  1.00  0.00     0.074 A 
ATOM     30  C   UNL A   1      36.959  34.092  33.262  1.00  0.00     0.029 A 
ATOM     31  N   UNL A   1      38.650  32.665  33.488  1.00  0.00    -0.354 N 
ATOM     32  N   UNL A   1      40.809  31.330  34.969  1.00  0.00    -0.248 NA
ATOM     33  C   UNL A   1      42.288  31.265  36.777  1.00  0.00     0.031 C 
ATOM     34  C   UNL A   1      37.590  34.346  34.483  1.00  0.00     0.029 A 
ATOM     35  C   UNL A   1      38.637  33.450  34.630  1.00  0.00     0.049 A 
ATOM     36  H   UNL A   1      39.280  31.930  33.316  1.00  0.00     0.167 HD
ATOM     37  C   UNL A   1      40.510  32.369  35.840  1.00  0.00     0.074 A 
ATOM     38  C   UNL A   1      41.430  32.259  36.953  1.00  0.00     0.031 C 
ATOM     39  C   UNL A   1      39.565  33.332  35.723  1.00  0.00     0.037 A 
BRANCH  26  40
ATOM     40  C   UNL A   1      36.361  33.172  30.465  1.00  0.00     0.057 A 
ATOM     41  C   UNL A   1      36.696  34.023  29.405  1.00  0.00     0.134 A 
ATOM     42  C   UNL A   1      35.005  32.865  30.643  1.00  0.00     0.134 A 
ATOM     43  F   UNL A   1      37.975  34.360  29.184  1.00  0.00    -0.206 F 
ATOM     44  C   UNL A   1      35.720  34.546  28.554  1.00  0.00     0.040 A 
ATOM     45  C   UNL A   1      34.022  33.365  29.788  1.00  0.00     0.040 A 
ATOM     46  F   UNL A   1      34.617  32.049  31.636  1.00  0.00    -0.206 F 
ATOM     47  C   UNL A   1      34.380  34.208  28.738  1.00  0.00     0.006 A 
ENDBRANCH  26  40
BRANCH  27  48
ATOM     48  C   UNL A   1      43.708  28.923  35.739  1.00  0.00     0.057 A 
ATOM     49  C   UNL A   1      45.010  29.396  35.543  1.00  0.00     0.134 A 
ATOM     50  C   UNL A   1      43.531  27.881  36.659  1.00  0.00     0.134 A 
ATOM     51  F   UNL A   1      45.244  30.381  34.664  1.00  0.00    -0.206 F 
ATOM     52  C   UNL A   1      46.097  28.838  36.216  1.00  0.00     0.040 A 
ATOM     53  C   UNL A   1      44.605  27.335  37.362  1.00  0.00     0.040 A 
ATOM     54  F   UNL A   1      42.306  27.389  36.899  1.00  0.00    -0.206 F 
ATOM     55  C   UNL A   1      45.895  27.807  37.133  1.00  0.00     0.006 A 
ENDBRANCH  27  48
BRANCH  39  56
ATOM     56  C   UNL A   1      39.482  34.339  36.830  1.00  0.00     0.057 A 
ATOM     57  C   UNL A   1      38.799  34.061  38.022  1.00  0.00     0.134 A 
ATOM     58  C   UNL A   1      40.115  35.582  36.718  1.00  0.00     0.134 A 
ATOM     59  F   UNL A   1      38.157  32.895  38.181  1.00  0.00    -0.206 F 
ATOM     60  C   UNL A   1      38.739  34.993  39.059  1.00  0.00     0.040 A 
ATOM     61  C   UNL A   1      40.083  36.511  37.758  1.00  0.00     0.040 A 
ATOM     62  F   UNL A   1      40.788  35.907  35.604  1.00  0.00    -0.206 F 
ATOM     63  C   UNL A   1      39.389  36.218  38.931  1.00  0.00     0.006 A 
ENDBRANCH  39  56
ENDBRANCH  13  14
ENDBRANCH   6   8
ENDBRANCH   3   4
ENDBRANCH   2   3
ENDBRANCH   1   2
BRANCH   1  64
ATOM     64  C   UNL A   1      39.353  21.362  25.876  1.00  0.00     0.116 C 
BRANCH  64  65
ATOM     65  N   UNL A   1      38.596  22.533  26.268  1.00  0.00    -0.351 N 
ATOM     66  C   UNL A   1      37.422  23.031  25.795  1.00  0.00     0.279 C 
ATOM     67  H   UNL A   1      38.998  23.057  26.998  1.00  0.00     0.163 HD
ATOM     68  O   UNL A   1      37.043  24.118  26.242  1.00  0.00    -0.268 OA
BRANCH  66  69
ATOM     69  C   UNL A   1      36.602  22.283  24.731  1.00  0.00     0.283 C 
ATOM     70  C   UNL A   1      36.031  21.003  25.355  1.00  0.00     0.151 C 
ATOM     71  N   UNL A   1      35.505  23.173  24.280  1.00  0.00    -0.321 N 
ATOM     72  S   UNL A   1      34.314  20.893  24.798  1.00  0.00    -0.088 SA
ATOM     73  C   UNL A   1      34.458  22.321  23.712  1.00  0.00     0.274 C 
ATOM     74  H   UNL A   1      35.851  23.820  23.572  1.00  0.00     0.348 HD
ATOM     75  H   UNL A   1      35.142  23.723  25.060  1.00  0.00     0.348 HD
BRANCH  73  76
ATOM     76  C   UNL A   1      33.204  23.130  23.441  1.00  0.00     0.024 A 
ATOM     77  C   UNL A   1      31.910  22.761  23.830  1.00  0.00     0.011 A 
ATOM     78  C   UNL A   1      33.372  24.383  22.812  1.00  0.00     0.057 A 
ATOM     79  C   UNL A   1      30.828  23.613  23.593  1.00  0.00     0.004 A 
ATOM     80  C   UNL A   1      32.311  25.266  22.631  1.00  0.00     0.120 A 
ATOM     81  C   UNL A   1      31.032  24.861  23.005  1.00  0.00     0.046 A 
BRANCH  80  82
ATOM     82  O   UNL A   1      32.395  26.535  22.132  1.00  0.00    -0.489 OA
BRANCH  82  83
ATOM     83  C   UNL A   1      32.598  27.635  23.026  1.00  0.00     0.267 C 
BRANCH  83  84
ATOM     84  C   UNL A   1      31.387  28.524  23.226  1.00  0.00     0.008 A 
ATOM     85  C   UNL A   1      30.299  28.388  22.344  1.00  0.00     0.010 A 
ATOM     86  C   UNL A   1      31.304  29.491  24.240  1.00  0.00     0.049 A 
ATOM     87  C   UNL A   1      29.201  29.240  22.429  1.00  0.00     0.021 A 
ATOM     88  C   UNL A   1      30.200  30.348  24.323  1.00  0.00     0.041 A 
ATOM     89  Cl  UNL A   1      32.532  29.658  25.442  1.00  0.00    -0.084 Cl
ATOM     90  C   UNL A   1      29.163  30.230  23.404  1.00  0.00     0.042 A 
ATOM     91  Cl  UNL A   1      27.820  31.304  23.473  1.00  0.00    -0.084 Cl
ENDBRANCH  83  84
ENDBRANCH  82  83
ENDBRANCH  80  82
ENDBRANCH  73  76
ENDBRANCH  66  69
ENDBRANCH  64  65
ENDBRANCH   1  64
TORSDOF 15
ENDMDL
MODEL 3
REMARK VINA RESULT:     -11.6      5.687     11.082
REMARK SMILES O=C(NCCCCNC(=O)[C@H]1CS[C@@H](c2cccc(OCc3ccc(Cl)cc3Cl)c2)[NH2+]1)c1ccc(-c2c3nc(c(-c4c(F)cccc4F)c4ccc([nH]4)c(-c4c(F)cccc4F)c4nc(c(-c5c(F)cccc5F)c5ccc2[nH]5)C=C4)C=C3)cc1
REMARK SMILES IDX 6 1 5 2 4 3 3 4 1 5 2 6 32 8 33 9 85 10 34 11 84 12 35 13
REMARK SMILES IDX 36 14 37 15 78 16 38 17 83 18 77 19 79 20 39 21 82 22 76 23
REMARK SMILES IDX 75 24 40 26 66 27 49 28 65 29 50 30 53 31 64 32 80 33 51 34
REMARK SMILES IDX 52 35 63 37 81 38 54 39 41 40 42 41 47 42 43 43 44 44 46 45
REMARK SMILES IDX 48 46 45 47 67 48 68 49 73 50 69 51 70 52 72 53 74 54 71 55
REMARK SMILES IDX 55 56 56 57 61 58 57 59 58 60 60 61 62 62 59 63 7 64 8 65
REMARK SMILES IDX 9 66 10 68 11 69 12 70 31 71 13 72 14 73 15 76 16 77 30 78
REMARK SMILES IDX 17 79 19 80 18 81 20 82 21 83 22 84 23 85 28 86 24 87 27 88
REMARK SMILES IDX 29 89 25 90 26 91
REMARK H PARENT 3 7 79 25 53 36 8 67 31 74 31 75
REMARK Flexibility Score: inf
ROOT
ATOM      1  C   UNL A   1      42.277  20.185  27.309  1.00  0.00     0.023 C 
ENDROOT
BRANCH   1   2
ATOM      2  C   UNL A   1      42.001  21.658  27.602  1.00  0.00     0.023 C 
BRANCH   2   3
ATOM      3  C   UNL A   1      41.830  22.534  26.371  1.00  0.00     0.116 C 
BRANCH   3   4
ATOM      4  N   UNL A   1      40.469  22.517  25.857  1.00  0.00    -0.352 N 
ATOM      5  O   UNL A   1      38.300  23.131  25.749  1.00  0.00    -0.269 OA
ATOM      6  C   UNL A   1      39.435  23.373  26.146  1.00  0.00     0.251 C 
ATOM      7  H   UNL A   1      40.262  21.797  25.219  1.00  0.00     0.163 HD
BRANCH   6   8
ATOM      8  C   UNL A   1      39.699  24.583  26.951  1.00  0.00     0.039 A 
ATOM      9  C   UNL A   1      39.228  24.674  28.263  1.00  0.00     0.014 A 
ATOM     10  C   UNL A   1      40.435  25.630  26.389  1.00  0.00     0.014 A 
ATOM     11  C   UNL A   1      39.397  25.853  28.978  1.00  0.00     0.010 A 
ATOM     12  C   UNL A   1      40.676  26.783  27.139  1.00  0.00     0.010 A 
ATOM     13  C   UNL A   1      40.153  26.903  28.437  1.00  0.00    -0.014 A 
BRANCH  13  14
ATOM     14  C   UNL A   1      40.505  28.058  29.297  1.00  0.00     0.031 A 
ATOM     15  C   UNL A   1      41.776  28.088  30.093  1.00  0.00     0.074 A 
ATOM     16  C   UNL A   1      39.633  29.083  29.359  1.00  0.00     0.049 A 
ATOM     17  N   UNL A   1      42.201  29.006  30.923  1.00  0.00    -0.248 NA
ATOM     18  C   UNL A   1      42.689  26.942  29.947  1.00  0.00     0.031 C 
ATOM     19  C   UNL A   1      38.356  29.145  28.641  1.00  0.00     0.029 A 
ATOM     20  N   UNL A   1      39.676  30.263  30.055  1.00  0.00    -0.354 N 
ATOM     21  C   UNL A   1      43.413  28.543  31.417  1.00  0.00     0.074 A 
ATOM     22  C   UNL A   1      43.656  27.256  30.800  1.00  0.00     0.031 C 
ATOM     23  C   UNL A   1      37.748  30.307  28.919  1.00  0.00     0.029 A 
ATOM     24  C   UNL A   1      38.555  31.038  29.886  1.00  0.00     0.049 A 
ATOM     25  H   UNL A   1      40.437  30.528  30.622  1.00  0.00     0.167 HD
ATOM     26  C   UNL A   1      44.240  29.146  32.304  1.00  0.00     0.037 A 
ATOM     27  C   UNL A   1      38.193  32.192  30.475  1.00  0.00     0.037 A 
ATOM     28  C   UNL A   1      43.995  30.439  32.890  1.00  0.00     0.049 A 
ATOM     29  C   UNL A   1      39.117  32.811  31.481  1.00  0.00     0.074 A 
ATOM     30  C   UNL A   1      44.816  31.172  33.730  1.00  0.00     0.029 A 
ATOM     31  N   UNL A   1      42.839  31.183  32.712  1.00  0.00    -0.354 N 
ATOM     32  N   UNL A   1      40.297  32.399  31.878  1.00  0.00    -0.248 NA
ATOM     33  C   UNL A   1      38.659  34.046  32.129  1.00  0.00     0.031 C 
ATOM     34  C   UNL A   1      44.132  32.331  34.109  1.00  0.00     0.029 A 
ATOM     35  C   UNL A   1      42.905  32.344  33.465  1.00  0.00     0.049 A 
ATOM     36  H   UNL A   1      42.084  30.926  32.136  1.00  0.00     0.167 HD
ATOM     37  C   UNL A   1      40.723  33.326  32.818  1.00  0.00     0.074 A 
ATOM     38  C   UNL A   1      39.691  34.338  32.907  1.00  0.00     0.031 C 
ATOM     39  C   UNL A   1      41.864  33.335  33.548  1.00  0.00     0.037 A 
BRANCH  26  40
ATOM     40  C   UNL A   1      45.486  28.422  32.722  1.00  0.00     0.057 A 
ATOM     41  C   UNL A   1      45.456  27.349  33.622  1.00  0.00     0.134 A 
ATOM     42  C   UNL A   1      46.718  28.737  32.133  1.00  0.00     0.134 A 
ATOM     43  F   UNL A   1      44.310  26.999  34.223  1.00  0.00    -0.206 F 
ATOM     44  C   UNL A   1      46.607  26.617  33.921  1.00  0.00     0.040 A 
ATOM     45  C   UNL A   1      47.871  28.002  32.409  1.00  0.00     0.040 A 
ATOM     46  F   UNL A   1      46.813  29.749  31.257  1.00  0.00    -0.206 F 
ATOM     47  C   UNL A   1      47.817  26.936  33.305  1.00  0.00     0.006 A 
ENDBRANCH  26  40
BRANCH  27  48
ATOM     48  C   UNL A   1      36.875  32.800  30.169  1.00  0.00     0.057 A 
ATOM     49  C   UNL A   1      36.705  33.663  29.081  1.00  0.00     0.134 A 
ATOM     50  C   UNL A   1      35.752  32.539  30.967  1.00  0.00     0.134 A 
ATOM     51  F   UNL A   1      37.746  33.963  28.291  1.00  0.00    -0.206 F 
ATOM     52  C   UNL A   1      35.474  34.263  28.812  1.00  0.00     0.040 A 
ATOM     53  C   UNL A   1      34.510  33.107  30.691  1.00  0.00     0.040 A 
ATOM     54  F   UNL A   1      35.847  31.713  32.020  1.00  0.00    -0.206 F 
ATOM     55  C   UNL A   1      34.371  33.982  29.616  1.00  0.00     0.006 A 
ENDBRANCH  27  48
BRANCH  39  56
ATOM     56  C   UNL A   1      42.051  34.475  34.503  1.00  0.00     0.057 A 
ATOM     57  C   UNL A   1      42.584  35.701  34.082  1.00  0.00     0.134 A 
ATOM     58  C   UNL A   1      41.665  34.359  35.843  1.00  0.00     0.134 A 
ATOM     59  F   UNL A   1      42.989  35.867  32.815  1.00  0.00    -0.206 F 
ATOM     60  C   UNL A   1      42.740  36.767  34.968  1.00  0.00     0.040 A 
ATOM     61  C   UNL A   1      41.792  35.427  36.731  1.00  0.00     0.040 A 
ATOM     62  F   UNL A   1      41.144  33.213  36.306  1.00  0.00    -0.206 F 
ATOM     63  C   UNL A   1      42.335  36.634  36.295  1.00  0.00     0.006 A 
ENDBRANCH  39  56
ENDBRANCH  13  14
ENDBRANCH   6   8
ENDBRANCH   3   4
ENDBRANCH   2   3
ENDBRANCH   1   2
BRANCH   1  64
ATOM     64  C   UNL A   1      42.735  19.876  25.885  1.00  0.00     0.116 C 
BRANCH  64  65
ATOM     65  N   UNL A   1      43.720  18.813  25.862  1.00  0.00    -0.351 N 
ATOM     66  C   UNL A   1      44.993  18.793  25.384  1.00  0.00     0.279 C 
ATOM     67  H   UNL A   1      43.417  17.964  26.258  1.00  0.00     0.163 HD
ATOM     68  O   UNL A   1      45.587  17.711  25.396  1.00  0.00    -0.268 OA
BRANCH  66  69
ATOM     69  C   UNL A   1      45.664  20.061  24.832  1.00  0.00     0.283 C 
ATOM     70  C   UNL A   1      44.879  20.545  23.608  1.00  0.00     0.151 C 
ATOM     71  N   UNL A   1      45.652  21.092  25.898  1.00  0.00    -0.321 N 
ATOM     72  S   UNL A   1      44.733  22.339  23.780  1.00  0.00    -0.088 SA
ATOM     73  C   UNL A   1      45.780  22.397  25.242  1.00  0.00     0.274 C 
ATOM     74  H   UNL A   1      46.434  20.944  26.535  1.00  0.00     0.348 HD
ATOM     75  H   UNL A   1      44.789  21.043  26.440  1.00  0.00     0.348 HD
BRANCH  73  76
ATOM     76  C   UNL A   1      45.542  23.517  26.238  1.00  0.00     0.024 A 
ATOM     77  C   UNL A   1      46.060  23.556  27.539  1.00  0.00     0.011 A 
ATOM     78  C   UNL A   1      44.805  24.632  25.785  1.00  0.00     0.057 A 
ATOM     79  C   UNL A   1      45.840  24.669  28.355  1.00  0.00     0.004 A 
ATOM     80  C   UNL A   1      44.636  25.771  26.568  1.00  0.00     0.120 A 
ATOM     81  C   UNL A   1      45.139  25.772  27.866  1.00  0.00     0.046 A 
BRANCH  80  82
ATOM     82  O   UNL A   1      44.032  26.934  26.179  1.00  0.00    -0.489 OA
BRANCH  82  83
ATOM     83  C   UNL A   1      44.802  28.138  26.096  1.00  0.00     0.267 C 
BRANCH  83  84
ATOM     84  C   UNL A   1      44.417  29.210  27.097  1.00  0.00     0.008 A 
ATOM     85  C   UNL A   1      43.127  29.767  27.023  1.00  0.00     0.010 A 
ATOM     86  C   UNL A   1      45.293  29.687  28.085  1.00  0.00     0.049 A 
ATOM     87  C   UNL A   1      42.754  30.815  27.860  1.00  0.00     0.021 A 
ATOM     88  C   UNL A   1      44.917  30.742  28.923  1.00  0.00     0.041 A 
ATOM     89  Cl  UNL A   1      46.853  28.990  28.333  1.00  0.00    -0.084 Cl
ATOM     90  C   UNL A   1      43.655  31.313  28.793  1.00  0.00     0.042 A 
ATOM     91  Cl  UNL A   1      43.198  32.637  29.794  1.00  0.00    -0.084 Cl
ENDBRANCH  83  84
ENDBRANCH  82  83
ENDBRANCH  80  82
ENDBRANCH  73  76
ENDBRANCH  66  69
ENDBRANCH  64  65
ENDBRANCH   1  64
TORSDOF 15
ENDMDL
