MODEL 1
REMARK VINA RESULT:     -11.5      0.000      0.000
REMARK SMILES Cc1cccc(Cl)c1Nc1ccccc1CC(=O)NCCCCNC(=O)c1ccc(-c2c3nc(c(-c4c(F)cccc4F)c4ccc([nH]4)c(-c4c(F)cccc4F)c4nc(c(-c5c(F)cccc5F)c5ccc2[nH]5)C=C4)C=C3)cc1
REMARK SMILES IDX 21 1 20 2 19 3 17 4 18 5 16 7 15 8 10 9 11 10 12 11 14 12
REMARK SMILES IDX 13 13 9 14 8 16 1 17 2 18 3 19 4 20 6 21 5 22 7 23 22 24
REMARK SMILES IDX 23 25 24 26 25 27 26 29 27 30 28 31 80 32 29 33 79 34 30 35
REMARK SMILES IDX 31 36 32 37 73 38 33 39 78 40 72 41 74 42 34 43 77 44 71 45
REMARK SMILES IDX 70 46 35 48 61 49 44 50 60 51 45 52 48 53 59 54 75 55 46 56
REMARK SMILES IDX 47 57 58 59 76 60 49 61 36 62 37 63 42 64 38 65 39 66 41 67
REMARK SMILES IDX 43 68 40 69 62 70 63 71 68 72 64 73 65 74 67 75 69 76 66 77
REMARK SMILES IDX 50 78 51 79 56 80 52 81 53 82 55 83 57 84 54 85
REMARK H PARENT 19 6 9 15 24 28 74 47 48 58
REMARK Flexibility Score: inf
ROOT
ATOM      1  C   UNL A   1      31.667  30.685  26.162  1.00  0.00     0.023 C 
ENDROOT
BRANCH   1   2
ATOM      2  C   UNL A   1      32.379  29.858  27.232  1.00  0.00     0.116 C 
BRANCH   2   3
ATOM      3  N   UNL A   1      31.777  28.550  27.389  1.00  0.00    -0.356 N 
ATOM      4  C   UNL A   1      32.209  27.357  26.879  1.00  0.00     0.224 C 
ATOM      5  O   UNL A   1      31.502  26.361  27.044  1.00  0.00    -0.275 OA
ATOM      6  H   UNL A   1      30.956  28.516  27.930  1.00  0.00     0.163 HD
BRANCH   4   7
ATOM      7  C   UNL A   1      33.552  27.275  26.169  1.00  0.00     0.137 C 
BRANCH   7   8
ATOM      8  C   UNL A   1      33.471  26.751  24.749  1.00  0.00    -0.015 A 
ATOM      9  C   UNL A   1      33.914  25.464  24.371  1.00  0.00     0.042 A 
ATOM     10  C   UNL A   1      33.903  25.125  23.005  1.00  0.00     0.026 A 
ATOM     11  C   UNL A   1      33.441  26.015  22.034  1.00  0.00     0.002 A 
ATOM     12  C   UNL A   1      32.973  27.624  23.759  1.00  0.00     0.006 A 
ATOM     13  C   UNL A   1      32.963  27.261  22.414  1.00  0.00     0.000 A 
BRANCH   9  14
ATOM     14  N   UNL A   1      34.327  24.461  25.272  1.00  0.00    -0.354 N 
ATOM     15  H   UNL A   1      34.426  24.777  26.200  1.00  0.00     0.167 HD
BRANCH  14  16
ATOM     16  C   UNL A   1      34.627  23.088  25.102  1.00  0.00     0.060 A 
ATOM     17  C   UNL A   1      37.103  23.690  25.337  1.00  0.00     0.046 C 
ATOM     18  C   UNL A   1      35.990  22.690  25.157  1.00  0.00    -0.026 A 
ATOM     19  C   UNL A   1      36.331  21.327  25.083  1.00  0.00     0.005 A 
ATOM     20  C   UNL A   1      35.349  20.353  24.943  1.00  0.00     0.002 A 
ATOM     21  C   UNL A   1      33.650  22.079  24.928  1.00  0.00     0.064 A 
ATOM     22  C   UNL A   1      34.013  20.729  24.857  1.00  0.00     0.023 A 
ATOM     23  Cl  UNL A   1      31.970  22.419  24.677  1.00  0.00    -0.082 Cl
ENDBRANCH  14  16
ENDBRANCH   9  14
ENDBRANCH   7   8
ENDBRANCH   4   7
ENDBRANCH   2   3
ENDBRANCH   1   2
BRANCH   1  24
ATOM     24  C   UNL A   1      31.434  32.150  26.538  1.00  0.00     0.023 C 
BRANCH  24  25
ATOM     25  C   UNL A   1      32.569  32.803  27.314  1.00  0.00     0.116 C 
BRANCH  25  26
ATOM     26  N   UNL A   1      32.306  34.194  27.656  1.00  0.00    -0.352 N 
ATOM     27  C   UNL A   1      32.977  34.988  28.555  1.00  0.00     0.251 C 
ATOM     28  H   UNL A   1      31.553  34.618  27.185  1.00  0.00     0.163 HD
ATOM     29  O   UNL A   1      32.575  36.117  28.815  1.00  0.00    -0.269 OA
BRANCH  27  30
ATOM     30  C   UNL A   1      34.170  34.447  29.237  1.00  0.00     0.039 A 
ATOM     31  C   UNL A   1      34.008  33.795  30.463  1.00  0.00     0.014 A 
ATOM     32  C   UNL A   1      35.430  34.539  28.642  1.00  0.00     0.014 A 
ATOM     33  C   UNL A   1      35.105  33.169  31.059  1.00  0.00     0.010 A 
ATOM     34  C   UNL A   1      36.506  33.860  29.204  1.00  0.00     0.010 A 
ATOM     35  C   UNL A   1      36.352  33.164  30.414  1.00  0.00    -0.014 A 
BRANCH  35  36
ATOM     36  C   UNL A   1      37.513  32.433  30.977  1.00  0.00     0.031 A 
ATOM     37  C   UNL A   1      38.202  32.954  32.206  1.00  0.00     0.074 A 
ATOM     38  C   UNL A   1      38.002  31.356  30.333  1.00  0.00     0.049 A 
ATOM     39  N   UNL A   1      39.299  32.533  32.780  1.00  0.00    -0.248 NA
ATOM     40  C   UNL A   1      37.591  34.123  32.858  1.00  0.00     0.031 C 
ATOM     41  C   UNL A   1      37.449  30.778  29.105  1.00  0.00     0.029 A 
ATOM     42  N   UNL A   1      39.088  30.565  30.611  1.00  0.00    -0.354 N 
ATOM     43  C   UNL A   1      39.522  33.397  33.845  1.00  0.00     0.074 A 
ATOM     44  C   UNL A   1      38.471  34.391  33.812  1.00  0.00     0.031 C 
ATOM     45  C   UNL A   1      38.192  29.720  28.744  1.00  0.00     0.029 A 
ATOM     46  C   UNL A   1      39.294  29.567  29.689  1.00  0.00     0.049 A 
ATOM     47  H   UNL A   1      39.666  30.701  31.397  1.00  0.00     0.167 HD
ATOM     48  C   UNL A   1      40.504  33.354  34.776  1.00  0.00     0.037 A 
ATOM     49  C   UNL A   1      40.268  28.641  29.609  1.00  0.00     0.037 A 
ATOM     50  C   UNL A   1      41.529  32.346  34.826  1.00  0.00     0.049 A 
ATOM     51  C   UNL A   1      41.344  28.612  30.659  1.00  0.00     0.074 A 
ATOM     52  C   UNL A   1      42.530  32.180  35.767  1.00  0.00     0.029 A 
ATOM     53  N   UNL A   1      41.683  31.331  33.894  1.00  0.00    -0.354 N 
ATOM     54  N   UNL A   1      41.509  29.399  31.694  1.00  0.00    -0.248 NA
ATOM     55  C   UNL A   1      42.368  27.564  30.531  1.00  0.00     0.031 C 
ATOM     56  C   UNL A   1      43.311  31.084  35.386  1.00  0.00     0.029 A 
ATOM     57  C   UNL A   1      42.771  30.544  34.229  1.00  0.00     0.049 A 
ATOM     58  H   UNL A   1      41.104  31.191  33.111  1.00  0.00     0.167 HD
ATOM     59  C   UNL A   1      42.634  28.924  32.357  1.00  0.00     0.074 A 
ATOM     60  C   UNL A   1      43.108  27.778  31.610  1.00  0.00     0.031 C 
ATOM     61  C   UNL A   1      43.219  29.396  33.484  1.00  0.00     0.037 A 
BRANCH  48  62
ATOM     62  C   UNL A   1      40.510  34.429  35.822  1.00  0.00     0.057 A 
ATOM     63  C   UNL A   1      41.206  35.631  35.639  1.00  0.00     0.134 A 
ATOM     64  C   UNL A   1      39.787  34.275  37.011  1.00  0.00     0.134 A 
ATOM     65  F   UNL A   1      41.929  35.836  34.527  1.00  0.00    -0.206 F 
ATOM     66  C   UNL A   1      41.203  36.632  36.613  1.00  0.00     0.040 A 
ATOM     67  C   UNL A   1      39.755  35.278  37.980  1.00  0.00     0.040 A 
ATOM     68  F   UNL A   1      39.095  33.150  37.246  1.00  0.00    -0.206 F 
ATOM     69  C   UNL A   1      40.470  36.459  37.785  1.00  0.00     0.006 A 
ENDBRANCH  48  62
BRANCH  49  70
ATOM     70  C   UNL A   1      40.261  27.650  28.505  1.00  0.00     0.057 A 
ATOM     71  C   UNL A   1      39.588  26.430  28.638  1.00  0.00     0.134 A 
ATOM     72  C   UNL A   1      40.927  27.893  27.298  1.00  0.00     0.134 A 
ATOM     73  F   UNL A   1      38.949  26.133  29.778  1.00  0.00    -0.206 F 
ATOM     74  C   UNL A   1      39.591  25.479  27.616  1.00  0.00     0.040 A 
ATOM     75  C   UNL A   1      40.919  26.961  26.260  1.00  0.00     0.040 A 
ATOM     76  F   UNL A   1      41.585  29.047  27.107  1.00  0.00    -0.206 F 
ATOM     77  C   UNL A   1      40.254  25.746  26.420  1.00  0.00     0.006 A 
ENDBRANCH  49  70
BRANCH  61  78
ATOM     78  C   UNL A   1      44.410  28.650  34.005  1.00  0.00     0.057 A 
ATOM     79  C   UNL A   1      44.276  27.549  34.860  1.00  0.00     0.134 A 
ATOM     80  C   UNL A   1      45.704  29.006  33.604  1.00  0.00     0.134 A 
ATOM     81  F   UNL A   1      43.064  27.166  35.291  1.00  0.00    -0.206 F 
ATOM     82  C   UNL A   1      45.389  26.836  35.307  1.00  0.00     0.040 A 
ATOM     83  C   UNL A   1      46.822  28.288  34.026  1.00  0.00     0.040 A 
ATOM     84  F   UNL A   1      45.898  30.047  32.780  1.00  0.00    -0.206 F 
ATOM     85  C   UNL A   1      46.666  27.200  34.884  1.00  0.00     0.006 A 
ENDBRANCH  61  78
ENDBRANCH  35  36
ENDBRANCH  27  30
ENDBRANCH  25  26
ENDBRANCH  24  25
ENDBRANCH   1  24
TORSDOF 14
ENDMDL
MODEL 2
REMARK VINA RESULT:     -11.5      4.103      9.050
REMARK SMILES Cc1cccc(Cl)c1Nc1ccccc1CC(=O)NCCCCNC(=O)c1ccc(-c2c3nc(c(-c4c(F)cccc4F)c4ccc([nH]4)c(-c4c(F)cccc4F)c4nc(c(-c5c(F)cccc5F)c5ccc2[nH]5)C=C4)C=C3)cc1
REMARK SMILES IDX 21 1 20 2 19 3 17 4 18 5 16 7 15 8 10 9 11 10 12 11 14 12
REMARK SMILES IDX 13 13 9 14 8 16 1 17 2 18 3 19 4 20 6 21 5 22 7 23 22 24
REMARK SMILES IDX 23 25 24 26 25 27 26 29 27 30 28 31 80 32 29 33 79 34 30 35
REMARK SMILES IDX 31 36 32 37 73 38 33 39 78 40 72 41 74 42 34 43 77 44 71 45
REMARK SMILES IDX 70 46 35 48 61 49 44 50 60 51 45 52 48 53 59 54 75 55 46 56
REMARK SMILES IDX 47 57 58 59 76 60 49 61 36 62 37 63 42 64 38 65 39 66 41 67
REMARK SMILES IDX 43 68 40 69 62 70 63 71 68 72 64 73 65 74 67 75 69 76 66 77
REMARK SMILES IDX 50 78 51 79 56 80 52 81 53 82 55 83 57 84 54 85
REMARK H PARENT 19 6 9 15 24 28 74 47 48 58
REMARK Flexibility Score: inf
ROOT
ATOM      1  C   UNL A   1      36.644  21.043  24.973  1.00  0.00     0.023 C 
ENDROOT
BRANCH   1   2
ATOM      2  C   UNL A   1      36.990  22.527  24.852  1.00  0.00     0.116 C 
BRANCH   2   3
ATOM      3  N   UNL A   1      36.105  23.211  23.931  1.00  0.00    -0.356 N 
ATOM      4  C   UNL A   1      35.107  24.099  24.224  1.00  0.00     0.224 C 
ATOM      5  O   UNL A   1      34.396  24.502  23.302  1.00  0.00    -0.275 OA
ATOM      6  H   UNL A   1      36.239  23.012  22.977  1.00  0.00     0.163 HD
BRANCH   4   7
ATOM      7  C   UNL A   1      34.926  24.596  25.650  1.00  0.00     0.137 C 
BRANCH   7   8
ATOM      8  C   UNL A   1      33.696  25.458  25.854  1.00  0.00    -0.015 A 
ATOM      9  C   UNL A   1      32.404  24.928  26.068  1.00  0.00     0.042 A 
ATOM     10  C   UNL A   1      31.314  25.818  26.125  1.00  0.00     0.026 A 
ATOM     11  C   UNL A   1      31.489  27.197  26.006  1.00  0.00     0.002 A 
ATOM     12  C   UNL A   1      33.859  26.857  25.773  1.00  0.00     0.006 A 
ATOM     13  C   UNL A   1      32.765  27.718  25.843  1.00  0.00     0.000 A 
BRANCH   9  14
ATOM     14  N   UNL A   1      32.122  23.562  26.279  1.00  0.00    -0.354 N 
ATOM     15  H   UNL A   1      31.641  23.382  27.119  1.00  0.00     0.167 HD
BRANCH  14  16
ATOM     16  C   UNL A   1      32.397  22.401  25.517  1.00  0.00     0.060 A 
ATOM     17  C   UNL A   1      33.740  21.518  27.509  1.00  0.00     0.046 C 
ATOM     18  C   UNL A   1      33.172  21.374  26.121  1.00  0.00    -0.026 A 
ATOM     19  C   UNL A   1      33.397  20.165  25.437  1.00  0.00     0.005 A 
ATOM     20  C   UNL A   1      32.878  19.959  24.164  1.00  0.00     0.002 A 
ATOM     21  C   UNL A   1      31.908  22.178  24.209  1.00  0.00     0.064 A 
ATOM     22  C   UNL A   1      32.143  20.966  23.548  1.00  0.00     0.023 A 
ATOM     23  Cl  UNL A   1      31.093  23.393  23.281  1.00  0.00    -0.082 Cl
ENDBRANCH  14  16
ENDBRANCH   9  14
ENDBRANCH   7   8
ENDBRANCH   4   7
ENDBRANCH   2   3
ENDBRANCH   1   2
BRANCH   1  24
ATOM     24  C   UNL A   1      37.842  20.098  24.855  1.00  0.00     0.023 C 
BRANCH  24  25
ATOM     25  C   UNL A   1      39.019  20.436  25.760  1.00  0.00     0.116 C 
BRANCH  25  26
ATOM     26  N   UNL A   1      40.050  19.407  25.772  1.00  0.00    -0.352 N 
ATOM     27  C   UNL A   1      41.374  19.536  26.115  1.00  0.00     0.251 C 
ATOM     28  H   UNL A   1      39.762  18.506  25.499  1.00  0.00     0.163 HD
ATOM     29  O   UNL A   1      42.151  18.597  25.977  1.00  0.00    -0.269 OA
BRANCH  27  30
ATOM     30  C   UNL A   1      41.860  20.838  26.615  1.00  0.00     0.039 A 
ATOM     31  C   UNL A   1      42.351  21.772  25.699  1.00  0.00     0.014 A 
ATOM     32  C   UNL A   1      41.780  21.150  27.974  1.00  0.00     0.014 A 
ATOM     33  C   UNL A   1      42.697  23.051  26.139  1.00  0.00     0.010 A 
ATOM     34  C   UNL A   1      42.063  22.444  28.400  1.00  0.00     0.010 A 
ATOM     35  C   UNL A   1      42.518  23.407  27.485  1.00  0.00    -0.014 A 
BRANCH  35  36
ATOM     36  C   UNL A   1      42.791  24.784  27.966  1.00  0.00     0.031 A 
ATOM     37  C   UNL A   1      44.181  25.169  28.383  1.00  0.00     0.074 A 
ATOM     38  C   UNL A   1      41.774  25.655  28.112  1.00  0.00     0.049 A 
ATOM     39  N   UNL A   1      44.600  26.276  28.942  1.00  0.00    -0.248 NA
ATOM     40  C   UNL A   1      45.235  24.164  28.172  1.00  0.00     0.031 C 
ATOM     41  C   UNL A   1      40.372  25.386  27.783  1.00  0.00     0.029 A 
ATOM     42  N   UNL A   1      41.761  26.941  28.594  1.00  0.00    -0.354 N 
ATOM     43  C   UNL A   1      45.958  26.091  29.169  1.00  0.00     0.074 A 
ATOM     44  C   UNL A   1      46.284  24.753  28.728  1.00  0.00     0.031 C 
ATOM     45  C   UNL A   1      39.639  26.476  28.062  1.00  0.00     0.029 A 
ATOM     46  C   UNL A   1      40.509  27.505  28.623  1.00  0.00     0.049 A 
ATOM     47  H   UNL A   1      42.573  27.412  28.891  1.00  0.00     0.167 HD
ATOM     48  C   UNL A   1      46.855  26.966  29.682  1.00  0.00     0.037 A 
ATOM     49  C   UNL A   1      40.106  28.712  29.065  1.00  0.00     0.037 A 
ATOM     50  C   UNL A   1      46.535  28.308  30.090  1.00  0.00     0.049 A 
ATOM     51  C   UNL A   1      41.123  29.667  29.626  1.00  0.00     0.074 A 
ATOM     52  C   UNL A   1      47.385  29.292  30.563  1.00  0.00     0.029 A 
ATOM     53  N   UNL A   1      45.260  28.855  30.073  1.00  0.00    -0.354 N 
ATOM     54  N   UNL A   1      42.414  29.501  29.780  1.00  0.00    -0.248 NA
ATOM     55  C   UNL A   1      40.627  30.977  30.072  1.00  0.00     0.031 C 
ATOM     56  C   UNL A   1      46.620  30.424  30.863  1.00  0.00     0.029 A 
ATOM     57  C   UNL A   1      45.299  30.158  30.540  1.00  0.00     0.049 A 
ATOM     58  H   UNL A   1      44.449  28.386  29.772  1.00  0.00     0.167 HD
ATOM     59  C   UNL A   1      42.890  30.694  30.311  1.00  0.00     0.074 A 
ATOM     60  C   UNL A   1      41.749  31.576  30.447  1.00  0.00     0.031 C 
ATOM     61  C   UNL A   1      44.157  31.028  30.653  1.00  0.00     0.037 A 
BRANCH  48  62
ATOM     62  C   UNL A   1      48.272  26.498  29.825  1.00  0.00     0.057 A 
ATOM     63  C   UNL A   1      48.713  25.821  30.970  1.00  0.00     0.134 A 
ATOM     64  C   UNL A   1      49.199  26.696  28.794  1.00  0.00     0.134 A 
ATOM     65  F   UNL A   1      47.878  25.611  32.000  1.00  0.00    -0.206 F 
ATOM     66  C   UNL A   1      50.032  25.380  31.096  1.00  0.00     0.040 A 
ATOM     67  C   UNL A   1      50.513  26.237  28.897  1.00  0.00     0.040 A 
ATOM     68  F   UNL A   1      48.840  27.332  27.669  1.00  0.00    -0.206 F 
ATOM     69  C   UNL A   1      50.934  25.582  30.053  1.00  0.00     0.006 A 
ENDBRANCH  48  62
BRANCH  49  70
ATOM     70  C   UNL A   1      38.676  29.095  28.978  1.00  0.00     0.057 A 
ATOM     71  C   UNL A   1      38.133  29.578  27.782  1.00  0.00     0.134 A 
ATOM     72  C   UNL A   1      37.820  28.992  30.081  1.00  0.00     0.134 A 
ATOM     73  F   UNL A   1      38.909  29.716  26.696  1.00  0.00    -0.206 F 
ATOM     74  C   UNL A   1      36.794  29.963  27.689  1.00  0.00     0.040 A 
ATOM     75  C   UNL A   1      36.475  29.353  29.997  1.00  0.00     0.040 A 
ATOM     76  F   UNL A   1      38.279  28.530  31.253  1.00  0.00    -0.206 F 
ATOM     77  C   UNL A   1      35.960  29.846  28.798  1.00  0.00     0.006 A 
ENDBRANCH  49  70
BRANCH  61  78
ATOM     78  C   UNL A   1      44.389  32.417  31.165  1.00  0.00     0.057 A 
ATOM     79  C   UNL A   1      44.367  32.713  32.533  1.00  0.00     0.134 A 
ATOM     80  C   UNL A   1      44.691  33.460  30.280  1.00  0.00     0.134 A 
ATOM     81  F   UNL A   1      44.071  31.760  33.431  1.00  0.00    -0.206 F 
ATOM     82  C   UNL A   1      44.625  34.002  33.002  1.00  0.00     0.040 A 
ATOM     83  C   UNL A   1      44.973  34.747  30.738  1.00  0.00     0.040 A 
ATOM     84  F   UNL A   1      44.735  33.238  28.957  1.00  0.00    -0.206 F 
ATOM     85  C   UNL A   1      44.937  35.021  32.104  1.00  0.00     0.006 A 
ENDBRANCH  61  78
ENDBRANCH  35  36
ENDBRANCH  27  30
ENDBRANCH  25  26
ENDBRANCH  24  25
ENDBRANCH   1  24
TORSDOF 14
ENDMDL
MODEL 3
REMARK VINA RESULT:     -11.4      0.714      1.415
REMARK SMILES Cc1cccc(Cl)c1Nc1ccccc1CC(=O)NCCCCNC(=O)c1ccc(-c2c3nc(c(-c4c(F)cccc4F)c4ccc([nH]4)c(-c4c(F)cccc4F)c4nc(c(-c5c(F)cccc5F)c5ccc2[nH]5)C=C4)C=C3)cc1
REMARK SMILES IDX 21 1 20 2 19 3 17 4 18 5 16 7 15 8 10 9 11 10 12 11 14 12
REMARK SMILES IDX 13 13 9 14 8 16 1 17 2 18 3 19 4 20 6 21 5 22 7 23 22 24
REMARK SMILES IDX 23 25 24 26 25 27 26 29 27 30 28 31 80 32 29 33 79 34 30 35
REMARK SMILES IDX 31 36 32 37 73 38 33 39 78 40 72 41 74 42 34 43 77 44 71 45
REMARK SMILES IDX 70 46 35 48 61 49 44 50 60 51 45 52 48 53 59 54 75 55 46 56
REMARK SMILES IDX 47 57 58 59 76 60 49 61 36 62 37 63 42 64 38 65 39 66 41 67
REMARK SMILES IDX 43 68 40 69 62 70 63 71 68 72 64 73 65 74 67 75 69 76 66 77
REMARK SMILES IDX 50 78 51 79 56 80 52 81 53 82 55 83 57 84 54 85
REMARK H PARENT 19 6 9 15 24 28 74 47 48 58
REMARK Flexibility Score: inf
ROOT
ATOM      1  C   UNL A   1      31.692  30.664  26.205  1.00  0.00     0.023 C 
ENDROOT
BRANCH   1   2
ATOM      2  C   UNL A   1      32.480  29.744  27.137  1.00  0.00     0.116 C 
BRANCH   2   3
ATOM      3  N   UNL A   1      31.811  28.474  27.330  1.00  0.00    -0.356 N 
ATOM      4  C   UNL A   1      32.175  27.247  26.848  1.00  0.00     0.224 C 
ATOM      5  O   UNL A   1      31.417  26.295  27.042  1.00  0.00    -0.275 OA
ATOM      6  H   UNL A   1      30.993  28.496  27.877  1.00  0.00     0.163 HD
BRANCH   4   7
ATOM      7  C   UNL A   1      33.506  27.076  26.131  1.00  0.00     0.137 C 
BRANCH   7   8
ATOM      8  C   UNL A   1      33.381  26.612  24.694  1.00  0.00    -0.015 A 
ATOM      9  C   UNL A   1      33.420  25.253  24.311  1.00  0.00     0.042 A 
ATOM     10  C   UNL A   1      33.416  24.942  22.938  1.00  0.00     0.026 A 
ATOM     11  C   UNL A   1      33.344  25.937  21.963  1.00  0.00     0.002 A 
ATOM     12  C   UNL A   1      33.272  27.603  23.696  1.00  0.00     0.006 A 
ATOM     13  C   UNL A   1      33.259  27.269  22.343  1.00  0.00     0.000 A 
BRANCH   9  14
ATOM     14  N   UNL A   1      33.415  24.166  25.210  1.00  0.00    -0.354 N 
ATOM     15  H   UNL A   1      32.835  24.303  25.994  1.00  0.00     0.167 HD
BRANCH  14  16
ATOM     16  C   UNL A   1      34.082  22.917  25.203  1.00  0.00     0.060 A 
ATOM     17  C   UNL A   1      31.804  21.802  24.855  1.00  0.00     0.046 C 
ATOM     18  C   UNL A   1      33.303  21.746  25.003  1.00  0.00    -0.026 A 
ATOM     19  C   UNL A   1      33.931  20.490  24.899  1.00  0.00     0.005 A 
ATOM     20  C   UNL A   1      35.313  20.373  25.001  1.00  0.00     0.002 A 
ATOM     21  C   UNL A   1      35.482  22.767  25.334  1.00  0.00     0.064 A 
ATOM     22  C   UNL A   1      36.085  21.507  25.226  1.00  0.00     0.023 A 
ATOM     23  Cl  UNL A   1      36.542  24.074  25.745  1.00  0.00    -0.082 Cl
ENDBRANCH  14  16
ENDBRANCH   9  14
ENDBRANCH   7   8
ENDBRANCH   4   7
ENDBRANCH   2   3
ENDBRANCH   1   2
BRANCH   1  24
ATOM     24  C   UNL A   1      31.402  32.053  26.777  1.00  0.00     0.023 C 
BRANCH  24  25
ATOM     25  C   UNL A   1      32.628  32.823  27.249  1.00  0.00     0.116 C 
BRANCH  25  26
ATOM     26  N   UNL A   1      32.334  34.199  27.624  1.00  0.00    -0.352 N 
ATOM     27  C   UNL A   1      32.953  34.968  28.580  1.00  0.00     0.251 C 
ATOM     28  H   UNL A   1      31.600  34.632  27.132  1.00  0.00     0.163 HD
ATOM     29  O   UNL A   1      32.526  36.083  28.858  1.00  0.00    -0.269 OA
BRANCH  27  30
ATOM     30  C   UNL A   1      34.116  34.414  29.302  1.00  0.00     0.039 A 
ATOM     31  C   UNL A   1      33.904  33.730  30.502  1.00  0.00     0.014 A 
ATOM     32  C   UNL A   1      35.402  34.527  28.767  1.00  0.00     0.014 A 
ATOM     33  C   UNL A   1      34.976  33.093  31.130  1.00  0.00     0.010 A 
ATOM     34  C   UNL A   1      36.455  33.839  29.359  1.00  0.00     0.010 A 
ATOM     35  C   UNL A   1      36.250  33.111  30.542  1.00  0.00    -0.014 A 
BRANCH  35  36
ATOM     36  C   UNL A   1      37.389  32.371  31.138  1.00  0.00     0.031 A 
ATOM     37  C   UNL A   1      38.010  32.854  32.417  1.00  0.00     0.074 A 
ATOM     38  C   UNL A   1      37.921  31.320  30.482  1.00  0.00     0.049 A 
ATOM     39  N   UNL A   1      39.082  32.423  33.032  1.00  0.00    -0.248 NA
ATOM     40  C   UNL A   1      37.355  33.995  33.077  1.00  0.00     0.031 C 
ATOM     41  C   UNL A   1      37.436  30.781  29.210  1.00  0.00     0.029 A 
ATOM     42  N   UNL A   1      39.000  30.529  30.788  1.00  0.00    -0.354 N 
ATOM     43  C   UNL A   1      39.242  33.251  34.135  1.00  0.00     0.074 A 
ATOM     44  C   UNL A   1      38.183  34.236  34.083  1.00  0.00     0.031 C 
ATOM     45  C   UNL A   1      38.208  29.742  28.851  1.00  0.00     0.029 A 
ATOM     46  C   UNL A   1      39.262  29.566  29.844  1.00  0.00     0.049 A 
ATOM     47  H   UNL A   1      39.537  30.643  31.606  1.00  0.00     0.167 HD
ATOM     48  C   UNL A   1      40.176  33.184  35.113  1.00  0.00     0.037 A 
ATOM     49  C   UNL A   1      40.248  28.651  29.782  1.00  0.00     0.037 A 
ATOM     50  C   UNL A   1      41.208  32.184  35.180  1.00  0.00     0.049 A 
ATOM     51  C   UNL A   1      41.270  28.595  30.883  1.00  0.00     0.074 A 
ATOM     52  C   UNL A   1      42.161  31.994  36.164  1.00  0.00     0.029 A 
ATOM     53  N   UNL A   1      41.418  31.203  34.222  1.00  0.00    -0.354 N 
ATOM     54  N   UNL A   1      41.374  29.347  31.952  1.00  0.00    -0.248 NA
ATOM     55  C   UNL A   1      42.310  27.561  30.771  1.00  0.00     0.031 C 
ATOM     56  C   UNL A   1      42.972  30.918  35.785  1.00  0.00     0.029 A 
ATOM     57  C   UNL A   1      42.496  30.414  34.585  1.00  0.00     0.049 A 
ATOM     58  H   UNL A   1      40.881  31.085  33.407  1.00  0.00     0.167 HD
ATOM     59  C   UNL A   1      42.470  28.859  32.654  1.00  0.00     0.074 A 
ATOM     60  C   UNL A   1      42.992  27.743  31.894  1.00  0.00     0.031 C 
ATOM     61  C   UNL A   1      42.993  29.296  33.825  1.00  0.00     0.037 A 
BRANCH  48  62
ATOM     62  C   UNL A   1      40.119  34.222  36.193  1.00  0.00     0.057 A 
ATOM     63  C   UNL A   1      40.777  35.452  36.070  1.00  0.00     0.134 A 
ATOM     64  C   UNL A   1      39.371  34.003  37.358  1.00  0.00     0.134 A 
ATOM     65  F   UNL A   1      41.521  35.719  34.985  1.00  0.00    -0.206 F 
ATOM     66  C   UNL A   1      40.715  36.418  37.076  1.00  0.00     0.040 A 
ATOM     67  C   UNL A   1      39.280  34.971  38.358  1.00  0.00     0.040 A 
ATOM     68  F   UNL A   1      38.712  32.848  37.536  1.00  0.00    -0.206 F 
ATOM     69  C   UNL A   1      39.959  36.181  38.222  1.00  0.00     0.006 A 
ENDBRANCH  48  62
BRANCH  49  70
ATOM     70  C   UNL A   1      40.307  27.699  28.645  1.00  0.00     0.057 A 
ATOM     71  C   UNL A   1      39.622  26.480  28.693  1.00  0.00     0.134 A 
ATOM     72  C   UNL A   1      41.049  27.980  27.492  1.00  0.00     0.134 A 
ATOM     73  F   UNL A   1      38.911  26.148  29.780  1.00  0.00    -0.206 F 
ATOM     74  C   UNL A   1      39.685  25.565  27.641  1.00  0.00     0.040 A 
ATOM     75  C   UNL A   1      41.102  27.084  26.423  1.00  0.00     0.040 A 
ATOM     76  F   UNL A   1      41.721  29.135  27.383  1.00  0.00    -0.206 F 
ATOM     77  C   UNL A   1      40.424  25.869  26.499  1.00  0.00     0.006 A 
ENDBRANCH  49  70
BRANCH  61  78
ATOM     78  C   UNL A   1      44.164  28.543  34.380  1.00  0.00     0.057 A 
ATOM     79  C   UNL A   1      45.483  28.940  34.131  1.00  0.00     0.134 A 
ATOM     80  C   UNL A   1      43.965  27.437  35.216  1.00  0.00     0.134 A 
ATOM     81  F   UNL A   1      45.739  29.984  33.327  1.00  0.00    -0.206 F 
ATOM     82  C   UNL A   1      46.565  28.256  34.686  1.00  0.00     0.040 A 
ATOM     83  C   UNL A   1      45.038  26.758  35.795  1.00  0.00     0.040 A 
ATOM     84  F   UNL A   1      42.725  27.011  35.499  1.00  0.00    -0.206 F 
ATOM     85  C   UNL A   1      46.343  27.166  35.527  1.00  0.00     0.006 A 
ENDBRANCH  61  78
ENDBRANCH  35  36
ENDBRANCH  27  30
ENDBRANCH  25  26
ENDBRANCH  24  25
ENDBRANCH   1  24
TORSDOF 14
ENDMDL
