MODEL 1
REMARK VINA RESULT:     -13.3      0.000      0.000
REMARK SMILES Cc1ccc2[nH]cc([C@@H](C(=O)NCCCCNC(=O)c3ccc(-c4c5nc(c(-c6c(F)cccc6F)c6ccc([nH]6)c(-c6c(F)cccc6F)c6nc(c(-c7c(F)cccc7F)c7ccc4[nH]7)C=C6)C=C5)cc3)[NH+]3CCN(c4ccc(F)cc4)CC3)c2c1
REMARK SMILES IDX 14 1 13 2 12 3 10 4 11 5 9 7 8 8 1 9 2 10 3 11 88 12 4 13
REMARK SMILES IDX 87 14 5 15 6 16 7 17 74 19 75 20 86 21 76 23 85 24 77 25
REMARK SMILES IDX 78 26 79 27 84 28 80 29 83 30 81 31 82 32 15 33 16 34 17 35
REMARK SMILES IDX 18 36 19 38 20 39 21 40 73 41 22 42 72 43 23 44 24 45 25 46
REMARK SMILES IDX 66 47 26 48 71 49 65 50 67 51 27 52 70 53 64 54 63 55 28 57
REMARK SMILES IDX 54 58 37 59 53 60 38 61 41 62 52 63 68 64 39 65 40 66 51 68
REMARK SMILES IDX 69 69 42 70 29 71 30 72 35 73 31 74 32 75 34 76 36 77 33 78
REMARK SMILES IDX 55 79 56 80 61 81 57 82 58 83 60 84 62 85 59 86 43 87 44 88
REMARK SMILES IDX 49 89 45 90 46 91 48 92 50 93 47 94
REMARK H PARENT 12 6 6 18 74 22 17 37 67 56 41 67
REMARK Flexibility Score: inf
ROOT
ATOM      1  C   UNL A   1      37.074  21.108  24.266  1.00  0.00     0.023 C 
ENDROOT
BRANCH   1   2
ATOM      2  C   UNL A   1      36.553  22.199  25.200  1.00  0.00     0.116 C 
BRANCH   2   3
ATOM      3  N   UNL A   1      35.797  23.205  24.487  1.00  0.00    -0.351 N 
ATOM      4  C   UNL A   1      34.445  23.262  24.242  1.00  0.00     0.283 C 
ATOM      5  O   UNL A   1      34.071  24.217  23.554  1.00  0.00    -0.268 OA
ATOM      6  H   UNL A   1      36.323  23.953  24.124  1.00  0.00     0.163 HD
BRANCH   4   7
ATOM      7  C   UNL A   1      33.489  22.198  24.884  1.00  0.00     0.307 C 
BRANCH   7   8
ATOM      8  C   UNL A   1      32.901  21.246  23.871  1.00  0.00     0.044 A 
ATOM      9  C   UNL A   1      34.884  16.640  24.977  1.00  0.00     0.044 C 
ATOM     10  C   UNL A   1      33.965  17.561  24.228  1.00  0.00    -0.050 A 
ATOM     11  C   UNL A   1      33.222  17.099  23.140  1.00  0.00     0.005 A 
ATOM     12  C   UNL A   1      33.890  18.916  24.594  1.00  0.00     0.014 A 
ATOM     13  C   UNL A   1      32.427  17.964  22.380  1.00  0.00     0.027 A 
ATOM     14  C   UNL A   1      33.122  19.819  23.825  1.00  0.00     0.009 A 
ATOM     15  C   UNL A   1      32.422  19.318  22.730  1.00  0.00     0.046 A 
ATOM     16  N   UNL A   1      31.805  20.384  22.120  1.00  0.00    -0.361 N 
ATOM     17  C   UNL A   1      32.150  21.550  22.748  1.00  0.00     0.094 A 
ATOM     18  H   UNL A   1      31.202  20.319  21.345  1.00  0.00     0.166 HD
ENDBRANCH   7   8
BRANCH   7  19
ATOM     19  N   UNL A   1      32.482  22.798  25.793  1.00  0.00    -0.318 N 
ATOM     20  C   UNL A   1      32.862  23.975  26.589  1.00  0.00     0.284 C 
ATOM     21  C   UNL A   1      31.148  22.995  25.201  1.00  0.00     0.284 C 
ATOM     22  H   UNL A   1      32.438  22.038  26.472  1.00  0.00     0.349 HD
ATOM     23  C   UNL A   1      32.621  25.371  25.977  1.00  0.00     0.178 C 
ATOM     24  C   UNL A   1      30.904  24.339  24.474  1.00  0.00     0.178 C 
ATOM     25  N   UNL A   1      31.326  25.481  25.297  1.00  0.00    -0.360 N 
BRANCH  25  26
ATOM     26  C   UNL A   1      30.999  26.733  24.777  1.00  0.00     0.037 A 
ATOM     27  C   UNL A   1      31.656  27.912  25.167  1.00  0.00     0.029 A 
ATOM     28  C   UNL A   1      29.974  26.826  23.828  1.00  0.00     0.029 A 
ATOM     29  C   UNL A   1      31.270  29.152  24.655  1.00  0.00     0.041 A 
ATOM     30  C   UNL A   1      29.581  28.065  23.317  1.00  0.00     0.041 A 
ATOM     31  C   UNL A   1      30.228  29.217  23.741  1.00  0.00     0.123 A 
ATOM     32  F   UNL A   1      29.844  30.407  23.263  1.00  0.00    -0.207 F 
ENDBRANCH  25  26
ENDBRANCH   7  19
ENDBRANCH   4   7
ENDBRANCH   2   3
ENDBRANCH   1   2
BRANCH   1  33
ATOM     33  C   UNL A   1      37.768  19.943  24.963  1.00  0.00     0.023 C 
BRANCH  33  34
ATOM     34  C   UNL A   1      38.963  20.343  25.810  1.00  0.00     0.116 C 
BRANCH  34  35
ATOM     35  N   UNL A   1      40.047  19.375  25.754  1.00  0.00    -0.352 N 
ATOM     36  C   UNL A   1      41.375  19.564  26.052  1.00  0.00     0.251 C 
ATOM     37  H   UNL A   1      39.798  18.468  25.464  1.00  0.00     0.163 HD
ATOM     38  O   UNL A   1      42.195  18.683  25.841  1.00  0.00    -0.269 OA
BRANCH  36  39
ATOM     39  C   UNL A   1      41.800  20.868  26.597  1.00  0.00     0.039 A 
ATOM     40  C   UNL A   1      42.226  21.859  25.712  1.00  0.00     0.014 A 
ATOM     41  C   UNL A   1      41.728  21.122  27.969  1.00  0.00     0.014 A 
ATOM     42  C   UNL A   1      42.531  23.128  26.200  1.00  0.00     0.010 A 
ATOM     43  C   UNL A   1      41.946  22.409  28.442  1.00  0.00     0.010 A 
ATOM     44  C   UNL A   1      42.363  23.420  27.565  1.00  0.00    -0.014 A 
BRANCH  44  45
ATOM     45  C   UNL A   1      42.649  24.773  28.097  1.00  0.00     0.031 A 
ATOM     46  C   UNL A   1      44.050  25.137  28.501  1.00  0.00     0.074 A 
ATOM     47  C   UNL A   1      41.641  25.650  28.269  1.00  0.00     0.049 A 
ATOM     48  N   UNL A   1      44.497  26.250  29.024  1.00  0.00    -0.248 NA
ATOM     49  C   UNL A   1      45.082  24.102  28.321  1.00  0.00     0.031 C 
ATOM     50  C   UNL A   1      40.230  25.390  27.971  1.00  0.00     0.029 A 
ATOM     51  N   UNL A   1      41.650  26.938  28.741  1.00  0.00    -0.354 N 
ATOM     52  C   UNL A   1      45.852  26.041  29.250  1.00  0.00     0.074 A 
ATOM     53  C   UNL A   1      46.142  24.678  28.865  1.00  0.00     0.031 C 
ATOM     54  C   UNL A   1      39.516  26.495  28.240  1.00  0.00     0.029 A 
ATOM     55  C   UNL A   1      40.410  27.526  28.757  1.00  0.00     0.049 A 
ATOM     56  H   UNL A   1      42.468  27.396  29.040  1.00  0.00     0.167 HD
ATOM     57  C   UNL A   1      46.777  26.916  29.709  1.00  0.00     0.037 A 
ATOM     58  C   UNL A   1      40.039  28.762  29.142  1.00  0.00     0.037 A 
ATOM     59  C   UNL A   1      46.489  28.280  30.060  1.00  0.00     0.049 A 
ATOM     60  C   UNL A   1      41.089  29.722  29.629  1.00  0.00     0.074 A 
ATOM     61  C   UNL A   1      47.366  29.267  30.477  1.00  0.00     0.029 A 
ATOM     62  N   UNL A   1      45.225  28.851  30.033  1.00  0.00    -0.354 N 
ATOM     63  N   UNL A   1      42.379  29.536  29.767  1.00  0.00    -0.248 NA
ATOM     64  C   UNL A   1      40.632  31.068  30.001  1.00  0.00     0.031 C 
ATOM     65  C   UNL A   1      46.625  30.425  30.738  1.00  0.00     0.029 A 
ATOM     66  C   UNL A   1      45.296  30.173  30.440  1.00  0.00     0.049 A 
ATOM     67  H   UNL A   1      44.401  28.385  29.764  1.00  0.00     0.167 HD
ATOM     68  C   UNL A   1      42.893  30.747  30.214  1.00  0.00     0.074 A 
ATOM     69  C   UNL A   1      41.775  31.663  30.307  1.00  0.00     0.031 C 
ATOM     70  C   UNL A   1      44.172  31.072  30.517  1.00  0.00     0.037 A 
BRANCH  57  71
ATOM     71  C   UNL A   1      48.187  26.420  29.846  1.00  0.00     0.057 A 
ATOM     72  C   UNL A   1      48.640  25.795  31.017  1.00  0.00     0.134 A 
ATOM     73  C   UNL A   1      49.098  26.550  28.791  1.00  0.00     0.134 A 
ATOM     74  F   UNL A   1      47.823  25.655  32.072  1.00  0.00    -0.206 F 
ATOM     75  C   UNL A   1      49.954  25.343  31.142  1.00  0.00     0.040 A 
ATOM     76  C   UNL A   1      50.407  26.075  28.894  1.00  0.00     0.040 A 
ATOM     77  F   UNL A   1      48.729  27.134  27.641  1.00  0.00    -0.206 F 
ATOM     78  C   UNL A   1      50.840  25.476  30.075  1.00  0.00     0.006 A 
ENDBRANCH  57  71
BRANCH  58  79
ATOM     79  C   UNL A   1      38.616  29.176  29.046  1.00  0.00     0.057 A 
ATOM     80  C   UNL A   1      37.767  29.098  30.157  1.00  0.00     0.134 A 
ATOM     81  C   UNL A   1      38.070  29.650  27.848  1.00  0.00     0.134 A 
ATOM     82  F   UNL A   1      38.229  28.638  31.329  1.00  0.00    -0.206 F 
ATOM     83  C   UNL A   1      36.420  29.454  30.074  1.00  0.00     0.040 A 
ATOM     84  C   UNL A   1      36.731  30.032  27.756  1.00  0.00     0.040 A 
ATOM     85  F   UNL A   1      38.834  29.756  26.751  1.00  0.00    -0.206 F 
ATOM     86  C   UNL A   1      35.900  29.927  28.870  1.00  0.00     0.006 A 
ENDBRANCH  58  79
BRANCH  70  87
ATOM     87  C   UNL A   1      44.437  32.486  30.941  1.00  0.00     0.057 A 
ATOM     88  C   UNL A   1      44.720  33.497  30.014  1.00  0.00     0.134 A 
ATOM     89  C   UNL A   1      44.377  32.845  32.294  1.00  0.00     0.134 A 
ATOM     90  F   UNL A   1      44.804  33.216  28.705  1.00  0.00    -0.206 F 
ATOM     91  C   UNL A   1      44.960  34.810  30.421  1.00  0.00     0.040 A 
ATOM     92  C   UNL A   1      44.589  34.159  32.710  1.00  0.00     0.040 A 
ATOM     93  F   UNL A   1      44.101  31.925  33.231  1.00  0.00    -0.206 F 
ATOM     94  C   UNL A   1      44.888  35.145  31.773  1.00  0.00     0.006 A 
ENDBRANCH  70  87
ENDBRANCH  44  45
ENDBRANCH  36  39
ENDBRANCH  34  35
ENDBRANCH  33  34
ENDBRANCH   1  33
TORSDOF 14
ENDMDL
MODEL 2
REMARK VINA RESULT:     -13.3      0.404      6.014
REMARK SMILES Cc1ccc2[nH]cc([C@@H](C(=O)NCCCCNC(=O)c3ccc(-c4c5nc(c(-c6c(F)cccc6F)c6ccc([nH]6)c(-c6c(F)cccc6F)c6nc(c(-c7c(F)cccc7F)c7ccc4[nH]7)C=C6)C=C5)cc3)[NH+]3CCN(c4ccc(F)cc4)CC3)c2c1
REMARK SMILES IDX 14 1 13 2 12 3 10 4 11 5 9 7 8 8 1 9 2 10 3 11 88 12 4 13
REMARK SMILES IDX 87 14 5 15 6 16 7 17 74 19 75 20 86 21 76 23 85 24 77 25
REMARK SMILES IDX 78 26 79 27 84 28 80 29 83 30 81 31 82 32 15 33 16 34 17 35
REMARK SMILES IDX 18 36 19 38 20 39 21 40 73 41 22 42 72 43 23 44 24 45 25 46
REMARK SMILES IDX 66 47 26 48 71 49 65 50 67 51 27 52 70 53 64 54 63 55 28 57
REMARK SMILES IDX 54 58 37 59 53 60 38 61 41 62 52 63 68 64 39 65 40 66 51 68
REMARK SMILES IDX 69 69 42 70 29 71 30 72 35 73 31 74 32 75 34 76 36 77 33 78
REMARK SMILES IDX 55 79 56 80 61 81 57 82 58 83 60 84 62 85 59 86 43 87 44 88
REMARK SMILES IDX 49 89 45 90 46 91 48 92 50 93 47 94
REMARK H PARENT 12 6 6 18 74 22 17 37 67 56 41 67
REMARK Flexibility Score: inf
ROOT
ATOM      1  C   UNL A   1      36.968  21.369  24.170  1.00  0.00     0.023 C 
ENDROOT
BRANCH   1   2
ATOM      2  C   UNL A   1      36.641  22.632  24.967  1.00  0.00     0.116 C 
BRANCH   2   3
ATOM      3  N   UNL A   1      35.814  23.548  24.212  1.00  0.00    -0.351 N 
ATOM      4  C   UNL A   1      34.458  23.511  23.991  1.00  0.00     0.283 C 
ATOM      5  O   UNL A   1      34.017  24.400  23.256  1.00  0.00    -0.268 OA
ATOM      6  H   UNL A   1      36.289  24.304  23.797  1.00  0.00     0.163 HD
BRANCH   4   7
ATOM      7  C   UNL A   1      33.578  22.431  24.711  1.00  0.00     0.307 C 
BRANCH   7   8
ATOM      8  C   UNL A   1      32.931  21.462  23.751  1.00  0.00     0.044 A 
ATOM      9  C   UNL A   1      34.876  16.853  24.907  1.00  0.00     0.044 C 
ATOM     10  C   UNL A   1      33.943  17.769  24.171  1.00  0.00    -0.050 A 
ATOM     11  C   UNL A   1      33.146  17.291  23.129  1.00  0.00     0.005 A 
ATOM     12  C   UNL A   1      33.908  19.135  24.500  1.00  0.00     0.014 A 
ATOM     13  C   UNL A   1      32.335  18.149  22.379  1.00  0.00     0.027 A 
ATOM     14  C   UNL A   1      33.124  20.031  23.738  1.00  0.00     0.009 A 
ATOM     15  C   UNL A   1      32.369  19.512  22.689  1.00  0.00     0.046 A 
ATOM     16  N   UNL A   1      31.746  20.572  22.075  1.00  0.00    -0.361 N 
ATOM     17  C   UNL A   1      32.138  21.748  22.653  1.00  0.00     0.094 A 
ATOM     18  H   UNL A   1      31.110  20.496  21.327  1.00  0.00     0.166 HD
ENDBRANCH   7   8
BRANCH   7  19
ATOM     19  N   UNL A   1      32.635  23.017  25.695  1.00  0.00    -0.318 N 
ATOM     20  C   UNL A   1      33.033  24.235  26.416  1.00  0.00     0.284 C 
ATOM     21  C   UNL A   1      31.242  23.133  25.229  1.00  0.00     0.284 C 
ATOM     22  H   UNL A   1      32.692  22.278  26.397  1.00  0.00     0.349 HD
ATOM     23  C   UNL A   1      32.669  25.597  25.790  1.00  0.00     0.178 C 
ATOM     24  C   UNL A   1      30.867  24.440  24.490  1.00  0.00     0.178 C 
ATOM     25  N   UNL A   1      31.310  25.626  25.235  1.00  0.00    -0.360 N 
BRANCH  25  26
ATOM     26  C   UNL A   1      30.877  26.845  24.713  1.00  0.00     0.037 A 
ATOM     27  C   UNL A   1      29.895  26.936  23.713  1.00  0.00     0.029 A 
ATOM     28  C   UNL A   1      31.442  28.030  25.199  1.00  0.00     0.029 A 
ATOM     29  C   UNL A   1      29.520  28.173  23.185  1.00  0.00     0.041 A 
ATOM     30  C   UNL A   1      31.074  29.269  24.671  1.00  0.00     0.041 A 
ATOM     31  C   UNL A   1      30.121  29.328  23.664  1.00  0.00     0.123 A 
ATOM     32  F   UNL A   1      29.777  30.514  23.146  1.00  0.00    -0.207 F 
ENDBRANCH  25  26
ENDBRANCH   7  19
ENDBRANCH   4   7
ENDBRANCH   2   3
ENDBRANCH   1   2
BRANCH   1  33
ATOM     33  C   UNL A   1      37.566  20.231  24.989  1.00  0.00     0.023 C 
BRANCH  33  34
ATOM     34  C   UNL A   1      38.826  20.601  25.750  1.00  0.00     0.116 C 
BRANCH  34  35
ATOM     35  N   UNL A   1      39.815  19.536  25.762  1.00  0.00    -0.352 N 
ATOM     36  C   UNL A   1      41.143  19.609  26.108  1.00  0.00     0.251 C 
ATOM     37  H   UNL A   1      39.493  18.647  25.486  1.00  0.00     0.163 HD
ATOM     38  O   UNL A   1      41.884  18.650  25.953  1.00  0.00    -0.269 OA
BRANCH  36  39
ATOM     39  C   UNL A   1      41.668  20.884  26.635  1.00  0.00     0.039 A 
ATOM     40  C   UNL A   1      42.142  21.839  25.735  1.00  0.00     0.014 A 
ATOM     41  C   UNL A   1      41.644  21.149  28.006  1.00  0.00     0.014 A 
ATOM     42  C   UNL A   1      42.544  23.086  26.209  1.00  0.00     0.010 A 
ATOM     43  C   UNL A   1      41.960  22.420  28.467  1.00  0.00     0.010 A 
ATOM     44  C   UNL A   1      42.426  23.395  27.575  1.00  0.00    -0.014 A 
BRANCH  44  45
ATOM     45  C   UNL A   1      42.815  24.729  28.092  1.00  0.00     0.031 A 
ATOM     46  C   UNL A   1      41.764  25.779  28.318  1.00  0.00     0.074 A 
ATOM     47  C   UNL A   1      44.115  25.010  28.303  1.00  0.00     0.049 A 
ATOM     48  N   UNL A   1      41.903  27.015  28.723  1.00  0.00    -0.248 NA
ATOM     49  C   UNL A   1      40.373  25.400  28.017  1.00  0.00     0.031 C 
ATOM     50  C   UNL A   1      45.232  24.093  28.062  1.00  0.00     0.029 A 
ATOM     51  N   UNL A   1      44.717  26.152  28.766  1.00  0.00    -0.354 N 
ATOM     52  C   UNL A   1      40.626  27.561  28.710  1.00  0.00     0.074 A 
ATOM     53  C   UNL A   1      39.734  26.544  28.199  1.00  0.00     0.031 C 
ATOM     54  C   UNL A   1      46.379  24.700  28.408  1.00  0.00     0.029 A 
ATOM     55  C   UNL A   1      46.083  26.054  28.862  1.00  0.00     0.049 A 
ATOM     56  H   UNL A   1      44.216  26.966  29.004  1.00  0.00     0.167 HD
ATOM     57  C   UNL A   1      40.229  28.790  29.116  1.00  0.00     0.037 A 
ATOM     58  C   UNL A   1      46.992  26.957  29.276  1.00  0.00     0.037 A 
ATOM     59  C   UNL A   1      41.115  29.785  29.654  1.00  0.00     0.049 A 
ATOM     60  C   UNL A   1      46.522  28.308  29.740  1.00  0.00     0.074 A 
ATOM     61  C   UNL A   1      40.804  31.039  30.151  1.00  0.00     0.029 A 
ATOM     62  N   UNL A   1      42.490  29.638  29.766  1.00  0.00    -0.354 N 
ATOM     63  N   UNL A   1      45.303  28.786  29.793  1.00  0.00    -0.248 NA
ATOM     64  C   UNL A   1      47.555  29.239  30.215  1.00  0.00     0.031 C 
ATOM     65  C   UNL A   1      41.997  31.666  30.530  1.00  0.00     0.029 A 
ATOM     66  C   UNL A   1      43.044  30.784  30.311  1.00  0.00     0.049 A 
ATOM     67  H   UNL A   1      42.995  28.838  29.498  1.00  0.00     0.167 HD
ATOM     68  C   UNL A   1      45.417  30.061  30.333  1.00  0.00     0.074 A 
ATOM     69  C   UNL A   1      46.823  30.274  30.604  1.00  0.00     0.031 C 
ATOM     70  C   UNL A   1      44.446  30.973  30.583  1.00  0.00     0.037 A 
BRANCH  57  71
ATOM     71  C   UNL A   1      38.767  29.114  29.000  1.00  0.00     0.057 A 
ATOM     72  C   UNL A   1      37.898  29.006  30.094  1.00  0.00     0.134 A 
ATOM     73  C   UNL A   1      38.227  29.558  27.787  1.00  0.00     0.134 A 
ATOM     74  F   UNL A   1      38.349  28.571  31.280  1.00  0.00    -0.206 F 
ATOM     75  C   UNL A   1      36.538  29.302  29.978  1.00  0.00     0.040 A 
ATOM     76  C   UNL A   1      36.874  29.884  27.667  1.00  0.00     0.040 A 
ATOM     77  F   UNL A   1      39.003  29.688  26.701  1.00  0.00    -0.206 F 
ATOM     78  C   UNL A   1      36.025  29.749  28.764  1.00  0.00     0.006 A 
ENDBRANCH  57  71
BRANCH  58  79
ATOM     79  C   UNL A   1      48.433  26.602  29.306  1.00  0.00     0.057 A 
ATOM     80  C   UNL A   1      49.276  26.912  28.232  1.00  0.00     0.134 A 
ATOM     81  C   UNL A   1      49.001  25.940  30.401  1.00  0.00     0.134 A 
ATOM     82  F   UNL A   1      48.785  27.533  27.148  1.00  0.00    -0.206 F 
ATOM     83  C   UNL A   1      50.625  26.557  28.234  1.00  0.00     0.040 A 
ATOM     84  C   UNL A   1      50.354  25.599  30.427  1.00  0.00     0.040 A 
ATOM     85  F   UNL A   1      48.249  25.623  31.465  1.00  0.00    -0.206 F 
ATOM     86  C   UNL A   1      51.169  25.901  29.336  1.00  0.00     0.006 A 
ENDBRANCH  58  79
BRANCH  70  87
ATOM     87  C   UNL A   1      44.869  32.266  31.215  1.00  0.00     0.057 A 
ATOM     88  C   UNL A   1      44.921  32.429  32.604  1.00  0.00     0.134 A 
ATOM     89  C   UNL A   1      45.257  33.351  30.419  1.00  0.00     0.134 A 
ATOM     90  F   UNL A   1      44.550  31.432  33.421  1.00  0.00    -0.206 F 
ATOM     91  C   UNL A   1      45.320  33.636  33.180  1.00  0.00     0.040 A 
ATOM     92  C   UNL A   1      45.683  34.554  30.983  1.00  0.00     0.040 A 
ATOM     93  F   UNL A   1      45.239  33.256  29.080  1.00  0.00    -0.206 F 
ATOM     94  C   UNL A   1      45.709  34.701  32.368  1.00  0.00     0.006 A 
ENDBRANCH  70  87
ENDBRANCH  44  45
ENDBRANCH  36  39
ENDBRANCH  34  35
ENDBRANCH  33  34
ENDBRANCH   1  33
TORSDOF 14
ENDMDL
MODEL 3
REMARK VINA RESULT:     -13.2      4.115      9.495
REMARK SMILES Cc1ccc2[nH]cc([C@@H](C(=O)NCCCCNC(=O)c3ccc(-c4c5nc(c(-c6c(F)cccc6F)c6ccc([nH]6)c(-c6c(F)cccc6F)c6nc(c(-c7c(F)cccc7F)c7ccc4[nH]7)C=C6)C=C5)cc3)[NH+]3CCN(c4ccc(F)cc4)CC3)c2c1
REMARK SMILES IDX 14 1 13 2 12 3 10 4 11 5 9 7 8 8 1 9 2 10 3 11 88 12 4 13
REMARK SMILES IDX 87 14 5 15 6 16 7 17 74 19 75 20 86 21 76 23 85 24 77 25
REMARK SMILES IDX 78 26 79 27 84 28 80 29 83 30 81 31 82 32 15 33 16 34 17 35
REMARK SMILES IDX 18 36 19 38 20 39 21 40 73 41 22 42 72 43 23 44 24 45 25 46
REMARK SMILES IDX 66 47 26 48 71 49 65 50 67 51 27 52 70 53 64 54 63 55 28 57
REMARK SMILES IDX 54 58 37 59 53 60 38 61 41 62 52 63 68 64 39 65 40 66 51 68
REMARK SMILES IDX 69 69 42 70 29 71 30 72 35 73 31 74 32 75 34 76 36 77 33 78
REMARK SMILES IDX 55 79 56 80 61 81 57 82 58 83 60 84 62 85 59 86 43 87 44 88
REMARK SMILES IDX 49 89 45 90 46 91 48 92 50 93 47 94
REMARK H PARENT 12 6 6 18 74 22 17 37 67 56 41 67
REMARK Flexibility Score: inf
ROOT
ATOM      1  C   UNL A   1      31.735  29.976  26.988  1.00  0.00     0.023 C 
ENDROOT
BRANCH   1   2
ATOM      2  C   UNL A   1      32.864  29.178  26.337  1.00  0.00     0.116 C 
BRANCH   2   3
ATOM      3  N   UNL A   1      32.696  27.754  26.525  1.00  0.00    -0.351 N 
ATOM      4  C   UNL A   1      32.164  26.822  25.665  1.00  0.00     0.283 C 
ATOM      5  O   UNL A   1      32.093  25.672  26.108  1.00  0.00    -0.268 OA
ATOM      6  H   UNL A   1      33.006  27.401  27.390  1.00  0.00     0.163 HD
BRANCH   4   7
ATOM      7  C   UNL A   1      31.762  27.243  24.209  1.00  0.00     0.307 C 
BRANCH   7   8
ATOM      8  C   UNL A   1      30.271  27.209  23.976  1.00  0.00     0.044 A 
ATOM      9  C   UNL A   1      28.927  32.039  22.867  1.00  0.00     0.044 C 
ATOM     10  C   UNL A   1      28.654  30.570  23.017  1.00  0.00    -0.050 A 
ATOM     11  C   UNL A   1      27.353  30.072  22.916  1.00  0.00     0.005 A 
ATOM     12  C   UNL A   1      29.712  29.694  23.312  1.00  0.00     0.014 A 
ATOM     13  C   UNL A   1      27.072  28.719  23.137  1.00  0.00     0.027 A 
ATOM     14  C   UNL A   1      29.453  28.329  23.573  1.00  0.00     0.009 A 
ATOM     15  C   UNL A   1      28.136  27.883  23.491  1.00  0.00     0.046 A 
ATOM     16  N   UNL A   1      28.135  26.553  23.837  1.00  0.00    -0.361 N 
ATOM     17  C   UNL A   1      29.394  26.162  24.204  1.00  0.00     0.094 A 
ATOM     18  H   UNL A   1      27.345  25.967  23.822  1.00  0.00     0.166 HD
ENDBRANCH   7   8
BRANCH   7  19
ATOM     19  N   UNL A   1      32.546  26.536  23.166  1.00  0.00    -0.318 N 
ATOM     20  C   UNL A   1      33.916  26.107  23.482  1.00  0.00     0.284 C 
ATOM     21  C   UNL A   1      31.824  25.458  22.469  1.00  0.00     0.284 C 
ATOM     22  H   UNL A   1      32.668  27.323  22.528  1.00  0.00     0.349 HD
ATOM     23  C   UNL A   1      34.114  24.700  24.081  1.00  0.00     0.178 C 
ATOM     24  C   UNL A   1      31.900  24.050  23.105  1.00  0.00     0.178 C 
ATOM     25  N   UNL A   1      33.286  23.679  23.428  1.00  0.00    -0.360 N 
BRANCH  25  26
ATOM     26  C   UNL A   1      33.457  22.365  23.864  1.00  0.00     0.037 A 
ATOM     27  C   UNL A   1      34.602  21.938  24.555  1.00  0.00     0.029 A 
ATOM     28  C   UNL A   1      32.450  21.428  23.602  1.00  0.00     0.029 A 
ATOM     29  C   UNL A   1      34.755  20.603  24.936  1.00  0.00     0.041 A 
ATOM     30  C   UNL A   1      32.600  20.091  23.976  1.00  0.00     0.041 A 
ATOM     31  C   UNL A   1      33.754  19.691  24.634  1.00  0.00     0.123 A 
ATOM     32  F   UNL A   1      33.907  18.406  24.981  1.00  0.00    -0.207 F 
ENDBRANCH  25  26
ENDBRANCH   7  19
ENDBRANCH   4   7
ENDBRANCH   2   3
ENDBRANCH   1   2
BRANCH   1  33
ATOM     33  C   UNL A   1      31.654  31.438  26.562  1.00  0.00     0.023 C 
BRANCH  33  34
ATOM     34  C   UNL A   1      32.886  32.257  26.900  1.00  0.00     0.116 C 
BRANCH  34  35
ATOM     35  N   UNL A   1      32.566  33.589  27.386  1.00  0.00    -0.352 N 
ATOM     36  C   UNL A   1      33.164  34.293  28.404  1.00  0.00     0.251 C 
ATOM     37  H   UNL A   1      31.824  34.047  26.928  1.00  0.00     0.163 HD
ATOM     38  O   UNL A   1      32.705  35.361  28.781  1.00  0.00    -0.269 OA
BRANCH  36  39
ATOM     39  C   UNL A   1      34.352  33.714  29.062  1.00  0.00     0.039 A 
ATOM     40  C   UNL A   1      34.171  32.706  30.009  1.00  0.00     0.014 A 
ATOM     41  C   UNL A   1      35.636  34.132  28.704  1.00  0.00     0.014 A 
ATOM     42  C   UNL A   1      35.286  32.078  30.562  1.00  0.00     0.010 A 
ATOM     43  C   UNL A   1      36.742  33.448  29.188  1.00  0.00     0.010 A 
ATOM     44  C   UNL A   1      36.578  32.423  30.132  1.00  0.00    -0.014 A 
BRANCH  44  45
ATOM     45  C   UNL A   1      37.774  31.742  30.682  1.00  0.00     0.031 A 
ATOM     46  C   UNL A   1      38.285  32.115  32.046  1.00  0.00     0.074 A 
ATOM     47  C   UNL A   1      38.428  30.833  29.935  1.00  0.00     0.049 A 
ATOM     48  N   UNL A   1      39.335  31.669  32.686  1.00  0.00    -0.248 NA
ATOM     49  C   UNL A   1      37.534  33.152  32.775  1.00  0.00     0.031 C 
ATOM     50  C   UNL A   1      38.063  30.433  28.574  1.00  0.00     0.029 A 
ATOM     51  N   UNL A   1      39.542  30.084  30.215  1.00  0.00    -0.354 N 
ATOM     52  C   UNL A   1      39.377  32.379  33.879  1.00  0.00     0.074 A 
ATOM     53  C   UNL A   1      38.287  33.328  33.848  1.00  0.00     0.031 C 
ATOM     54  C   UNL A   1      38.921  29.490  28.150  1.00  0.00     0.029 A 
ATOM     55  C   UNL A   1      39.910  29.243  29.194  1.00  0.00     0.049 A 
ATOM     56  H   UNL A   1      40.031  30.144  31.067  1.00  0.00     0.167 HD
ATOM     57  C   UNL A   1      40.231  32.233  34.919  1.00  0.00     0.037 A 
ATOM     58  C   UNL A   1      40.931  28.368  29.113  1.00  0.00     0.037 A 
ATOM     59  C   UNL A   1      41.294  31.265  34.957  1.00  0.00     0.049 A 
ATOM     60  C   UNL A   1      41.853  28.211  30.290  1.00  0.00     0.074 A 
ATOM     61  C   UNL A   1      42.177  30.994  35.989  1.00  0.00     0.029 A 
ATOM     62  N   UNL A   1      41.617  30.408  33.916  1.00  0.00    -0.354 N 
ATOM     63  N   UNL A   1      41.838  28.836  31.442  1.00  0.00    -0.248 NA
ATOM     64  C   UNL A   1      42.927  27.216  30.160  1.00  0.00     0.031 C 
ATOM     65  C   UNL A   1      43.059  29.997  35.556  1.00  0.00     0.029 A 
ATOM     66  C   UNL A   1      42.696  29.616  34.274  1.00  0.00     0.049 A 
ATOM     67  H   UNL A   1      41.149  30.368  33.052  1.00  0.00     0.167 HD
ATOM     68  C   UNL A   1      42.878  28.291  32.185  1.00  0.00     0.074 A 
ATOM     69  C   UNL A   1      43.493  27.274  31.357  1.00  0.00     0.031 C 
ATOM     70  C   UNL A   1      43.287  28.602  33.438  1.00  0.00     0.037 A 
BRANCH  57  71
ATOM     71  C   UNL A   1      40.038  33.137  36.102  1.00  0.00     0.057 A 
ATOM     72  C   UNL A   1      40.718  34.358  36.216  1.00  0.00     0.134 A 
ATOM     73  C   UNL A   1      39.150  32.794  37.128  1.00  0.00     0.134 A 
ATOM     74  F   UNL A   1      41.596  34.738  35.276  1.00  0.00    -0.206 F 
ATOM     75  C   UNL A   1      40.541  35.191  37.322  1.00  0.00     0.040 A 
ATOM     76  C   UNL A   1      38.943  33.634  38.224  1.00  0.00     0.040 A 
ATOM     77  F   UNL A   1      38.464  31.642  37.079  1.00  0.00    -0.206 F 
ATOM     78  C   UNL A   1      39.645  34.833  38.326  1.00  0.00     0.006 A 
ENDBRANCH  57  71
BRANCH  58  79
ATOM     79  C   UNL A   1      41.112  27.547  27.890  1.00  0.00     0.057 A 
ATOM     80  C   UNL A   1      40.532  26.278  27.781  1.00  0.00     0.134 A 
ATOM     81  C   UNL A   1      41.873  28.004  26.807  1.00  0.00     0.134 A 
ATOM     82  F   UNL A   1      39.804  25.780  28.792  1.00  0.00    -0.206 F 
ATOM     83  C   UNL A   1      40.719  25.482  26.650  1.00  0.00     0.040 A 
ATOM     84  C   UNL A   1      42.049  27.229  25.660  1.00  0.00     0.040 A 
ATOM     85  F   UNL A   1      42.448  29.215  26.846  1.00  0.00    -0.206 F 
ATOM     86  C   UNL A   1      41.477  25.960  25.583  1.00  0.00     0.006 A 
ENDBRANCH  58  79
BRANCH  70  87
ATOM     87  C   UNL A   1      44.428  27.809  34.003  1.00  0.00     0.057 A 
ATOM     88  C   UNL A   1      45.756  28.239  33.895  1.00  0.00     0.134 A 
ATOM     89  C   UNL A   1      44.188  26.611  34.690  1.00  0.00     0.134 A 
ATOM     90  F   UNL A   1      46.052  29.371  33.239  1.00  0.00    -0.206 F 
ATOM     91  C   UNL A   1      46.808  27.494  34.428  1.00  0.00     0.040 A 
ATOM     92  C   UNL A   1      45.229  25.871  35.250  1.00  0.00     0.040 A 
ATOM     93  F   UNL A   1      42.937  26.148  34.836  1.00  0.00    -0.206 F 
ATOM     94  C   UNL A   1      46.545  26.308  35.114  1.00  0.00     0.006 A 
ENDBRANCH  70  87
ENDBRANCH  44  45
ENDBRANCH  36  39
ENDBRANCH  34  35
ENDBRANCH  33  34
ENDBRANCH   1  33
TORSDOF 14
ENDMDL
