MODEL 1
REMARK VINA RESULT:     -11.3      0.000      0.000
REMARK SMILES COc1ccccc1C[N@@H+](C)[C@@H](C)c1ccc(C(=O)NCCCCNC(=O)c2ccc(-c3c4nc(c(-c5c(F)cccc5F)c5ccc([nH]5)c(-c5c(F)cccc5F)c5nc(c(-c6c(F)cccc6F)c6ccc3[nH]6)C=C5)C=C4)cc2)o1
REMARK SMILES IDX 21 1 20 2 18 3 19 4 17 6 14 7 15 8 82 9 16 10 12 11 13 12
REMARK SMILES IDX 10 13 11 14 9 16 8 17 3 18 4 19 5 20 7 21 6 22 2 23 1 24
REMARK SMILES IDX 22 25 23 26 24 27 25 28 26 29 27 31 28 32 29 33 81 34 30 35
REMARK SMILES IDX 80 36 31 37 32 38 33 39 74 40 34 41 79 42 73 43 75 44 35 45
REMARK SMILES IDX 78 46 72 47 71 48 36 50 62 51 45 52 61 53 46 54 49 55 60 56
REMARK SMILES IDX 76 57 47 58 48 59 59 61 77 62 50 63 37 64 38 65 43 66 39 67
REMARK SMILES IDX 40 68 42 69 44 70 41 71 63 72 64 73 69 74 65 75 66 76 68 77
REMARK SMILES IDX 70 78 67 79 51 80 52 81 57 82 53 83 54 84 56 85 58 86 55 87
REMARK H PARENT 20 5 10 15 25 30 75 49 49 60
REMARK Flexibility Score: inf
ROOT
ATOM      1  C   UNL A   1      32.904  29.542  25.694  1.00  0.00     0.116 C 
ENDROOT
BRANCH   1   2
ATOM      2  N   UNL A   1      33.615  29.368  24.448  1.00  0.00    -0.349 N 
ATOM      3  C   UNL A   1      33.595  28.342  23.526  1.00  0.00     0.287 C 
ATOM      4  O   UNL A   1      34.195  28.586  22.474  1.00  0.00    -0.266 OA
ATOM      5  H   UNL A   1      34.217  30.112  24.215  1.00  0.00     0.163 HD
BRANCH   3   6
ATOM      6  C   UNL A   1      32.929  27.077  23.795  1.00  0.00     0.191 A 
ATOM      7  C   UNL A   1      32.969  24.928  24.377  1.00  0.00     0.161 A 
ATOM      8  C   UNL A   1      31.642  25.299  24.331  1.00  0.00     0.053 A 
ATOM      9  O   UNL A   1      33.742  25.977  23.969  1.00  0.00    -0.450 OA
ATOM     10  C   UNL A   1      31.621  26.673  23.997  1.00  0.00     0.057 A 
BRANCH   7  11
ATOM     11  C   UNL A   1      33.680  23.663  24.791  1.00  0.00     0.248 C 
ATOM     12  C   UNL A   1      35.131  23.960  25.214  1.00  0.00     0.084 C 
BRANCH  11  13
ATOM     13  N   UNL A   1      33.542  22.556  23.805  1.00  0.00    -0.325 N 
ATOM     14  C   UNL A   1      33.355  23.080  22.449  1.00  0.00     0.333 C 
ATOM     15  H   UNL A   1      34.424  22.051  23.879  1.00  0.00     0.348 HD
BRANCH  13  16
ATOM     16  C   UNL A   1      32.487  21.567  24.098  1.00  0.00     0.303 C 
BRANCH  16  17
ATOM     17  C   UNL A   1      32.889  20.118  23.936  1.00  0.00     0.048 A 
ATOM     18  C   UNL A   1      33.974  19.553  24.620  1.00  0.00     0.127 A 
ATOM     19  C   UNL A   1      34.362  18.229  24.389  1.00  0.00     0.047 A 
ATOM     20  C   UNL A   1      33.635  17.432  23.506  1.00  0.00     0.004 A 
ATOM     21  C   UNL A   1      32.161  19.294  23.059  1.00  0.00     0.013 A 
ATOM     22  C   UNL A   1      32.528  17.963  22.849  1.00  0.00     0.001 A 
BRANCH  18  23
ATOM     23  O   UNL A   1      34.758  20.304  25.457  1.00  0.00    -0.496 OA
ATOM     24  C   UNL A   1      36.111  20.307  25.001  1.00  0.00     0.278 C 
ENDBRANCH  18  23
ENDBRANCH  16  17
ENDBRANCH  13  16
ENDBRANCH  11  13
ENDBRANCH   7  11
ENDBRANCH   3   6
ENDBRANCH   1   2
BRANCH   1  25
ATOM     25  C   UNL A   1      31.682  30.448  25.542  1.00  0.00     0.023 C 
BRANCH  25  26
ATOM     26  C   UNL A   1      31.447  31.407  26.717  1.00  0.00     0.023 C 
BRANCH  26  27
ATOM     27  C   UNL A   1      32.654  32.244  27.143  1.00  0.00     0.116 C 
BRANCH  27  28
ATOM     28  N   UNL A   1      32.334  33.633  27.433  1.00  0.00    -0.352 N 
ATOM     29  C   UNL A   1      32.978  34.507  28.278  1.00  0.00     0.251 C 
ATOM     30  H   UNL A   1      31.550  33.998  26.960  1.00  0.00     0.163 HD
ATOM     31  O   UNL A   1      32.532  35.631  28.465  1.00  0.00    -0.269 OA
BRANCH  29  32
ATOM     32  C   UNL A   1      34.187  34.057  29.000  1.00  0.00     0.039 A 
ATOM     33  C   UNL A   1      34.027  33.350  30.194  1.00  0.00     0.014 A 
ATOM     34  C   UNL A   1      35.462  34.297  28.484  1.00  0.00     0.014 A 
ATOM     35  C   UNL A   1      35.146  32.803  30.825  1.00  0.00     0.010 A 
ATOM     36  C   UNL A   1      36.569  33.700  29.081  1.00  0.00     0.010 A 
ATOM     37  C   UNL A   1      36.418  32.934  30.247  1.00  0.00    -0.014 A 
BRANCH  37  38
ATOM     38  C   UNL A   1      37.597  32.239  30.820  1.00  0.00     0.031 A 
ATOM     39  C   UNL A   1      38.273  32.777  32.048  1.00  0.00     0.074 A 
ATOM     40  C   UNL A   1      38.107  31.169  30.180  1.00  0.00     0.049 A 
ATOM     41  N   UNL A   1      39.363  32.358  32.641  1.00  0.00    -0.248 NA
ATOM     42  C   UNL A   1      37.660  33.956  32.678  1.00  0.00     0.031 C 
ATOM     43  C   UNL A   1      37.570  30.584  28.950  1.00  0.00     0.029 A 
ATOM     44  N   UNL A   1      39.201  30.393  30.467  1.00  0.00    -0.354 N 
ATOM     45  C   UNL A   1      39.572  33.227  33.703  1.00  0.00     0.074 A 
ATOM     46  C   UNL A   1      38.524  34.224  33.647  1.00  0.00     0.031 C 
ATOM     47  C   UNL A   1      38.326  29.531  28.598  1.00  0.00     0.029 A 
ATOM     48  C   UNL A   1      39.420  29.390  29.553  1.00  0.00     0.049 A 
ATOM     49  H   UNL A   1      39.775  30.540  31.252  1.00  0.00     0.167 HD
ATOM     50  C   UNL A   1      40.540  33.187  34.650  1.00  0.00     0.037 A 
ATOM     51  C   UNL A   1      40.397  28.467  29.487  1.00  0.00     0.037 A 
ATOM     52  C   UNL A   1      41.569  32.182  34.715  1.00  0.00     0.049 A 
ATOM     53  C   UNL A   1      41.461  28.446  30.548  1.00  0.00     0.074 A 
ATOM     54  C   UNL A   1      42.554  32.019  35.673  1.00  0.00     0.029 A 
ATOM     55  N   UNL A   1      41.746  31.171  33.782  1.00  0.00    -0.354 N 
ATOM     56  N   UNL A   1      41.607  29.234  31.585  1.00  0.00    -0.248 NA
ATOM     57  C   UNL A   1      42.493  27.407  30.431  1.00  0.00     0.031 C 
ATOM     58  C   UNL A   1      43.353  30.932  35.298  1.00  0.00     0.029 A 
ATOM     59  C   UNL A   1      42.837  30.393  34.131  1.00  0.00     0.049 A 
ATOM     60  H   UNL A   1      41.178  31.028  32.990  1.00  0.00     0.167 HD
ATOM     61  C   UNL A   1      42.733  28.773  32.257  1.00  0.00     0.074 A 
ATOM     62  C   UNL A   1      43.221  27.627  31.517  1.00  0.00     0.031 C 
ATOM     63  C   UNL A   1      43.309  29.255  33.385  1.00  0.00     0.037 A 
BRANCH  50  64
ATOM     64  C   UNL A   1      40.526  34.261  35.696  1.00  0.00     0.057 A 
ATOM     65  C   UNL A   1      41.264  35.443  35.548  1.00  0.00     0.134 A 
ATOM     66  C   UNL A   1      39.739  34.130  36.847  1.00  0.00     0.134 A 
ATOM     67  F   UNL A   1      42.046  35.627  34.474  1.00  0.00    -0.206 F 
ATOM     68  C   UNL A   1      41.239  36.445  36.520  1.00  0.00     0.040 A 
ATOM     69  C   UNL A   1      39.687  35.136  37.814  1.00  0.00     0.040 A 
ATOM     70  F   UNL A   1      39.005  33.025  37.049  1.00  0.00    -0.206 F 
ATOM     71  C   UNL A   1      40.443  36.295  37.654  1.00  0.00     0.006 A 
ENDBRANCH  50  64
BRANCH  51  72
ATOM     72  C   UNL A   1      40.406  27.472  28.387  1.00  0.00     0.057 A 
ATOM     73  C   UNL A   1      41.151  27.692  27.223  1.00  0.00     0.134 A 
ATOM     74  C   UNL A   1      39.670  26.284  28.468  1.00  0.00     0.134 A 
ATOM     75  F   UNL A   1      41.862  28.821  27.081  1.00  0.00    -0.206 F 
ATOM     76  C   UNL A   1      41.151  26.775  26.171  1.00  0.00     0.040 A 
ATOM     77  C   UNL A   1      39.679  25.348  27.432  1.00  0.00     0.040 A 
ATOM     78  F   UNL A   1      38.942  26.011  29.560  1.00  0.00    -0.206 F 
ATOM     79  C   UNL A   1      40.416  25.597  26.277  1.00  0.00     0.006 A 
ENDBRANCH  51  72
BRANCH  63  80
ATOM     80  C   UNL A   1      44.515  28.528  33.899  1.00  0.00     0.057 A 
ATOM     81  C   UNL A   1      45.815  28.912  33.544  1.00  0.00     0.134 A 
ATOM     82  C   UNL A   1      44.376  27.453  34.786  1.00  0.00     0.134 A 
ATOM     83  F   UNL A   1      46.015  29.924  32.686  1.00  0.00    -0.206 F 
ATOM     84  C   UNL A   1      46.933  28.238  34.039  1.00  0.00     0.040 A 
ATOM     85  C   UNL A   1      45.487  26.788  35.305  1.00  0.00     0.040 A 
ATOM     86  F   UNL A   1      43.159  27.040  35.171  1.00  0.00    -0.206 F 
ATOM     87  C   UNL A   1      46.770  27.176  34.927  1.00  0.00     0.006 A 
ENDBRANCH  63  80
ENDBRANCH  37  38
ENDBRANCH  29  32
ENDBRANCH  27  28
ENDBRANCH  26  27
ENDBRANCH  25  26
ENDBRANCH   1  25
TORSDOF 16
ENDMDL
MODEL 2
REMARK VINA RESULT:     -11.2      4.547     10.115
REMARK SMILES COc1ccccc1C[N@@H+](C)[C@@H](C)c1ccc(C(=O)NCCCCNC(=O)c2ccc(-c3c4nc(c(-c5c(F)cccc5F)c5ccc([nH]5)c(-c5c(F)cccc5F)c5nc(c(-c6c(F)cccc6F)c6ccc3[nH]6)C=C5)C=C4)cc2)o1
REMARK SMILES IDX 21 1 20 2 18 3 19 4 17 6 14 7 15 8 82 9 16 10 12 11 13 12
REMARK SMILES IDX 10 13 11 14 9 16 8 17 3 18 4 19 5 20 7 21 6 22 2 23 1 24
REMARK SMILES IDX 22 25 23 26 24 27 25 28 26 29 27 31 28 32 29 33 81 34 30 35
REMARK SMILES IDX 80 36 31 37 32 38 33 39 74 40 34 41 79 42 73 43 75 44 35 45
REMARK SMILES IDX 78 46 72 47 71 48 36 50 62 51 45 52 61 53 46 54 49 55 60 56
REMARK SMILES IDX 76 57 47 58 48 59 59 61 77 62 50 63 37 64 38 65 43 66 39 67
REMARK SMILES IDX 40 68 42 69 44 70 41 71 63 72 64 73 69 74 65 75 66 76 68 77
REMARK SMILES IDX 70 78 67 79 51 80 52 81 57 82 53 83 54 84 56 85 58 86 55 87
REMARK H PARENT 20 5 10 15 25 30 75 49 49 60
REMARK Flexibility Score: inf
ROOT
ATOM      1  C   UNL A   1      35.799  21.203  25.376  1.00  0.00     0.116 C 
ENDROOT
BRANCH   1   2
ATOM      2  N   UNL A   1      34.973  20.052  25.092  1.00  0.00    -0.349 N 
ATOM      3  C   UNL A   1      33.669  19.957  24.650  1.00  0.00     0.287 C 
ATOM      4  O   UNL A   1      33.316  18.814  24.340  1.00  0.00    -0.266 OA
ATOM      5  H   UNL A   1      35.417  19.185  25.238  1.00  0.00     0.163 HD
BRANCH   3   6
ATOM      6  C   UNL A   1      32.793  21.115  24.576  1.00  0.00     0.191 A 
ATOM      7  C   UNL A   1      31.557  22.700  25.535  1.00  0.00     0.161 A 
ATOM      8  C   UNL A   1      31.613  23.003  24.192  1.00  0.00     0.053 A 
ATOM      9  O   UNL A   1      32.198  21.514  25.754  1.00  0.00    -0.450 OA
ATOM     10  C   UNL A   1      32.428  22.016  23.591  1.00  0.00     0.057 A 
BRANCH   7  11
ATOM     11  C   UNL A   1      30.977  23.406  26.736  1.00  0.00     0.248 C 
ATOM     12  C   UNL A   1      29.591  22.836  27.093  1.00  0.00     0.084 C 
BRANCH  11  13
ATOM     13  N   UNL A   1      31.021  24.890  26.628  1.00  0.00    -0.325 N 
ATOM     14  C   UNL A   1      29.936  25.389  25.778  1.00  0.00     0.333 C 
ATOM     15  H   UNL A   1      30.904  25.209  27.589  1.00  0.00     0.348 HD
BRANCH  13  16
ATOM     16  C   UNL A   1      32.303  25.459  26.170  1.00  0.00     0.303 C 
BRANCH  16  17
ATOM     17  C   UNL A   1      32.321  26.960  25.983  1.00  0.00     0.048 A 
ATOM     18  C   UNL A   1      32.611  27.565  24.752  1.00  0.00     0.127 A 
ATOM     19  C   UNL A   1      32.692  28.957  24.634  1.00  0.00     0.047 A 
ATOM     20  C   UNL A   1      32.430  29.768  25.737  1.00  0.00     0.004 A 
ATOM     21  C   UNL A   1      32.049  27.796  27.081  1.00  0.00     0.013 A 
ATOM     22  C   UNL A   1      32.099  29.187  26.958  1.00  0.00     0.001 A 
BRANCH  18  23
ATOM     23  O   UNL A   1      32.930  26.818  23.648  1.00  0.00    -0.496 OA
ATOM     24  C   UNL A   1      33.638  27.614  22.698  1.00  0.00     0.278 C 
ENDBRANCH  18  23
ENDBRANCH  16  17
ENDBRANCH  13  16
ENDBRANCH  11  13
ENDBRANCH   7  11
ENDBRANCH   3   6
ENDBRANCH   1   2
BRANCH   1  25
ATOM     25  C   UNL A   1      37.144  21.142  24.651  1.00  0.00     0.023 C 
BRANCH  25  26
ATOM     26  C   UNL A   1      38.005  19.920  24.999  1.00  0.00     0.023 C 
BRANCH  26  27
ATOM     27  C   UNL A   1      39.227  20.197  25.875  1.00  0.00     0.116 C 
BRANCH  27  28
ATOM     28  N   UNL A   1      40.207  19.121  25.875  1.00  0.00    -0.352 N 
ATOM     29  C   UNL A   1      41.562  19.191  26.100  1.00  0.00     0.251 C 
ATOM     30  H   UNL A   1      39.852  18.221  25.688  1.00  0.00     0.163 HD
ATOM     31  O   UNL A   1      42.261  18.192  25.989  1.00  0.00    -0.269 OA
BRANCH  29  32
ATOM     32  C   UNL A   1      42.176  20.495  26.425  1.00  0.00     0.039 A 
ATOM     33  C   UNL A   1      42.650  21.290  25.378  1.00  0.00     0.014 A 
ATOM     34  C   UNL A   1      42.247  20.946  27.745  1.00  0.00     0.014 A 
ATOM     35  C   UNL A   1      43.114  22.579  25.648  1.00  0.00     0.010 A 
ATOM     36  C   UNL A   1      42.652  22.252  28.004  1.00  0.00     0.010 A 
ATOM     37  C   UNL A   1      43.073  23.085  26.957  1.00  0.00    -0.014 A 
BRANCH  37  38
ATOM     38  C   UNL A   1      43.423  24.498  27.243  1.00  0.00     0.031 A 
ATOM     39  C   UNL A   1      44.849  24.961  27.160  1.00  0.00     0.074 A 
ATOM     40  C   UNL A   1      42.460  25.343  27.662  1.00  0.00     0.049 A 
ATOM     41  N   UNL A   1      45.356  26.130  27.458  1.00  0.00    -0.248 NA
ATOM     42  C   UNL A   1      45.839  23.972  26.706  1.00  0.00     0.031 C 
ATOM     43  C   UNL A   1      41.048  24.998  27.833  1.00  0.00     0.029 A 
ATOM     44  N   UNL A   1      42.528  26.661  28.037  1.00  0.00    -0.354 N 
ATOM     45  C   UNL A   1      46.722  26.014  27.241  1.00  0.00     0.074 A 
ATOM     46  C   UNL A   1      46.972  24.649  26.831  1.00  0.00     0.031 C 
ATOM     47  C   UNL A   1      40.379  26.082  28.262  1.00  0.00     0.029 A 
ATOM     48  C   UNL A   1      41.320  27.184  28.432  1.00  0.00     0.049 A 
ATOM     49  H   UNL A   1      43.362  27.183  28.023  1.00  0.00     0.167 HD
ATOM     50  C   UNL A   1      47.679  26.966  27.356  1.00  0.00     0.037 A 
ATOM     51  C   UNL A   1      41.008  28.412  28.888  1.00  0.00     0.037 A 
ATOM     52  C   UNL A   1      47.425  28.329  27.744  1.00  0.00     0.049 A 
ATOM     53  C   UNL A   1      42.089  29.447  29.010  1.00  0.00     0.074 A 
ATOM     54  C   UNL A   1      48.320  29.382  27.826  1.00  0.00     0.029 A 
ATOM     55  N   UNL A   1      46.186  28.826  28.118  1.00  0.00    -0.354 N 
ATOM     56  N   UNL A   1      43.367  29.343  28.736  1.00  0.00    -0.248 NA
ATOM     57  C   UNL A   1      41.685  30.772  29.501  1.00  0.00     0.031 C 
ATOM     58  C   UNL A   1      47.627  30.508  28.288  1.00  0.00     0.029 A 
ATOM     59  C   UNL A   1      46.295  30.166  28.452  1.00  0.00     0.049 A 
ATOM     60  H   UNL A   1      45.352  28.303  28.142  1.00  0.00     0.167 HD
ATOM     61  C   UNL A   1      43.915  30.592  28.999  1.00  0.00     0.074 A 
ATOM     62  C   UNL A   1      42.828  31.442  29.439  1.00  0.00     0.031 C 
ATOM     63  C   UNL A   1      45.203  30.998  28.886  1.00  0.00     0.037 A 
BRANCH  50  64
ATOM     64  C   UNL A   1      49.092  26.564  27.052  1.00  0.00     0.057 A 
ATOM     65  C   UNL A   1      49.610  26.619  25.751  1.00  0.00     0.134 A 
ATOM     66  C   UNL A   1      49.955  26.150  28.074  1.00  0.00     0.134 A 
ATOM     67  F   UNL A   1      48.832  26.996  24.725  1.00  0.00    -0.206 F 
ATOM     68  C   UNL A   1      50.928  26.254  25.474  1.00  0.00     0.040 A 
ATOM     69  C   UNL A   1      51.283  25.806  27.814  1.00  0.00     0.040 A 
ATOM     70  F   UNL A   1      49.524  26.079  29.343  1.00  0.00    -0.206 F 
ATOM     71  C   UNL A   1      51.771  25.852  26.509  1.00  0.00     0.006 A 
ENDBRANCH  50  64
BRANCH  51  72
ATOM     72  C   UNL A   1      39.605  28.735  29.247  1.00  0.00     0.057 A 
ATOM     73  C   UNL A   1      38.719  29.250  28.295  1.00  0.00     0.134 A 
ATOM     74  C   UNL A   1      39.119  28.545  30.546  1.00  0.00     0.134 A 
ATOM     75  F   UNL A   1      39.133  29.471  27.038  1.00  0.00    -0.206 F 
ATOM     76  C   UNL A   1      37.404  29.581  28.623  1.00  0.00     0.040 A 
ATOM     77  C   UNL A   1      37.798  28.849  30.883  1.00  0.00     0.040 A 
ATOM     78  F   UNL A   1      39.916  28.047  31.502  1.00  0.00    -0.206 F 
ATOM     79  C   UNL A   1      36.939  29.375  29.920  1.00  0.00     0.006 A 
ENDBRANCH  51  72
BRANCH  63  80
ATOM     80  C   UNL A   1      45.499  32.430  29.219  1.00  0.00     0.057 A 
ATOM     81  C   UNL A   1      45.393  33.446  28.261  1.00  0.00     0.134 A 
ATOM     82  C   UNL A   1      45.861  32.800  30.520  1.00  0.00     0.134 A 
ATOM     83  F   UNL A   1      45.064  33.154  26.993  1.00  0.00    -0.206 F 
ATOM     84  C   UNL A   1      45.656  34.779  28.582  1.00  0.00     0.040 A 
ATOM     85  C   UNL A   1      46.104  34.132  30.858  1.00  0.00     0.040 A 
ATOM     86  F   UNL A   1      45.974  31.876  31.485  1.00  0.00    -0.206 F 
ATOM     87  C   UNL A   1      46.007  35.125  29.885  1.00  0.00     0.006 A 
ENDBRANCH  63  80
ENDBRANCH  37  38
ENDBRANCH  29  32
ENDBRANCH  27  28
ENDBRANCH  26  27
ENDBRANCH  25  26
ENDBRANCH   1  25
TORSDOF 16
ENDMDL
MODEL 3
REMARK VINA RESULT:     -11.2      4.789      9.702
REMARK SMILES COc1ccccc1C[N@@H+](C)[C@@H](C)c1ccc(C(=O)NCCCCNC(=O)c2ccc(-c3c4nc(c(-c5c(F)cccc5F)c5ccc([nH]5)c(-c5c(F)cccc5F)c5nc(c(-c6c(F)cccc6F)c6ccc3[nH]6)C=C5)C=C4)cc2)o1
REMARK SMILES IDX 21 1 20 2 18 3 19 4 17 6 14 7 15 8 82 9 16 10 12 11 13 12
REMARK SMILES IDX 10 13 11 14 9 16 8 17 3 18 4 19 5 20 7 21 6 22 2 23 1 24
REMARK SMILES IDX 22 25 23 26 24 27 25 28 26 29 27 31 28 32 29 33 81 34 30 35
REMARK SMILES IDX 80 36 31 37 32 38 33 39 74 40 34 41 79 42 73 43 75 44 35 45
REMARK SMILES IDX 78 46 72 47 71 48 36 50 62 51 45 52 61 53 46 54 49 55 60 56
REMARK SMILES IDX 76 57 47 58 48 59 59 61 77 62 50 63 37 64 38 65 43 66 39 67
REMARK SMILES IDX 40 68 42 69 44 70 41 71 63 72 64 73 69 74 65 75 66 76 68 77
REMARK SMILES IDX 70 78 67 79 51 80 52 81 57 82 53 83 54 84 56 85 58 86 55 87
REMARK H PARENT 20 5 10 15 25 30 75 49 49 60
REMARK Flexibility Score: inf
ROOT
ATOM      1  C   UNL A   1      35.924  21.408  25.497  1.00  0.00     0.116 C 
ENDROOT
BRANCH   1   2
ATOM      2  N   UNL A   1      35.093  20.236  25.339  1.00  0.00    -0.349 N 
ATOM      3  C   UNL A   1      33.846  20.077  24.770  1.00  0.00     0.287 C 
ATOM      4  O   UNL A   1      33.488  18.902  24.642  1.00  0.00    -0.266 OA
ATOM      5  H   UNL A   1      35.484  19.407  25.700  1.00  0.00     0.163 HD
BRANCH   3   6
ATOM      6  C   UNL A   1      33.029  21.212  24.373  1.00  0.00     0.191 A 
ATOM      7  C   UNL A   1      32.276  23.286  24.678  1.00  0.00     0.161 A 
ATOM      8  C   UNL A   1      31.827  22.882  23.440  1.00  0.00     0.053 A 
ATOM      9  O   UNL A   1      32.930  22.247  25.278  1.00  0.00    -0.450 OA
ATOM     10  C   UNL A   1      32.336  21.579  23.232  1.00  0.00     0.057 A 
BRANCH   7  11
ATOM     11  C   UNL A   1      32.205  24.589  25.435  1.00  0.00     0.248 C 
ATOM     12  C   UNL A   1      33.544  24.894  26.135  1.00  0.00     0.084 C 
BRANCH  11  13
ATOM     13  N   UNL A   1      31.012  24.696  26.319  1.00  0.00    -0.325 N 
ATOM     14  C   UNL A   1      30.493  23.370  26.665  1.00  0.00     0.333 C 
ATOM     15  H   UNL A   1      31.363  25.175  27.147  1.00  0.00     0.348 HD
BRANCH  13  16
ATOM     16  C   UNL A   1      29.911  25.534  25.807  1.00  0.00     0.303 C 
BRANCH  16  17
ATOM     17  C   UNL A   1      30.332  26.731  24.983  1.00  0.00     0.048 A 
ATOM     18  C   UNL A   1      31.095  27.782  25.510  1.00  0.00     0.127 A 
ATOM     19  C   UNL A   1      31.402  28.908  24.739  1.00  0.00     0.047 A 
ATOM     20  C   UNL A   1      30.994  28.975  23.407  1.00  0.00     0.004 A 
ATOM     21  C   UNL A   1      29.939  26.813  23.635  1.00  0.00     0.013 A 
ATOM     22  C   UNL A   1      30.270  27.922  22.853  1.00  0.00     0.001 A 
BRANCH  18  23
ATOM     23  O   UNL A   1      31.477  27.795  26.827  1.00  0.00    -0.496 OA
ATOM     24  C   UNL A   1      32.712  28.495  26.978  1.00  0.00     0.278 C 
ENDBRANCH  18  23
ENDBRANCH  16  17
ENDBRANCH  13  16
ENDBRANCH  11  13
ENDBRANCH   7  11
ENDBRANCH   3   6
ENDBRANCH   1   2
BRANCH   1  25
ATOM     25  C   UNL A   1      37.213  21.317  24.679  1.00  0.00     0.023 C 
BRANCH  25  26
ATOM     26  C   UNL A   1      38.062  20.070  24.960  1.00  0.00     0.023 C 
BRANCH  26  27
ATOM     27  C   UNL A   1      39.323  20.299  25.795  1.00  0.00     0.116 C 
BRANCH  27  28
ATOM     28  N   UNL A   1      40.228  19.160  25.819  1.00  0.00    -0.352 N 
ATOM     29  C   UNL A   1      41.573  19.136  26.105  1.00  0.00     0.251 C 
ATOM     30  H   UNL A   1      39.823  18.289  25.601  1.00  0.00     0.163 HD
ATOM     31  O   UNL A   1      42.209  18.094  26.008  1.00  0.00    -0.269 OA
BRANCH  29  32
ATOM     32  C   UNL A   1      42.257  20.391  26.479  1.00  0.00     0.039 A 
ATOM     33  C   UNL A   1      42.890  21.131  25.478  1.00  0.00     0.014 A 
ATOM     34  C   UNL A   1      42.240  20.852  27.797  1.00  0.00     0.014 A 
ATOM     35  C   UNL A   1      43.429  22.383  25.782  1.00  0.00     0.010 A 
ATOM     36  C   UNL A   1      42.724  22.125  28.086  1.00  0.00     0.010 A 
ATOM     37  C   UNL A   1      43.307  22.908  27.079  1.00  0.00    -0.014 A 
BRANCH  37  38
ATOM     38  C   UNL A   1      43.741  24.292  27.389  1.00  0.00     0.031 A 
ATOM     39  C   UNL A   1      42.737  25.328  27.806  1.00  0.00     0.074 A 
ATOM     40  C   UNL A   1      45.032  24.633  27.211  1.00  0.00     0.049 A 
ATOM     41  N   UNL A   1      42.914  26.606  28.032  1.00  0.00    -0.248 NA
ATOM     42  C   UNL A   1      41.346  24.876  27.963  1.00  0.00     0.031 C 
ATOM     43  C   UNL A   1      46.092  23.729  26.761  1.00  0.00     0.029 A 
ATOM     44  N   UNL A   1      45.670  25.837  27.373  1.00  0.00    -0.354 N 
ATOM     45  C   UNL A   1      41.660  27.110  28.345  1.00  0.00     0.074 A 
ATOM     46  C   UNL A   1      40.722  26.013  28.236  1.00  0.00     0.031 C 
ATOM     47  C   UNL A   1      47.250  24.406  26.698  1.00  0.00     0.029 A 
ATOM     48  C   UNL A   1      47.008  25.797  27.067  1.00  0.00     0.049 A 
ATOM     49  H   UNL A   1      45.211  26.653  27.679  1.00  0.00     0.167 HD
ATOM     50  C   UNL A   1      41.324  28.371  28.709  1.00  0.00     0.037 A 
ATOM     51  C   UNL A   1      47.935  26.773  27.074  1.00  0.00     0.037 A 
ATOM     52  C   UNL A   1      42.261  29.456  28.837  1.00  0.00     0.049 A 
ATOM     53  C   UNL A   1      47.535  28.163  27.479  1.00  0.00     0.074 A 
ATOM     54  C   UNL A   1      42.027  30.752  29.263  1.00  0.00     0.029 A 
ATOM     55  N   UNL A   1      43.613  29.371  28.538  1.00  0.00    -0.354 N 
ATOM     56  N   UNL A   1      46.357  28.611  27.838  1.00  0.00    -0.248 NA
ATOM     57  C   UNL A   1      48.593  29.184  27.481  1.00  0.00     0.031 C 
ATOM     58  C   UNL A   1      43.230  31.462  29.183  1.00  0.00     0.029 A 
ATOM     59  C   UNL A   1      44.221  30.597  28.749  1.00  0.00     0.049 A 
ATOM     60  H   UNL A   1      44.071  28.559  28.222  1.00  0.00     0.167 HD
ATOM     61  C   UNL A   1      46.536  29.958  28.132  1.00  0.00     0.074 A 
ATOM     62  C   UNL A   1      47.939  30.249  27.922  1.00  0.00     0.031 C 
ATOM     63  C   UNL A   1      45.619  30.870  28.537  1.00  0.00     0.037 A 
BRANCH  50  64
ATOM     64  C   UNL A   1      39.877  28.642  29.000  1.00  0.00     0.057 A 
ATOM     65  C   UNL A   1      39.334  28.446  30.277  1.00  0.00     0.134 A 
ATOM     66  C   UNL A   1      39.027  29.137  28.004  1.00  0.00     0.134 A 
ATOM     67  F   UNL A   1      40.092  27.963  31.272  1.00  0.00    -0.206 F 
ATOM     68  C   UNL A   1      37.990  28.710  30.546  1.00  0.00     0.040 A 
ATOM     69  C   UNL A   1      37.686  29.429  28.267  1.00  0.00     0.040 A 
ATOM     70  F   UNL A   1      39.484  29.352  26.762  1.00  0.00    -0.206 F 
ATOM     71  C   UNL A   1      37.163  29.209  29.540  1.00  0.00     0.006 A 
ENDBRANCH  50  64
BRANCH  51  72
ATOM     72  C   UNL A   1      49.339  26.467  26.705  1.00  0.00     0.057 A 
ATOM     73  C   UNL A   1      49.816  26.721  25.414  1.00  0.00     0.134 A 
ATOM     74  C   UNL A   1      50.234  25.910  27.626  1.00  0.00     0.134 A 
ATOM     75  F   UNL A   1      48.999  27.237  24.483  1.00  0.00    -0.206 F 
ATOM     76  C   UNL A   1      51.127  26.417  25.046  1.00  0.00     0.040 A 
ATOM     77  C   UNL A   1      51.555  25.623  27.278  1.00  0.00     0.040 A 
ATOM     78  F   UNL A   1      49.841  25.651  28.881  1.00  0.00    -0.206 F 
ATOM     79  C   UNL A   1      52.002  25.870  25.982  1.00  0.00     0.006 A 
ENDBRANCH  51  72
BRANCH  63  80
ATOM     80  C   UNL A   1      46.113  32.260  28.807  1.00  0.00     0.057 A 
ATOM     81  C   UNL A   1      46.592  32.641  30.067  1.00  0.00     0.134 A 
ATOM     82  C   UNL A   1      46.141  33.217  27.785  1.00  0.00     0.134 A 
ATOM     83  F   UNL A   1      46.578  31.774  31.091  1.00  0.00    -0.206 F 
ATOM     84  C   UNL A   1      47.064  33.933  30.305  1.00  0.00     0.040 A 
ATOM     85  C   UNL A   1      46.632  34.505  28.006  1.00  0.00     0.040 A 
ATOM     86  F   UNL A   1      45.703  32.914  26.554  1.00  0.00    -0.206 F 
ATOM     87  C   UNL A   1      47.090  34.867  29.271  1.00  0.00     0.006 A 
ENDBRANCH  63  80
ENDBRANCH  37  38
ENDBRANCH  29  32
ENDBRANCH  27  28
ENDBRANCH  26  27
ENDBRANCH  25  26
ENDBRANCH   1  25
TORSDOF 16
ENDMDL
