MODEL 1
REMARK VINA RESULT:     -11.3      0.000      0.000
REMARK SMILES O=C(CNc1ccccc1C(=O)N1CCCC1)NCCCCNC(=O)c1ccc(-c2c3nc(c(-c4c(F)cccc4F)c4ccc([nH]4)c(-c4c(F)cccc4F)c4nc(c(-c5c(F)cccc5F)c5ccc2[nH]5)C=C4)C=C3)cc1
REMARK SMILES IDX 20 1 19 2 18 3 1 4 2 5 3 7 4 8 5 10 6 11 10 12 7 13 9 14
REMARK SMILES IDX 8 15 11 16 12 17 13 18 14 19 17 20 15 21 16 22 21 23 22 24
REMARK SMILES IDX 23 25 24 26 25 28 26 29 27 30 79 31 28 32 78 33 29 34 30 35
REMARK SMILES IDX 31 36 72 37 32 38 77 39 71 40 73 41 33 42 76 43 70 44 69 45
REMARK SMILES IDX 34 47 60 48 43 49 59 50 44 51 47 52 58 53 74 54 45 55 46 56
REMARK SMILES IDX 57 58 75 59 48 60 35 61 36 62 41 63 37 64 38 65 40 66 42 67
REMARK SMILES IDX 39 68 61 69 62 70 67 71 63 72 64 73 66 74 68 75 65 76 49 77
REMARK SMILES IDX 50 78 55 79 51 80 52 81 54 82 56 83 53 84
REMARK H PARENT 18 6 4 9 23 27 73 46 47 57
REMARK Flexibility Score: inf
ROOT
ATOM      1  C   UNL A   1      34.407  33.498  29.161  1.00  0.00     0.023 C 
ENDROOT
BRANCH   1   2
ATOM      2  C   UNL A   1      34.610  32.446  28.065  1.00  0.00     0.116 C 
BRANCH   2   3
ATOM      3  N   UNL A   1      33.351  31.824  27.733  1.00  0.00    -0.355 N 
ATOM      4  O   UNL A   1      34.263  29.871  26.942  1.00  0.00    -0.273 OA
ATOM      5  C   UNL A   1      33.320  30.653  27.007  1.00  0.00     0.239 C 
ATOM      6  H   UNL A   1      32.508  32.240  28.027  1.00  0.00     0.163 HD
BRANCH   5   7
ATOM      7  C   UNL A   1      32.032  30.487  26.213  1.00  0.00     0.213 C 
BRANCH   7   8
ATOM      8  N   UNL A   1      32.231  29.677  25.017  1.00  0.00    -0.376 N 
ATOM      9  H   UNL A   1      32.864  29.958  24.317  1.00  0.00     0.161 HD
BRANCH   8  10
ATOM     10  C   UNL A   1      31.503  28.493  24.891  1.00  0.00     0.047 A 
ATOM     11  C   UNL A   1      31.541  27.615  25.992  1.00  0.00     0.026 A 
ATOM     12  C   UNL A   1      30.613  28.185  23.834  1.00  0.00     0.063 A 
ATOM     13  C   UNL A   1      30.697  26.506  26.079  1.00  0.00     0.002 A 
ATOM     14  C   UNL A   1      29.771  27.061  23.929  1.00  0.00     0.016 A 
ATOM     15  C   UNL A   1      29.805  26.231  25.048  1.00  0.00     0.001 A 
BRANCH  12  16
ATOM     16  C   UNL A   1      30.374  29.061  22.654  1.00  0.00     0.255 C 
ATOM     17  O   UNL A   1      30.871  28.704  21.583  1.00  0.00    -0.269 OA
ATOM     18  N   UNL A   1      29.571  30.183  22.742  1.00  0.00    -0.339 N 
ATOM     19  C   UNL A   1      29.102  30.902  23.909  1.00  0.00     0.120 C 
ATOM     20  C   UNL A   1      28.993  30.767  21.549  1.00  0.00     0.120 C 
ATOM     21  C   UNL A   1      27.685  31.315  23.538  1.00  0.00     0.023 C 
ATOM     22  C   UNL A   1      27.647  31.319  22.006  1.00  0.00     0.023 C 
ENDBRANCH  12  16
ENDBRANCH   8  10
ENDBRANCH   7   8
ENDBRANCH   5   7
ENDBRANCH   2   3
ENDBRANCH   1   2
BRANCH   1  23
ATOM     23  C   UNL A   1      33.273  34.498  28.897  1.00  0.00     0.023 C 
BRANCH  23  24
ATOM     24  C   UNL A   1      33.434  35.862  29.556  1.00  0.00     0.116 C 
BRANCH  24  25
ATOM     25  N   UNL A   1      32.496  36.084  30.640  1.00  0.00    -0.352 N 
ATOM     26  C   UNL A   1      32.600  35.707  31.955  1.00  0.00     0.251 C 
ATOM     27  H   UNL A   1      31.674  36.571  30.400  1.00  0.00     0.163 HD
ATOM     28  O   UNL A   1      31.669  35.899  32.731  1.00  0.00    -0.269 OA
BRANCH  26  29
ATOM     29  C   UNL A   1      33.824  35.025  32.421  1.00  0.00     0.039 A 
ATOM     30  C   UNL A   1      33.710  33.728  32.925  1.00  0.00     0.014 A 
ATOM     31  C   UNL A   1      35.073  35.648  32.341  1.00  0.00     0.014 A 
ATOM     32  C   UNL A   1      34.859  33.031  33.298  1.00  0.00     0.010 A 
ATOM     33  C   UNL A   1      36.223  34.928  32.652  1.00  0.00     0.010 A 
ATOM     34  C   UNL A   1      36.127  33.613  33.134  1.00  0.00    -0.014 A 
BRANCH  34  35
ATOM     35  C   UNL A   1      37.360  32.857  33.466  1.00  0.00     0.031 A 
ATOM     36  C   UNL A   1      38.108  33.152  34.734  1.00  0.00     0.074 A 
ATOM     37  C   UNL A   1      37.831  31.940  32.599  1.00  0.00     0.049 A 
ATOM     38  N   UNL A   1      39.229  32.637  35.171  1.00  0.00    -0.248 NA
ATOM     39  C   UNL A   1      37.534  34.181  35.617  1.00  0.00     0.031 C 
ATOM     40  C   UNL A   1      37.220  31.598  31.313  1.00  0.00     0.029 A 
ATOM     41  N   UNL A   1      38.939  31.134  32.665  1.00  0.00    -0.354 N 
ATOM     42  C   UNL A   1      39.498  33.283  36.371  1.00  0.00     0.074 A 
ATOM     43  C   UNL A   1      38.454  34.266  36.566  1.00  0.00     0.031 C 
ATOM     44  C   UNL A   1      37.950  30.639  30.720  1.00  0.00     0.029 A 
ATOM     45  C   UNL A   1      39.097  30.324  31.567  1.00  0.00     0.049 A 
ATOM     46  H   UNL A   1      39.562  31.137  33.427  1.00  0.00     0.167 HD
ATOM     47  C   UNL A   1      40.509  33.059  37.244  1.00  0.00     0.037 A 
ATOM     48  C   UNL A   1      40.061  29.430  31.273  1.00  0.00     0.037 A 
ATOM     49  C   UNL A   1      41.534  32.065  37.058  1.00  0.00     0.049 A 
ATOM     50  C   UNL A   1      41.175  29.203  32.258  1.00  0.00     0.074 A 
ATOM     51  C   UNL A   1      42.573  31.728  37.907  1.00  0.00     0.029 A 
ATOM     52  N   UNL A   1      41.648  31.250  35.943  1.00  0.00    -0.354 N 
ATOM     53  N   UNL A   1      41.382  29.777  33.418  1.00  0.00    -0.248 NA
ATOM     54  C   UNL A   1      42.184  28.198  31.894  1.00  0.00     0.031 C 
ATOM     55  C   UNL A   1      43.339  30.734  37.288  1.00  0.00     0.029 A 
ATOM     56  C   UNL A   1      42.750  30.421  36.074  1.00  0.00     0.049 A 
ATOM     57  H   UNL A   1      41.036  31.257  35.171  1.00  0.00     0.167 HD
ATOM     58  C   UNL A   1      42.528  29.186  33.934  1.00  0.00     0.074 A 
ATOM     59  C   UNL A   1      42.961  28.199  32.968  1.00  0.00     0.031 C 
ATOM     60  C   UNL A   1      43.164  29.439  35.104  1.00  0.00     0.037 A 
BRANCH  47  61
ATOM     61  C   UNL A   1      40.549  33.903  38.484  1.00  0.00     0.057 A 
ATOM     62  C   UNL A   1      39.821  33.561  39.632  1.00  0.00     0.134 A 
ATOM     63  C   UNL A   1      41.345  35.055  38.543  1.00  0.00     0.134 A 
ATOM     64  F   UNL A   1      39.030  32.478  39.638  1.00  0.00    -0.206 F 
ATOM     65  C   UNL A   1      39.863  34.347  40.785  1.00  0.00     0.040 A 
ATOM     66  C   UNL A   1      41.415  35.834  39.699  1.00  0.00     0.040 A 
ATOM     67  F   UNL A   1      42.071  35.437  37.481  1.00  0.00    -0.206 F 
ATOM     68  C   UNL A   1      40.667  35.485  40.822  1.00  0.00     0.006 A 
ENDBRANCH  47  61
BRANCH  48  69
ATOM     69  C   UNL A   1      40.006  28.670  30.000  1.00  0.00     0.057 A 
ATOM     70  C   UNL A   1      40.660  29.134  28.853  1.00  0.00     0.134 A 
ATOM     71  C   UNL A   1      39.296  27.468  29.897  1.00  0.00     0.134 A 
ATOM     72  F   UNL A   1      41.342  30.288  28.885  1.00  0.00    -0.206 F 
ATOM     73  C   UNL A   1      40.596  28.440  27.644  1.00  0.00     0.040 A 
ATOM     74  C   UNL A   1      39.244  26.751  28.700  1.00  0.00     0.040 A 
ATOM     75  F   UNL A   1      38.654  26.967  30.963  1.00  0.00    -0.206 F 
ATOM     76  C   UNL A   1      39.888  27.242  27.567  1.00  0.00     0.006 A 
ENDBRANCH  48  69
BRANCH  60  77
ATOM     77  C   UNL A   1      44.377  28.613  35.418  1.00  0.00     0.057 A 
ATOM     78  C   UNL A   1      45.663  29.016  35.040  1.00  0.00     0.134 A 
ATOM     79  C   UNL A   1      44.258  27.420  36.141  1.00  0.00     0.134 A 
ATOM     80  F   UNL A   1      45.843  30.143  34.333  1.00  0.00    -0.206 F 
ATOM     81  C   UNL A   1      46.787  28.250  35.351  1.00  0.00     0.040 A 
ATOM     82  C   UNL A   1      45.377  26.659  36.481  1.00  0.00     0.040 A 
ATOM     83  F   UNL A   1      43.055  26.982  36.541  1.00  0.00    -0.206 F 
ATOM     84  C   UNL A   1      46.646  27.071  36.080  1.00  0.00     0.006 A 
ENDBRANCH  60  77
ENDBRANCH  34  35
ENDBRANCH  26  29
ENDBRANCH  24  25
ENDBRANCH  23  24
ENDBRANCH   1  23
TORSDOF 14
ENDMDL
MODEL 2
REMARK VINA RESULT:     -11.2      4.811      7.308
REMARK SMILES O=C(CNc1ccccc1C(=O)N1CCCC1)NCCCCNC(=O)c1ccc(-c2c3nc(c(-c4c(F)cccc4F)c4ccc([nH]4)c(-c4c(F)cccc4F)c4nc(c(-c5c(F)cccc5F)c5ccc2[nH]5)C=C4)C=C3)cc1
REMARK SMILES IDX 20 1 19 2 18 3 1 4 2 5 3 7 4 8 5 10 6 11 10 12 7 13 9 14
REMARK SMILES IDX 8 15 11 16 12 17 13 18 14 19 17 20 15 21 16 22 21 23 22 24
REMARK SMILES IDX 23 25 24 26 25 28 26 29 27 30 79 31 28 32 78 33 29 34 30 35
REMARK SMILES IDX 31 36 72 37 32 38 77 39 71 40 73 41 33 42 76 43 70 44 69 45
REMARK SMILES IDX 34 47 60 48 43 49 59 50 44 51 47 52 58 53 74 54 45 55 46 56
REMARK SMILES IDX 57 58 75 59 48 60 35 61 36 62 41 63 37 64 38 65 40 66 42 67
REMARK SMILES IDX 39 68 61 69 62 70 67 71 63 72 64 73 66 74 68 75 65 76 49 77
REMARK SMILES IDX 50 78 55 79 51 80 52 81 54 82 56 83 53 84
REMARK H PARENT 18 6 4 9 23 27 73 46 47 57
REMARK Flexibility Score: inf
ROOT
ATOM      1  C   UNL A   1      32.311  28.723  25.118  1.00  0.00     0.023 C 
ENDROOT
BRANCH   1   2
ATOM      2  C   UNL A   1      31.393  27.495  25.085  1.00  0.00     0.116 C 
BRANCH   2   3
ATOM      3  N   UNL A   1      32.180  26.286  25.047  1.00  0.00    -0.355 N 
ATOM      4  O   UNL A   1      31.051  25.227  26.743  1.00  0.00    -0.273 OA
ATOM      5  C   UNL A   1      32.048  25.336  26.037  1.00  0.00     0.239 C 
ATOM      6  H   UNL A   1      32.816  26.140  24.310  1.00  0.00     0.163 HD
BRANCH   5   7
ATOM      7  C   UNL A   1      33.311  24.507  26.228  1.00  0.00     0.213 C 
BRANCH   7   8
ATOM      8  N   UNL A   1      34.421  25.018  25.432  1.00  0.00    -0.376 N 
ATOM      9  H   UNL A   1      34.464  25.968  25.179  1.00  0.00     0.161 HD
BRANCH   8  10
ATOM     10  C   UNL A   1      35.421  24.126  25.041  1.00  0.00     0.047 A 
ATOM     11  C   UNL A   1      36.591  24.115  25.825  1.00  0.00     0.026 A 
ATOM     12  C   UNL A   1      35.290  23.135  24.040  1.00  0.00     0.063 A 
ATOM     13  C   UNL A   1      37.572  23.133  25.669  1.00  0.00     0.002 A 
ATOM     14  C   UNL A   1      36.288  22.153  23.887  1.00  0.00     0.016 A 
ATOM     15  C   UNL A   1      37.418  22.146  24.703  1.00  0.00     0.001 A 
BRANCH  12  16
ATOM     16  C   UNL A   1      34.075  22.941  23.201  1.00  0.00     0.255 C 
ATOM     17  O   UNL A   1      33.938  23.693  22.233  1.00  0.00    -0.269 OA
ATOM     18  N   UNL A   1      33.180  21.917  23.456  1.00  0.00    -0.339 N 
ATOM     19  C   UNL A   1      33.017  21.099  24.640  1.00  0.00     0.120 C 
ATOM     20  C   UNL A   1      32.272  21.463  22.423  1.00  0.00     0.120 C 
ATOM     21  C   UNL A   1      32.681  19.721  24.086  1.00  0.00     0.023 C 
ATOM     22  C   UNL A   1      32.109  19.970  22.686  1.00  0.00     0.023 C 
ENDBRANCH  12  16
ENDBRANCH   8  10
ENDBRANCH   7   8
ENDBRANCH   5   7
ENDBRANCH   2   3
ENDBRANCH   1   2
BRANCH   1  23
ATOM     23  C   UNL A   1      33.695  28.480  25.735  1.00  0.00     0.023 C 
BRANCH  23  24
ATOM     24  C   UNL A   1      33.764  28.583  27.253  1.00  0.00     0.116 C 
BRANCH  24  25
ATOM     25  N   UNL A   1      33.680  29.950  27.734  1.00  0.00    -0.352 N 
ATOM     26  C   UNL A   1      34.651  30.706  28.341  1.00  0.00     0.251 C 
ATOM     27  H   UNL A   1      32.811  30.394  27.609  1.00  0.00     0.163 HD
ATOM     28  O   UNL A   1      34.387  31.826  28.769  1.00  0.00    -0.269 OA
BRANCH  26  29
ATOM     29  C   UNL A   1      36.006  30.146  28.517  1.00  0.00     0.039 A 
ATOM     30  C   UNL A   1      36.895  30.211  27.443  1.00  0.00     0.014 A 
ATOM     31  C   UNL A   1      36.403  29.585  29.734  1.00  0.00     0.014 A 
ATOM     32  C   UNL A   1      38.206  29.762  27.606  1.00  0.00     0.010 A 
ATOM     33  C   UNL A   1      37.728  29.199  29.914  1.00  0.00     0.010 A 
ATOM     34  C   UNL A   1      38.641  29.283  28.852  1.00  0.00    -0.014 A 
BRANCH  34  35
ATOM     35  C   UNL A   1      40.050  28.864  29.055  1.00  0.00     0.031 A 
ATOM     36  C   UNL A   1      41.042  29.817  29.658  1.00  0.00     0.074 A 
ATOM     37  C   UNL A   1      40.445  27.642  28.650  1.00  0.00     0.049 A 
ATOM     38  N   UNL A   1      42.324  29.654  29.866  1.00  0.00    -0.248 NA
ATOM     39  C   UNL A   1      40.532  31.139  30.058  1.00  0.00     0.031 C 
ATOM     40  C   UNL A   1      39.586  26.644  28.007  1.00  0.00     0.029 A 
ATOM     41  N   UNL A   1      41.673  27.034  28.709  1.00  0.00    -0.354 N 
ATOM     42  C   UNL A   1      42.773  30.850  30.411  1.00  0.00     0.074 A 
ATOM     43  C   UNL A   1      41.640  31.749  30.450  1.00  0.00     0.031 C 
ATOM     44  C   UNL A   1      40.310  25.543  27.750  1.00  0.00     0.029 A 
ATOM     45  C   UNL A   1      41.687  25.768  28.176  1.00  0.00     0.049 A 
ATOM     46  H   UNL A   1      42.469  27.465  29.096  1.00  0.00     0.167 HD
ATOM     47  C   UNL A   1      44.011  31.162  30.862  1.00  0.00     0.037 A 
ATOM     48  C   UNL A   1      42.699  24.889  28.043  1.00  0.00     0.037 A 
ATOM     49  C   UNL A   1      45.131  30.258  30.842  1.00  0.00     0.049 A 
ATOM     50  C   UNL A   1      44.066  25.261  28.548  1.00  0.00     0.074 A 
ATOM     51  C   UNL A   1      46.414  30.462  31.319  1.00  0.00     0.029 A 
ATOM     52  N   UNL A   1      45.101  28.976  30.313  1.00  0.00    -0.354 N 
ATOM     53  N   UNL A   1      44.462  26.373  29.118  1.00  0.00    -0.248 NA
ATOM     54  C   UNL A   1      45.125  24.252  28.398  1.00  0.00     0.031 C 
ATOM     55  C   UNL A   1      47.170  29.318  31.045  1.00  0.00     0.029 A 
ATOM     56  C   UNL A   1      46.347  28.384  30.438  1.00  0.00     0.049 A 
ATOM     57  H   UNL A   1      44.310  28.550  29.910  1.00  0.00     0.167 HD
ATOM     58  C   UNL A   1      45.805  26.189  29.418  1.00  0.00     0.074 A 
ATOM     59  C   UNL A   1      46.152  24.853  28.980  1.00  0.00     0.031 C 
ATOM     60  C   UNL A   1      46.673  27.050  30.002  1.00  0.00     0.037 A 
BRANCH  47  61
ATOM     61  C   UNL A   1      44.215  32.540  31.421  1.00  0.00     0.057 A 
ATOM     62  C   UNL A   1      44.046  32.813  32.785  1.00  0.00     0.134 A 
ATOM     63  C   UNL A   1      44.611  33.599  30.594  1.00  0.00     0.134 A 
ATOM     64  F   UNL A   1      43.655  31.847  33.629  1.00  0.00    -0.206 F 
ATOM     65  C   UNL A   1      44.239  34.095  33.302  1.00  0.00     0.040 A 
ATOM     66  C   UNL A   1      44.833  34.879  31.105  1.00  0.00     0.040 A 
ATOM     67  F   UNL A   1      44.795  33.405  29.279  1.00  0.00    -0.206 F 
ATOM     68  C   UNL A   1      44.640  35.132  32.461  1.00  0.00     0.006 A 
ENDBRANCH  47  61
BRANCH  48  69
ATOM     69  C   UNL A   1      42.454  23.564  27.421  1.00  0.00     0.057 A 
ATOM     70  C   UNL A   1      42.563  23.384  26.038  1.00  0.00     0.134 A 
ATOM     71  C   UNL A   1      42.102  22.449  28.191  1.00  0.00     0.134 A 
ATOM     72  F   UNL A   1      42.879  24.419  25.245  1.00  0.00    -0.206 F 
ATOM     73  C   UNL A   1      42.311  22.148  25.439  1.00  0.00     0.040 A 
ATOM     74  C   UNL A   1      41.873  21.202  27.608  1.00  0.00     0.040 A 
ATOM     75  F   UNL A   1      41.990  22.555  29.524  1.00  0.00    -0.206 F 
ATOM     76  C   UNL A   1      41.969  21.052  26.227  1.00  0.00     0.006 A 
ENDBRANCH  48  69
BRANCH  60  77
ATOM     77  C   UNL A   1      48.074  26.561  30.232  1.00  0.00     0.057 A 
ATOM     78  C   UNL A   1      48.436  25.883  31.402  1.00  0.00     0.134 A 
ATOM     79  C   UNL A   1      49.059  26.738  29.254  1.00  0.00     0.134 A 
ATOM     80  F   UNL A   1      47.541  25.694  32.385  1.00  0.00    -0.206 F 
ATOM     81  C   UNL A   1      49.737  25.417  31.600  1.00  0.00     0.040 A 
ATOM     82  C   UNL A   1      50.356  26.253  29.429  1.00  0.00     0.040 A 
ATOM     83  F   UNL A   1      48.774  27.372  28.106  1.00  0.00    -0.206 F 
ATOM     84  C   UNL A   1      50.699  25.595  30.608  1.00  0.00     0.006 A 
ENDBRANCH  60  77
ENDBRANCH  34  35
ENDBRANCH  26  29
ENDBRANCH  24  25
ENDBRANCH  23  24
ENDBRANCH   1  23
TORSDOF 14
ENDMDL
MODEL 3
REMARK VINA RESULT:     -11.1      1.691      6.733
REMARK SMILES O=C(CNc1ccccc1C(=O)N1CCCC1)NCCCCNC(=O)c1ccc(-c2c3nc(c(-c4c(F)cccc4F)c4ccc([nH]4)c(-c4c(F)cccc4F)c4nc(c(-c5c(F)cccc5F)c5ccc2[nH]5)C=C4)C=C3)cc1
REMARK SMILES IDX 20 1 19 2 18 3 1 4 2 5 3 7 4 8 5 10 6 11 10 12 7 13 9 14
REMARK SMILES IDX 8 15 11 16 12 17 13 18 14 19 17 20 15 21 16 22 21 23 22 24
REMARK SMILES IDX 23 25 24 26 25 28 26 29 27 30 79 31 28 32 78 33 29 34 30 35
REMARK SMILES IDX 31 36 72 37 32 38 77 39 71 40 73 41 33 42 76 43 70 44 69 45
REMARK SMILES IDX 34 47 60 48 43 49 59 50 44 51 47 52 58 53 74 54 45 55 46 56
REMARK SMILES IDX 57 58 75 59 48 60 35 61 36 62 41 63 37 64 38 65 40 66 42 67
REMARK SMILES IDX 39 68 61 69 62 70 67 71 63 72 64 73 66 74 68 75 65 76 49 77
REMARK SMILES IDX 50 78 55 79 51 80 52 81 54 82 56 83 53 84
REMARK H PARENT 18 6 4 9 23 27 73 46 47 57
REMARK Flexibility Score: inf
ROOT
ATOM      1  C   UNL A   1      32.266  30.384  27.177  1.00  0.00     0.023 C 
ENDROOT
BRANCH   1   2
ATOM      2  C   UNL A   1      33.553  30.147  26.378  1.00  0.00     0.116 C 
BRANCH   2   3
ATOM      3  N   UNL A   1      33.235  29.822  25.009  1.00  0.00    -0.355 N 
ATOM      4  O   UNL A   1      33.813  27.605  25.161  1.00  0.00    -0.273 OA
ATOM      5  C   UNL A   1      33.594  28.601  24.479  1.00  0.00     0.239 C 
ATOM      6  H   UNL A   1      32.760  30.478  24.449  1.00  0.00     0.163 HD
BRANCH   5   7
ATOM      7  C   UNL A   1      33.790  28.649  22.970  1.00  0.00     0.213 C 
BRANCH   7   8
ATOM      8  N   UNL A   1      32.520  28.759  22.261  1.00  0.00    -0.376 N 
ATOM      9  H   UNL A   1      32.392  29.436  21.558  1.00  0.00     0.161 HD
BRANCH   8  10
ATOM     10  C   UNL A   1      31.492  27.881  22.607  1.00  0.00     0.047 A 
ATOM     11  C   UNL A   1      31.764  26.508  22.452  1.00  0.00     0.026 A 
ATOM     12  C   UNL A   1      30.280  28.244  23.242  1.00  0.00     0.063 A 
ATOM     13  C   UNL A   1      30.906  25.526  22.953  1.00  0.00     0.002 A 
ATOM     14  C   UNL A   1      29.420  27.246  23.738  1.00  0.00     0.016 A 
ATOM     15  C   UNL A   1      29.735  25.895  23.603  1.00  0.00     0.001 A 
BRANCH  12  16
ATOM     16  C   UNL A   1      29.893  29.642  23.578  1.00  0.00     0.255 C 
ATOM     17  O   UNL A   1      30.497  30.182  24.507  1.00  0.00    -0.269 OA
ATOM     18  N   UNL A   1      28.949  30.326  22.832  1.00  0.00    -0.339 N 
ATOM     19  C   UNL A   1      27.972  29.828  21.887  1.00  0.00     0.120 C 
ATOM     20  C   UNL A   1      28.893  31.773  22.871  1.00  0.00     0.120 C 
ATOM     21  C   UNL A   1      27.939  30.894  20.801  1.00  0.00     0.023 C 
ATOM     22  C   UNL A   1      28.446  32.176  21.470  1.00  0.00     0.023 C 
ENDBRANCH  12  16
ENDBRANCH   8  10
ENDBRANCH   7   8
ENDBRANCH   5   7
ENDBRANCH   2   3
ENDBRANCH   1   2
BRANCH   1  23
ATOM     23  C   UNL A   1      31.779  31.839  27.203  1.00  0.00     0.023 C 
BRANCH  23  24
ATOM     24  C   UNL A   1      32.869  32.898  27.106  1.00  0.00     0.116 C 
BRANCH  24  25
ATOM     25  N   UNL A   1      32.452  34.192  27.611  1.00  0.00    -0.352 N 
ATOM     26  C   UNL A   1      33.004  34.936  28.623  1.00  0.00     0.251 C 
ATOM     27  H   UNL A   1      31.668  34.590  27.169  1.00  0.00     0.163 HD
ATOM     28  O   UNL A   1      32.472  35.981  28.987  1.00  0.00    -0.269 OA
BRANCH  26  29
ATOM     29  C   UNL A   1      34.220  34.448  29.305  1.00  0.00     0.039 A 
ATOM     30  C   UNL A   1      34.076  33.796  30.531  1.00  0.00     0.014 A 
ATOM     31  C   UNL A   1      35.483  34.610  28.731  1.00  0.00     0.014 A 
ATOM     32  C   UNL A   1      35.198  33.254  31.158  1.00  0.00     0.010 A 
ATOM     33  C   UNL A   1      36.592  34.013  29.326  1.00  0.00     0.010 A 
ATOM     34  C   UNL A   1      36.459  33.330  30.545  1.00  0.00    -0.014 A 
BRANCH  34  35
ATOM     35  C   UNL A   1      37.648  32.701  31.171  1.00  0.00     0.031 A 
ATOM     36  C   UNL A   1      38.277  31.487  30.550  1.00  0.00     0.074 A 
ATOM     37  C   UNL A   1      38.131  33.197  32.327  1.00  0.00     0.049 A 
ATOM     38  N   UNL A   1      39.284  30.767  30.975  1.00  0.00    -0.248 NA
ATOM     39  C   UNL A   1      37.677  31.000  29.296  1.00  0.00     0.031 C 
ATOM     40  C   UNL A   1      37.579  34.343  33.053  1.00  0.00     0.029 A 
ATOM     41  N   UNL A   1      39.189  32.792  33.100  1.00  0.00    -0.354 N 
ATOM     42  C   UNL A   1      39.432  29.743  30.050  1.00  0.00     0.074 A 
ATOM     43  C   UNL A   1      38.378  29.899  29.071  1.00  0.00     0.031 C 
ATOM     44  C   UNL A   1      38.315  34.561  34.155  1.00  0.00     0.029 A 
ATOM     45  C   UNL A   1      39.367  33.552  34.231  1.00  0.00     0.049 A 
ATOM     46  H   UNL A   1      39.767  32.030  32.867  1.00  0.00     0.167 HD
ATOM     47  C   UNL A   1      40.378  28.774  30.006  1.00  0.00     0.037 A 
ATOM     48  C   UNL A   1      40.274  33.444  35.220  1.00  0.00     0.037 A 
ATOM     49  C   UNL A   1      41.438  28.633  30.969  1.00  0.00     0.049 A 
ATOM     50  C   UNL A   1      41.311  32.357  35.150  1.00  0.00     0.074 A 
ATOM     51  C   UNL A   1      42.473  27.715  30.985  1.00  0.00     0.029 A 
ATOM     52  N   UNL A   1      41.597  29.435  32.089  1.00  0.00    -0.354 N 
ATOM     53  N   UNL A   1      41.478  31.432  34.236  1.00  0.00    -0.248 NA
ATOM     54  C   UNL A   1      42.290  32.304  36.246  1.00  0.00     0.031 C 
ATOM     55  C   UNL A   1      43.237  27.936  32.136  1.00  0.00     0.029 A 
ATOM     56  C   UNL A   1      42.704  29.022  32.813  1.00  0.00     0.049 A 
ATOM     57  H   UNL A   1      41.011  30.187  32.334  1.00  0.00     0.167 HD
ATOM     58  C   UNL A   1      42.594  30.705  34.631  1.00  0.00     0.074 A 
ATOM     59  C   UNL A   1      43.071  31.306  35.858  1.00  0.00     0.031 C 
ATOM     60  C   UNL A   1      43.169  29.635  34.030  1.00  0.00     0.037 A 
BRANCH  47  61
ATOM     61  C   UNL A   1      40.308  27.793  28.871  1.00  0.00     0.057 A 
ATOM     62  C   UNL A   1      41.021  27.991  27.681  1.00  0.00     0.134 A 
ATOM     63  C   UNL A   1      39.544  26.624  28.979  1.00  0.00     0.134 A 
ATOM     64  F   UNL A   1      41.761  29.096  27.508  1.00  0.00    -0.206 F 
ATOM     65  C   UNL A   1      40.956  27.076  26.630  1.00  0.00     0.040 A 
ATOM     66  C   UNL A   1      39.493  25.688  27.945  1.00  0.00     0.040 A 
ATOM     67  F   UNL A   1      38.840  26.370  30.093  1.00  0.00    -0.206 F 
ATOM     68  C   UNL A   1      40.194  25.917  26.763  1.00  0.00     0.006 A 
ENDBRANCH  47  61
BRANCH  48  69
ATOM     69  C   UNL A   1      40.255  34.403  36.353  1.00  0.00     0.057 A 
ATOM     70  C   UNL A   1      39.537  34.126  37.522  1.00  0.00     0.134 A 
ATOM     71  C   UNL A   1      40.948  35.617  36.294  1.00  0.00     0.134 A 
ATOM     72  F   UNL A   1      38.838  32.986  37.631  1.00  0.00    -0.206 F 
ATOM     73  C   UNL A   1      39.492  35.031  38.584  1.00  0.00     0.040 A 
ATOM     74  C   UNL A   1      40.932  36.520  37.359  1.00  0.00     0.040 A 
ATOM     75  F   UNL A   1      41.663  35.937  35.205  1.00  0.00    -0.206 F 
ATOM     76  C   UNL A   1      40.195  36.230  38.504  1.00  0.00     0.006 A 
ENDBRANCH  48  69
BRANCH  60  77
ATOM     77  C   UNL A   1      44.400  29.067  34.675  1.00  0.00     0.057 A 
ATOM     78  C   UNL A   1      44.325  28.081  35.667  1.00  0.00     0.134 A 
ATOM     79  C   UNL A   1      45.673  29.484  34.269  1.00  0.00     0.134 A 
ATOM     80  F   UNL A   1      43.134  27.649  36.109  1.00  0.00    -0.206 F 
ATOM     81  C   UNL A   1      45.475  27.546  36.248  1.00  0.00     0.040 A 
ATOM     82  C   UNL A   1      46.831  28.937  34.825  1.00  0.00     0.040 A 
ATOM     83  F   UNL A   1      45.814  30.418  33.317  1.00  0.00    -0.206 F 
ATOM     84  C   UNL A   1      46.733  27.969  35.822  1.00  0.00     0.006 A 
ENDBRANCH  60  77
ENDBRANCH  34  35
ENDBRANCH  26  29
ENDBRANCH  24  25
ENDBRANCH  23  24
ENDBRANCH   1  23
TORSDOF 14
ENDMDL
