MODEL 1
REMARK VINA RESULT:     -12.8      0.000      0.000
REMARK SMILES CN1C(=O)C[C@@H](C(=O)NCCCCNC(=O)c2ccc(-c3c4nc(c(-c5c(F)cccc5F)c5ccc([nH]5)c(-c5c(F)cccc5F)c5nc(c(-c6c(F)cccc6F)c6ccc3[nH]6)C=C5)C=C4)cc2)C12CCN(c1ccc(Cl)cn1)CC2
REMARK SMILES IDX 12 1 11 2 10 3 9 4 7 5 8 6 6 8 1 9 2 10 3 11 71 12 4 13 5 14
REMARK SMILES IDX 72 15 83 16 73 17 82 18 74 19 75 20 76 21 81 22 77 23 80 24
REMARK SMILES IDX 78 25 79 26 13 27 14 28 15 29 16 31 17 32 18 33 70 34 19 35
REMARK SMILES IDX 69 36 20 37 21 38 22 39 63 40 23 41 68 42 62 43 64 44 24 45
REMARK SMILES IDX 67 46 61 47 60 48 25 50 51 51 34 52 50 53 35 54 38 55 49 56
REMARK SMILES IDX 65 57 36 58 37 59 48 61 66 62 39 63 26 64 27 65 32 66 28 67
REMARK SMILES IDX 29 68 31 69 33 70 30 71 52 72 53 73 58 74 54 75 55 76 57 77
REMARK SMILES IDX 59 78 56 79 40 80 41 81 46 82 42 83 43 84 45 85 47 86 44 87
REMARK H PARENT 9 7 14 30 64 49 38 60
REMARK Flexibility Score: inf
ROOT
ATOM      1  C   UNL A   1      37.857  20.096  24.926  1.00  0.00     0.023 C 
ENDROOT
BRANCH   1   2
ATOM      2  C   UNL A   1      36.844  21.227  24.766  1.00  0.00     0.023 C 
BRANCH   2   3
ATOM      3  C   UNL A   1      35.402  20.832  25.098  1.00  0.00     0.116 C 
BRANCH   3   4
ATOM      4  N   UNL A   1      34.927  21.369  26.362  1.00  0.00    -0.356 N 
ATOM      5  C   UNL A   1      33.745  21.888  26.774  1.00  0.00     0.226 C 
ATOM      6  O   UNL A   1      33.693  22.226  27.964  1.00  0.00    -0.275 OA
ATOM      7  H   UNL A   1      35.610  21.350  27.071  1.00  0.00     0.163 HD
BRANCH   5   8
ATOM      8  C   UNL A   1      32.514  22.117  25.894  1.00  0.00     0.113 C 
ATOM      9  C   UNL A   1      33.222  22.886  22.295  1.00  0.00     0.147 C 
ATOM     10  N   UNL A   1      32.845  22.369  23.597  1.00  0.00    -0.339 N 
ATOM     11  C   UNL A   1      32.398  21.061  23.750  1.00  0.00     0.223 C 
ATOM     12  C   UNL A   1      32.599  23.199  24.789  1.00  0.00     0.058 C 
ATOM     13  O   UNL A   1      32.334  20.208  22.881  1.00  0.00    -0.275 OA
ATOM     14  C   UNL A   1      32.038  20.843  25.193  1.00  0.00     0.116 C 
ATOM     15  C   UNL A   1      33.697  24.256  25.047  1.00  0.00     0.051 C 
ATOM     16  C   UNL A   1      31.217  23.915  24.612  1.00  0.00     0.051 C 
ATOM     17  C   UNL A   1      33.322  25.231  26.147  1.00  0.00     0.120 C 
ATOM     18  C   UNL A   1      30.927  25.006  25.657  1.00  0.00     0.120 C 
ATOM     19  N   UNL A   1      32.093  25.867  25.723  1.00  0.00    -0.356 N 
BRANCH  19  20
ATOM     20  C   UNL A   1      31.975  27.230  25.870  1.00  0.00     0.128 A 
ATOM     21  C   UNL A   1      32.273  27.814  27.108  1.00  0.00     0.048 A 
ATOM     22  N   UNL A   1      31.590  27.984  24.821  1.00  0.00    -0.238 NA
ATOM     23  C   UNL A   1      32.145  29.187  27.291  1.00  0.00     0.026 A 
ATOM     24  C   UNL A   1      31.447  29.318  25.025  1.00  0.00     0.134 A 
ATOM     25  C   UNL A   1      31.709  29.957  26.228  1.00  0.00     0.059 A 
ATOM     26  Cl  UNL A   1      31.506  31.650  26.401  1.00  0.00    -0.083 Cl
ENDBRANCH  19  20
ENDBRANCH   5   8
ENDBRANCH   3   4
ENDBRANCH   2   3
ENDBRANCH   1   2
BRANCH   1  27
ATOM     27  C   UNL A   1      39.061  20.465  25.779  1.00  0.00     0.116 C 
BRANCH  27  28
ATOM     28  N   UNL A   1      40.069  19.412  25.817  1.00  0.00    -0.352 N 
ATOM     29  C   UNL A   1      41.403  19.517  26.117  1.00  0.00     0.251 C 
ATOM     30  H   UNL A   1      39.749  18.507  25.597  1.00  0.00     0.163 HD
ATOM     31  O   UNL A   1      42.163  18.566  25.969  1.00  0.00    -0.269 OA
BRANCH  29  32
ATOM     32  C   UNL A   1      41.909  20.813  26.596  1.00  0.00     0.039 A 
ATOM     33  C   UNL A   1      42.350  21.755  25.666  1.00  0.00     0.014 A 
ATOM     34  C   UNL A   1      41.856  21.114  27.959  1.00  0.00     0.014 A 
ATOM     35  C   UNL A   1      42.670  23.040  26.101  1.00  0.00     0.010 A 
ATOM     36  C   UNL A   1      42.095  22.413  28.377  1.00  0.00     0.010 A 
ATOM     37  C   UNL A   1      42.504  23.387  27.452  1.00  0.00    -0.014 A 
BRANCH  37  38
ATOM     38  C   UNL A   1      42.761  24.762  27.936  1.00  0.00     0.031 A 
ATOM     39  C   UNL A   1      44.153  25.152  28.346  1.00  0.00     0.074 A 
ATOM     40  C   UNL A   1      41.734  25.616  28.099  1.00  0.00     0.049 A 
ATOM     41  N   UNL A   1      44.569  26.251  28.917  1.00  0.00    -0.248 NA
ATOM     42  C   UNL A   1      45.211  24.154  28.115  1.00  0.00     0.031 C 
ATOM     43  C   UNL A   1      40.331  25.329  27.789  1.00  0.00     0.029 A 
ATOM     44  N   UNL A   1      41.711  26.899  28.583  1.00  0.00    -0.354 N 
ATOM     45  C   UNL A   1      45.926  26.065  29.140  1.00  0.00     0.074 A 
ATOM     46  C   UNL A   1      46.255  24.731  28.691  1.00  0.00     0.031 C 
ATOM     47  C   UNL A   1      39.589  26.413  28.071  1.00  0.00     0.029 A 
ATOM     48  C   UNL A   1      40.455  27.453  28.614  1.00  0.00     0.049 A 
ATOM     49  H   UNL A   1      42.519  27.377  28.881  1.00  0.00     0.167 HD
ATOM     50  C   UNL A   1      46.823  26.939  29.653  1.00  0.00     0.037 A 
ATOM     51  C   UNL A   1      40.051  28.664  29.040  1.00  0.00     0.037 A 
ATOM     52  C   UNL A   1      46.499  28.280  30.055  1.00  0.00     0.049 A 
ATOM     53  C   UNL A   1      41.071  29.626  29.580  1.00  0.00     0.074 A 
ATOM     54  C   UNL A   1      47.346  29.270  30.520  1.00  0.00     0.029 A 
ATOM     55  N   UNL A   1      45.222  28.821  30.030  1.00  0.00    -0.354 N 
ATOM     56  N   UNL A   1      42.362  29.461  29.732  1.00  0.00    -0.248 NA
ATOM     57  C   UNL A   1      40.579  30.944  30.006  1.00  0.00     0.031 C 
ATOM     58  C   UNL A   1      46.576  30.403  30.803  1.00  0.00     0.029 A 
ATOM     59  C   UNL A   1      45.255  30.129  30.482  1.00  0.00     0.049 A 
ATOM     60  H   UNL A   1      44.413  28.345  29.735  1.00  0.00     0.167 HD
ATOM     61  C   UNL A   1      42.842  30.659  30.244  1.00  0.00     0.074 A 
ATOM     62  C   UNL A   1      41.703  31.547  30.368  1.00  0.00     0.031 C 
ATOM     63  C   UNL A   1      44.110  30.995  30.582  1.00  0.00     0.037 A 
BRANCH  50  64
ATOM     64  C   UNL A   1      48.240  26.468  29.790  1.00  0.00     0.057 A 
ATOM     65  C   UNL A   1      49.185  26.668  28.776  1.00  0.00     0.134 A 
ATOM     66  C   UNL A   1      48.669  25.820  30.955  1.00  0.00     0.134 A 
ATOM     67  F   UNL A   1      48.833  27.266  27.628  1.00  0.00    -0.206 F 
ATOM     68  C   UNL A   1      50.499  26.216  28.903  1.00  0.00     0.040 A 
ATOM     69  C   UNL A   1      49.987  25.387  31.105  1.00  0.00     0.040 A 
ATOM     70  F   UNL A   1      47.815  25.599  31.966  1.00  0.00    -0.206 F 
ATOM     71  C   UNL A   1      50.905  25.579  30.073  1.00  0.00     0.006 A 
ENDBRANCH  50  64
BRANCH  51  72
ATOM     72  C   UNL A   1      38.621  29.047  28.945  1.00  0.00     0.057 A 
ATOM     73  C   UNL A   1      38.084  29.522  27.744  1.00  0.00     0.134 A 
ATOM     74  C   UNL A   1      37.760  28.954  30.046  1.00  0.00     0.134 A 
ATOM     75  F   UNL A   1      38.864  29.649  26.660  1.00  0.00    -0.206 F 
ATOM     76  C   UNL A   1      36.746  29.907  27.641  1.00  0.00     0.040 A 
ATOM     77  C   UNL A   1      36.416  29.316  29.952  1.00  0.00     0.040 A 
ATOM     78  F   UNL A   1      38.212  28.498  31.222  1.00  0.00    -0.206 F 
ATOM     79  C   UNL A   1      35.907  29.801  28.748  1.00  0.00     0.006 A 
ENDBRANCH  51  72
BRANCH  63  80
ATOM     80  C   UNL A   1      44.338  32.389  31.082  1.00  0.00     0.057 A 
ATOM     81  C   UNL A   1      44.595  33.452  30.206  1.00  0.00     0.134 A 
ATOM     82  C   UNL A   1      44.248  32.679  32.449  1.00  0.00     0.134 A 
ATOM     83  F   UNL A   1      44.705  33.234  28.887  1.00  0.00    -0.206 F 
ATOM     84  C   UNL A   1      44.770  34.753  30.677  1.00  0.00     0.040 A 
ATOM     85  C   UNL A   1      44.400  33.979  32.929  1.00  0.00     0.040 A 
ATOM     86  F   UNL A   1      43.997  31.704  33.336  1.00  0.00    -0.206 F 
ATOM     87  C   UNL A   1      44.665  35.020  32.041  1.00  0.00     0.006 A 
ENDBRANCH  63  80
ENDBRANCH  37  38
ENDBRANCH  29  32
ENDBRANCH  27  28
ENDBRANCH   1  27
TORSDOF 12
ENDMDL
MODEL 2
REMARK VINA RESULT:     -12.7      4.267      9.357
REMARK SMILES CN1C(=O)C[C@@H](C(=O)NCCCCNC(=O)c2ccc(-c3c4nc(c(-c5c(F)cccc5F)c5ccc([nH]5)c(-c5c(F)cccc5F)c5nc(c(-c6c(F)cccc6F)c6ccc3[nH]6)C=C5)C=C4)cc2)C12CCN(c1ccc(Cl)cn1)CC2
REMARK SMILES IDX 12 1 11 2 10 3 9 4 7 5 8 6 6 8 1 9 2 10 3 11 71 12 4 13 5 14
REMARK SMILES IDX 72 15 83 16 73 17 82 18 74 19 75 20 76 21 81 22 77 23 80 24
REMARK SMILES IDX 78 25 79 26 13 27 14 28 15 29 16 31 17 32 18 33 70 34 19 35
REMARK SMILES IDX 69 36 20 37 21 38 22 39 63 40 23 41 68 42 62 43 64 44 24 45
REMARK SMILES IDX 67 46 61 47 60 48 25 50 51 51 34 52 50 53 35 54 38 55 49 56
REMARK SMILES IDX 65 57 36 58 37 59 48 61 66 62 39 63 26 64 27 65 32 66 28 67
REMARK SMILES IDX 29 68 31 69 33 70 30 71 52 72 53 73 58 74 54 75 55 76 57 77
REMARK SMILES IDX 59 78 56 79 40 80 41 81 46 82 42 83 43 84 45 85 47 86 44 87
REMARK H PARENT 9 7 14 30 64 49 38 60
REMARK Flexibility Score: inf
ROOT
ATOM      1  C   UNL A   1      31.559  31.759  26.631  1.00  0.00     0.023 C 
ENDROOT
BRANCH   1   2
ATOM      2  C   UNL A   1      31.777  30.255  26.485  1.00  0.00     0.023 C 
BRANCH   2   3
ATOM      3  C   UNL A   1      31.474  29.707  25.088  1.00  0.00     0.116 C 
BRANCH   3   4
ATOM      4  N   UNL A   1      32.659  29.491  24.276  1.00  0.00    -0.356 N 
ATOM      5  C   UNL A   1      32.980  28.603  23.304  1.00  0.00     0.226 C 
ATOM      6  O   UNL A   1      34.102  28.741  22.800  1.00  0.00    -0.275 OA
ATOM      7  H   UNL A   1      33.384  30.128  24.473  1.00  0.00     0.163 HD
BRANCH   5   8
ATOM      8  C   UNL A   1      32.098  27.449  22.822  1.00  0.00     0.113 C 
ATOM      9  C   UNL A   1      29.837  25.953  25.410  1.00  0.00     0.147 C 
ATOM     10  N   UNL A   1      30.493  26.611  24.295  1.00  0.00    -0.339 N 
ATOM     11  C   UNL A   1      29.781  27.421  23.418  1.00  0.00     0.223 C 
ATOM     12  C   UNL A   1      31.838  26.273  23.797  1.00  0.00     0.058 C 
ATOM     13  O   UNL A   1      28.603  27.724  23.501  1.00  0.00    -0.275 OA
ATOM     14  C   UNL A   1      30.719  27.911  22.350  1.00  0.00     0.116 C 
ATOM     15  C   UNL A   1      32.901  26.153  24.913  1.00  0.00     0.051 C 
ATOM     16  C   UNL A   1      31.747  24.919  23.016  1.00  0.00     0.051 C 
ATOM     17  C   UNL A   1      34.220  25.603  24.404  1.00  0.00     0.120 C 
ATOM     18  C   UNL A   1      33.108  24.307  22.643  1.00  0.00     0.120 C 
ATOM     19  N   UNL A   1      33.927  24.304  23.840  1.00  0.00    -0.356 N 
BRANCH  19  20
ATOM     20  C   UNL A   1      34.767  23.255  24.136  1.00  0.00     0.128 A 
ATOM     21  C   UNL A   1      36.113  23.328  23.758  1.00  0.00     0.048 A 
ATOM     22  N   UNL A   1      34.288  22.182  24.795  1.00  0.00    -0.238 NA
ATOM     23  C   UNL A   1      36.981  22.274  24.028  1.00  0.00     0.026 A 
ATOM     24  C   UNL A   1      35.143  21.153  25.028  1.00  0.00     0.134 A 
ATOM     25  C   UNL A   1      36.481  21.154  24.666  1.00  0.00     0.059 A 
ATOM     26  Cl  UNL A   1      37.496  19.814  25.001  1.00  0.00    -0.083 Cl
ENDBRANCH  19  20
ENDBRANCH   5   8
ENDBRANCH   3   4
ENDBRANCH   2   3
ENDBRANCH   1   2
BRANCH   1  27
ATOM     27  C   UNL A   1      32.745  32.496  27.235  1.00  0.00     0.116 C 
BRANCH  27  28
ATOM     28  N   UNL A   1      32.440  33.886  27.554  1.00  0.00    -0.352 N 
ATOM     29  C   UNL A   1      33.021  34.692  28.500  1.00  0.00     0.251 C 
ATOM     30  H   UNL A   1      31.724  34.300  27.021  1.00  0.00     0.163 HD
ATOM     31  O   UNL A   1      32.564  35.801  28.755  1.00  0.00    -0.269 OA
BRANCH  29  32
ATOM     32  C   UNL A   1      34.194  34.179  29.226  1.00  0.00     0.039 A 
ATOM     33  C   UNL A   1      33.999  33.403  30.368  1.00  0.00     0.014 A 
ATOM     34  C   UNL A   1      35.474  34.401  28.713  1.00  0.00     0.014 A 
ATOM     35  C   UNL A   1      35.096  32.779  30.960  1.00  0.00     0.010 A 
ATOM     36  C   UNL A   1      36.549  33.714  29.253  1.00  0.00     0.010 A 
ATOM     37  C   UNL A   1      36.370  32.897  30.380  1.00  0.00    -0.014 A 
BRANCH  37  38
ATOM     38  C   UNL A   1      37.544  32.187  30.936  1.00  0.00     0.031 A 
ATOM     39  C   UNL A   1      38.207  32.716  32.175  1.00  0.00     0.074 A 
ATOM     40  C   UNL A   1      38.065  31.137  30.275  1.00  0.00     0.049 A 
ATOM     41  N   UNL A   1      39.316  32.328  32.749  1.00  0.00    -0.248 NA
ATOM     42  C   UNL A   1      37.554  33.858  32.835  1.00  0.00     0.031 C 
ATOM     43  C   UNL A   1      37.539  30.569  29.030  1.00  0.00     0.029 A 
ATOM     44  N   UNL A   1      39.165  30.368  30.551  1.00  0.00    -0.354 N 
ATOM     45  C   UNL A   1      39.508  33.197  33.815  1.00  0.00     0.074 A 
ATOM     46  C   UNL A   1      38.431  34.161  33.780  1.00  0.00     0.031 C 
ATOM     47  C   UNL A   1      38.306  29.529  28.663  1.00  0.00     0.029 A 
ATOM     48  C   UNL A   1      39.395  29.381  29.623  1.00  0.00     0.049 A 
ATOM     49  H   UNL A   1      39.738  30.510  31.339  1.00  0.00     0.167 HD
ATOM     50  C   UNL A   1      40.482  33.175  34.753  1.00  0.00     0.037 A 
ATOM     51  C   UNL A   1      40.379  28.465  29.555  1.00  0.00     0.037 A 
ATOM     52  C   UNL A   1      41.523  32.186  34.809  1.00  0.00     0.049 A 
ATOM     53  C   UNL A   1      41.434  28.446  30.625  1.00  0.00     0.074 A 
ATOM     54  C   UNL A   1      42.518  32.032  35.759  1.00  0.00     0.029 A 
ATOM     55  N   UNL A   1      41.697  31.175  33.876  1.00  0.00    -0.354 N 
ATOM     56  N   UNL A   1      41.572  29.235  31.662  1.00  0.00    -0.248 NA
ATOM     57  C   UNL A   1      42.469  27.408  30.517  1.00  0.00     0.031 C 
ATOM     58  C   UNL A   1      43.311  30.942  35.384  1.00  0.00     0.029 A 
ATOM     59  C   UNL A   1      42.789  30.398  34.220  1.00  0.00     0.049 A 
ATOM     60  H   UNL A   1      41.128  31.031  33.086  1.00  0.00     0.167 HD
ATOM     61  C   UNL A   1      42.690  28.775  32.344  1.00  0.00     0.074 A 
ATOM     62  C   UNL A   1      43.188  27.631  31.608  1.00  0.00     0.031 C 
ATOM     63  C   UNL A   1      43.255  29.256  33.478  1.00  0.00     0.037 A 
BRANCH  50  64
ATOM     64  C   UNL A   1      40.452  34.249  35.799  1.00  0.00     0.057 A 
ATOM     65  C   UNL A   1      39.743  34.091  36.997  1.00  0.00     0.134 A 
ATOM     66  C   UNL A   1      41.150  35.448  35.614  1.00  0.00     0.134 A 
ATOM     67  F   UNL A   1      39.039  32.972  37.228  1.00  0.00    -0.206 F 
ATOM     68  C   UNL A   1      39.707  35.098  37.962  1.00  0.00     0.040 A 
ATOM     69  C   UNL A   1      41.143  36.453  36.584  1.00  0.00     0.040 A 
ATOM     70  F   UNL A   1      41.850  35.664  34.491  1.00  0.00    -0.206 F 
ATOM     71  C   UNL A   1      40.414  36.281  37.760  1.00  0.00     0.006 A 
ENDBRANCH  50  64
BRANCH  51  72
ATOM     72  C   UNL A   1      40.396  27.473  28.454  1.00  0.00     0.057 A 
ATOM     73  C   UNL A   1      39.666  26.282  28.549  1.00  0.00     0.134 A 
ATOM     74  C   UNL A   1      41.139  27.682  27.286  1.00  0.00     0.134 A 
ATOM     75  F   UNL A   1      38.948  26.018  29.652  1.00  0.00    -0.206 F 
ATOM     76  C   UNL A   1      39.687  25.326  27.532  1.00  0.00     0.040 A 
ATOM     77  C   UNL A   1      41.153  26.745  26.252  1.00  0.00     0.040 A 
ATOM     78  F   UNL A   1      41.852  28.807  27.130  1.00  0.00    -0.206 F 
ATOM     79  C   UNL A   1      40.430  25.559  26.377  1.00  0.00     0.006 A 
ENDBRANCH  51  72
BRANCH  63  80
ATOM     80  C   UNL A   1      44.450  28.525  34.010  1.00  0.00     0.057 A 
ATOM     81  C   UNL A   1      45.755  28.905  33.675  1.00  0.00     0.134 A 
ATOM     82  C   UNL A   1      44.292  27.461  34.906  1.00  0.00     0.134 A 
ATOM     83  F   UNL A   1      45.969  29.909  32.810  1.00  0.00    -0.206 F 
ATOM     84  C   UNL A   1      46.862  28.242  34.203  1.00  0.00     0.040 A 
ATOM     85  C   UNL A   1      45.391  26.804  35.457  1.00  0.00     0.040 A 
ATOM     86  F   UNL A   1      43.066  27.054  35.271  1.00  0.00    -0.206 F 
ATOM     87  C   UNL A   1      46.682  27.193  35.103  1.00  0.00     0.006 A 
ENDBRANCH  63  80
ENDBRANCH  37  38
ENDBRANCH  29  32
ENDBRANCH  27  28
ENDBRANCH   1  27
TORSDOF 12
ENDMDL
MODEL 3
REMARK VINA RESULT:     -12.7      4.092      9.195
REMARK SMILES CN1C(=O)C[C@@H](C(=O)NCCCCNC(=O)c2ccc(-c3c4nc(c(-c5c(F)cccc5F)c5ccc([nH]5)c(-c5c(F)cccc5F)c5nc(c(-c6c(F)cccc6F)c6ccc3[nH]6)C=C5)C=C4)cc2)C12CCN(c1ccc(Cl)cn1)CC2
REMARK SMILES IDX 12 1 11 2 10 3 9 4 7 5 8 6 6 8 1 9 2 10 3 11 71 12 4 13 5 14
REMARK SMILES IDX 72 15 83 16 73 17 82 18 74 19 75 20 76 21 81 22 77 23 80 24
REMARK SMILES IDX 78 25 79 26 13 27 14 28 15 29 16 31 17 32 18 33 70 34 19 35
REMARK SMILES IDX 69 36 20 37 21 38 22 39 63 40 23 41 68 42 62 43 64 44 24 45
REMARK SMILES IDX 67 46 61 47 60 48 25 50 51 51 34 52 50 53 35 54 38 55 49 56
REMARK SMILES IDX 65 57 36 58 37 59 48 61 66 62 39 63 26 64 27 65 32 66 28 67
REMARK SMILES IDX 29 68 31 69 33 70 30 71 52 72 53 73 58 74 54 75 55 76 57 77
REMARK SMILES IDX 59 78 56 79 40 80 41 81 46 82 42 83 43 84 45 85 47 86 44 87
REMARK H PARENT 9 7 14 30 64 49 38 60
REMARK Flexibility Score: inf
ROOT
ATOM      1  C   UNL A   1      31.596  31.780  26.600  1.00  0.00     0.023 C 
ENDROOT
BRANCH   1   2
ATOM      2  C   UNL A   1      31.777  30.269  26.477  1.00  0.00     0.023 C 
BRANCH   2   3
ATOM      3  C   UNL A   1      31.504  29.714  25.077  1.00  0.00     0.116 C 
BRANCH   3   4
ATOM      4  N   UNL A   1      32.705  29.511  24.285  1.00  0.00    -0.356 N 
ATOM      5  C   UNL A   1      33.044  28.640  23.303  1.00  0.00     0.226 C 
ATOM      6  O   UNL A   1      34.176  28.784  22.825  1.00  0.00    -0.275 OA
ATOM      7  H   UNL A   1      33.427  30.141  24.509  1.00  0.00     0.163 HD
BRANCH   5   8
ATOM      8  C   UNL A   1      32.170  27.497  22.781  1.00  0.00     0.113 C 
ATOM      9  C   UNL A   1      29.837  25.974  25.288  1.00  0.00     0.147 C 
ATOM     10  N   UNL A   1      30.524  26.645  24.201  1.00  0.00    -0.339 N 
ATOM     11  C   UNL A   1      29.838  27.471  23.318  1.00  0.00     0.223 C 
ATOM     12  C   UNL A   1      31.880  26.309  23.732  1.00  0.00     0.058 C 
ATOM     13  O   UNL A   1      28.660  27.779  23.375  1.00  0.00    -0.275 OA
ATOM     14  C   UNL A   1      30.805  27.973  22.281  1.00  0.00     0.116 C 
ATOM     15  C   UNL A   1      32.913  26.167  24.872  1.00  0.00     0.051 C 
ATOM     16  C   UNL A   1      31.802  24.967  22.928  1.00  0.00     0.051 C 
ATOM     17  C   UNL A   1      34.243  25.618  24.390  1.00  0.00     0.120 C 
ATOM     18  C   UNL A   1      33.169  24.353  22.581  1.00  0.00     0.120 C 
ATOM     19  N   UNL A   1      33.958  24.329  23.798  1.00  0.00    -0.356 N 
BRANCH  19  20
ATOM     20  C   UNL A   1      34.785  23.271  24.100  1.00  0.00     0.128 A 
ATOM     21  C   UNL A   1      36.097  23.267  23.610  1.00  0.00     0.048 A 
ATOM     22  N   UNL A   1      34.328  22.265  24.871  1.00  0.00    -0.238 NA
ATOM     23  C   UNL A   1      36.950  22.202  23.884  1.00  0.00     0.026 A 
ATOM     24  C   UNL A   1      35.166  21.223  25.106  1.00  0.00     0.134 A 
ATOM     25  C   UNL A   1      36.469  21.148  24.639  1.00  0.00     0.059 A 
ATOM     26  Cl  UNL A   1      37.465  19.796  24.985  1.00  0.00    -0.083 Cl
ENDBRANCH  19  20
ENDBRANCH   5   8
ENDBRANCH   3   4
ENDBRANCH   2   3
ENDBRANCH   1   2
BRANCH   1  27
ATOM     27  C   UNL A   1      32.765  32.487  27.269  1.00  0.00     0.116 C 
BRANCH  27  28
ATOM     28  N   UNL A   1      32.469  33.877  27.597  1.00  0.00    -0.352 N 
ATOM     29  C   UNL A   1      33.088  34.689  28.513  1.00  0.00     0.251 C 
ATOM     30  H   UNL A   1      31.729  34.286  27.094  1.00  0.00     0.163 HD
ATOM     31  O   UNL A   1      32.638  35.797  28.784  1.00  0.00    -0.269 OA
BRANCH  29  32
ATOM     32  C   UNL A   1      34.294  34.183  29.189  1.00  0.00     0.039 A 
ATOM     33  C   UNL A   1      34.154  33.447  30.365  1.00  0.00     0.014 A 
ATOM     34  C   UNL A   1      35.546  34.370  28.598  1.00  0.00     0.014 A 
ATOM     35  C   UNL A   1      35.275  32.826  30.915  1.00  0.00     0.010 A 
ATOM     36  C   UNL A   1      36.641  33.686  29.099  1.00  0.00     0.010 A 
ATOM     37  C   UNL A   1      36.515  32.908  30.261  1.00  0.00    -0.014 A 
BRANCH  37  38
ATOM     38  C   UNL A   1      37.710  32.200  30.773  1.00  0.00     0.031 A 
ATOM     39  C   UNL A   1      38.454  32.763  31.950  1.00  0.00     0.074 A 
ATOM     40  C   UNL A   1      38.175  31.117  30.123  1.00  0.00     0.049 A 
ATOM     41  N   UNL A   1      39.590  32.379  32.471  1.00  0.00    -0.248 NA
ATOM     42  C   UNL A   1      37.858  33.940  32.603  1.00  0.00     0.031 C 
ATOM     43  C   UNL A   1      37.568  30.512  28.934  1.00  0.00     0.029 A 
ATOM     44  N   UNL A   1      39.279  30.340  30.363  1.00  0.00    -0.354 N 
ATOM     45  C   UNL A   1      39.857  33.283  33.490  1.00  0.00     0.074 A 
ATOM     46  C   UNL A   1      38.795  34.264  33.482  1.00  0.00     0.031 C 
ATOM     47  C   UNL A   1      38.297  29.446  28.563  1.00  0.00     0.029 A 
ATOM     48  C   UNL A   1      39.438  29.316  29.461  1.00  0.00     0.049 A 
ATOM     49  H   UNL A   1      39.900  30.502  31.110  1.00  0.00     0.167 HD
ATOM     50  C   UNL A   1      40.886  33.281  34.369  1.00  0.00     0.037 A 
ATOM     51  C   UNL A   1      40.403  28.381  29.371  1.00  0.00     0.037 A 
ATOM     52  C   UNL A   1      41.914  32.277  34.401  1.00  0.00     0.049 A 
ATOM     53  C   UNL A   1      41.520  28.385  30.376  1.00  0.00     0.074 A 
ATOM     54  C   UNL A   1      42.961  32.142  35.295  1.00  0.00     0.029 A 
ATOM     55  N   UNL A   1      42.016  31.228  33.498  1.00  0.00    -0.354 N 
ATOM     56  N   UNL A   1      41.732  29.210  31.372  1.00  0.00    -0.248 NA
ATOM     57  C   UNL A   1      42.531  27.326  30.247  1.00  0.00     0.031 C 
ATOM     58  C   UNL A   1      43.714  31.026  34.916  1.00  0.00     0.029 A 
ATOM     59  C   UNL A   1      43.116  30.447  33.807  1.00  0.00     0.049 A 
ATOM     60  H   UNL A   1      41.399  31.065  32.750  1.00  0.00     0.167 HD
ATOM     61  C   UNL A   1      42.881  28.757  32.004  1.00  0.00     0.074 A 
ATOM     62  C   UNL A   1      43.317  27.577  31.284  1.00  0.00     0.031 C 
ATOM     63  C   UNL A   1      43.520  29.270  33.083  1.00  0.00     0.037 A 
BRANCH  50  64
ATOM     64  C   UNL A   1      40.934  34.393  35.373  1.00  0.00     0.057 A 
ATOM     65  C   UNL A   1      41.624  35.585  35.121  1.00  0.00     0.134 A 
ATOM     66  C   UNL A   1      40.272  34.277  36.601  1.00  0.00     0.134 A 
ATOM     67  F   UNL A   1      42.294  35.752  33.970  1.00  0.00    -0.206 F 
ATOM     68  C   UNL A   1      41.677  36.612  36.064  1.00  0.00     0.040 A 
ATOM     69  C   UNL A   1      40.296  35.308  37.542  1.00  0.00     0.040 A 
ATOM     70  F   UNL A   1      39.591  33.162  36.906  1.00  0.00    -0.206 F 
ATOM     71  C   UNL A   1      41.006  36.477  37.277  1.00  0.00     0.006 A 
ENDBRANCH  50  64
BRANCH  51  72
ATOM     72  C   UNL A   1      40.339  27.348  28.309  1.00  0.00     0.057 A 
ATOM     73  C   UNL A   1      40.995  27.534  27.087  1.00  0.00     0.134 A 
ATOM     74  C   UNL A   1      39.623  26.158  28.483  1.00  0.00     0.134 A 
ATOM     75  F   UNL A   1      41.684  28.662  26.856  1.00  0.00    -0.206 F 
ATOM     76  C   UNL A   1      40.929  26.582  26.068  1.00  0.00     0.040 A 
ATOM     77  C   UNL A   1      39.565  25.188  27.481  1.00  0.00     0.040 A 
ATOM     78  F   UNL A   1      38.980  25.916  29.634  1.00  0.00    -0.206 F 
ATOM     79  C   UNL A   1      40.214  25.403  26.266  1.00  0.00     0.006 A 
ENDBRANCH  51  72
BRANCH  63  80
ATOM     80  C   UNL A   1      44.733  28.539  33.571  1.00  0.00     0.057 A 
ATOM     81  C   UNL A   1      44.638  27.484  34.487  1.00  0.00     0.134 A 
ATOM     82  C   UNL A   1      46.004  28.862  33.079  1.00  0.00     0.134 A 
ATOM     83  F   UNL A   1      43.449  27.137  35.003  1.00  0.00    -0.206 F 
ATOM     84  C   UNL A   1      45.769  26.785  34.908  1.00  0.00     0.040 A 
ATOM     85  C   UNL A   1      47.139  28.157  33.477  1.00  0.00     0.040 A 
ATOM     86  F   UNL A   1      46.159  29.859  32.195  1.00  0.00    -0.206 F 
ATOM     87  C   UNL A   1      47.023  27.116  34.397  1.00  0.00     0.006 A 
ENDBRANCH  63  80
ENDBRANCH  37  38
ENDBRANCH  29  32
ENDBRANCH  27  28
ENDBRANCH   1  27
TORSDOF 12
ENDMDL
