MODEL 1
REMARK VINA RESULT:     -12.5      0.000      0.000
REMARK SMILES C[C@H](NC(=O)c1c(C(=O)NCCCCNC(=O)c2ccc(-c3c4nc(c(-c5c(F)cccc5F)c5ccc([nH]5)c(-c5c(F)cccc5F)c5nc(c(-c6c(F)cccc6F)c6ccc3[nH]6)C=C5)C=C4)cc2)cnn1C)[C@]12C[C@H]3C[C@H](C[C@H](C3)C1)C2
REMARK SMILES IDX 12 1 11 2 10 3 8 4 9 5 7 7 6 8 74 9 72 10 73 11 75 12 4 13
REMARK SMILES IDX 3 14 5 16 2 17 1 18 76 19 77 20 84 21 85 22 78 23 82 24
REMARK SMILES IDX 80 25 79 26 83 27 81 28 13 29 14 30 15 31 16 32 17 34 18 35
REMARK SMILES IDX 19 36 71 37 20 38 70 39 21 40 22 41 23 42 64 43 24 44 69 45
REMARK SMILES IDX 63 46 65 47 25 48 68 49 62 50 61 51 26 53 52 54 35 55 51 56
REMARK SMILES IDX 36 57 39 58 50 59 66 60 37 61 38 62 49 64 67 65 40 66 27 67
REMARK SMILES IDX 28 68 33 69 29 70 30 71 32 72 34 73 31 74 53 75 54 76 59 77
REMARK SMILES IDX 55 78 56 79 58 80 60 81 57 82 41 83 42 84 47 85 43 86 44 87
REMARK SMILES IDX 46 88 48 89 45 90
REMARK H PARENT 10 6 3 15 15 33 65 52 39 63
REMARK Flexibility Score: inf
ROOT
ATOM      1  C   UNL A   1      36.848  22.939  24.297  1.00  0.00     0.023 C 
ENDROOT
BRANCH   1   2
ATOM      2  C   UNL A   1      35.383  23.282  24.548  1.00  0.00     0.116 C 
BRANCH   2   3
ATOM      3  N   UNL A   1      35.160  24.619  25.018  1.00  0.00    -0.352 N 
ATOM      4  C   UNL A   1      34.053  25.221  25.552  1.00  0.00     0.255 C 
ATOM      5  O   UNL A   1      34.201  26.418  25.821  1.00  0.00    -0.269 OA
ATOM      6  H   UNL A   1      35.945  25.210  24.943  1.00  0.00     0.163 HD
BRANCH   4   7
ATOM      7  C   UNL A   1      32.759  24.583  25.790  1.00  0.00     0.090 A 
ATOM      8  C   UNL A   1      32.296  23.384  26.342  1.00  0.00     0.138 A 
ATOM      9  N   UNL A   1      30.922  23.495  26.369  1.00  0.00    -0.262 N 
ATOM     10  C   UNL A   1      31.552  25.252  25.424  1.00  0.00     0.149 A 
ATOM     11  N   UNL A   1      30.447  24.582  25.743  1.00  0.00    -0.180 NA
ATOM     12  C   UNL A   1      29.961  22.573  26.936  1.00  0.00     0.174 C 
BRANCH   8  13
ATOM     13  C   UNL A   1      32.955  22.260  26.934  1.00  0.00     0.270 C 
ATOM     14  N   UNL A   1      32.942  21.030  26.316  1.00  0.00    -0.348 N 
ATOM     15  H   UNL A   1      33.401  20.344  26.854  1.00  0.00     0.164 HD
ATOM     16  O   UNL A   1      33.539  22.340  28.013  1.00  0.00    -0.267 OA
BRANCH  14  17
ATOM     17  C   UNL A   1      32.409  20.475  25.045  1.00  0.00     0.085 C 
ATOM     18  C   UNL A   1      32.577  21.382  23.824  1.00  0.00     0.031 C 
BRANCH  17  19
ATOM     19  C   UNL A   1      32.959  19.004  24.795  1.00  0.00    -0.009 C 
ATOM     20  C   UNL A   1      34.501  19.027  24.578  1.00  0.00     0.012 C 
ATOM     21  C   UNL A   1      32.328  18.348  23.540  1.00  0.00     0.012 C 
ATOM     22  C   UNL A   1      32.669  18.055  25.998  1.00  0.00     0.012 C 
ATOM     23  C   UNL A   1      35.055  17.608  24.341  1.00  0.00    -0.010 C 
ATOM     24  C   UNL A   1      32.873  16.931  23.291  1.00  0.00    -0.010 C 
ATOM     25  C   UNL A   1      33.221  16.641  25.760  1.00  0.00    -0.010 C 
ATOM     26  C   UNL A   1      34.738  16.723  25.556  1.00  0.00     0.007 C 
ATOM     27  C   UNL A   1      34.395  17.001  23.094  1.00  0.00     0.007 C 
ATOM     28  C   UNL A   1      32.559  16.049  24.506  1.00  0.00     0.007 C 
ENDBRANCH  17  19
ENDBRANCH  14  17
ENDBRANCH   8  13
ENDBRANCH   4   7
ENDBRANCH   2   3
ENDBRANCH   1   2
BRANCH   1  29
ATOM     29  C   UNL A   1      37.279  21.515  24.608  1.00  0.00     0.023 C 
BRANCH  29  30
ATOM     30  C   UNL A   1      38.314  21.379  25.718  1.00  0.00     0.116 C 
BRANCH  30  31
ATOM     31  N   UNL A   1      39.142  20.182  25.614  1.00  0.00    -0.352 N 
ATOM     32  C   UNL A   1      40.463  19.967  25.946  1.00  0.00     0.251 C 
ATOM     33  H   UNL A   1      38.679  19.394  25.245  1.00  0.00     0.163 HD
ATOM     34  O   UNL A   1      41.002  18.903  25.690  1.00  0.00    -0.269 OA
BRANCH  32  35
ATOM     35  C   UNL A   1      41.242  21.060  26.567  1.00  0.00     0.039 A 
ATOM     36  C   UNL A   1      41.886  21.987  25.744  1.00  0.00     0.014 A 
ATOM     37  C   UNL A   1      41.274  21.209  27.953  1.00  0.00     0.014 A 
ATOM     38  C   UNL A   1      42.439  23.139  26.307  1.00  0.00     0.010 A 
ATOM     39  C   UNL A   1      41.725  22.402  28.500  1.00  0.00     0.010 A 
ATOM     40  C   UNL A   1      42.294  23.390  27.680  1.00  0.00    -0.014 A 
BRANCH  40  41
ATOM     41  C   UNL A   1      42.685  24.686  28.291  1.00  0.00     0.031 A 
ATOM     42  C   UNL A   1      41.650  25.751  28.519  1.00  0.00     0.074 A 
ATOM     43  C   UNL A   1      43.987  24.956  28.511  1.00  0.00     0.049 A 
ATOM     44  N   UNL A   1      41.810  27.003  28.860  1.00  0.00    -0.248 NA
ATOM     45  C   UNL A   1      40.250  25.366  28.280  1.00  0.00     0.031 C 
ATOM     46  C   UNL A   1      45.101  24.040  28.257  1.00  0.00     0.029 A 
ATOM     47  N   UNL A   1      44.597  26.096  28.971  1.00  0.00    -0.354 N 
ATOM     48  C   UNL A   1      40.541  27.565  28.835  1.00  0.00     0.074 A 
ATOM     49  C   UNL A   1      39.629  26.529  28.399  1.00  0.00     0.031 C 
ATOM     50  C   UNL A   1      46.254  24.647  28.579  1.00  0.00     0.029 A 
ATOM     51  C   UNL A   1      45.967  26.006  29.022  1.00  0.00     0.049 A 
ATOM     52  H   UNL A   1      44.100  26.903  29.238  1.00  0.00     0.167 HD
ATOM     53  C   UNL A   1      40.165  28.822  29.163  1.00  0.00     0.037 A 
ATOM     54  C   UNL A   1      46.890  26.922  29.373  1.00  0.00     0.037 A 
ATOM     55  C   UNL A   1      41.064  29.835  29.648  1.00  0.00     0.049 A 
ATOM     56  C   UNL A   1      46.445  28.290  29.800  1.00  0.00     0.074 A 
ATOM     57  C   UNL A   1      40.769  31.112  30.089  1.00  0.00     0.029 A 
ATOM     58  N   UNL A   1      42.437  29.677  29.763  1.00  0.00    -0.354 N 
ATOM     59  N   UNL A   1      45.234  28.790  29.831  1.00  0.00    -0.248 NA
ATOM     60  C   UNL A   1      47.493  29.220  30.245  1.00  0.00     0.031 C 
ATOM     61  C   UNL A   1      41.968  31.737  30.451  1.00  0.00     0.029 A 
ATOM     62  C   UNL A   1      43.005  30.836  30.264  1.00  0.00     0.049 A 
ATOM     63  H   UNL A   1      42.934  28.861  29.525  1.00  0.00     0.167 HD
ATOM     64  C   UNL A   1      45.369  30.083  30.314  1.00  0.00     0.074 A 
ATOM     65  C   UNL A   1      46.779  30.288  30.576  1.00  0.00     0.031 C 
ATOM     66  C   UNL A   1      44.410  31.018  30.522  1.00  0.00     0.037 A 
BRANCH  53  67
ATOM     67  C   UNL A   1      38.710  29.160  29.015  1.00  0.00     0.057 A 
ATOM     68  C   UNL A   1      38.174  29.592  27.795  1.00  0.00     0.134 A 
ATOM     69  C   UNL A   1      37.839  29.062  30.107  1.00  0.00     0.134 A 
ATOM     70  F   UNL A   1      38.960  29.723  26.716  1.00  0.00    -0.206 F 
ATOM     71  C   UNL A   1      36.831  29.952  27.676  1.00  0.00     0.040 A 
ATOM     72  C   UNL A   1      36.488  29.394  29.992  1.00  0.00     0.040 A 
ATOM     73  F   UNL A   1      38.287  28.651  31.302  1.00  0.00    -0.206 F 
ATOM     74  C   UNL A   1      35.983  29.849  28.776  1.00  0.00     0.006 A 
ENDBRANCH  53  67
BRANCH  54  75
ATOM     75  C   UNL A   1      48.328  26.557  29.360  1.00  0.00     0.057 A 
ATOM     76  C   UNL A   1      48.911  25.900  30.449  1.00  0.00     0.134 A 
ATOM     77  C   UNL A   1      49.144  26.837  28.259  1.00  0.00     0.134 A 
ATOM     78  F   UNL A   1      48.180  25.621  31.538  1.00  0.00    -0.206 F 
ATOM     79  C   UNL A   1      50.260  25.542  30.448  1.00  0.00     0.040 A 
ATOM     80  C   UNL A   1      50.490  26.467  28.237  1.00  0.00     0.040 A 
ATOM     81  F   UNL A   1      48.640  27.455  27.181  1.00  0.00    -0.206 F 
ATOM     82  C   UNL A   1      51.053  25.820  29.337  1.00  0.00     0.006 A 
ENDBRANCH  54  75
BRANCH  66  83
ATOM     83  C   UNL A   1      44.851  32.336  31.083  1.00  0.00     0.057 A 
ATOM     84  C   UNL A   1      45.189  33.412  30.254  1.00  0.00     0.134 A 
ATOM     85  C   UNL A   1      44.894  32.543  32.467  1.00  0.00     0.134 A 
ATOM     86  F   UNL A   1      45.180  33.270  28.920  1.00  0.00    -0.206 F 
ATOM     87  C   UNL A   1      45.568  34.646  30.782  1.00  0.00     0.040 A 
ATOM     88  C   UNL A   1      45.253  33.777  33.007  1.00  0.00     0.040 A 
ATOM     89  F   UNL A   1      44.577  31.552  33.314  1.00  0.00    -0.206 F 
ATOM     90  C   UNL A   1      45.595  34.833  32.163  1.00  0.00     0.006 A 
ENDBRANCH  66  83
ENDBRANCH  40  41
ENDBRANCH  32  35
ENDBRANCH  30  31
ENDBRANCH  29  30
ENDBRANCH   1  29
TORSDOF 14
ENDMDL
MODEL 2
REMARK VINA RESULT:     -12.4      1.730      7.215
REMARK SMILES C[C@H](NC(=O)c1c(C(=O)NCCCCNC(=O)c2ccc(-c3c4nc(c(-c5c(F)cccc5F)c5ccc([nH]5)c(-c5c(F)cccc5F)c5nc(c(-c6c(F)cccc6F)c6ccc3[nH]6)C=C5)C=C4)cc2)cnn1C)[C@]12C[C@H]3C[C@H](C[C@H](C3)C1)C2
REMARK SMILES IDX 12 1 11 2 10 3 8 4 9 5 7 7 6 8 74 9 72 10 73 11 75 12 4 13
REMARK SMILES IDX 3 14 5 16 2 17 1 18 76 19 77 20 84 21 85 22 78 23 82 24
REMARK SMILES IDX 80 25 79 26 83 27 81 28 13 29 14 30 15 31 16 32 17 34 18 35
REMARK SMILES IDX 19 36 71 37 20 38 70 39 21 40 22 41 23 42 64 43 24 44 69 45
REMARK SMILES IDX 63 46 65 47 25 48 68 49 62 50 61 51 26 53 52 54 35 55 51 56
REMARK SMILES IDX 36 57 39 58 50 59 66 60 37 61 38 62 49 64 67 65 40 66 27 67
REMARK SMILES IDX 28 68 33 69 29 70 30 71 32 72 34 73 31 74 53 75 54 76 59 77
REMARK SMILES IDX 55 78 56 79 58 80 60 81 57 82 41 83 42 84 47 85 43 86 44 87
REMARK SMILES IDX 46 88 48 89 45 90
REMARK H PARENT 10 6 3 15 15 33 65 52 39 63
REMARK Flexibility Score: inf
ROOT
ATOM      1  C   UNL A   1      36.888  21.797  24.057  1.00  0.00     0.023 C 
ENDROOT
BRANCH   1   2
ATOM      2  C   UNL A   1      36.695  23.222  24.568  1.00  0.00     0.116 C 
BRANCH   2   3
ATOM      3  N   UNL A   1      35.921  23.318  25.773  1.00  0.00    -0.352 N 
ATOM      4  C   UNL A   1      34.644  22.922  26.065  1.00  0.00     0.255 C 
ATOM      5  O   UNL A   1      34.273  23.196  27.212  1.00  0.00    -0.269 OA
ATOM      6  H   UNL A   1      36.394  23.745  26.524  1.00  0.00     0.163 HD
BRANCH   4   7
ATOM      7  C   UNL A   1      33.721  22.252  25.149  1.00  0.00     0.090 A 
ATOM      8  C   UNL A   1      33.239  22.459  23.852  1.00  0.00     0.138 A 
ATOM      9  N   UNL A   1      32.482  21.344  23.557  1.00  0.00    -0.262 N 
ATOM     10  C   UNL A   1      33.072  21.043  25.542  1.00  0.00     0.149 A 
ATOM     11  N   UNL A   1      32.301  20.515  24.595  1.00  0.00    -0.180 NA
ATOM     12  C   UNL A   1      31.840  21.006  22.306  1.00  0.00     0.174 C 
BRANCH   8  13
ATOM     13  C   UNL A   1      33.491  23.460  22.861  1.00  0.00     0.270 C 
ATOM     14  N   UNL A   1      32.711  24.591  22.787  1.00  0.00    -0.348 N 
ATOM     15  H   UNL A   1      32.976  25.171  22.036  1.00  0.00     0.164 HD
ATOM     16  O   UNL A   1      34.394  23.345  22.034  1.00  0.00    -0.267 OA
BRANCH  14  17
ATOM     17  C   UNL A   1      31.571  25.157  23.552  1.00  0.00     0.085 C 
ATOM     18  C   UNL A   1      30.756  24.136  24.350  1.00  0.00     0.031 C 
BRANCH  17  19
ATOM     19  C   UNL A   1      32.040  26.392  24.438  1.00  0.00    -0.009 C 
ATOM     20  C   UNL A   1      30.947  27.501  24.450  1.00  0.00     0.012 C 
ATOM     21  C   UNL A   1      33.343  27.037  23.901  1.00  0.00     0.012 C 
ATOM     22  C   UNL A   1      32.311  25.984  25.918  1.00  0.00     0.012 C 
ATOM     23  C   UNL A   1      31.380  28.705  25.312  1.00  0.00    -0.010 C 
ATOM     24  C   UNL A   1      33.786  28.240  24.750  1.00  0.00    -0.010 C 
ATOM     25  C   UNL A   1      32.744  27.184  26.775  1.00  0.00    -0.010 C 
ATOM     26  C   UNL A   1      31.633  28.240  26.755  1.00  0.00     0.007 C 
ATOM     27  C   UNL A   1      32.676  29.302  24.744  1.00  0.00     0.007 C 
ATOM     28  C   UNL A   1      34.036  27.776  26.191  1.00  0.00     0.007 C 
ENDBRANCH  17  19
ENDBRANCH  14  17
ENDBRANCH   8  13
ENDBRANCH   4   7
ENDBRANCH   2   3
ENDBRANCH   1   2
BRANCH   1  29
ATOM     29  C   UNL A   1      37.360  20.766  25.069  1.00  0.00     0.023 C 
BRANCH  29  30
ATOM     30  C   UNL A   1      38.705  21.064  25.719  1.00  0.00     0.116 C 
BRANCH  30  31
ATOM     31  N   UNL A   1      39.638  19.943  25.692  1.00  0.00    -0.352 N 
ATOM     32  C   UNL A   1      40.973  19.873  26.033  1.00  0.00     0.251 C 
ATOM     33  H   UNL A   1      39.251  19.094  25.378  1.00  0.00     0.163 HD
ATOM     34  O   UNL A   1      41.608  18.848  25.846  1.00  0.00    -0.269 OA
BRANCH  32  35
ATOM     35  C   UNL A   1      41.648  21.071  26.577  1.00  0.00     0.039 A 
ATOM     36  C   UNL A   1      42.256  21.967  25.695  1.00  0.00     0.014 A 
ATOM     37  C   UNL A   1      41.614  21.343  27.944  1.00  0.00     0.014 A 
ATOM     38  C   UNL A   1      42.704  23.202  26.168  1.00  0.00     0.010 A 
ATOM     39  C   UNL A   1      41.958  22.610  28.395  1.00  0.00     0.010 A 
ATOM     40  C   UNL A   1      42.487  23.561  27.508  1.00  0.00    -0.014 A 
BRANCH  40  41
ATOM     41  C   UNL A   1      42.760  24.932  28.011  1.00  0.00     0.031 A 
ATOM     42  C   UNL A   1      44.133  25.291  28.503  1.00  0.00     0.074 A 
ATOM     43  C   UNL A   1      41.745  25.807  28.155  1.00  0.00     0.049 A 
ATOM     44  N   UNL A   1      44.531  26.358  29.147  1.00  0.00    -0.248 NA
ATOM     45  C   UNL A   1      45.190  24.290  28.285  1.00  0.00     0.031 C 
ATOM     46  C   UNL A   1      40.348  25.557  27.791  1.00  0.00     0.029 A 
ATOM     47  N   UNL A   1      41.727  27.077  28.674  1.00  0.00    -0.354 N 
ATOM     48  C   UNL A   1      45.868  26.138  29.449  1.00  0.00     0.074 A 
ATOM     49  C   UNL A   1      46.201  24.818  28.958  1.00  0.00     0.031 C 
ATOM     50  C   UNL A   1      39.615  26.642  28.084  1.00  0.00     0.029 A 
ATOM     51  C   UNL A   1      40.478  27.648  28.693  1.00  0.00     0.049 A 
ATOM     52  H   UNL A   1      42.534  27.535  29.004  1.00  0.00     0.167 HD
ATOM     53  C   UNL A   1      46.745  26.967  30.060  1.00  0.00     0.037 A 
ATOM     54  C   UNL A   1      40.071  28.843  29.160  1.00  0.00     0.037 A 
ATOM     55  C   UNL A   1      46.429  28.300  30.498  1.00  0.00     0.049 A 
ATOM     56  C   UNL A   1      41.075  29.776  29.773  1.00  0.00     0.074 A 
ATOM     57  C   UNL A   1      47.268  29.251  31.050  1.00  0.00     0.029 A 
ATOM     58  N   UNL A   1      45.167  28.872  30.423  1.00  0.00    -0.354 N 
ATOM     59  N   UNL A   1      42.351  29.580  29.995  1.00  0.00    -0.248 NA
ATOM     60  C   UNL A   1      40.584  31.095  30.194  1.00  0.00     0.031 C 
ATOM     61  C   UNL A   1      46.509  30.393  31.330  1.00  0.00     0.029 A 
ATOM     62  C   UNL A   1      45.204  30.163  30.924  1.00  0.00     0.049 A 
ATOM     63  H   UNL A   1      44.365  28.427  30.066  1.00  0.00     0.167 HD
ATOM     64  C   UNL A   1      42.821  30.755  30.565  1.00  0.00     0.074 A 
ATOM     65  C   UNL A   1      41.696  31.663  30.643  1.00  0.00     0.031 C 
ATOM     66  C   UNL A   1      44.074  31.053  30.987  1.00  0.00     0.037 A 
BRANCH  53  67
ATOM     67  C   UNL A   1      48.137  26.449  30.276  1.00  0.00     0.057 A 
ATOM     68  C   UNL A   1      49.137  26.596  29.307  1.00  0.00     0.134 A 
ATOM     69  C   UNL A   1      48.476  25.785  31.461  1.00  0.00     0.134 A 
ATOM     70  F   UNL A   1      48.871  27.207  28.142  1.00  0.00    -0.206 F 
ATOM     71  C   UNL A   1      50.416  26.069  29.492  1.00  0.00     0.040 A 
ATOM     72  C   UNL A   1      49.760  25.277  31.669  1.00  0.00     0.040 A 
ATOM     73  F   UNL A   1      47.567  25.614  32.431  1.00  0.00    -0.206 F 
ATOM     74  C   UNL A   1      50.731  25.410  30.678  1.00  0.00     0.006 A 
ENDBRANCH  53  67
BRANCH  54  75
ATOM     75  C   UNL A   1      38.644  29.232  29.038  1.00  0.00     0.057 A 
ATOM     76  C   UNL A   1      38.118  29.651  27.811  1.00  0.00     0.134 A 
ATOM     77  C   UNL A   1      37.774  29.176  30.132  1.00  0.00     0.134 A 
ATOM     78  F   UNL A   1      38.909  29.739  26.732  1.00  0.00    -0.206 F 
ATOM     79  C   UNL A   1      36.776  30.011  27.678  1.00  0.00     0.040 A 
ATOM     80  C   UNL A   1      36.425  29.515  30.008  1.00  0.00     0.040 A 
ATOM     81  F   UNL A   1      38.217  28.772  31.331  1.00  0.00    -0.206 F 
ATOM     82  C   UNL A   1      35.924  29.938  28.778  1.00  0.00     0.006 A 
ENDBRANCH  54  75
BRANCH  66  83
ATOM     83  C   UNL A   1      44.298  32.426  31.545  1.00  0.00     0.057 A 
ATOM     84  C   UNL A   1      44.626  33.509  30.721  1.00  0.00     0.134 A 
ATOM     85  C   UNL A   1      44.137  32.675  32.913  1.00  0.00     0.134 A 
ATOM     86  F   UNL A   1      44.807  33.331  29.404  1.00  0.00    -0.206 F 
ATOM     87  C   UNL A   1      44.802  34.792  31.242  1.00  0.00     0.040 A 
ATOM     88  C   UNL A   1      44.291  33.955  33.443  1.00  0.00     0.040 A 
ATOM     89  F   UNL A   1      43.817  31.678  33.753  1.00  0.00    -0.206 F 
ATOM     90  C   UNL A   1      44.628  35.018  32.606  1.00  0.00     0.006 A 
ENDBRANCH  66  83
ENDBRANCH  40  41
ENDBRANCH  32  35
ENDBRANCH  30  31
ENDBRANCH  29  30
ENDBRANCH   1  29
TORSDOF 14
ENDMDL
MODEL 3
REMARK VINA RESULT:     -12.4      1.691      4.190
REMARK SMILES C[C@H](NC(=O)c1c(C(=O)NCCCCNC(=O)c2ccc(-c3c4nc(c(-c5c(F)cccc5F)c5ccc([nH]5)c(-c5c(F)cccc5F)c5nc(c(-c6c(F)cccc6F)c6ccc3[nH]6)C=C5)C=C4)cc2)cnn1C)[C@]12C[C@H]3C[C@H](C[C@H](C3)C1)C2
REMARK SMILES IDX 12 1 11 2 10 3 8 4 9 5 7 7 6 8 74 9 72 10 73 11 75 12 4 13
REMARK SMILES IDX 3 14 5 16 2 17 1 18 76 19 77 20 84 21 85 22 78 23 82 24
REMARK SMILES IDX 80 25 79 26 83 27 81 28 13 29 14 30 15 31 16 32 17 34 18 35
REMARK SMILES IDX 19 36 71 37 20 38 70 39 21 40 22 41 23 42 64 43 24 44 69 45
REMARK SMILES IDX 63 46 65 47 25 48 68 49 62 50 61 51 26 53 52 54 35 55 51 56
REMARK SMILES IDX 36 57 39 58 50 59 66 60 37 61 38 62 49 64 67 65 40 66 27 67
REMARK SMILES IDX 28 68 33 69 29 70 30 71 32 72 34 73 31 74 53 75 54 76 59 77
REMARK SMILES IDX 55 78 56 79 58 80 60 81 57 82 41 83 42 84 47 85 43 86 44 87
REMARK SMILES IDX 46 88 48 89 45 90
REMARK H PARENT 10 6 3 15 15 33 65 52 39 63
REMARK Flexibility Score: inf
ROOT
ATOM      1  C   UNL A   1      36.926  22.172  24.022  1.00  0.00     0.023 C 
ENDROOT
BRANCH   1   2
ATOM      2  C   UNL A   1      36.488  23.559  24.484  1.00  0.00     0.116 C 
BRANCH   2   3
ATOM      3  N   UNL A   1      35.728  23.563  25.702  1.00  0.00    -0.352 N 
ATOM      4  C   UNL A   1      34.490  23.063  26.001  1.00  0.00     0.255 C 
ATOM      5  O   UNL A   1      34.118  23.277  27.160  1.00  0.00    -0.269 OA
ATOM      6  H   UNL A   1      36.179  24.005  26.458  1.00  0.00     0.163 HD
BRANCH   4   7
ATOM      7  C   UNL A   1      33.605  22.350  25.080  1.00  0.00     0.090 A 
ATOM      8  C   UNL A   1      33.141  22.521  23.771  1.00  0.00     0.138 A 
ATOM      9  N   UNL A   1      32.425  21.378  23.481  1.00  0.00    -0.262 N 
ATOM     10  C   UNL A   1      32.987  21.128  25.481  1.00  0.00     0.149 A 
ATOM     11  N   UNL A   1      32.250  20.560  24.529  1.00  0.00    -0.180 NA
ATOM     12  C   UNL A   1      31.817  20.999  22.224  1.00  0.00     0.174 C 
BRANCH   8  13
ATOM     13  C   UNL A   1      33.380  23.513  22.768  1.00  0.00     0.270 C 
ATOM     14  N   UNL A   1      32.600  24.644  22.695  1.00  0.00    -0.348 N 
ATOM     15  H   UNL A   1      32.854  25.218  21.936  1.00  0.00     0.164 HD
ATOM     16  O   UNL A   1      34.272  23.390  21.930  1.00  0.00    -0.267 OA
BRANCH  14  17
ATOM     17  C   UNL A   1      31.470  25.218  23.471  1.00  0.00     0.085 C 
ATOM     18  C   UNL A   1      30.640  24.198  24.254  1.00  0.00     0.031 C 
BRANCH  17  19
ATOM     19  C   UNL A   1      31.962  26.430  24.376  1.00  0.00    -0.009 C 
ATOM     20  C   UNL A   1      32.165  25.965  25.848  1.00  0.00     0.012 C 
ATOM     21  C   UNL A   1      30.940  27.596  24.398  1.00  0.00     0.012 C 
ATOM     22  C   UNL A   1      33.316  27.022  23.879  1.00  0.00     0.012 C 
ATOM     23  C   UNL A   1      32.651  27.126  26.740  1.00  0.00    -0.010 C 
ATOM     24  C   UNL A   1      31.412  28.760  25.287  1.00  0.00    -0.010 C 
ATOM     25  C   UNL A   1      33.798  28.179  24.769  1.00  0.00    -0.010 C 
ATOM     26  C   UNL A   1      33.984  27.666  26.201  1.00  0.00     0.007 C 
ATOM     27  C   UNL A   1      31.609  28.255  26.723  1.00  0.00     0.007 C 
ATOM     28  C   UNL A   1      32.744  29.298  24.749  1.00  0.00     0.007 C 
ENDBRANCH  17  19
ENDBRANCH  14  17
ENDBRANCH   8  13
ENDBRANCH   4   7
ENDBRANCH   2   3
ENDBRANCH   1   2
BRANCH   1  29
ATOM     29  C   UNL A   1      37.270  21.167  25.108  1.00  0.00     0.023 C 
BRANCH  29  30
ATOM     30  C   UNL A   1      38.641  21.348  25.747  1.00  0.00     0.116 C 
BRANCH  30  31
ATOM     31  N   UNL A   1      39.487  20.160  25.685  1.00  0.00    -0.352 N 
ATOM     32  C   UNL A   1      40.811  19.977  26.025  1.00  0.00     0.251 C 
ATOM     33  H   UNL A   1      39.037  19.354  25.343  1.00  0.00     0.163 HD
ATOM     34  O   UNL A   1      41.366  18.912  25.806  1.00  0.00    -0.269 OA
BRANCH  32  35
ATOM     35  C   UNL A   1      41.573  21.101  26.609  1.00  0.00     0.039 A 
ATOM     36  C   UNL A   1      42.120  22.065  25.759  1.00  0.00     0.014 A 
ATOM     37  C   UNL A   1      41.682  21.241  27.992  1.00  0.00     0.014 A 
ATOM     38  C   UNL A   1      42.651  23.238  26.299  1.00  0.00     0.010 A 
ATOM     39  C   UNL A   1      42.108  22.450  28.523  1.00  0.00     0.010 A 
ATOM     40  C   UNL A   1      42.577  23.471  27.682  1.00  0.00    -0.014 A 
BRANCH  40  41
ATOM     41  C   UNL A   1      42.942  24.780  28.281  1.00  0.00     0.031 A 
ATOM     42  C   UNL A   1      41.883  25.819  28.515  1.00  0.00     0.074 A 
ATOM     43  C   UNL A   1      44.239  25.084  28.484  1.00  0.00     0.049 A 
ATOM     44  N   UNL A   1      42.015  27.077  28.849  1.00  0.00    -0.248 NA
ATOM     45  C   UNL A   1      40.491  25.398  28.295  1.00  0.00     0.031 C 
ATOM     46  C   UNL A   1      45.374  24.195  28.222  1.00  0.00     0.029 A 
ATOM     47  N   UNL A   1      44.826  26.242  28.931  1.00  0.00    -0.354 N 
ATOM     48  C   UNL A   1      40.732  27.606  28.835  1.00  0.00     0.074 A 
ATOM     49  C   UNL A   1      39.841  26.546  28.415  1.00  0.00     0.031 C 
ATOM     50  C   UNL A   1      46.514  24.833  28.527  1.00  0.00     0.029 A 
ATOM     51  C   UNL A   1      46.198  26.187  28.967  1.00  0.00     0.049 A 
ATOM     52  H   UNL A   1      44.311  27.037  29.201  1.00  0.00     0.167 HD
ATOM     53  C   UNL A   1      40.328  28.856  29.161  1.00  0.00     0.037 A 
ATOM     54  C   UNL A   1      47.101  27.128  29.303  1.00  0.00     0.037 A 
ATOM     55  C   UNL A   1      41.206  29.894  29.630  1.00  0.00     0.049 A 
ATOM     56  C   UNL A   1      46.626  28.487  29.728  1.00  0.00     0.074 A 
ATOM     57  C   UNL A   1      40.884  31.165  30.068  1.00  0.00     0.029 A 
ATOM     58  N   UNL A   1      42.584  29.771  29.730  1.00  0.00    -0.354 N 
ATOM     59  N   UNL A   1      45.403  28.955  29.771  1.00  0.00    -0.248 NA
ATOM     60  C   UNL A   1      47.655  29.445  30.156  1.00  0.00     0.031 C 
ATOM     61  C   UNL A   1      42.071  31.822  30.413  1.00  0.00     0.029 A 
ATOM     62  C   UNL A   1      43.128  30.946  30.219  1.00  0.00     0.049 A 
ATOM     63  H   UNL A   1      43.099  28.967  29.490  1.00  0.00     0.167 HD
ATOM     64  C   UNL A   1      45.511  30.255  30.246  1.00  0.00     0.074 A 
ATOM     65  C   UNL A   1      46.918  30.497  30.490  1.00  0.00     0.031 C 
ATOM     66  C   UNL A   1      44.531  31.166  30.460  1.00  0.00     0.037 A 
BRANCH  53  67
ATOM     67  C   UNL A   1      38.864  29.155  29.029  1.00  0.00     0.057 A 
ATOM     68  C   UNL A   1      37.988  29.053  30.118  1.00  0.00     0.134 A 
ATOM     69  C   UNL A   1      38.321  29.539  27.796  1.00  0.00     0.134 A 
ATOM     70  F   UNL A   1      38.443  28.673  31.321  1.00  0.00    -0.206 F 
ATOM     71  C   UNL A   1      36.620  29.285  29.978  1.00  0.00     0.040 A 
ATOM     72  C   UNL A   1      36.957  29.800  27.650  1.00  0.00     0.040 A 
ATOM     73  F   UNL A   1      39.104  29.661  26.714  1.00  0.00    -0.206 F 
ATOM     74  C   UNL A   1      36.102  29.663  28.741  1.00  0.00     0.006 A 
ENDBRANCH  53  67
BRANCH  54  75
ATOM     75  C   UNL A   1      48.548  26.800  29.275  1.00  0.00     0.057 A 
ATOM     76  C   UNL A   1      49.324  27.080  28.145  1.00  0.00     0.134 A 
ATOM     77  C   UNL A   1      49.189  26.222  30.376  1.00  0.00     0.134 A 
ATOM     78  F   UNL A   1      48.760  27.619  27.055  1.00  0.00    -0.206 F 
ATOM     79  C   UNL A   1      50.689  26.787  28.107  1.00  0.00     0.040 A 
ATOM     80  C   UNL A   1      50.557  25.941  30.358  1.00  0.00     0.040 A 
ATOM     81  F   UNL A   1      48.500  25.940  31.491  1.00  0.00    -0.206 F 
ATOM     82  C   UNL A   1      51.310  26.221  29.218  1.00  0.00     0.006 A 
ENDBRANCH  54  75
BRANCH  66  83
ATOM     83  C   UNL A   1      44.945  32.497  31.009  1.00  0.00     0.057 A 
ATOM     84  C   UNL A   1      45.250  33.576  30.170  1.00  0.00     0.134 A 
ATOM     85  C   UNL A   1      44.993  32.715  32.391  1.00  0.00     0.134 A 
ATOM     86  F   UNL A   1      45.235  33.425  28.837  1.00  0.00    -0.206 F 
ATOM     87  C   UNL A   1      45.604  34.822  30.688  1.00  0.00     0.040 A 
ATOM     88  C   UNL A   1      45.326  33.961  32.920  1.00  0.00     0.040 A 
ATOM     89  F   UNL A   1      44.706  31.722  33.246  1.00  0.00    -0.206 F 
ATOM     90  C   UNL A   1      45.637  35.018  32.067  1.00  0.00     0.006 A 
ENDBRANCH  66  83
ENDBRANCH  40  41
ENDBRANCH  32  35
ENDBRANCH  30  31
ENDBRANCH  29  30
ENDBRANCH   1  29
TORSDOF 14
ENDMDL
