MODEL 1
REMARK VINA RESULT:     -12.6      0.000      0.000
REMARK SMILES O=C(NCCCCNC(=O)[C@@H]1CN(C(=O)C2CCCC2)C[C@H]1c1ccccc1)c1ccc(-c2c3nc(c(-c4c(F)cccc4F)c4ccc([nH]4)c(-c4c(F)cccc4F)c4nc(c(-c5c(F)cccc5F)c5ccc2[nH]5)C=C4)C=C3)cc1
REMARK SMILES IDX 5 1 4 2 3 3 1 4 2 5 29 7 30 8 82 9 31 10 81 11 32 12 33 13
REMARK SMILES IDX 34 14 75 15 35 16 80 17 74 18 76 19 36 20 79 21 73 22 72 23
REMARK SMILES IDX 37 25 63 26 46 27 62 28 47 29 50 30 61 31 77 32 48 33 49 34
REMARK SMILES IDX 60 36 78 37 51 38 38 39 39 40 44 41 40 42 41 43 43 44 45 45
REMARK SMILES IDX 42 46 64 47 65 48 70 49 66 50 67 51 69 52 71 53 68 54 52 55
REMARK SMILES IDX 53 56 58 57 54 58 55 59 57 60 59 61 56 62 6 63 7 64 8 65
REMARK SMILES IDX 9 66 10 68 11 69 12 70 22 71 13 72 21 73 23 74 24 75 28 76
REMARK SMILES IDX 25 77 27 78 26 79 14 80 15 81 16 82 17 83 20 84 18 85 19 86
REMARK H PARENT 3 6 76 24 50 35 8 67
REMARK Flexibility Score: inf
ROOT
ATOM      1  C   UNL A   1      31.334  31.680  26.743  1.00  0.00     0.023 C 
ENDROOT
BRANCH   1   2
ATOM      2  C   UNL A   1      32.610  32.487  26.909  1.00  0.00     0.116 C 
BRANCH   2   3
ATOM      3  N   UNL A   1      32.375  33.835  27.401  1.00  0.00    -0.352 N 
ATOM      4  O   UNL A   1      32.716  35.591  28.788  1.00  0.00    -0.269 OA
ATOM      5  C   UNL A   1      33.072  34.490  28.385  1.00  0.00     0.251 C 
ATOM      6  H   UNL A   1      31.634  34.331  26.984  1.00  0.00     0.163 HD
BRANCH   5   7
ATOM      7  C   UNL A   1      34.240  33.814  28.976  1.00  0.00     0.039 A 
ATOM      8  C   UNL A   1      34.054  32.805  29.925  1.00  0.00     0.014 A 
ATOM      9  C   UNL A   1      35.521  34.231  28.613  1.00  0.00     0.014 A 
ATOM     10  C   UNL A   1      35.153  32.282  30.590  1.00  0.00     0.010 A 
ATOM     11  C   UNL A   1      36.630  33.650  29.229  1.00  0.00     0.010 A 
ATOM     12  C   UNL A   1      36.451  32.681  30.228  1.00  0.00    -0.014 A 
BRANCH  12  13
ATOM     13  C   UNL A   1      37.608  31.976  30.821  1.00  0.00     0.031 A 
ATOM     14  C   UNL A   1      38.359  30.926  30.059  1.00  0.00     0.074 A 
ATOM     15  C   UNL A   1      37.968  32.312  32.073  1.00  0.00     0.049 A 
ATOM     16  N   UNL A   1      39.381  30.209  30.449  1.00  0.00    -0.248 NA
ATOM     17  C   UNL A   1      37.906  30.635  28.690  1.00  0.00     0.031 C 
ATOM     18  C   UNL A   1      37.285  33.309  32.905  1.00  0.00     0.029 A 
ATOM     19  N   UNL A   1      38.990  31.864  32.864  1.00  0.00    -0.354 N 
ATOM     20  C   UNL A   1      39.683  29.367  29.386  1.00  0.00     0.074 A 
ATOM     21  C   UNL A   1      38.730  29.655  28.336  1.00  0.00     0.031 C 
ATOM     22  C   UNL A   1      37.926  33.418  34.077  1.00  0.00     0.029 A 
ATOM     23  C   UNL A   1      39.023  32.459  34.102  1.00  0.00     0.049 A 
ATOM     24  H   UNL A   1      39.640  31.182  32.576  1.00  0.00     0.167 HD
ATOM     25  C   UNL A   1      40.669  28.442  29.306  1.00  0.00     0.037 A 
ATOM     26  C   UNL A   1      39.830  32.236  35.153  1.00  0.00     0.037 A 
ATOM     27  C   UNL A   1      41.625  28.185  30.353  1.00  0.00     0.049 A 
ATOM     28  C   UNL A   1      40.901  31.196  35.034  1.00  0.00     0.074 A 
ATOM     29  C   UNL A   1      42.704  27.318  30.340  1.00  0.00     0.029 A 
ATOM     30  N   UNL A   1      41.612  28.787  31.602  1.00  0.00    -0.354 N 
ATOM     31  N   UNL A   1      41.204  30.442  34.006  1.00  0.00    -0.248 NA
ATOM     32  C   UNL A   1      41.733  30.966  36.221  1.00  0.00     0.031 C 
ATOM     33  C   UNL A   1      43.319  27.366  31.595  1.00  0.00     0.029 A 
ATOM     34  C   UNL A   1      42.644  28.288  32.379  1.00  0.00     0.049 A 
ATOM     35  H   UNL A   1      40.964  29.470  31.893  1.00  0.00     0.167 HD
ATOM     36  C   UNL A   1      42.262  29.647  34.420  1.00  0.00     0.074 A 
ATOM     37  C   UNL A   1      42.566  30.032  35.783  1.00  0.00     0.031 C 
ATOM     38  C   UNL A   1      42.917  28.677  33.737  1.00  0.00     0.037 A 
BRANCH  25  39
ATOM     39  C   UNL A   1      40.767  27.624  28.055  1.00  0.00     0.057 A 
ATOM     40  C   UNL A   1      41.540  28.033  26.962  1.00  0.00     0.134 A 
ATOM     41  C   UNL A   1      40.151  26.367  27.979  1.00  0.00     0.134 A 
ATOM     42  F   UNL A   1      42.147  29.229  26.969  1.00  0.00    -0.206 F 
ATOM     43  C   UNL A   1      41.697  27.222  25.836  1.00  0.00     0.040 A 
ATOM     44  C   UNL A   1      40.314  25.540  26.867  1.00  0.00     0.040 A 
ATOM     45  F   UNL A   1      39.401  25.915  28.994  1.00  0.00    -0.206 F 
ATOM     46  C   UNL A   1      41.091  25.968  25.790  1.00  0.00     0.006 A 
ENDBRANCH  25  39
BRANCH  26  47
ATOM     47  C   UNL A   1      39.627  32.993  36.411  1.00  0.00     0.057 A 
ATOM     48  C   UNL A   1      38.715  32.562  37.378  1.00  0.00     0.134 A 
ATOM     49  C   UNL A   1      40.355  34.159  36.682  1.00  0.00     0.134 A 
ATOM     50  F   UNL A   1      37.980  31.460  37.169  1.00  0.00    -0.206 F 
ATOM     51  C   UNL A   1      38.522  33.270  38.565  1.00  0.00     0.040 A 
ATOM     52  C   UNL A   1      40.191  34.862  37.874  1.00  0.00     0.040 A 
ATOM     53  F   UNL A   1      41.253  34.617  35.797  1.00  0.00    -0.206 F 
ATOM     54  C   UNL A   1      39.266  34.421  38.818  1.00  0.00     0.006 A 
ENDBRANCH  26  47
BRANCH  38  55
ATOM     55  C   UNL A   1      44.018  27.973  34.465  1.00  0.00     0.057 A 
ATOM     56  C   UNL A   1      45.323  28.480  34.480  1.00  0.00     0.134 A 
ATOM     57  C   UNL A   1      43.771  26.788  35.167  1.00  0.00     0.134 A 
ATOM     58  F   UNL A   1      45.624  29.603  33.810  1.00  0.00    -0.206 F 
ATOM     59  C   UNL A   1      46.352  27.819  35.151  1.00  0.00     0.040 A 
ATOM     60  C   UNL A   1      44.787  26.129  35.859  1.00  0.00     0.040 A 
ATOM     61  F   UNL A   1      42.541  26.254  35.192  1.00  0.00    -0.206 F 
ATOM     62  C   UNL A   1      46.084  26.641  35.847  1.00  0.00     0.006 A 
ENDBRANCH  38  55
ENDBRANCH  12  13
ENDBRANCH   5   7
ENDBRANCH   2   3
ENDBRANCH   1   2
BRANCH   1  63
ATOM     63  C   UNL A   1      31.408  30.614  25.651  1.00  0.00     0.023 C 
BRANCH  63  64
ATOM     64  C   UNL A   1      32.647  29.711  25.729  1.00  0.00     0.116 C 
BRANCH  64  65
ATOM     65  N   UNL A   1      33.333  29.687  24.452  1.00  0.00    -0.356 N 
ATOM     66  C   UNL A   1      33.650  28.655  23.620  1.00  0.00     0.225 C 
ATOM     67  H   UNL A   1      33.621  30.571  24.129  1.00  0.00     0.163 HD
ATOM     68  O   UNL A   1      34.626  28.859  22.895  1.00  0.00    -0.275 OA
BRANCH  66  69
ATOM     69  C   UNL A   1      32.795  27.385  23.499  1.00  0.00     0.107 C 
ATOM     70  C   UNL A   1      33.632  26.166  23.147  1.00  0.00     0.133 C 
ATOM     71  C   UNL A   1      31.751  27.435  22.334  1.00  0.00     0.053 C 
ATOM     72  N   UNL A   1      32.804  25.258  22.415  1.00  0.00    -0.341 N 
ATOM     73  C   UNL A   1      31.664  25.956  21.869  1.00  0.00     0.128 C 
BRANCH  71  74
ATOM     74  C   UNL A   1      30.383  28.058  22.626  1.00  0.00    -0.042 A 
ATOM     75  C   UNL A   1      29.335  27.305  23.192  1.00  0.00     0.004 A 
ATOM     76  C   UNL A   1      30.077  29.375  22.248  1.00  0.00     0.004 A 
ATOM     77  C   UNL A   1      28.071  27.857  23.421  1.00  0.00     0.000 A 
ATOM     78  C   UNL A   1      28.804  29.923  22.450  1.00  0.00     0.000 A 
ATOM     79  C   UNL A   1      27.804  29.168  23.048  1.00  0.00     0.000 A 
ENDBRANCH  71  74
BRANCH  72  80
ATOM     80  C   UNL A   1      33.001  23.919  22.173  1.00  0.00     0.225 C 
ATOM     81  O   UNL A   1      33.466  23.546  21.090  1.00  0.00    -0.275 OA
BRANCH  80  82
ATOM     82  C   UNL A   1      32.608  22.858  23.208  1.00  0.00     0.078 C 
ATOM     83  C   UNL A   1      32.135  21.505  22.680  1.00  0.00     0.013 C 
ATOM     84  C   UNL A   1      33.687  22.554  24.257  1.00  0.00     0.013 C 
ATOM     85  C   UNL A   1      32.374  20.555  23.846  1.00  0.00     0.001 C 
ATOM     86  C   UNL A   1      33.681  21.038  24.454  1.00  0.00     0.001 C 
ENDBRANCH  80  82
ENDBRANCH  72  80
ENDBRANCH  66  69
ENDBRANCH  64  65
ENDBRANCH  63  64
ENDBRANCH   1  63
TORSDOF 14
ENDMDL
MODEL 2
REMARK VINA RESULT:     -12.5      4.914     10.263
REMARK SMILES O=C(NCCCCNC(=O)[C@@H]1CN(C(=O)C2CCCC2)C[C@H]1c1ccccc1)c1ccc(-c2c3nc(c(-c4c(F)cccc4F)c4ccc([nH]4)c(-c4c(F)cccc4F)c4nc(c(-c5c(F)cccc5F)c5ccc2[nH]5)C=C4)C=C3)cc1
REMARK SMILES IDX 5 1 4 2 3 3 1 4 2 5 29 7 30 8 82 9 31 10 81 11 32 12 33 13
REMARK SMILES IDX 34 14 75 15 35 16 80 17 74 18 76 19 36 20 79 21 73 22 72 23
REMARK SMILES IDX 37 25 63 26 46 27 62 28 47 29 50 30 61 31 77 32 48 33 49 34
REMARK SMILES IDX 60 36 78 37 51 38 38 39 39 40 44 41 40 42 41 43 43 44 45 45
REMARK SMILES IDX 42 46 64 47 65 48 70 49 66 50 67 51 69 52 71 53 68 54 52 55
REMARK SMILES IDX 53 56 58 57 54 58 55 59 57 60 59 61 56 62 6 63 7 64 8 65
REMARK SMILES IDX 9 66 10 68 11 69 12 70 22 71 13 72 21 73 23 74 24 75 28 76
REMARK SMILES IDX 25 77 27 78 26 79 14 80 15 81 16 82 17 83 20 84 18 85 19 86
REMARK H PARENT 3 6 76 24 50 35 8 67
REMARK Flexibility Score: inf
ROOT
ATOM      1  C   UNL A   1      38.281  19.579  25.015  1.00  0.00     0.023 C 
ENDROOT
BRANCH   1   2
ATOM      2  C   UNL A   1      39.356  19.761  26.072  1.00  0.00     0.116 C 
BRANCH   2   3
ATOM      3  N   UNL A   1      40.462  18.828  25.929  1.00  0.00    -0.352 N 
ATOM      4  O   UNL A   1      42.648  18.261  25.774  1.00  0.00    -0.269 OA
ATOM      5  C   UNL A   1      41.801  19.114  26.014  1.00  0.00     0.251 C 
ATOM      6  H   UNL A   1      40.224  17.890  25.751  1.00  0.00     0.163 HD
BRANCH   5   7
ATOM      7  C   UNL A   1      42.197  20.489  26.363  1.00  0.00     0.039 A 
ATOM      8  C   UNL A   1      42.262  20.877  27.704  1.00  0.00     0.014 A 
ATOM      9  C   UNL A   1      42.455  21.402  25.340  1.00  0.00     0.014 A 
ATOM     10  C   UNL A   1      42.483  22.209  28.021  1.00  0.00     0.010 A 
ATOM     11  C   UNL A   1      42.751  22.727  25.662  1.00  0.00     0.010 A 
ATOM     12  C   UNL A   1      42.756  23.138  27.003  1.00  0.00    -0.014 A 
BRANCH  12  13
ATOM     13  C   UNL A   1      43.169  24.508  27.377  1.00  0.00     0.031 A 
ATOM     14  C   UNL A   1      42.173  25.530  27.834  1.00  0.00     0.074 A 
ATOM     15  C   UNL A   1      44.479  24.808  27.295  1.00  0.00     0.049 A 
ATOM     16  N   UNL A   1      42.379  26.775  28.178  1.00  0.00    -0.248 NA
ATOM     17  C   UNL A   1      40.765  25.110  27.910  1.00  0.00     0.031 C 
ATOM     18  C   UNL A   1      45.526  23.886  26.841  1.00  0.00     0.029 A 
ATOM     19  N   UNL A   1      45.157  25.959  27.591  1.00  0.00    -0.354 N 
ATOM     20  C   UNL A   1      41.130  27.296  28.491  1.00  0.00     0.074 A 
ATOM     21  C   UNL A   1      40.168  26.234  28.287  1.00  0.00     0.031 C 
ATOM     22  C   UNL A   1      46.715  24.498  26.918  1.00  0.00     0.029 A 
ATOM     23  C   UNL A   1      46.509  25.869  27.367  1.00  0.00     0.049 A 
ATOM     24  H   UNL A   1      44.719  26.773  27.933  1.00  0.00     0.167 HD
ATOM     25  C   UNL A   1      40.827  28.548  28.909  1.00  0.00     0.037 A 
ATOM     26  C   UNL A   1      47.474  26.797  27.482  1.00  0.00     0.037 A 
ATOM     27  C   UNL A   1      41.801  29.586  29.130  1.00  0.00     0.049 A 
ATOM     28  C   UNL A   1      47.100  28.175  27.935  1.00  0.00     0.074 A 
ATOM     29  C   UNL A   1      41.600  30.865  29.621  1.00  0.00     0.029 A 
ATOM     30  N   UNL A   1      43.157  29.467  28.867  1.00  0.00    -0.354 N 
ATOM     31  N   UNL A   1      45.922  28.638  28.272  1.00  0.00    -0.248 NA
ATOM     32  C   UNL A   1      48.184  29.161  28.010  1.00  0.00     0.031 C 
ATOM     33  C   UNL A   1      42.829  31.532  29.616  1.00  0.00     0.029 A 
ATOM     34  C   UNL A   1      43.801  30.659  29.155  1.00  0.00     0.049 A 
ATOM     35  H   UNL A   1      43.598  28.654  28.527  1.00  0.00     0.167 HD
ATOM     36  C   UNL A   1      46.120  29.970  28.600  1.00  0.00     0.074 A 
ATOM     37  C   UNL A   1      47.537  30.232  28.450  1.00  0.00     0.031 C 
ATOM     38  C   UNL A   1      45.210  30.898  28.983  1.00  0.00     0.037 A 
BRANCH  25  39
ATOM     39  C   UNL A   1      39.385  28.881  29.146  1.00  0.00     0.057 A 
ATOM     40  C   UNL A   1      38.788  28.730  30.403  1.00  0.00     0.134 A 
ATOM     41  C   UNL A   1      38.610  29.446  28.124  1.00  0.00     0.134 A 
ATOM     42  F   UNL A   1      39.475  28.187  31.420  1.00  0.00    -0.206 F 
ATOM     43  C   UNL A   1      37.470  29.127  30.636  1.00  0.00     0.040 A 
ATOM     44  C   UNL A   1      37.297  29.862  28.349  1.00  0.00     0.040 A 
ATOM     45  F   UNL A   1      39.125  29.622  26.898  1.00  0.00    -0.206 F 
ATOM     46  C   UNL A   1      36.724  29.704  29.610  1.00  0.00     0.006 A 
ENDBRANCH  25  39
BRANCH  26  47
ATOM     47  C   UNL A   1      48.872  26.453  27.131  1.00  0.00     0.057 A 
ATOM     48  C   UNL A   1      49.744  25.906  28.076  1.00  0.00     0.134 A 
ATOM     49  C   UNL A   1      49.364  26.652  25.834  1.00  0.00     0.134 A 
ATOM     50  F   UNL A   1      49.333  25.706  29.337  1.00  0.00    -0.206 F 
ATOM     51  C   UNL A   1      51.061  25.579  27.750  1.00  0.00     0.040 A 
ATOM     52  C   UNL A   1      50.669  26.306  25.488  1.00  0.00     0.040 A 
ATOM     53  F   UNL A   1      48.572  27.164  24.880  1.00  0.00    -0.206 F 
ATOM     54  C   UNL A   1      51.525  25.774  26.450  1.00  0.00     0.006 A 
ENDBRANCH  26  47
BRANCH  38  55
ATOM     55  C   UNL A   1      45.730  32.275  29.256  1.00  0.00     0.057 A 
ATOM     56  C   UNL A   1      45.762  33.253  28.255  1.00  0.00     0.134 A 
ATOM     57  C   UNL A   1      46.191  32.628  30.529  1.00  0.00     0.134 A 
ATOM     58  F   UNL A   1      45.350  32.968  27.011  1.00  0.00    -0.206 F 
ATOM     59  C   UNL A   1      46.256  34.534  28.507  1.00  0.00     0.040 A 
ATOM     60  C   UNL A   1      46.667  33.911  30.798  1.00  0.00     0.040 A 
ATOM     61  F   UNL A   1      46.183  31.734  31.529  1.00  0.00    -0.206 F 
ATOM     62  C   UNL A   1      46.706  34.866  29.784  1.00  0.00     0.006 A 
ENDBRANCH  38  55
ENDBRANCH  12  13
ENDBRANCH   5   7
ENDBRANCH   2   3
ENDBRANCH   1   2
BRANCH   1  63
ATOM     63  C   UNL A   1      37.567  20.872  24.623  1.00  0.00     0.023 C 
BRANCH  63  64
ATOM     64  C   UNL A   1      37.451  21.901  25.757  1.00  0.00     0.116 C 
BRANCH  64  65
ATOM     65  N   UNL A   1      36.203  21.720  26.473  1.00  0.00    -0.356 N 
ATOM     66  C   UNL A   1      34.927  22.086  26.165  1.00  0.00     0.225 C 
ATOM     67  H   UNL A   1      36.294  21.250  27.333  1.00  0.00     0.163 HD
ATOM     68  O   UNL A   1      34.188  22.245  27.139  1.00  0.00    -0.275 OA
BRANCH  66  69
ATOM     69  C   UNL A   1      34.407  22.176  24.723  1.00  0.00     0.107 C 
ATOM     70  C   UNL A   1      34.012  23.595  24.348  1.00  0.00     0.133 C 
ATOM     71  C   UNL A   1      33.086  21.373  24.476  1.00  0.00     0.053 C 
ATOM     72  N   UNL A   1      32.976  23.519  23.365  1.00  0.00    -0.341 N 
ATOM     73  C   UNL A   1      32.350  22.217  23.402  1.00  0.00     0.128 C 
BRANCH  71  74
ATOM     74  C   UNL A   1      33.209  19.893  24.102  1.00  0.00    -0.042 A 
ATOM     75  C   UNL A   1      34.237  19.083  24.625  1.00  0.00     0.004 A 
ATOM     76  C   UNL A   1      32.371  19.303  23.143  1.00  0.00     0.004 A 
ATOM     77  C   UNL A   1      34.380  17.742  24.254  1.00  0.00     0.000 A 
ATOM     78  C   UNL A   1      32.528  17.969  22.748  1.00  0.00     0.000 A 
ATOM     79  C   UNL A   1      33.524  17.184  23.312  1.00  0.00     0.000 A 
ENDBRANCH  71  74
BRANCH  72  80
ATOM     80  C   UNL A   1      32.536  24.495  22.501  1.00  0.00     0.225 C 
ATOM     81  O   UNL A   1      33.222  24.815  21.525  1.00  0.00    -0.275 OA
BRANCH  80  82
ATOM     82  C   UNL A   1      31.219  25.240  22.750  1.00  0.00     0.078 C 
ATOM     83  C   UNL A   1      30.622  25.159  24.155  1.00  0.00     0.013 C 
ATOM     84  C   UNL A   1      31.245  26.731  22.384  1.00  0.00     0.013 C 
ATOM     85  C   UNL A   1      29.720  26.382  24.239  1.00  0.00     0.001 C 
ATOM     86  C   UNL A   1      30.491  27.460  23.495  1.00  0.00     0.001 C 
ENDBRANCH  80  82
ENDBRANCH  72  80
ENDBRANCH  66  69
ENDBRANCH  64  65
ENDBRANCH  63  64
ENDBRANCH   1  63
TORSDOF 14
ENDMDL
MODEL 3
REMARK VINA RESULT:     -12.5      1.346      1.632
REMARK SMILES O=C(NCCCCNC(=O)[C@@H]1CN(C(=O)C2CCCC2)C[C@H]1c1ccccc1)c1ccc(-c2c3nc(c(-c4c(F)cccc4F)c4ccc([nH]4)c(-c4c(F)cccc4F)c4nc(c(-c5c(F)cccc5F)c5ccc2[nH]5)C=C4)C=C3)cc1
REMARK SMILES IDX 5 1 4 2 3 3 1 4 2 5 29 7 30 8 82 9 31 10 81 11 32 12 33 13
REMARK SMILES IDX 34 14 75 15 35 16 80 17 74 18 76 19 36 20 79 21 73 22 72 23
REMARK SMILES IDX 37 25 63 26 46 27 62 28 47 29 50 30 61 31 77 32 48 33 49 34
REMARK SMILES IDX 60 36 78 37 51 38 38 39 39 40 44 41 40 42 41 43 43 44 45 45
REMARK SMILES IDX 42 46 64 47 65 48 70 49 66 50 67 51 69 52 71 53 68 54 52 55
REMARK SMILES IDX 53 56 58 57 54 58 55 59 57 60 59 61 56 62 6 63 7 64 8 65
REMARK SMILES IDX 9 66 10 68 11 69 12 70 22 71 13 72 21 73 23 74 24 75 28 76
REMARK SMILES IDX 25 77 27 78 26 79 14 80 15 81 16 82 17 83 20 84 18 85 19 86
REMARK H PARENT 3 6 76 24 50 35 8 67
REMARK Flexibility Score: inf
ROOT
ATOM      1  C   UNL A   1      31.378  32.186  26.694  1.00  0.00     0.023 C 
ENDROOT
BRANCH   1   2
ATOM      2  C   UNL A   1      32.672  32.871  27.095  1.00  0.00     0.116 C 
BRANCH   2   3
ATOM      3  N   UNL A   1      32.470  34.210  27.626  1.00  0.00    -0.352 N 
ATOM      4  O   UNL A   1      32.834  35.908  29.078  1.00  0.00    -0.269 OA
ATOM      5  C   UNL A   1      33.163  34.809  28.647  1.00  0.00     0.251 C 
ATOM      6  H   UNL A   1      31.757  34.744  27.207  1.00  0.00     0.163 HD
BRANCH   5   7
ATOM      7  C   UNL A   1      34.293  34.075  29.244  1.00  0.00     0.039 A 
ATOM      8  C   UNL A   1      35.605  34.448  28.938  1.00  0.00     0.014 A 
ATOM      9  C   UNL A   1      34.032  32.981  30.069  1.00  0.00     0.014 A 
ATOM     10  C   UNL A   1      36.659  33.660  29.377  1.00  0.00     0.010 A 
ATOM     11  C   UNL A   1      35.097  32.233  30.571  1.00  0.00     0.010 A 
ATOM     12  C   UNL A   1      36.414  32.563  30.219  1.00  0.00    -0.014 A 
BRANCH  12  13
ATOM     13  C   UNL A   1      37.564  31.852  30.821  1.00  0.00     0.031 A 
ATOM     14  C   UNL A   1      38.335  30.821  30.055  1.00  0.00     0.074 A 
ATOM     15  C   UNL A   1      37.897  32.167  32.086  1.00  0.00     0.049 A 
ATOM     16  N   UNL A   1      39.353  30.102  30.452  1.00  0.00    -0.248 NA
ATOM     17  C   UNL A   1      37.911  30.552  28.672  1.00  0.00     0.031 C 
ATOM     18  C   UNL A   1      37.193  33.145  32.923  1.00  0.00     0.029 A 
ATOM     19  N   UNL A   1      38.906  31.710  32.889  1.00  0.00    -0.354 N 
ATOM     20  C   UNL A   1      39.680  29.281  29.380  1.00  0.00     0.074 A 
ATOM     21  C   UNL A   1      38.746  29.584  28.317  1.00  0.00     0.031 C 
ATOM     22  C   UNL A   1      37.810  33.235  34.109  1.00  0.00     0.029 A 
ATOM     23  C   UNL A   1      38.912  32.281  34.138  1.00  0.00     0.049 A 
ATOM     24  H   UNL A   1      39.565  31.036  32.601  1.00  0.00     0.167 HD
ATOM     25  C   UNL A   1      40.672  28.362  29.302  1.00  0.00     0.037 A 
ATOM     26  C   UNL A   1      39.699  32.044  35.200  1.00  0.00     0.037 A 
ATOM     27  C   UNL A   1      41.610  28.091  30.363  1.00  0.00     0.049 A 
ATOM     28  C   UNL A   1      40.778  31.012  35.083  1.00  0.00     0.074 A 
ATOM     29  C   UNL A   1      42.693  27.230  30.354  1.00  0.00     0.029 A 
ATOM     30  N   UNL A   1      41.569  28.670  31.622  1.00  0.00    -0.354 N 
ATOM     31  N   UNL A   1      41.105  30.278  34.047  1.00  0.00    -0.248 NA
ATOM     32  C   UNL A   1      41.587  30.763  36.281  1.00  0.00     0.031 C 
ATOM     33  C   UNL A   1      43.283  27.258  31.622  1.00  0.00     0.029 A 
ATOM     34  C   UNL A   1      42.588  28.162  32.409  1.00  0.00     0.049 A 
ATOM     35  H   UNL A   1      40.912  29.344  31.913  1.00  0.00     0.167 HD
ATOM     36  C   UNL A   1      42.159  29.481  34.468  1.00  0.00     0.074 A 
ATOM     37  C   UNL A   1      42.434  29.842  35.843  1.00  0.00     0.031 C 
ATOM     38  C   UNL A   1      42.832  28.527  33.780  1.00  0.00     0.037 A 
BRANCH  25  39
ATOM     39  C   UNL A   1      40.800  27.568  28.038  1.00  0.00     0.057 A 
ATOM     40  C   UNL A   1      41.600  27.995  26.972  1.00  0.00     0.134 A 
ATOM     41  C   UNL A   1      40.182  26.315  27.923  1.00  0.00     0.134 A 
ATOM     42  F   UNL A   1      42.210  29.190  27.018  1.00  0.00    -0.206 F 
ATOM     43  C   UNL A   1      41.783  27.206  25.836  1.00  0.00     0.040 A 
ATOM     44  C   UNL A   1      40.370  25.509  26.799  1.00  0.00     0.040 A 
ATOM     45  F   UNL A   1      39.406  25.845  28.911  1.00  0.00    -0.206 F 
ATOM     46  C   UNL A   1      41.174  25.954  25.751  1.00  0.00     0.006 A 
ENDBRANCH  25  39
BRANCH  26  47
ATOM     47  C   UNL A   1      39.468  32.776  36.468  1.00  0.00     0.057 A 
ATOM     48  C   UNL A   1      38.524  32.334  37.399  1.00  0.00     0.134 A 
ATOM     49  C   UNL A   1      40.199  33.929  36.783  1.00  0.00     0.134 A 
ATOM     50  F   UNL A   1      37.784  31.244  37.146  1.00  0.00    -0.206 F 
ATOM     51  C   UNL A   1      38.304  33.019  38.595  1.00  0.00     0.040 A 
ATOM     52  C   UNL A   1      40.008  34.608  37.985  1.00  0.00     0.040 A 
ATOM     53  F   UNL A   1      41.127  34.396  35.935  1.00  0.00    -0.206 F 
ATOM     54  C   UNL A   1      39.052  34.157  38.893  1.00  0.00     0.006 A 
ENDBRANCH  26  47
BRANCH  38  55
ATOM     55  C   UNL A   1      43.923  27.815  34.517  1.00  0.00     0.057 A 
ATOM     56  C   UNL A   1      45.224  28.330  34.568  1.00  0.00     0.134 A 
ATOM     57  C   UNL A   1      43.670  26.614  35.188  1.00  0.00     0.134 A 
ATOM     58  F   UNL A   1      45.531  29.468  33.928  1.00  0.00    -0.206 F 
ATOM     59  C   UNL A   1      46.243  27.662  35.248  1.00  0.00     0.040 A 
ATOM     60  C   UNL A   1      44.675  25.948  35.888  1.00  0.00     0.040 A 
ATOM     61  F   UNL A   1      42.443  26.073  35.177  1.00  0.00    -0.206 F 
ATOM     62  C   UNL A   1      45.968  26.469  35.914  1.00  0.00     0.006 A 
ENDBRANCH  38  55
ENDBRANCH  12  13
ENDBRANCH   5   7
ENDBRANCH   2   3
ENDBRANCH   1   2
BRANCH   1  63
ATOM     63  C   UNL A   1      31.542  30.711  26.326  1.00  0.00     0.023 C 
BRANCH  63  64
ATOM     64  C   UNL A   1      32.962  30.163  26.524  1.00  0.00     0.116 C 
BRANCH  64  65
ATOM     65  N   UNL A   1      33.378  29.411  25.356  1.00  0.00    -0.356 N 
ATOM     66  C   UNL A   1      33.174  28.110  25.004  1.00  0.00     0.225 C 
ATOM     67  H   UNL A   1      33.898  29.931  24.702  1.00  0.00     0.163 HD
ATOM     68  O   UNL A   1      34.027  27.642  24.246  1.00  0.00    -0.275 OA
BRANCH  66  69
ATOM     69  C   UNL A   1      31.924  27.318  25.412  1.00  0.00     0.107 C 
ATOM     70  C   UNL A   1      32.277  26.016  26.111  1.00  0.00     0.133 C 
ATOM     71  C   UNL A   1      31.057  26.837  24.201  1.00  0.00     0.053 C 
ATOM     72  N   UNL A   1      31.227  25.078  25.854  1.00  0.00    -0.341 N 
ATOM     73  C   UNL A   1      30.466  25.490  24.697  1.00  0.00     0.128 C 
BRANCH  71  74
ATOM     74  C   UNL A   1      29.997  27.797  23.654  1.00  0.00    -0.042 A 
ATOM     75  C   UNL A   1      30.311  29.130  23.321  1.00  0.00     0.004 A 
ATOM     76  C   UNL A   1      28.646  27.427  23.558  1.00  0.00     0.004 A 
ATOM     77  C   UNL A   1      29.338  30.024  22.861  1.00  0.00     0.000 A 
ATOM     78  C   UNL A   1      27.665  28.327  23.125  1.00  0.00     0.000 A 
ATOM     79  C   UNL A   1      28.012  29.622  22.764  1.00  0.00     0.000 A 
ENDBRANCH  71  74
BRANCH  72  80
ATOM     80  C   UNL A   1      30.935  23.910  26.519  1.00  0.00     0.225 C 
ATOM     81  O   UNL A   1      29.941  23.845  27.250  1.00  0.00    -0.275 OA
BRANCH  80  82
ATOM     82  C   UNL A   1      31.851  22.685  26.411  1.00  0.00     0.078 C 
ATOM     83  C   UNL A   1      32.590  22.476  25.090  1.00  0.00     0.013 C 
ATOM     84  C   UNL A   1      32.913  22.579  27.515  1.00  0.00     0.013 C 
ATOM     85  C   UNL A   1      33.774  21.597  25.470  1.00  0.00     0.001 C 
ATOM     86  C   UNL A   1      34.200  22.121  26.831  1.00  0.00     0.001 C 
ENDBRANCH  80  82
ENDBRANCH  72  80
ENDBRANCH  66  69
ENDBRANCH  64  65
ENDBRANCH  63  64
ENDBRANCH   1  63
TORSDOF 14
ENDMDL
