MODEL 1
REMARK VINA RESULT:     -12.2      0.000      0.000
REMARK SMILES COc1cccc(-c2ccc(=O)n(CC(=O)N[C@@H](C(=O)NCCCCNC(=O)c3ccc(-c4c5nc(c(-c6c(F)cccc6F)c6ccc([nH]6)c(-c6c(F)cccc6F)c6nc(c(-c7c(F)cccc7F)c7ccc4[nH]7)C=C6)C=C5)cc3)C(C)C)n2)c1
REMARK SMILES IDX 22 1 21 2 19 3 20 4 18 6 17 7 15 8 16 9 14 11 13 12 8 13
REMARK SMILES IDX 9 14 86 15 10 16 11 17 12 18 7 19 3 20 4 21 87 22 5 23 6 24
REMARK SMILES IDX 2 25 1 26 83 27 84 28 85 29 23 30 24 31 25 32 26 33 27 34
REMARK SMILES IDX 28 36 29 37 30 38 82 39 31 40 81 41 32 42 33 43 34 44 75 45
REMARK SMILES IDX 35 46 80 47 74 48 76 49 36 50 79 51 73 52 72 53 37 55 63 56
REMARK SMILES IDX 46 57 62 58 47 59 50 60 61 61 77 62 48 63 49 64 60 66 78 67
REMARK SMILES IDX 51 68 38 69 39 70 44 71 40 72 41 73 43 74 45 75 42 76 64 77
REMARK SMILES IDX 65 78 70 79 66 80 67 81 69 82 71 83 68 84 52 85 53 86 58 87
REMARK SMILES IDX 54 88 55 89 57 90 59 91 56 92
REMARK H PARENT 21 5 17 10 26 35 76 54 50 65
REMARK Flexibility Score: inf
ROOT
ATOM      1  C   UNL A   1      36.514  22.997  25.396  1.00  0.00     0.116 C 
ENDROOT
BRANCH   1   2
ATOM      2  N   UNL A   1      35.800  22.366  26.481  1.00  0.00    -0.354 N 
ATOM      3  C   UNL A   1      34.448  22.191  26.626  1.00  0.00     0.242 C 
ATOM      4  O   UNL A   1      34.086  21.473  27.561  1.00  0.00    -0.273 OA
ATOM      5  H   UNL A   1      36.357  22.014  27.213  1.00  0.00     0.163 HD
BRANCH   3   6
ATOM      6  C   UNL A   1      33.446  22.794  25.586  1.00  0.00     0.173 C 
BRANCH   6   7
ATOM      7  N   UNL A   1      32.496  23.655  26.300  1.00  0.00    -0.342 N 
ATOM      8  C   UNL A   1      32.203  24.981  26.154  1.00  0.00     0.242 C 
ATOM      9  O   UNL A   1      31.311  25.430  26.882  1.00  0.00    -0.273 OA
ATOM     10  H   UNL A   1      31.981  23.199  27.005  1.00  0.00     0.164 HD
BRANCH   8  11
ATOM     11  C   UNL A   1      32.857  25.861  25.076  1.00  0.00     0.248 C 
BRANCH  11  12
ATOM     12  N   UNL A   1      32.517  27.282  25.123  1.00  0.00    -0.220 N 
ATOM     13  C   UNL A   1      31.066  28.922  24.468  1.00  0.00     0.091 A 
ATOM     14  C   UNL A   1      31.814  29.975  25.176  1.00  0.00     0.036 A 
ATOM     15  N   UNL A   1      31.384  27.669  24.439  1.00  0.00    -0.169 NA
ATOM     16  C   UNL A   1      32.870  29.571  25.883  1.00  0.00     0.075 A 
ATOM     17  C   UNL A   1      33.280  28.148  25.900  1.00  0.00     0.267 A 
ATOM     18  O   UNL A   1      34.284  27.832  26.529  1.00  0.00    -0.268 OA
BRANCH  13  19
ATOM     19  C   UNL A   1      29.851  29.369  23.775  1.00  0.00     0.006 A 
ATOM     20  C   UNL A   1      28.398  31.185  23.151  1.00  0.00     0.119 A 
ATOM     21  C   UNL A   1      27.541  30.262  22.542  1.00  0.00     0.046 A 
ATOM     22  C   UNL A   1      29.551  30.734  23.788  1.00  0.00     0.056 A 
ATOM     23  C   UNL A   1      27.846  28.897  22.538  1.00  0.00     0.005 A 
ATOM     24  C   UNL A   1      29.010  28.443  23.157  1.00  0.00     0.011 A 
BRANCH  20  25
ATOM     25  O   UNL A   1      27.995  32.490  23.093  1.00  0.00    -0.497 OA
ATOM     26  C   UNL A   1      29.042  33.457  23.097  1.00  0.00     0.278 C 
ENDBRANCH  20  25
ENDBRANCH  13  19
ENDBRANCH  11  12
ENDBRANCH   8  11
ENDBRANCH   6   7
BRANCH   6  27
ATOM     27  C   UNL A   1      32.725  21.666  24.794  1.00  0.00     0.015 C 
ATOM     28  C   UNL A   1      32.174  22.111  23.435  1.00  0.00     0.010 C 
ATOM     29  C   UNL A   1      33.673  20.478  24.565  1.00  0.00     0.010 C 
ENDBRANCH   6  27
ENDBRANCH   3   6
ENDBRANCH   1   2
BRANCH   1  30
ATOM     30  C   UNL A   1      37.033  22.007  24.361  1.00  0.00     0.023 C 
BRANCH  30  31
ATOM     31  C   UNL A   1      37.616  20.727  24.957  1.00  0.00     0.023 C 
BRANCH  31  32
ATOM     32  C   UNL A   1      38.933  20.897  25.714  1.00  0.00     0.116 C 
BRANCH  32  33
ATOM     33  N   UNL A   1      39.830  19.753  25.631  1.00  0.00    -0.352 N 
ATOM     34  C   UNL A   1      41.149  19.684  26.027  1.00  0.00     0.251 C 
ATOM     35  H   UNL A   1      39.448  18.930  25.246  1.00  0.00     0.163 HD
ATOM     36  O   UNL A   1      41.798  18.657  25.896  1.00  0.00    -0.269 OA
BRANCH  34  37
ATOM     37  C   UNL A   1      41.786  20.901  26.570  1.00  0.00     0.039 A 
ATOM     38  C   UNL A   1      42.325  21.831  25.679  1.00  0.00     0.014 A 
ATOM     39  C   UNL A   1      41.752  21.163  27.942  1.00  0.00     0.014 A 
ATOM     40  C   UNL A   1      42.743  23.076  26.155  1.00  0.00     0.010 A 
ATOM     41  C   UNL A   1      42.114  22.424  28.406  1.00  0.00     0.010 A 
ATOM     42  C   UNL A   1      42.588  23.400  27.513  1.00  0.00    -0.014 A 
BRANCH  42  43
ATOM     43  C   UNL A   1      42.863  24.769  28.014  1.00  0.00     0.031 A 
ATOM     44  C   UNL A   1      44.253  25.166  28.415  1.00  0.00     0.074 A 
ATOM     45  C   UNL A   1      41.840  25.628  28.189  1.00  0.00     0.049 A 
ATOM     46  N   UNL A   1      44.669  26.282  28.959  1.00  0.00    -0.248 NA
ATOM     47  C   UNL A   1      45.311  24.169  28.196  1.00  0.00     0.031 C 
ATOM     48  C   UNL A   1      40.436  25.349  27.878  1.00  0.00     0.029 A 
ATOM     49  N   UNL A   1      41.821  26.908  28.683  1.00  0.00    -0.354 N 
ATOM     50  C   UNL A   1      46.032  26.116  29.159  1.00  0.00     0.074 A 
ATOM     51  C   UNL A   1      46.364  24.777  28.720  1.00  0.00     0.031 C 
ATOM     52  C   UNL A   1      39.698  26.435  28.165  1.00  0.00     0.029 A 
ATOM     53  C   UNL A   1      40.567  27.470  28.713  1.00  0.00     0.049 A 
ATOM     54  H   UNL A   1      42.630  27.380  28.987  1.00  0.00     0.167 HD
ATOM     55  C   UNL A   1      46.930  27.006  29.645  1.00  0.00     0.037 A 
ATOM     56  C   UNL A   1      40.165  28.681  29.140  1.00  0.00     0.037 A 
ATOM     57  C   UNL A   1      46.604  28.345  30.063  1.00  0.00     0.049 A 
ATOM     58  C   UNL A   1      41.176  29.643  29.694  1.00  0.00     0.074 A 
ATOM     59  C   UNL A   1      47.454  29.337  30.517  1.00  0.00     0.029 A 
ATOM     60  N   UNL A   1      45.324  28.876  30.076  1.00  0.00    -0.354 N 
ATOM     61  N   UNL A   1      42.470  29.493  29.830  1.00  0.00    -0.248 NA
ATOM     62  C   UNL A   1      40.669  30.943  30.156  1.00  0.00     0.031 C 
ATOM     63  C   UNL A   1      46.683  30.461  30.836  1.00  0.00     0.029 A 
ATOM     64  C   UNL A   1      45.358  30.178  30.549  1.00  0.00     0.049 A 
ATOM     65  H   UNL A   1      44.511  28.400  29.792  1.00  0.00     0.167 HD
ATOM     66  C   UNL A   1      42.937  30.683  30.369  1.00  0.00     0.074 A 
ATOM     67  C   UNL A   1      41.787  31.551  30.528  1.00  0.00     0.031 C 
ATOM     68  C   UNL A   1      44.205  31.028  30.699  1.00  0.00     0.037 A 
BRANCH  55  69
ATOM     69  C   UNL A   1      48.355  26.552  29.744  1.00  0.00     0.057 A 
ATOM     70  C   UNL A   1      48.838  25.888  30.878  1.00  0.00     0.134 A 
ATOM     71  C   UNL A   1      49.252  26.771  28.691  1.00  0.00     0.134 A 
ATOM     72  F   UNL A   1      48.033  25.661  31.927  1.00  0.00    -0.206 F 
ATOM     73  C   UNL A   1      50.170  25.483  30.975  1.00  0.00     0.040 A 
ATOM     74  C   UNL A   1      50.581  26.349  28.766  1.00  0.00     0.040 A 
ATOM     75  F   UNL A   1      48.852  27.399  27.574  1.00  0.00    -0.206 F 
ATOM     76  C   UNL A   1      51.044  25.710  29.914  1.00  0.00     0.006 A 
ENDBRANCH  55  69
BRANCH  56  77
ATOM     77  C   UNL A   1      38.737  29.066  29.033  1.00  0.00     0.057 A 
ATOM     78  C   UNL A   1      38.215  29.547  27.827  1.00  0.00     0.134 A 
ATOM     79  C   UNL A   1      37.863  28.964  30.121  1.00  0.00     0.134 A 
ATOM     80  F   UNL A   1      39.010  29.684  26.755  1.00  0.00    -0.206 F 
ATOM     81  C   UNL A   1      36.877  29.924  27.708  1.00  0.00     0.040 A 
ATOM     82  C   UNL A   1      36.518  29.320  30.012  1.00  0.00     0.040 A 
ATOM     83  F   UNL A   1      38.303  28.505  31.302  1.00  0.00    -0.206 F 
ATOM     84  C   UNL A   1      36.023  29.806  28.803  1.00  0.00     0.006 A 
ENDBRANCH  56  77
BRANCH  68  85
ATOM     85  C   UNL A   1      44.419  32.410  31.240  1.00  0.00     0.057 A 
ATOM     86  C   UNL A   1      44.403  32.672  32.614  1.00  0.00     0.134 A 
ATOM     87  C   UNL A   1      44.679  33.481  30.377  1.00  0.00     0.134 A 
ATOM     88  F   UNL A   1      44.143  31.690  33.491  1.00  0.00    -0.206 F 
ATOM     89  C   UNL A   1      44.625  33.956  33.113  1.00  0.00     0.040 A 
ATOM     90  C   UNL A   1      44.924  34.766  30.863  1.00  0.00     0.040 A 
ATOM     91  F   UNL A   1      44.713  33.294  29.049  1.00  0.00    -0.206 F 
ATOM     92  C   UNL A   1      44.893  35.006  32.235  1.00  0.00     0.006 A 
ENDBRANCH  68  85
ENDBRANCH  42  43
ENDBRANCH  34  37
ENDBRANCH  32  33
ENDBRANCH  31  32
ENDBRANCH  30  31
ENDBRANCH   1  30
TORSDOF 17
ENDMDL
MODEL 2
REMARK VINA RESULT:     -11.8      0.573      5.962
REMARK SMILES COc1cccc(-c2ccc(=O)n(CC(=O)N[C@@H](C(=O)NCCCCNC(=O)c3ccc(-c4c5nc(c(-c6c(F)cccc6F)c6ccc([nH]6)c(-c6c(F)cccc6F)c6nc(c(-c7c(F)cccc7F)c7ccc4[nH]7)C=C6)C=C5)cc3)C(C)C)n2)c1
REMARK SMILES IDX 22 1 21 2 19 3 20 4 18 6 17 7 15 8 16 9 14 11 13 12 8 13
REMARK SMILES IDX 9 14 86 15 10 16 11 17 12 18 7 19 3 20 4 21 87 22 5 23 6 24
REMARK SMILES IDX 2 25 1 26 83 27 84 28 85 29 23 30 24 31 25 32 26 33 27 34
REMARK SMILES IDX 28 36 29 37 30 38 82 39 31 40 81 41 32 42 33 43 34 44 75 45
REMARK SMILES IDX 35 46 80 47 74 48 76 49 36 50 79 51 73 52 72 53 37 55 63 56
REMARK SMILES IDX 46 57 62 58 47 59 50 60 61 61 77 62 48 63 49 64 60 66 78 67
REMARK SMILES IDX 51 68 38 69 39 70 44 71 40 72 41 73 43 74 45 75 42 76 64 77
REMARK SMILES IDX 65 78 70 79 66 80 67 81 69 82 71 83 68 84 52 85 53 86 58 87
REMARK SMILES IDX 54 88 55 89 57 90 59 91 56 92
REMARK H PARENT 21 5 17 10 26 35 76 54 50 65
REMARK Flexibility Score: inf
ROOT
ATOM      1  C   UNL A   1      36.558  23.328  25.789  1.00  0.00     0.116 C 
ENDROOT
BRANCH   1   2
ATOM      2  N   UNL A   1      35.785  22.564  26.741  1.00  0.00    -0.354 N 
ATOM      3  C   UNL A   1      34.441  22.297  26.732  1.00  0.00     0.242 C 
ATOM      4  O   UNL A   1      34.039  21.481  27.564  1.00  0.00    -0.273 OA
ATOM      5  H   UNL A   1      36.291  22.184  27.496  1.00  0.00     0.163 HD
BRANCH   3   6
ATOM      6  C   UNL A   1      33.507  22.927  25.645  1.00  0.00     0.173 C 
BRANCH   6   7
ATOM      7  N   UNL A   1      32.487  23.737  26.321  1.00  0.00    -0.342 N 
ATOM      8  C   UNL A   1      32.194  25.068  26.228  1.00  0.00     0.242 C 
ATOM      9  O   UNL A   1      31.235  25.468  26.898  1.00  0.00    -0.273 OA
ATOM     10  H   UNL A   1      31.918  23.237  26.949  1.00  0.00     0.164 HD
BRANCH   8  11
ATOM     11  C   UNL A   1      32.930  26.015  25.265  1.00  0.00     0.248 C 
BRANCH  11  12
ATOM     12  N   UNL A   1      32.503  27.412  25.298  1.00  0.00    -0.220 N 
ATOM     13  C   UNL A   1      31.008  28.972  24.552  1.00  0.00     0.091 A 
ATOM     14  C   UNL A   1      31.639  30.059  25.320  1.00  0.00     0.036 A 
ATOM     15  N   UNL A   1      31.401  27.739  24.538  1.00  0.00    -0.169 NA
ATOM     16  C   UNL A   1      32.665  29.710  26.098  1.00  0.00     0.075 A 
ATOM     17  C   UNL A   1      33.156  28.313  26.134  1.00  0.00     0.267 A 
ATOM     18  O   UNL A   1      34.130  28.049  26.831  1.00  0.00    -0.268 OA
BRANCH  13  19
ATOM     19  C   UNL A   1      29.821  29.354  23.777  1.00  0.00     0.006 A 
ATOM     20  C   UNL A   1      28.441  31.108  22.874  1.00  0.00     0.119 A 
ATOM     21  C   UNL A   1      27.565  30.136  22.381  1.00  0.00     0.046 A 
ATOM     22  C   UNL A   1      29.566  30.716  23.593  1.00  0.00     0.056 A 
ATOM     23  C   UNL A   1      27.824  28.775  22.574  1.00  0.00     0.005 A 
ATOM     24  C   UNL A   1      28.960  28.377  23.276  1.00  0.00     0.011 A 
BRANCH  20  25
ATOM     25  O   UNL A   1      28.083  32.405  22.625  1.00  0.00    -0.497 OA
ATOM     26  C   UNL A   1      27.895  32.737  21.252  1.00  0.00     0.278 C 
ENDBRANCH  20  25
ENDBRANCH  13  19
ENDBRANCH  11  12
ENDBRANCH   8  11
ENDBRANCH   6   7
BRANCH   6  27
ATOM     27  C   UNL A   1      32.872  21.821  24.753  1.00  0.00     0.015 C 
ATOM     28  C   UNL A   1      32.439  22.309  23.367  1.00  0.00     0.010 C 
ATOM     29  C   UNL A   1      33.851  20.650  24.569  1.00  0.00     0.010 C 
ENDBRANCH   6  27
ENDBRANCH   3   6
ENDBRANCH   1   2
BRANCH   1  30
ATOM     30  C   UNL A   1      37.031  22.503  24.599  1.00  0.00     0.023 C 
BRANCH  30  31
ATOM     31  C   UNL A   1      37.611  21.140  24.974  1.00  0.00     0.023 C 
BRANCH  31  32
ATOM     32  C   UNL A   1      38.894  21.179  25.802  1.00  0.00     0.116 C 
BRANCH  32  33
ATOM     33  N   UNL A   1      39.716  19.982  25.700  1.00  0.00    -0.352 N 
ATOM     34  C   UNL A   1      41.035  19.828  26.075  1.00  0.00     0.251 C 
ATOM     35  H   UNL A   1      39.279  19.186  25.317  1.00  0.00     0.163 HD
ATOM     36  O   UNL A   1      41.617  18.764  25.930  1.00  0.00    -0.269 OA
BRANCH  34  37
ATOM     37  C   UNL A   1      41.754  21.000  26.615  1.00  0.00     0.039 A 
ATOM     38  C   UNL A   1      42.289  21.930  25.720  1.00  0.00     0.014 A 
ATOM     39  C   UNL A   1      41.805  21.225  27.992  1.00  0.00     0.014 A 
ATOM     40  C   UNL A   1      42.787  23.141  26.205  1.00  0.00     0.010 A 
ATOM     41  C   UNL A   1      42.248  22.455  28.469  1.00  0.00     0.010 A 
ATOM     42  C   UNL A   1      42.719  23.433  27.577  1.00  0.00    -0.014 A 
BRANCH  42  43
ATOM     43  C   UNL A   1      43.082  24.774  28.098  1.00  0.00     0.031 A 
ATOM     44  C   UNL A   1      42.024  25.810  28.332  1.00  0.00     0.074 A 
ATOM     45  C   UNL A   1      44.381  25.085  28.278  1.00  0.00     0.049 A 
ATOM     46  N   UNL A   1      42.157  27.061  28.694  1.00  0.00    -0.248 NA
ATOM     47  C   UNL A   1      40.632  25.391  28.108  1.00  0.00     0.031 C 
ATOM     48  C   UNL A   1      45.510  24.181  28.046  1.00  0.00     0.029 A 
ATOM     49  N   UNL A   1      44.972  26.253  28.688  1.00  0.00    -0.354 N 
ATOM     50  C   UNL A   1      40.871  27.582  28.729  1.00  0.00     0.074 A 
ATOM     51  C   UNL A   1      39.976  26.524  28.307  1.00  0.00     0.031 C 
ATOM     52  C   UNL A   1      46.653  24.821  28.341  1.00  0.00     0.029 A 
ATOM     53  C   UNL A   1      46.344  26.187  28.746  1.00  0.00     0.049 A 
ATOM     54  H   UNL A   1      44.462  27.063  28.919  1.00  0.00     0.167 HD
ATOM     55  C   UNL A   1      40.470  28.821  29.098  1.00  0.00     0.037 A 
ATOM     56  C   UNL A   1      47.248  27.125  29.083  1.00  0.00     0.037 A 
ATOM     57  C   UNL A   1      41.357  29.866  29.537  1.00  0.00     0.049 A 
ATOM     58  C   UNL A   1      46.780  28.499  29.469  1.00  0.00     0.074 A 
ATOM     59  C   UNL A   1      41.039  31.136  29.983  1.00  0.00     0.029 A 
ATOM     60  N   UNL A   1      42.738  29.759  29.583  1.00  0.00    -0.354 N 
ATOM     61  N   UNL A   1      45.557  28.962  29.547  1.00  0.00    -0.248 NA
ATOM     62  C   UNL A   1      47.819  29.480  29.813  1.00  0.00     0.031 C 
ATOM     63  C   UNL A   1      42.232  31.811  30.270  1.00  0.00     0.029 A 
ATOM     64  C   UNL A   1      43.289  30.948  30.034  1.00  0.00     0.049 A 
ATOM     65  H   UNL A   1      43.252  28.957  29.334  1.00  0.00     0.167 HD
ATOM     66  C   UNL A   1      45.676  30.278  29.970  1.00  0.00     0.074 A 
ATOM     67  C   UNL A   1      47.091  30.538  30.141  1.00  0.00     0.031 C 
ATOM     68  C   UNL A   1      44.699  31.189  30.200  1.00  0.00     0.037 A 
BRANCH  55  69
ATOM     69  C   UNL A   1      38.999  29.106  29.045  1.00  0.00     0.057 A 
ATOM     70  C   UNL A   1      38.182  28.965  30.174  1.00  0.00     0.134 A 
ATOM     71  C   UNL A   1      38.394  29.535  27.858  1.00  0.00     0.134 A 
ATOM     72  F   UNL A   1      38.699  28.542  31.338  1.00  0.00    -0.206 F 
ATOM     73  C   UNL A   1      36.810  29.212  30.117  1.00  0.00     0.040 A 
ATOM     74  C   UNL A   1      37.026  29.809  27.794  1.00  0.00     0.040 A 
ATOM     75  F   UNL A   1      39.121  29.694  26.740  1.00  0.00    -0.206 F 
ATOM     76  C   UNL A   1      36.230  29.640  28.925  1.00  0.00     0.006 A 
ENDBRANCH  55  69
BRANCH  56  77
ATOM     77  C   UNL A   1      48.692  26.788  29.100  1.00  0.00     0.057 A 
ATOM     78  C   UNL A   1      49.278  26.210  30.232  1.00  0.00     0.134 A 
ATOM     79  C   UNL A   1      49.518  27.030  27.997  1.00  0.00     0.134 A 
ATOM     80  F   UNL A   1      48.540  25.972  31.326  1.00  0.00    -0.206 F 
ATOM     81  C   UNL A   1      50.637  25.894  30.272  1.00  0.00     0.040 A 
ATOM     82  C   UNL A   1      50.874  26.702  28.016  1.00  0.00     0.040 A 
ATOM     83  F   UNL A   1      49.013  27.577  26.881  1.00  0.00    -0.206 F 
ATOM     84  C   UNL A   1      51.438  26.137  29.158  1.00  0.00     0.006 A 
ENDBRANCH  56  77
BRANCH  68  85
ATOM     85  C   UNL A   1      45.126  32.542  30.687  1.00  0.00     0.057 A 
ATOM     86  C   UNL A   1      45.289  32.814  32.050  1.00  0.00     0.134 A 
ATOM     87  C   UNL A   1      45.411  33.568  29.779  1.00  0.00     0.134 A 
ATOM     88  F   UNL A   1      45.017  31.876  32.969  1.00  0.00    -0.206 F 
ATOM     89  C   UNL A   1      45.709  34.069  32.495  1.00  0.00     0.040 A 
ATOM     90  C   UNL A   1      45.851  34.820  30.211  1.00  0.00     0.040 A 
ATOM     91  F   UNL A   1      45.278  33.368  28.460  1.00  0.00    -0.206 F 
ATOM     92  C   UNL A   1      45.997  35.074  31.573  1.00  0.00     0.006 A 
ENDBRANCH  68  85
ENDBRANCH  42  43
ENDBRANCH  34  37
ENDBRANCH  32  33
ENDBRANCH  31  32
ENDBRANCH  30  31
ENDBRANCH   1  30
TORSDOF 17
ENDMDL
MODEL 3
REMARK VINA RESULT:     -11.4      2.290      2.905
REMARK SMILES COc1cccc(-c2ccc(=O)n(CC(=O)N[C@@H](C(=O)NCCCCNC(=O)c3ccc(-c4c5nc(c(-c6c(F)cccc6F)c6ccc([nH]6)c(-c6c(F)cccc6F)c6nc(c(-c7c(F)cccc7F)c7ccc4[nH]7)C=C6)C=C5)cc3)C(C)C)n2)c1
REMARK SMILES IDX 22 1 21 2 19 3 20 4 18 6 17 7 15 8 16 9 14 11 13 12 8 13
REMARK SMILES IDX 9 14 86 15 10 16 11 17 12 18 7 19 3 20 4 21 87 22 5 23 6 24
REMARK SMILES IDX 2 25 1 26 83 27 84 28 85 29 23 30 24 31 25 32 26 33 27 34
REMARK SMILES IDX 28 36 29 37 30 38 82 39 31 40 81 41 32 42 33 43 34 44 75 45
REMARK SMILES IDX 35 46 80 47 74 48 76 49 36 50 79 51 73 52 72 53 37 55 63 56
REMARK SMILES IDX 46 57 62 58 47 59 50 60 61 61 77 62 48 63 49 64 60 66 78 67
REMARK SMILES IDX 51 68 38 69 39 70 44 71 40 72 41 73 43 74 45 75 42 76 64 77
REMARK SMILES IDX 65 78 70 79 66 80 67 81 69 82 71 83 68 84 52 85 53 86 58 87
REMARK SMILES IDX 54 88 55 89 57 90 59 91 56 92
REMARK H PARENT 21 5 17 10 26 35 76 54 50 65
REMARK Flexibility Score: inf
ROOT
ATOM      1  C   UNL A   1      35.316  20.523  25.286  1.00  0.00     0.116 C 
ENDROOT
BRANCH   1   2
ATOM      2  N   UNL A   1      34.082  19.775  25.363  1.00  0.00    -0.354 N 
ATOM      3  C   UNL A   1      32.797  20.231  25.221  1.00  0.00     0.242 C 
ATOM      4  O   UNL A   1      31.915  19.371  25.162  1.00  0.00    -0.273 OA
ATOM      5  H   UNL A   1      34.177  18.811  25.538  1.00  0.00     0.163 HD
BRANCH   3   6
ATOM      6  C   UNL A   1      32.505  21.757  25.041  1.00  0.00     0.173 C 
BRANCH   6   7
ATOM      7  N   UNL A   1      31.369  22.118  25.898  1.00  0.00    -0.342 N 
ATOM      8  C   UNL A   1      31.194  23.161  26.762  1.00  0.00     0.242 C 
ATOM      9  O   UNL A   1      30.096  23.231  27.324  1.00  0.00    -0.273 OA
ATOM     10  H   UNL A   1      30.602  21.503  25.840  1.00  0.00     0.164 HD
BRANCH   8  11
ATOM     11  C   UNL A   1      32.250  24.262  26.958  1.00  0.00     0.248 C 
BRANCH  11  12
ATOM     12  N   UNL A   1      32.421  25.184  25.837  1.00  0.00    -0.220 N 
ATOM     13  C   UNL A   1      31.422  26.658  24.405  1.00  0.00     0.091 A 
ATOM     14  C   UNL A   1      32.684  26.956  23.706  1.00  0.00     0.036 A 
ATOM     15  N   UNL A   1      31.291  25.839  25.397  1.00  0.00    -0.169 NA
ATOM     16  C   UNL A   1      33.776  26.361  24.186  1.00  0.00     0.075 A 
ATOM     17  C   UNL A   1      33.695  25.419  25.327  1.00  0.00     0.267 A 
ATOM     18  O   UNL A   1      34.720  24.862  25.706  1.00  0.00    -0.268 OA
BRANCH  13  19
ATOM     19  C   UNL A   1      30.246  27.397  23.925  1.00  0.00     0.006 A 
ATOM     20  C   UNL A   1      29.312  29.468  23.131  1.00  0.00     0.119 A 
ATOM     21  C   UNL A   1      28.056  28.856  23.077  1.00  0.00     0.046 A 
ATOM     22  C   UNL A   1      30.411  28.740  23.575  1.00  0.00     0.056 A 
ATOM     23  C   UNL A   1      27.898  27.513  23.433  1.00  0.00     0.005 A 
ATOM     24  C   UNL A   1      29.000  26.773  23.861  1.00  0.00     0.011 A 
BRANCH  20  25
ATOM     25  O   UNL A   1      29.342  30.784  22.759  1.00  0.00    -0.497 OA
ATOM     26  C   UNL A   1      28.071  31.396  22.563  1.00  0.00     0.278 C 
ENDBRANCH  20  25
ENDBRANCH  13  19
ENDBRANCH  11  12
ENDBRANCH   8  11
ENDBRANCH   6   7
BRANCH   6  27
ATOM     27  C   UNL A   1      32.234  22.097  23.547  1.00  0.00     0.015 C 
ATOM     28  C   UNL A   1      31.046  23.038  23.325  1.00  0.00     0.010 C 
ATOM     29  C   UNL A   1      33.479  22.730  22.905  1.00  0.00     0.010 C 
ENDBRANCH   6  27
ENDBRANCH   3   6
ENDBRANCH   1   2
BRANCH   1  30
ATOM     30  C   UNL A   1      36.489  19.696  24.775  1.00  0.00     0.023 C 
BRANCH  30  31
ATOM     31  C   UNL A   1      37.795  20.479  24.642  1.00  0.00     0.023 C 
BRANCH  31  32
ATOM     32  C   UNL A   1      38.501  20.803  25.957  1.00  0.00     0.116 C 
BRANCH  32  33
ATOM     33  N   UNL A   1      39.703  20.020  26.208  1.00  0.00    -0.352 N 
ATOM     34  C   UNL A   1      40.888  20.448  26.767  1.00  0.00     0.251 C 
ATOM     35  H   UNL A   1      39.664  19.071  25.946  1.00  0.00     0.163 HD
ATOM     36  O   UNL A   1      41.831  19.686  26.918  1.00  0.00    -0.269 OA
BRANCH  34  37
ATOM     37  C   UNL A   1      41.018  21.872  27.138  1.00  0.00     0.039 A 
ATOM     38  C   UNL A   1      41.734  22.202  28.291  1.00  0.00     0.014 A 
ATOM     39  C   UNL A   1      40.524  22.870  26.295  1.00  0.00     0.014 A 
ATOM     40  C   UNL A   1      42.044  23.539  28.548  1.00  0.00     0.010 A 
ATOM     41  C   UNL A   1      40.884  24.195  26.521  1.00  0.00     0.010 A 
ATOM     42  C   UNL A   1      41.668  24.538  27.635  1.00  0.00    -0.014 A 
BRANCH  42  43
ATOM     43  C   UNL A   1      42.129  25.939  27.793  1.00  0.00     0.031 A 
ATOM     44  C   UNL A   1      43.472  26.360  27.274  1.00  0.00     0.074 A 
ATOM     45  C   UNL A   1      41.369  26.813  28.483  1.00  0.00     0.049 A 
ATOM     46  N   UNL A   1      44.083  27.511  27.400  1.00  0.00    -0.248 NA
ATOM     47  C   UNL A   1      44.240  25.345  26.537  1.00  0.00     0.031 C 
ATOM     48  C   UNL A   1      40.062  26.517  29.074  1.00  0.00     0.029 A 
ATOM     49  N   UNL A   1      41.592  28.126  28.813  1.00  0.00    -0.354 N 
ATOM     50  C   UNL A   1      45.310  27.356  26.770  1.00  0.00     0.074 A 
ATOM     51  C   UNL A   1      45.375  25.987  26.303  1.00  0.00     0.031 C 
ATOM     52  C   UNL A   1      39.590  27.624  29.672  1.00  0.00     0.029 A 
ATOM     53  C   UNL A   1      40.573  28.693  29.540  1.00  0.00     0.049 A 
ATOM     54  H   UNL A   1      42.406  28.616  28.553  1.00  0.00     0.167 HD
ATOM     55  C   UNL A   1      46.285  28.276  26.579  1.00  0.00     0.037 A 
ATOM     56  C   UNL A   1      40.449  29.934  30.046  1.00  0.00     0.037 A 
ATOM     57  C   UNL A   1      46.212  29.643  27.024  1.00  0.00     0.049 A 
ATOM     58  C   UNL A   1      41.553  30.930  29.839  1.00  0.00     0.074 A 
ATOM     59  C   UNL A   1      47.126  30.663  26.829  1.00  0.00     0.029 A 
ATOM     60  N   UNL A   1      45.163  30.179  27.755  1.00  0.00    -0.354 N 
ATOM     61  N   UNL A   1      42.685  30.786  29.196  1.00  0.00    -0.248 NA
ATOM     62  C   UNL A   1      41.362  32.263  30.429  1.00  0.00     0.031 C 
ATOM     63  C   UNL A   1      46.644  31.811  27.471  1.00  0.00     0.029 A 
ATOM     64  C   UNL A   1      45.415  31.512  28.036  1.00  0.00     0.049 A 
ATOM     65  H   UNL A   1      44.358  29.685  28.033  1.00  0.00     0.167 HD
ATOM     66  C   UNL A   1      43.331  32.011  29.283  1.00  0.00     0.074 A 
ATOM     67  C   UNL A   1      42.459  32.893  30.033  1.00  0.00     0.031 C 
ATOM     68  C   UNL A   1      44.536  32.375  28.782  1.00  0.00     0.037 A 
BRANCH  55  69
ATOM     69  C   UNL A   1      47.514  27.826  25.848  1.00  0.00     0.057 A 
ATOM     70  C   UNL A   1      48.675  27.442  26.530  1.00  0.00     0.134 A 
ATOM     71  C   UNL A   1      47.534  27.763  24.450  1.00  0.00     0.134 A 
ATOM     72  F   UNL A   1      48.724  27.494  27.870  1.00  0.00    -0.206 F 
ATOM     73  C   UNL A   1      49.824  27.041  25.848  1.00  0.00     0.040 A 
ATOM     74  C   UNL A   1      48.670  27.341  23.755  1.00  0.00     0.040 A 
ATOM     75  F   UNL A   1      46.453  28.114  23.735  1.00  0.00    -0.206 F 
ATOM     76  C   UNL A   1      49.821  26.986  24.455  1.00  0.00     0.006 A 
ENDBRANCH  55  69
BRANCH  56  77
ATOM     77  C   UNL A   1      39.216  30.315  30.775  1.00  0.00     0.057 A 
ATOM     78  C   UNL A   1      39.100  30.090  32.151  1.00  0.00     0.134 A 
ATOM     79  C   UNL A   1      38.129  30.910  30.123  1.00  0.00     0.134 A 
ATOM     80  F   UNL A   1      40.101  29.506  32.825  1.00  0.00    -0.206 F 
ATOM     81  C   UNL A   1      37.943  30.433  32.854  1.00  0.00     0.040 A 
ATOM     82  C   UNL A   1      36.974  31.275  30.816  1.00  0.00     0.040 A 
ATOM     83  F   UNL A   1      38.182  31.156  28.806  1.00  0.00    -0.206 F 
ATOM     84  C   UNL A   1      36.878  31.032  32.185  1.00  0.00     0.006 A 
ENDBRANCH  56  77
BRANCH  68  85
ATOM     85  C   UNL A   1      44.971  33.792  29.007  1.00  0.00     0.057 A 
ATOM     86  C   UNL A   1      45.744  34.157  30.115  1.00  0.00     0.134 A 
ATOM     87  C   UNL A   1      44.642  34.793  28.086  1.00  0.00     0.134 A 
ATOM     88  F   UNL A   1      46.078  33.245  31.041  1.00  0.00    -0.206 F 
ATOM     89  C   UNL A   1      46.164  35.473  30.307  1.00  0.00     0.040 A 
ATOM     90  C   UNL A   1      45.074  36.109  28.255  1.00  0.00     0.040 A 
ATOM     91  F   UNL A   1      43.908  34.506  27.001  1.00  0.00    -0.206 F 
ATOM     92  C   UNL A   1      45.834  36.453  29.371  1.00  0.00     0.006 A 
ENDBRANCH  68  85
ENDBRANCH  42  43
ENDBRANCH  34  37
ENDBRANCH  32  33
ENDBRANCH  31  32
ENDBRANCH  30  31
ENDBRANCH   1  30
TORSDOF 17
ENDMDL
