MODEL 1
REMARK VINA RESULT:     -10.0      0.000      0.000
REMARK SMILES COCCN(CC(=O)NCCCCNC(=O)c1ccc(-c2c3nc(c(-c4c(F)cccc4F)c4ccc([nH]4)c(-c4c(F)cccc4F)c4nc(c(-c5c(F)cccc5F)c5ccc2[nH]5)C=C4)C=C3)cc1)C(=O)N1CCC[C@@H]1C
REMARK SMILES IDX 10 1 9 2 7 3 8 4 6 6 5 7 4 8 3 9 2 10 1 11 71 12 72 13 73 14
REMARK SMILES IDX 74 15 77 16 75 17 76 18 78 19 11 20 12 21 13 22 14 23 15 24
REMARK SMILES IDX 16 26 17 27 18 28 70 29 19 30 69 31 20 32 21 33 22 34 63 35
REMARK SMILES IDX 23 36 68 37 62 38 64 39 24 40 67 41 61 42 60 43 25 45 51 46
REMARK SMILES IDX 34 47 50 48 35 49 38 50 49 51 65 52 36 53 37 54 48 56 66 57
REMARK SMILES IDX 39 58 26 59 27 60 32 61 28 62 29 63 31 64 33 65 30 66 52 67
REMARK SMILES IDX 53 68 58 69 54 70 55 71 57 72 59 73 56 74 40 75 41 76 46 77
REMARK SMILES IDX 42 78 43 79 45 80 47 81 44 82
REMARK H PARENT 9 5 14 25 64 44 38 55
REMARK Flexibility Score: inf
ROOT
ATOM      1  C   UNL A   1      31.028  26.793  25.995  1.00  0.00     0.116 C 
ENDROOT
BRANCH   1   2
ATOM      2  N   UNL A   1      30.729  25.460  26.466  1.00  0.00    -0.355 N 
ATOM      3  C   UNL A   1      31.511  24.345  26.489  1.00  0.00     0.239 C 
ATOM      4  O   UNL A   1      31.179  23.466  27.295  1.00  0.00    -0.273 OA
ATOM      5  H   UNL A   1      29.820  25.340  26.826  1.00  0.00     0.163 HD
BRANCH   3   6
ATOM      6  C   UNL A   1      32.829  24.212  25.700  1.00  0.00     0.221 C 
BRANCH   6   7
ATOM      7  N   UNL A   1      32.762  23.752  24.310  1.00  0.00    -0.313 N 
BRANCH   7   8
ATOM      8  C   UNL A   1      32.271  24.728  23.313  1.00  0.00     0.150 C 
BRANCH   8   9
ATOM      9  C   UNL A   1      33.217  25.910  23.033  1.00  0.00     0.181 C 
BRANCH   9  10
ATOM     10  O   UNL A   1      33.727  25.882  21.704  1.00  0.00    -0.383 OA
ATOM     11  C   UNL A   1      32.888  25.192  20.791  1.00  0.00     0.194 C 
ENDBRANCH   9  10
ENDBRANCH   8   9
ENDBRANCH   7   8
BRANCH   7  12
ATOM     12  C   UNL A   1      33.354  22.602  23.808  1.00  0.00     0.320 C 
ATOM     13  O   UNL A   1      32.843  21.979  22.873  1.00  0.00    -0.248 OA
BRANCH  12  14
ATOM     14  N   UNL A   1      34.598  22.230  24.251  1.00  0.00    -0.322 N 
ATOM     15  C   UNL A   1      35.754  22.661  23.489  1.00  0.00     0.122 C 
ATOM     16  C   UNL A   1      34.970  21.097  25.104  1.00  0.00     0.083 C 
ATOM     17  C   UNL A   1      36.919  22.346  24.404  1.00  0.00     0.024 C 
ATOM     18  C   UNL A   1      36.506  21.011  25.005  1.00  0.00     0.027 C 
ATOM     19  C   UNL A   1      34.344  19.786  24.638  1.00  0.00     0.031 C 
ENDBRANCH  12  14
ENDBRANCH   7  12
ENDBRANCH   6   7
ENDBRANCH   3   6
ENDBRANCH   1   2
BRANCH   1  20
ATOM     20  C   UNL A   1      31.740  27.679  27.014  1.00  0.00     0.023 C 
BRANCH  20  21
ATOM     21  C   UNL A   1      32.777  28.645  26.447  1.00  0.00     0.023 C 
BRANCH  21  22
ATOM     22  C   UNL A   1      33.977  28.913  27.337  1.00  0.00     0.116 C 
BRANCH  22  23
ATOM     23  N   UNL A   1      33.947  30.212  27.989  1.00  0.00    -0.352 N 
ATOM     24  C   UNL A   1      34.975  30.847  28.645  1.00  0.00     0.251 C 
ATOM     25  H   UNL A   1      33.089  30.695  27.957  1.00  0.00     0.163 HD
ATOM     26  O   UNL A   1      34.796  31.918  29.214  1.00  0.00    -0.269 OA
BRANCH  24  27
ATOM     27  C   UNL A   1      36.295  30.189  28.690  1.00  0.00     0.039 A 
ATOM     28  C   UNL A   1      37.134  30.274  27.576  1.00  0.00     0.014 A 
ATOM     29  C   UNL A   1      36.727  29.564  29.863  1.00  0.00     0.014 A 
ATOM     30  C   UNL A   1      38.443  29.794  27.663  1.00  0.00     0.010 A 
ATOM     31  C   UNL A   1      38.049  29.155  29.970  1.00  0.00     0.010 A 
ATOM     32  C   UNL A   1      38.919  29.266  28.873  1.00  0.00    -0.014 A 
BRANCH  32  33
ATOM     33  C   UNL A   1      40.314  28.791  29.031  1.00  0.00     0.031 A 
ATOM     34  C   UNL A   1      41.360  29.745  29.527  1.00  0.00     0.074 A 
ATOM     35  C   UNL A   1      40.658  27.554  28.625  1.00  0.00     0.049 A 
ATOM     36  N   UNL A   1      42.660  29.610  29.558  1.00  0.00    -0.248 NA
ATOM     37  C   UNL A   1      40.877  31.045  30.021  1.00  0.00     0.031 C 
ATOM     38  C   UNL A   1      39.740  26.542  28.103  1.00  0.00     0.029 A 
ATOM     39  N   UNL A   1      41.889  26.948  28.569  1.00  0.00    -0.354 N 
ATOM     40  C   UNL A   1      43.151  30.820  30.029  1.00  0.00     0.074 A 
ATOM     41  C   UNL A   1      42.013  31.689  30.239  1.00  0.00     0.031 C 
ATOM     42  C   UNL A   1      40.435  25.435  27.796  1.00  0.00     0.029 A 
ATOM     43  C   UNL A   1      41.852  25.676  28.052  1.00  0.00     0.049 A 
ATOM     44  H   UNL A   1      42.719  27.384  28.868  1.00  0.00     0.167 HD
ATOM     45  C   UNL A   1      44.435  31.171  30.274  1.00  0.00     0.037 A 
ATOM     46  C   UNL A   1      42.851  24.810  27.803  1.00  0.00     0.037 A 
ATOM     47  C   UNL A   1      45.556  30.287  30.111  1.00  0.00     0.049 A 
ATOM     48  C   UNL A   1      44.270  25.219  28.088  1.00  0.00     0.074 A 
ATOM     49  C   UNL A   1      46.889  30.521  30.402  1.00  0.00     0.029 A 
ATOM     50  N   UNL A   1      45.474  28.994  29.615  1.00  0.00    -0.354 N 
ATOM     51  N   UNL A   1      44.721  26.351  28.570  1.00  0.00    -0.248 NA
ATOM     52  C   UNL A   1      45.318  24.232  27.791  1.00  0.00     0.031 C 
ATOM     53  C   UNL A   1      47.617  29.378  30.052  1.00  0.00     0.029 A 
ATOM     54  C   UNL A   1      46.732  28.422  29.579  1.00  0.00     0.049 A 
ATOM     55  H   UNL A   1      44.642  28.550  29.332  1.00  0.00     0.167 HD
ATOM     56  C   UNL A   1      46.098  26.201  28.671  1.00  0.00     0.074 A 
ATOM     57  C   UNL A   1      46.410  24.870  28.192  1.00  0.00     0.031 C 
ATOM     58  C   UNL A   1      47.019  27.085  29.124  1.00  0.00     0.037 A 
BRANCH  45  59
ATOM     59  C   UNL A   1      44.684  32.576  30.737  1.00  0.00     0.057 A 
ATOM     60  C   UNL A   1      44.929  33.621  29.838  1.00  0.00     0.134 A 
ATOM     61  C   UNL A   1      44.683  32.885  32.103  1.00  0.00     0.134 A 
ATOM     62  F   UNL A   1      44.959  33.390  28.517  1.00  0.00    -0.206 F 
ATOM     63  C   UNL A   1      45.201  34.917  30.281  1.00  0.00     0.040 A 
ATOM     64  C   UNL A   1      44.927  34.182  32.558  1.00  0.00     0.040 A 
ATOM     65  F   UNL A   1      44.452  31.931  33.018  1.00  0.00    -0.206 F 
ATOM     66  C   UNL A   1      45.196  35.200  31.646  1.00  0.00     0.006 A 
ENDBRANCH  45  59
BRANCH  46  67
ATOM     67  C   UNL A   1      42.543  23.456  27.282  1.00  0.00     0.057 A 
ATOM     68  C   UNL A   1      42.566  23.200  25.906  1.00  0.00     0.134 A 
ATOM     69  C   UNL A   1      42.234  22.389  28.133  1.00  0.00     0.134 A 
ATOM     70  F   UNL A   1      42.838  24.190  25.042  1.00  0.00    -0.206 F 
ATOM     71  C   UNL A   1      42.287  21.933  25.393  1.00  0.00     0.040 A 
ATOM     72  C   UNL A   1      41.971  21.112  27.634  1.00  0.00     0.040 A 
ATOM     73  F   UNL A   1      42.201  22.570  29.461  1.00  0.00    -0.206 F 
ATOM     74  C   UNL A   1      41.993  20.882  26.260  1.00  0.00     0.006 A 
ENDBRANCH  46  67
BRANCH  58  75
ATOM     75  C   UNL A   1      48.444  26.628  29.185  1.00  0.00     0.057 A 
ATOM     76  C   UNL A   1      48.957  25.950  30.298  1.00  0.00     0.134 A 
ATOM     77  C   UNL A   1      49.291  26.805  28.084  1.00  0.00     0.134 A 
ATOM     78  F   UNL A   1      48.198  25.761  31.388  1.00  0.00    -0.206 F 
ATOM     79  C   UNL A   1      50.267  25.470  30.314  1.00  0.00     0.040 A 
ATOM     80  C   UNL A   1      50.595  26.312  28.081  1.00  0.00     0.040 A 
ATOM     81  F   UNL A   1      48.855  27.441  26.985  1.00  0.00    -0.206 F 
ATOM     82  C   UNL A   1      51.087  25.643  29.200  1.00  0.00     0.006 A 
ENDBRANCH  58  75
ENDBRANCH  32  33
ENDBRANCH  24  27
ENDBRANCH  22  23
ENDBRANCH  21  22
ENDBRANCH  20  21
ENDBRANCH   1  20
TORSDOF 17
ENDMDL
MODEL 2
REMARK VINA RESULT:     -10.0      4.274      8.394
REMARK SMILES COCCN(CC(=O)NCCCCNC(=O)c1ccc(-c2c3nc(c(-c4c(F)cccc4F)c4ccc([nH]4)c(-c4c(F)cccc4F)c4nc(c(-c5c(F)cccc5F)c5ccc2[nH]5)C=C4)C=C3)cc1)C(=O)N1CCC[C@@H]1C
REMARK SMILES IDX 10 1 9 2 7 3 8 4 6 6 5 7 4 8 3 9 2 10 1 11 71 12 72 13 73 14
REMARK SMILES IDX 74 15 77 16 75 17 76 18 78 19 11 20 12 21 13 22 14 23 15 24
REMARK SMILES IDX 16 26 17 27 18 28 70 29 19 30 69 31 20 32 21 33 22 34 63 35
REMARK SMILES IDX 23 36 68 37 62 38 64 39 24 40 67 41 61 42 60 43 25 45 51 46
REMARK SMILES IDX 34 47 50 48 35 49 38 50 49 51 65 52 36 53 37 54 48 56 66 57
REMARK SMILES IDX 39 58 26 59 27 60 32 61 28 62 29 63 31 64 33 65 30 66 52 67
REMARK SMILES IDX 53 68 58 69 54 70 55 71 57 72 59 73 56 74 40 75 41 76 46 77
REMARK SMILES IDX 42 78 43 79 45 80 47 81 44 82
REMARK H PARENT 9 5 14 25 64 44 38 55
REMARK Flexibility Score: inf
ROOT
ATOM      1  C   UNL A   1      31.944  29.748  25.234  1.00  0.00     0.116 C 
ENDROOT
BRANCH   1   2
ATOM      2  N   UNL A   1      33.141  29.433  24.488  1.00  0.00    -0.355 N 
ATOM      3  C   UNL A   1      33.284  28.784  23.299  1.00  0.00     0.239 C 
ATOM      4  O   UNL A   1      34.338  28.999  22.686  1.00  0.00    -0.273 OA
ATOM      5  H   UNL A   1      33.982  29.734  24.903  1.00  0.00     0.163 HD
BRANCH   3   6
ATOM      6  C   UNL A   1      32.162  27.956  22.639  1.00  0.00     0.221 C 
BRANCH   6   7
ATOM      7  N   UNL A   1      32.064  26.532  22.971  1.00  0.00    -0.313 N 
BRANCH   7   8
ATOM      8  C   UNL A   1      30.713  26.015  23.277  1.00  0.00     0.150 C 
BRANCH   8   9
ATOM      9  C   UNL A   1      30.160  26.406  24.660  1.00  0.00     0.181 C 
BRANCH   9  10
ATOM     10  O   UNL A   1      30.731  25.622  25.703  1.00  0.00    -0.383 OA
ATOM     11  C   UNL A   1      31.657  26.337  26.506  1.00  0.00     0.194 C 
ENDBRANCH   9  10
ENDBRANCH   8   9
ENDBRANCH   7   8
BRANCH   7  12
ATOM     12  C   UNL A   1      33.057  25.584  22.770  1.00  0.00     0.320 C 
ATOM     13  O   UNL A   1      33.772  25.613  21.764  1.00  0.00    -0.248 OA
BRANCH  12  14
ATOM     14  N   UNL A   1      33.353  24.689  23.767  1.00  0.00    -0.322 N 
ATOM     15  C   UNL A   1      34.626  24.820  24.450  1.00  0.00     0.122 C 
ATOM     16  C   UNL A   1      32.821  23.339  23.980  1.00  0.00     0.083 C 
ATOM     17  C   UNL A   1      34.482  23.901  25.645  1.00  0.00     0.024 C 
ATOM     18  C   UNL A   1      33.734  22.716  25.054  1.00  0.00     0.027 C 
ATOM     19  C   UNL A   1      32.854  22.493  22.712  1.00  0.00     0.031 C 
ENDBRANCH  12  14
ENDBRANCH   7  12
ENDBRANCH   6   7
ENDBRANCH   3   6
ENDBRANCH   1   2
BRANCH   1  20
ATOM     20  C   UNL A   1      32.198  30.286  26.639  1.00  0.00     0.023 C 
BRANCH  20  21
ATOM     21  C   UNL A   1      31.789  31.736  26.882  1.00  0.00     0.023 C 
BRANCH  21  22
ATOM     22  C   UNL A   1      32.881  32.643  27.419  1.00  0.00     0.116 C 
BRANCH  22  23
ATOM     23  N   UNL A   1      32.442  34.006  27.671  1.00  0.00    -0.352 N 
ATOM     24  C   UNL A   1      32.988  34.917  28.544  1.00  0.00     0.251 C 
ATOM     25  H   UNL A   1      31.660  34.313  27.156  1.00  0.00     0.163 HD
ATOM     26  O   UNL A   1      32.474  36.019  28.712  1.00  0.00    -0.269 OA
BRANCH  24  27
ATOM     27  C   UNL A   1      34.185  34.527  29.313  1.00  0.00     0.039 A 
ATOM     28  C   UNL A   1      34.021  33.896  30.549  1.00  0.00     0.014 A 
ATOM     29  C   UNL A   1      35.459  34.712  28.770  1.00  0.00     0.014 A 
ATOM     30  C   UNL A   1      35.137  33.381  31.211  1.00  0.00     0.010 A 
ATOM     31  C   UNL A   1      36.556  34.135  29.394  1.00  0.00     0.010 A 
ATOM     32  C   UNL A   1      36.406  33.465  30.619  1.00  0.00    -0.014 A 
BRANCH  32  33
ATOM     33  C   UNL A   1      37.614  32.889  31.258  1.00  0.00     0.031 A 
ATOM     34  C   UNL A   1      38.286  31.708  30.620  1.00  0.00     0.074 A 
ATOM     35  C   UNL A   1      38.032  33.347  32.452  1.00  0.00     0.049 A 
ATOM     36  N   UNL A   1      39.223  30.930  31.095  1.00  0.00    -0.248 NA
ATOM     37  C   UNL A   1      37.808  31.330  29.280  1.00  0.00     0.031 C 
ATOM     38  C   UNL A   1      37.450  34.472  33.184  1.00  0.00     0.029 A 
ATOM     39  N   UNL A   1      39.038  32.901  33.272  1.00  0.00    -0.354 N 
ATOM     40  C   UNL A   1      39.414  29.946  30.134  1.00  0.00     0.074 A 
ATOM     41  C   UNL A   1      38.473  30.205  29.066  1.00  0.00     0.031 C 
ATOM     42  C   UNL A   1      38.120  34.639  34.337  1.00  0.00     0.029 A 
ATOM     43  C   UNL A   1      39.144  33.604  34.447  1.00  0.00     0.049 A 
ATOM     44  H   UNL A   1      39.628  32.147  33.041  1.00  0.00     0.167 HD
ATOM     45  C   UNL A   1      40.302  28.924  30.138  1.00  0.00     0.037 A 
ATOM     46  C   UNL A   1      39.965  33.424  35.497  1.00  0.00     0.037 A 
ATOM     47  C   UNL A   1      41.268  28.702  31.179  1.00  0.00     0.049 A 
ATOM     48  C   UNL A   1      40.948  32.287  35.478  1.00  0.00     0.074 A 
ATOM     49  C   UNL A   1      42.261  27.740  31.243  1.00  0.00     0.029 A 
ATOM     50  N   UNL A   1      41.363  29.457  32.339  1.00  0.00    -0.354 N 
ATOM     51  N   UNL A   1      41.148  31.385  34.548  1.00  0.00    -0.248 NA
ATOM     52  C   UNL A   1      41.816  32.139  36.655  1.00  0.00     0.031 C 
ATOM     53  C   UNL A   1      42.938  27.895  32.458  1.00  0.00     0.029 A 
ATOM     54  C   UNL A   1      42.389  28.975  33.131  1.00  0.00     0.049 A 
ATOM     55  H   UNL A   1      40.787  30.223  32.563  1.00  0.00     0.167 HD
ATOM     56  C   UNL A   1      42.188  30.587  35.008  1.00  0.00     0.074 A 
ATOM     57  C   UNL A   1      42.572  31.107  36.305  1.00  0.00     0.031 C 
ATOM     58  C   UNL A   1      42.774  29.524  34.407  1.00  0.00     0.037 A 
BRANCH  45  59
ATOM     59  C   UNL A   1      40.255  27.972  28.980  1.00  0.00     0.057 A 
ATOM     60  C   UNL A   1      39.501  26.793  29.019  1.00  0.00     0.134 A 
ATOM     61  C   UNL A   1      40.980  28.238  27.812  1.00  0.00     0.134 A 
ATOM     62  F   UNL A   1      38.797  26.471  30.115  1.00  0.00    -0.206 F 
ATOM     63  C   UNL A   1      39.498  25.893  27.952  1.00  0.00     0.040 A 
ATOM     64  C   UNL A   1      40.963  27.360  26.727  1.00  0.00     0.040 A 
ATOM     65  F   UNL A   1      41.720  29.352  27.707  1.00  0.00    -0.206 F 
ATOM     66  C   UNL A   1      40.228  26.178  26.800  1.00  0.00     0.006 A 
ENDBRANCH  45  59
BRANCH  46  67
ATOM     67  C   UNL A   1      39.916  34.364  36.643  1.00  0.00     0.057 A 
ATOM     68  C   UNL A   1      40.649  35.557  36.617  1.00  0.00     0.134 A 
ATOM     69  C   UNL A   1      39.134  34.111  37.775  1.00  0.00     0.134 A 
ATOM     70  F   UNL A   1      41.430  35.845  35.565  1.00  0.00    -0.206 F 
ATOM     71  C   UNL A   1      40.612  36.461  37.680  1.00  0.00     0.040 A 
ATOM     72  C   UNL A   1      39.074  35.015  38.837  1.00  0.00     0.040 A 
ATOM     73  F   UNL A   1      38.405  32.988  37.857  1.00  0.00    -0.206 F 
ATOM     74  C   UNL A   1      39.817  36.192  38.793  1.00  0.00     0.006 A 
ENDBRANCH  46  67
BRANCH  58  75
ATOM     75  C   UNL A   1      43.932  28.884  35.110  1.00  0.00     0.057 A 
ATOM     76  C   UNL A   1      43.761  27.809  35.990  1.00  0.00     0.134 A 
ATOM     77  C   UNL A   1      45.241  29.306  34.844  1.00  0.00     0.134 A 
ATOM     78  F   UNL A   1      42.532  27.368  36.295  1.00  0.00    -0.206 F 
ATOM     79  C   UNL A   1      44.855  27.178  36.586  1.00  0.00     0.040 A 
ATOM     80  C   UNL A   1      46.342  28.671  35.417  1.00  0.00     0.040 A 
ATOM     81  F   UNL A   1      45.469  30.328  34.004  1.00  0.00    -0.206 F 
ATOM     82  C   UNL A   1      46.150  27.604  36.292  1.00  0.00     0.006 A 
ENDBRANCH  58  75
ENDBRANCH  32  33
ENDBRANCH  24  27
ENDBRANCH  22  23
ENDBRANCH  21  22
ENDBRANCH  20  21
ENDBRANCH   1  20
TORSDOF 17
ENDMDL
MODEL 3
REMARK VINA RESULT:      -9.9      2.949      7.385
REMARK SMILES COCCN(CC(=O)NCCCCNC(=O)c1ccc(-c2c3nc(c(-c4c(F)cccc4F)c4ccc([nH]4)c(-c4c(F)cccc4F)c4nc(c(-c5c(F)cccc5F)c5ccc2[nH]5)C=C4)C=C3)cc1)C(=O)N1CCC[C@@H]1C
REMARK SMILES IDX 10 1 9 2 7 3 8 4 6 6 5 7 4 8 3 9 2 10 1 11 71 12 72 13 73 14
REMARK SMILES IDX 74 15 77 16 75 17 76 18 78 19 11 20 12 21 13 22 14 23 15 24
REMARK SMILES IDX 16 26 17 27 18 28 70 29 19 30 69 31 20 32 21 33 22 34 63 35
REMARK SMILES IDX 23 36 68 37 62 38 64 39 24 40 67 41 61 42 60 43 25 45 51 46
REMARK SMILES IDX 34 47 50 48 35 49 38 50 49 51 65 52 36 53 37 54 48 56 66 57
REMARK SMILES IDX 39 58 26 59 27 60 32 61 28 62 29 63 31 64 33 65 30 66 52 67
REMARK SMILES IDX 53 68 58 69 54 70 55 71 57 72 59 73 56 74 40 75 41 76 46 77
REMARK SMILES IDX 42 78 43 79 45 80 47 81 44 82
REMARK H PARENT 9 5 14 25 64 44 38 55
REMARK Flexibility Score: inf
ROOT
ATOM      1  C   UNL A   1      32.270  27.970  26.701  1.00  0.00     0.116 C 
ENDROOT
BRANCH   1   2
ATOM      2  N   UNL A   1      33.028  28.186  25.491  1.00  0.00    -0.355 N 
ATOM      3  C   UNL A   1      33.620  27.286  24.657  1.00  0.00     0.239 C 
ATOM      4  O   UNL A   1      33.844  27.678  23.505  1.00  0.00    -0.273 OA
ATOM      5  H   UNL A   1      33.132  29.129  25.227  1.00  0.00     0.163 HD
BRANCH   3   6
ATOM      6  C   UNL A   1      33.861  25.809  25.031  1.00  0.00     0.221 C 
BRANCH   6   7
ATOM      7  N   UNL A   1      33.342  24.773  24.134  1.00  0.00    -0.313 N 
BRANCH   7   8
ATOM      8  C   UNL A   1      31.897  24.830  23.824  1.00  0.00     0.150 C 
BRANCH   8   9
ATOM      9  C   UNL A   1      31.034  23.767  24.530  1.00  0.00     0.181 C 
BRANCH   9  10
ATOM     10  O   UNL A   1      31.366  23.640  25.909  1.00  0.00    -0.383 OA
ATOM     11  C   UNL A   1      30.465  22.819  26.635  1.00  0.00     0.194 C 
ENDBRANCH   9  10
ENDBRANCH   8   9
ENDBRANCH   7   8
BRANCH   7  12
ATOM     12  C   UNL A   1      34.107  23.921  23.351  1.00  0.00     0.320 C 
ATOM     13  O   UNL A   1      34.103  24.010  22.121  1.00  0.00    -0.248 OA
BRANCH  12  14
ATOM     14  N   UNL A   1      34.997  23.065  23.951  1.00  0.00    -0.322 N 
ATOM     15  C   UNL A   1      36.277  22.844  23.306  1.00  0.00     0.122 C 
ATOM     16  C   UNL A   1      34.731  21.975  24.894  1.00  0.00     0.083 C 
ATOM     17  C   UNL A   1      37.086  22.120  24.362  1.00  0.00     0.024 C 
ATOM     18  C   UNL A   1      36.054  21.187  24.976  1.00  0.00     0.027 C 
ATOM     19  C   UNL A   1      33.607  21.058  24.424  1.00  0.00     0.031 C 
ENDBRANCH  12  14
ENDBRANCH   7  12
ENDBRANCH   6   7
ENDBRANCH   3   6
ENDBRANCH   1   2
BRANCH   1  20
ATOM     20  C   UNL A   1      31.716  29.241  27.337  1.00  0.00     0.023 C 
BRANCH  20  21
ATOM     21  C   UNL A   1      31.886  30.522  26.524  1.00  0.00     0.023 C 
BRANCH  21  22
ATOM     22  C   UNL A   1      32.955  31.477  27.024  1.00  0.00     0.116 C 
BRANCH  22  23
ATOM     23  N   UNL A   1      32.444  32.785  27.402  1.00  0.00    -0.352 N 
ATOM     24  C   UNL A   1      33.049  33.725  28.202  1.00  0.00     0.251 C 
ATOM     25  H   UNL A   1      31.559  33.026  27.041  1.00  0.00     0.163 HD
ATOM     26  O   UNL A   1      32.474  34.767  28.500  1.00  0.00    -0.269 OA
BRANCH  24  27
ATOM     27  C   UNL A   1      34.393  33.434  28.738  1.00  0.00     0.039 A 
ATOM     28  C   UNL A   1      34.508  32.705  29.924  1.00  0.00     0.014 A 
ATOM     29  C   UNL A   1      35.530  33.814  28.020  1.00  0.00     0.014 A 
ATOM     30  C   UNL A   1      35.768  32.289  30.356  1.00  0.00     0.010 A 
ATOM     31  C   UNL A   1      36.773  33.337  28.412  1.00  0.00     0.010 A 
ATOM     32  C   UNL A   1      36.905  32.570  29.582  1.00  0.00    -0.014 A 
BRANCH  32  33
ATOM     33  C   UNL A   1      38.258  32.108  29.971  1.00  0.00     0.031 A 
ATOM     34  C   UNL A   1      38.767  30.802  29.433  1.00  0.00     0.074 A 
ATOM     35  C   UNL A   1      38.972  32.792  30.883  1.00  0.00     0.049 A 
ATOM     36  N   UNL A   1      39.822  30.114  29.784  1.00  0.00    -0.248 NA
ATOM     37  C   UNL A   1      37.953  30.167  28.384  1.00  0.00     0.031 C 
ATOM     38  C   UNL A   1      38.577  34.060  31.497  1.00  0.00     0.029 A 
ATOM     39  N   UNL A   1      40.177  32.499  31.471  1.00  0.00    -0.354 N 
ATOM     40  C   UNL A   1      39.774  28.947  29.034  1.00  0.00     0.074 A 
ATOM     41  C   UNL A   1      38.569  29.004  28.234  1.00  0.00     0.031 C 
ATOM     42  C   UNL A   1      39.530  34.445  32.362  1.00  0.00     0.029 A 
ATOM     43  C   UNL A   1      40.577  33.428  32.399  1.00  0.00     0.049 A 
ATOM     44  H   UNL A   1      40.704  31.697  31.249  1.00  0.00     0.167 HD
ATOM     45  C   UNL A   1      40.661  27.925  29.006  1.00  0.00     0.037 A 
ATOM     46  C   UNL A   1      41.660  33.448  33.199  1.00  0.00     0.037 A 
ATOM     47  C   UNL A   1      41.880  27.897  29.766  1.00  0.00     0.049 A 
ATOM     48  C   UNL A   1      42.635  32.305  33.147  1.00  0.00     0.074 A 
ATOM     49  C   UNL A   1      42.883  26.943  29.754  1.00  0.00     0.029 A 
ATOM     50  N   UNL A   1      42.265  28.874  30.673  1.00  0.00    -0.354 N 
ATOM     51  N   UNL A   1      42.602  31.224  32.407  1.00  0.00    -0.248 NA
ATOM     52  C   UNL A   1      43.796  32.382  34.047  1.00  0.00     0.031 C 
ATOM     53  C   UNL A   1      43.860  27.329  30.678  1.00  0.00     0.029 A 
ATOM     54  C   UNL A   1      43.483  28.540  31.236  1.00  0.00     0.049 A 
ATOM     55  H   UNL A   1      41.748  29.685  30.882  1.00  0.00     0.167 HD
ATOM     56  C   UNL A   1      43.752  30.511  32.720  1.00  0.00     0.074 A 
ATOM     57  C   UNL A   1      44.459  31.279  33.725  1.00  0.00     0.031 C 
ATOM     58  C   UNL A   1      44.185  29.331  32.216  1.00  0.00     0.037 A 
BRANCH  45  59
ATOM     59  C   UNL A   1      40.329  26.755  28.129  1.00  0.00     0.057 A 
ATOM     60  C   UNL A   1      40.893  26.598  26.856  1.00  0.00     0.134 A 
ATOM     61  C   UNL A   1      39.430  25.773  28.563  1.00  0.00     0.134 A 
ATOM     62  F   UNL A   1      41.749  27.511  26.373  1.00  0.00    -0.206 F 
ATOM     63  C   UNL A   1      40.545  25.527  26.031  1.00  0.00     0.040 A 
ATOM     64  C   UNL A   1      39.095  24.683  27.759  1.00  0.00     0.040 A 
ATOM     65  F   UNL A   1      38.857  25.860  29.773  1.00  0.00    -0.206 F 
ATOM     66  C   UNL A   1      39.646  24.564  26.484  1.00  0.00     0.006 A 
ENDBRANCH  45  59
BRANCH  46  67
ATOM     67  C   UNL A   1      41.896  34.607  34.093  1.00  0.00     0.057 A 
ATOM     68  C   UNL A   1      42.582  35.736  33.630  1.00  0.00     0.134 A 
ATOM     69  C   UNL A   1      41.436  34.628  35.415  1.00  0.00     0.134 A 
ATOM     70  F   UNL A   1      43.061  35.765  32.378  1.00  0.00    -0.206 F 
ATOM     71  C   UNL A   1      42.810  36.842  34.451  1.00  0.00     0.040 A 
ATOM     72  C   UNL A   1      41.640  35.734  36.241  1.00  0.00     0.040 A 
ATOM     73  F   UNL A   1      40.767  33.578  35.915  1.00  0.00    -0.206 F 
ATOM     74  C   UNL A   1      42.332  36.844  35.760  1.00  0.00     0.006 A 
ENDBRANCH  46  67
BRANCH  58  75
ATOM     75  C   UNL A   1      45.510  28.820  32.692  1.00  0.00     0.057 A 
ATOM     76  C   UNL A   1      45.618  27.942  33.777  1.00  0.00     0.134 A 
ATOM     77  C   UNL A   1      46.685  29.156  32.006  1.00  0.00     0.134 A 
ATOM     78  F   UNL A   1      44.531  27.593  34.481  1.00  0.00    -0.206 F 
ATOM     79  C   UNL A   1      46.852  27.421  34.168  1.00  0.00     0.040 A 
ATOM     80  C   UNL A   1      47.920  28.626  32.375  1.00  0.00     0.040 A 
ATOM     81  F   UNL A   1      46.644  29.988  30.954  1.00  0.00    -0.206 F 
ATOM     82  C   UNL A   1      48.006  27.756  33.460  1.00  0.00     0.006 A 
ENDBRANCH  58  75
ENDBRANCH  32  33
ENDBRANCH  24  27
ENDBRANCH  22  23
ENDBRANCH  21  22
ENDBRANCH  20  21
ENDBRANCH   1  20
TORSDOF 17
ENDMDL
