MODEL 1
REMARK VINA RESULT:     -11.4      0.000      0.000
REMARK SMILES C[C@]([NH2+]Cc1noc(C2CC2)n1)(C(=O)NCCCCNC(=O)c1ccc(-c2c3nc(c(-c4c(F)cccc4F)c4ccc([nH]4)c(-c4c(F)cccc4F)c4nc(c(-c5c(F)cccc5F)c5ccc2[nH]5)C=C4)C=C3)cc1)C(F)(F)F
REMARK SMILES IDX 16 1 15 2 13 3 14 4 2 6 1 7 77 8 78 9 79 10 80 11 3 12 4 15
REMARK SMILES IDX 5 16 6 17 12 18 7 19 8 20 9 21 10 22 11 23 17 24 18 25 19 26
REMARK SMILES IDX 20 27 21 28 22 30 23 31 24 32 76 33 25 34 75 35 26 36 27 37
REMARK SMILES IDX 28 38 69 39 29 40 74 41 68 42 70 43 30 44 73 45 67 46 66 47
REMARK SMILES IDX 31 49 57 50 40 51 56 52 41 53 44 54 55 55 71 56 42 57 43 58
REMARK SMILES IDX 54 60 72 61 45 62 32 63 33 64 38 65 34 66 35 67 37 68 39 69
REMARK SMILES IDX 36 70 58 71 59 72 64 73 60 74 61 75 63 76 65 77 62 78 46 79
REMARK SMILES IDX 47 80 52 81 48 82 49 83 51 84 53 85 50 86
REMARK H PARENT 15 5 3 13 3 14 20 29 70 48 44 59
REMARK Flexibility Score: inf
ROOT
ATOM      1  C   UNL A   1      31.446  29.899  25.346  1.00  0.00     0.116 C 
ENDROOT
BRANCH   1   2
ATOM      2  N   UNL A   1      32.618  29.703  24.506  1.00  0.00    -0.350 N 
ATOM      3  C   UNL A   1      33.291  28.579  24.097  1.00  0.00     0.290 C 
ATOM      4  O   UNL A   1      34.246  28.778  23.342  1.00  0.00    -0.267 OA
ATOM      5  H   UNL A   1      33.004  30.542  24.164  1.00  0.00     0.163 HD
BRANCH   3   6
ATOM      6  C   UNL A   1      32.847  27.166  24.550  1.00  0.00     0.268 C 
ATOM      7  C   UNL A   1      33.545  26.123  23.651  1.00  0.00     0.101 C 
BRANCH   6   8
ATOM      8  C   UNL A   1      33.415  26.963  25.987  1.00  0.00     0.453 C 
ATOM      9  F   UNL A   1      34.195  27.983  26.405  1.00  0.00    -0.164 F 
ATOM     10  F   UNL A   1      32.386  26.875  26.878  1.00  0.00    -0.164 F 
ATOM     11  F   UNL A   1      34.113  25.810  26.113  1.00  0.00    -0.164 F 
ENDBRANCH   6   8
BRANCH   6  12
ATOM     12  N   UNL A   1      31.348  27.140  24.534  1.00  0.00    -0.320 N 
ATOM     13  H   UNL A   1      31.022  28.073  24.784  1.00  0.00     0.347 HD
ATOM     14  H   UNL A   1      31.091  26.404  25.192  1.00  0.00     0.347 HD
BRANCH  12  15
ATOM     15  C   UNL A   1      30.702  26.768  23.275  1.00  0.00     0.344 C 
BRANCH  15  16
ATOM     16  C   UNL A   1      29.491  27.628  23.045  1.00  0.00     0.226 A 
ATOM     17  N   UNL A   1      28.275  27.286  23.501  1.00  0.00    -0.056 NA
ATOM     18  N   UNL A   1      29.557  28.866  22.459  1.00  0.00    -0.190 NA
ATOM     19  O   UNL A   1      27.485  28.377  23.144  1.00  0.00    -0.339 OA
ATOM     20  C   UNL A   1      28.312  29.286  22.544  1.00  0.00     0.229 A 
BRANCH  20  21
ATOM     21  C   UNL A   1      27.821  30.650  22.083  1.00  0.00     0.079 C 
ATOM     22  C   UNL A   1      27.666  31.739  23.128  1.00  0.00     0.014 C 
ATOM     23  C   UNL A   1      28.759  31.838  22.120  1.00  0.00     0.014 C 
ENDBRANCH  20  21
ENDBRANCH  15  16
ENDBRANCH  12  15
ENDBRANCH   6  12
ENDBRANCH   3   6
ENDBRANCH   1   2
BRANCH   1  24
ATOM     24  C   UNL A   1      31.807  30.482  26.710  1.00  0.00     0.023 C 
BRANCH  24  25
ATOM     25  C   UNL A   1      31.569  31.985  26.855  1.00  0.00     0.023 C 
BRANCH  25  26
ATOM     26  C   UNL A   1      32.791  32.806  27.251  1.00  0.00     0.116 C 
BRANCH  26  27
ATOM     27  N   UNL A   1      32.466  34.172  27.630  1.00  0.00    -0.352 N 
ATOM     28  C   UNL A   1      33.027  34.962  28.605  1.00  0.00     0.251 C 
ATOM     29  H   UNL A   1      31.739  34.592  27.115  1.00  0.00     0.163 HD
ATOM     30  O   UNL A   1      32.539  36.057  28.867  1.00  0.00    -0.269 OA
BRANCH  28  31
ATOM     31  C   UNL A   1      34.199  34.475  29.364  1.00  0.00     0.039 A 
ATOM     32  C   UNL A   1      34.000  33.932  30.635  1.00  0.00     0.014 A 
ATOM     33  C   UNL A   1      35.484  34.532  28.816  1.00  0.00     0.014 A 
ATOM     34  C   UNL A   1      35.079  33.379  31.327  1.00  0.00     0.010 A 
ATOM     35  C   UNL A   1      36.542  33.911  29.472  1.00  0.00     0.010 A 
ATOM     36  C   UNL A   1      36.351  33.325  30.732  1.00  0.00    -0.014 A 
BRANCH  36  37
ATOM     37  C   UNL A   1      37.490  32.654  31.409  1.00  0.00     0.031 A 
ATOM     38  C   UNL A   1      38.185  31.493  30.752  1.00  0.00     0.074 A 
ATOM     39  C   UNL A   1      37.856  33.045  32.645  1.00  0.00     0.049 A 
ATOM     40  N   UNL A   1      39.147  30.735  31.214  1.00  0.00    -0.248 NA
ATOM     41  C   UNL A   1      37.718  31.117  29.408  1.00  0.00     0.031 C 
ATOM     42  C   UNL A   1      37.231  34.126  33.412  1.00  0.00     0.029 A 
ATOM     43  N   UNL A   1      38.836  32.571  33.482  1.00  0.00    -0.354 N 
ATOM     44  C   UNL A   1      39.389  29.788  30.227  1.00  0.00     0.074 A 
ATOM     45  C   UNL A   1      38.437  30.032  29.165  1.00  0.00     0.031 C 
ATOM     46  C   UNL A   1      37.856  34.245  34.594  1.00  0.00     0.029 A 
ATOM     47  C   UNL A   1      38.897  33.227  34.688  1.00  0.00     0.049 A 
ATOM     48  H   UNL A   1      39.437  31.830  33.240  1.00  0.00     0.167 HD
ATOM     49  C   UNL A   1      40.334  28.819  30.198  1.00  0.00     0.037 A 
ATOM     50  C   UNL A   1      39.696  33.024  35.753  1.00  0.00     0.037 A 
ATOM     51  C   UNL A   1      41.293  28.591  31.247  1.00  0.00     0.049 A 
ATOM     52  C   UNL A   1      40.730  31.933  35.699  1.00  0.00     0.074 A 
ATOM     53  C   UNL A   1      42.328  27.672  31.285  1.00  0.00     0.029 A 
ATOM     54  N   UNL A   1      41.335  29.288  32.446  1.00  0.00    -0.354 N 
ATOM     55  N   UNL A   1      40.995  31.092  34.730  1.00  0.00    -0.248 NA
ATOM     56  C   UNL A   1      41.582  31.769  36.886  1.00  0.00     0.031 C 
ATOM     57  C   UNL A   1      42.965  27.781  32.524  1.00  0.00     0.029 A 
ATOM     58  C   UNL A   1      42.362  28.804  33.238  1.00  0.00     0.049 A 
ATOM     59  H   UNL A   1      40.724  30.019  32.695  1.00  0.00     0.167 HD
ATOM     60  C   UNL A   1      42.059  30.319  35.176  1.00  0.00     0.074 A 
ATOM     61  C   UNL A   1      42.402  30.802  36.497  1.00  0.00     0.031 C 
ATOM     62  C   UNL A   1      42.697  29.301  34.548  1.00  0.00     0.037 A 
BRANCH  49  63
ATOM     63  C   UNL A   1      40.378  27.931  28.988  1.00  0.00     0.057 A 
ATOM     64  C   UNL A   1      39.641  26.741  28.918  1.00  0.00     0.134 A 
ATOM     65  C   UNL A   1      41.136  28.286  27.866  1.00  0.00     0.134 A 
ATOM     66  F   UNL A   1      38.902  26.336  29.962  1.00  0.00    -0.206 F 
ATOM     67  C   UNL A   1      39.677  25.924  27.787  1.00  0.00     0.040 A 
ATOM     68  C   UNL A   1      41.159  27.492  26.718  1.00  0.00     0.040 A 
ATOM     69  F   UNL A   1      41.861  29.415  27.862  1.00  0.00    -0.206 F 
ATOM     70  C   UNL A   1      40.432  26.303  26.679  1.00  0.00     0.006 A 
ENDBRANCH  49  63
BRANCH  50  71
ATOM     71  C   UNL A   1      39.566  33.884  36.956  1.00  0.00     0.057 A 
ATOM     72  C   UNL A   1      38.735  33.516  38.021  1.00  0.00     0.134 A 
ATOM     73  C   UNL A   1      40.254  35.098  37.067  1.00  0.00     0.134 A 
ATOM     74  F   UNL A   1      38.035  32.373  37.966  1.00  0.00    -0.206 F 
ATOM     75  C   UNL A   1      38.575  34.333  39.141  1.00  0.00     0.040 A 
ATOM     76  C   UNL A   1      40.125  35.913  38.193  1.00  0.00     0.040 A 
ATOM     77  F   UNL A   1      41.073  35.506  36.085  1.00  0.00    -0.206 F 
ATOM     78  C   UNL A   1      39.276  35.534  39.231  1.00  0.00     0.006 A 
ENDBRANCH  50  71
BRANCH  62  79
ATOM     79  C   UNL A   1      43.854  28.667  35.264  1.00  0.00     0.057 A 
ATOM     80  C   UNL A   1      43.689  27.559  36.104  1.00  0.00     0.134 A 
ATOM     81  C   UNL A   1      45.156  29.151  35.079  1.00  0.00     0.134 A 
ATOM     82  F   UNL A   1      42.467  27.055  36.334  1.00  0.00    -0.206 F 
ATOM     83  C   UNL A   1      44.775  26.968  36.752  1.00  0.00     0.040 A 
ATOM     84  C   UNL A   1      46.252  28.551  35.699  1.00  0.00     0.040 A 
ATOM     85  F   UNL A   1      45.384  30.204  34.281  1.00  0.00    -0.206 F 
ATOM     86  C   UNL A   1      46.062  27.460  36.544  1.00  0.00     0.006 A 
ENDBRANCH  62  79
ENDBRANCH  36  37
ENDBRANCH  28  31
ENDBRANCH  26  27
ENDBRANCH  25  26
ENDBRANCH  24  25
ENDBRANCH   1  24
TORSDOF 16
ENDMDL
MODEL 2
REMARK VINA RESULT:     -11.4      1.197      6.498
REMARK SMILES C[C@]([NH2+]Cc1noc(C2CC2)n1)(C(=O)NCCCCNC(=O)c1ccc(-c2c3nc(c(-c4c(F)cccc4F)c4ccc([nH]4)c(-c4c(F)cccc4F)c4nc(c(-c5c(F)cccc5F)c5ccc2[nH]5)C=C4)C=C3)cc1)C(F)(F)F
REMARK SMILES IDX 16 1 15 2 13 3 14 4 2 6 1 7 77 8 78 9 79 10 80 11 3 12 4 15
REMARK SMILES IDX 5 16 6 17 12 18 7 19 8 20 9 21 10 22 11 23 17 24 18 25 19 26
REMARK SMILES IDX 20 27 21 28 22 30 23 31 24 32 76 33 25 34 75 35 26 36 27 37
REMARK SMILES IDX 28 38 69 39 29 40 74 41 68 42 70 43 30 44 73 45 67 46 66 47
REMARK SMILES IDX 31 49 57 50 40 51 56 52 41 53 44 54 55 55 71 56 42 57 43 58
REMARK SMILES IDX 54 60 72 61 45 62 32 63 33 64 38 65 34 66 35 67 37 68 39 69
REMARK SMILES IDX 36 70 58 71 59 72 64 73 60 74 61 75 63 76 65 77 62 78 46 79
REMARK SMILES IDX 47 80 52 81 48 82 49 83 51 84 53 85 50 86
REMARK H PARENT 15 5 3 13 3 14 20 29 70 48 44 59
REMARK Flexibility Score: inf
ROOT
ATOM      1  C   UNL A   1      32.005  29.968  25.748  1.00  0.00     0.116 C 
ENDROOT
BRANCH   1   2
ATOM      2  N   UNL A   1      32.924  29.697  24.654  1.00  0.00    -0.350 N 
ATOM      3  C   UNL A   1      33.345  28.533  24.061  1.00  0.00     0.290 C 
ATOM      4  O   UNL A   1      34.122  28.671  23.114  1.00  0.00    -0.267 OA
ATOM      5  H   UNL A   1      33.322  30.507  24.262  1.00  0.00     0.163 HD
BRANCH   3   6
ATOM      6  C   UNL A   1      32.847  27.152  24.556  1.00  0.00     0.268 C 
ATOM      7  C   UNL A   1      33.337  26.073  23.566  1.00  0.00     0.101 C 
BRANCH   6   8
ATOM      8  C   UNL A   1      33.573  26.876  25.907  1.00  0.00     0.453 C 
ATOM      9  F   UNL A   1      34.176  25.669  25.955  1.00  0.00    -0.164 F 
ATOM     10  F   UNL A   1      34.555  27.805  26.096  1.00  0.00    -0.164 F 
ATOM     11  F   UNL A   1      32.749  26.987  26.974  1.00  0.00    -0.164 F 
ENDBRANCH   6   8
BRANCH   6  12
ATOM     12  N   UNL A   1      31.361  27.248  24.731  1.00  0.00    -0.320 N 
ATOM     13  H   UNL A   1      31.145  28.205  25.009  1.00  0.00     0.347 HD
ATOM     14  H   UNL A   1      31.131  26.536  25.424  1.00  0.00     0.347 HD
BRANCH  12  15
ATOM     15  C   UNL A   1      30.532  26.928  23.568  1.00  0.00     0.344 C 
BRANCH  15  16
ATOM     16  C   UNL A   1      30.086  28.194  22.891  1.00  0.00     0.226 A 
ATOM     17  N   UNL A   1      30.717  28.690  21.815  1.00  0.00    -0.056 NA
ATOM     18  N   UNL A   1      28.945  28.867  23.248  1.00  0.00    -0.190 NA
ATOM     19  O   UNL A   1      29.942  29.796  21.474  1.00  0.00    -0.339 OA
ATOM     20  C   UNL A   1      28.897  29.834  22.356  1.00  0.00     0.229 A 
BRANCH  20  21
ATOM     21  C   UNL A   1      27.785  30.868  22.252  1.00  0.00     0.079 C 
ATOM     22  C   UNL A   1      27.877  32.100  23.132  1.00  0.00     0.014 C 
ATOM     23  C   UNL A   1      28.079  32.231  21.661  1.00  0.00     0.014 C 
ENDBRANCH  20  21
ENDBRANCH  15  16
ENDBRANCH  12  15
ENDBRANCH   6  12
ENDBRANCH   3   6
ENDBRANCH   1   2
BRANCH   1  24
ATOM     24  C   UNL A   1      30.934  30.985  25.360  1.00  0.00     0.023 C 
BRANCH  24  25
ATOM     25  C   UNL A   1      30.963  32.291  26.154  1.00  0.00     0.023 C 
BRANCH  25  26
ATOM     26  C   UNL A   1      32.237  32.541  26.954  1.00  0.00     0.116 C 
BRANCH  26  27
ATOM     27  N   UNL A   1      32.342  33.904  27.453  1.00  0.00    -0.352 N 
ATOM     28  C   UNL A   1      33.269  34.449  28.310  1.00  0.00     0.251 C 
ATOM     29  H   UNL A   1      31.650  34.526  27.132  1.00  0.00     0.163 HD
ATOM     30  O   UNL A   1      33.130  35.597  28.719  1.00  0.00    -0.269 OA
BRANCH  28  31
ATOM     31  C   UNL A   1      34.417  33.637  28.766  1.00  0.00     0.039 A 
ATOM     32  C   UNL A   1      35.704  34.170  28.660  1.00  0.00     0.014 A 
ATOM     33  C   UNL A   1      34.226  32.366  29.316  1.00  0.00     0.014 A 
ATOM     34  C   UNL A   1      36.791  33.461  29.173  1.00  0.00     0.010 A 
ATOM     35  C   UNL A   1      35.299  31.696  29.896  1.00  0.00     0.010 A 
ATOM     36  C   UNL A   1      36.592  32.237  29.834  1.00  0.00    -0.014 A 
BRANCH  36  37
ATOM     37  C   UNL A   1      37.721  31.514  30.473  1.00  0.00     0.031 A 
ATOM     38  C   UNL A   1      38.114  31.823  31.890  1.00  0.00     0.074 A 
ATOM     39  C   UNL A   1      38.436  30.626  29.754  1.00  0.00     0.049 A 
ATOM     40  N   UNL A   1      39.113  31.352  32.594  1.00  0.00    -0.248 NA
ATOM     41  C   UNL A   1      37.293  32.814  32.604  1.00  0.00     0.031 C 
ATOM     42  C   UNL A   1      38.187  30.272  28.354  1.00  0.00     0.029 A 
ATOM     43  N   UNL A   1      39.527  29.867  30.098  1.00  0.00    -0.354 N 
ATOM     44  C   UNL A   1      39.047  31.998  33.822  1.00  0.00     0.074 A 
ATOM     45  C   UNL A   1      37.946  32.933  33.750  1.00  0.00     0.031 C 
ATOM     46  C   UNL A   1      39.084  29.351  27.968  1.00  0.00     0.029 A 
ATOM     47  C   UNL A   1      39.995  29.078  29.075  1.00  0.00     0.049 A 
ATOM     48  H   UNL A   1      39.935  29.886  30.993  1.00  0.00     0.167 HD
ATOM     49  C   UNL A   1      39.820  31.810  34.918  1.00  0.00     0.037 A 
ATOM     50  C   UNL A   1      41.045  28.237  29.030  1.00  0.00     0.037 A 
ATOM     51  C   UNL A   1      40.901  30.865  34.995  1.00  0.00     0.049 A 
ATOM     52  C   UNL A   1      41.894  28.056  30.259  1.00  0.00     0.074 A 
ATOM     53  C   UNL A   1      41.705  30.560  36.081  1.00  0.00     0.029 A 
ATOM     54  N   UNL A   1      41.334  30.071  33.943  1.00  0.00    -0.354 N 
ATOM     55  N   UNL A   1      41.777  28.620  31.436  1.00  0.00    -0.248 NA
ATOM     56  C   UNL A   1      43.019  27.114  30.154  1.00  0.00     0.031 C 
ATOM     57  C   UNL A   1      42.653  29.617  35.672  1.00  0.00     0.029 A 
ATOM     58  C   UNL A   1      42.407  29.295  34.347  1.00  0.00     0.049 A 
ATOM     59  H   UNL A   1      40.936  30.062  33.042  1.00  0.00     0.167 HD
ATOM     60  C   UNL A   1      42.790  28.083  32.219  1.00  0.00     0.074 A 
ATOM     61  C   UNL A   1      43.503  27.136  31.388  1.00  0.00     0.031 C 
ATOM     62  C   UNL A   1      43.102  28.349  33.511  1.00  0.00     0.037 A 
BRANCH  49  63
ATOM     63  C   UNL A   1      39.518  32.647  36.129  1.00  0.00     0.057 A 
ATOM     64  C   UNL A   1      40.148  33.879  36.351  1.00  0.00     0.134 A 
ATOM     65  C   UNL A   1      38.561  32.235  37.064  1.00  0.00     0.134 A 
ATOM     66  F   UNL A   1      41.082  34.328  35.499  1.00  0.00    -0.206 F 
ATOM     67  C   UNL A   1      39.856  34.658  37.471  1.00  0.00     0.040 A 
ATOM     68  C   UNL A   1      38.241  33.017  38.175  1.00  0.00     0.040 A 
ATOM     69  F   UNL A   1      37.916  31.068  36.911  1.00  0.00    -0.206 F 
ATOM     70  C   UNL A   1      38.894  34.230  38.385  1.00  0.00     0.006 A 
ENDBRANCH  49  63
BRANCH  50  71
ATOM     71  C   UNL A   1      41.347  27.484  27.786  1.00  0.00     0.057 A 
ATOM     72  C   UNL A   1      42.172  28.028  26.794  1.00  0.00     0.134 A 
ATOM     73  C   UNL A   1      40.807  26.214  27.549  1.00  0.00     0.134 A 
ATOM     74  F   UNL A   1      42.704  29.249  26.955  1.00  0.00    -0.206 F 
ATOM     75  C   UNL A   1      42.432  27.348  25.604  1.00  0.00     0.040 A 
ATOM     76  C   UNL A   1      41.080  25.510  26.375  1.00  0.00     0.040 A 
ATOM     77  F   UNL A   1      40.014  25.634  28.462  1.00  0.00    -0.206 F 
ATOM     78  C   UNL A   1      41.888  26.081  25.395  1.00  0.00     0.006 A 
ENDBRANCH  50  71
BRANCH  62  79
ATOM     79  C   UNL A   1      44.238  27.578  34.118  1.00  0.00     0.057 A 
ATOM     80  C   UNL A   1      45.549  28.071  34.124  1.00  0.00     0.134 A 
ATOM     81  C   UNL A   1      44.008  26.344  34.739  1.00  0.00     0.134 A 
ATOM     82  F   UNL A   1      45.838  29.242  33.535  1.00  0.00    -0.206 F 
ATOM     83  C   UNL A   1      46.595  27.353  34.705  1.00  0.00     0.040 A 
ATOM     84  C   UNL A   1      45.041  25.630  35.348  1.00  0.00     0.040 A 
ATOM     85  F   UNL A   1      42.775  25.819  34.776  1.00  0.00    -0.206 F 
ATOM     86  C   UNL A   1      46.341  26.132  35.326  1.00  0.00     0.006 A 
ENDBRANCH  62  79
ENDBRANCH  36  37
ENDBRANCH  28  31
ENDBRANCH  26  27
ENDBRANCH  25  26
ENDBRANCH  24  25
ENDBRANCH   1  24
TORSDOF 16
ENDMDL
MODEL 3
REMARK VINA RESULT:     -11.3      6.351     11.222
REMARK SMILES C[C@]([NH2+]Cc1noc(C2CC2)n1)(C(=O)NCCCCNC(=O)c1ccc(-c2c3nc(c(-c4c(F)cccc4F)c4ccc([nH]4)c(-c4c(F)cccc4F)c4nc(c(-c5c(F)cccc5F)c5ccc2[nH]5)C=C4)C=C3)cc1)C(F)(F)F
REMARK SMILES IDX 16 1 15 2 13 3 14 4 2 6 1 7 77 8 78 9 79 10 80 11 3 12 4 15
REMARK SMILES IDX 5 16 6 17 12 18 7 19 8 20 9 21 10 22 11 23 17 24 18 25 19 26
REMARK SMILES IDX 20 27 21 28 22 30 23 31 24 32 76 33 25 34 75 35 26 36 27 37
REMARK SMILES IDX 28 38 69 39 29 40 74 41 68 42 70 43 30 44 73 45 67 46 66 47
REMARK SMILES IDX 31 49 57 50 40 51 56 52 41 53 44 54 55 55 71 56 42 57 43 58
REMARK SMILES IDX 54 60 72 61 45 62 32 63 33 64 38 65 34 66 35 67 37 68 39 69
REMARK SMILES IDX 36 70 58 71 59 72 64 73 60 74 61 75 63 76 65 77 62 78 46 79
REMARK SMILES IDX 47 80 52 81 48 82 49 83 51 84 53 85 50 86
REMARK H PARENT 15 5 3 13 3 14 20 29 70 48 44 59
REMARK Flexibility Score: inf
ROOT
ATOM      1  C   UNL A   1      35.640  20.942  25.126  1.00  0.00     0.116 C 
ENDROOT
BRANCH   1   2
ATOM      2  N   UNL A   1      35.218  21.453  26.421  1.00  0.00    -0.350 N 
ATOM      3  C   UNL A   1      34.403  22.495  26.788  1.00  0.00     0.290 C 
ATOM      4  O   UNL A   1      34.229  22.630  28.001  1.00  0.00    -0.267 OA
ATOM      5  H   UNL A   1      35.589  20.953  27.184  1.00  0.00     0.163 HD
BRANCH   3   6
ATOM      6  C   UNL A   1      33.744  23.412  25.728  1.00  0.00     0.268 C 
ATOM      7  C   UNL A   1      32.779  24.378  26.451  1.00  0.00     0.101 C 
BRANCH   6   8
ATOM      8  C   UNL A   1      34.884  24.290  25.130  1.00  0.00     0.453 C 
ATOM      9  F   UNL A   1      35.272  23.897  23.897  1.00  0.00    -0.164 F 
ATOM     10  F   UNL A   1      34.452  25.578  25.006  1.00  0.00    -0.164 F 
ATOM     11  F   UNL A   1      35.976  24.341  25.928  1.00  0.00    -0.164 F 
ENDBRANCH   6   8
BRANCH   6  12
ATOM     12  N   UNL A   1      33.121  22.525  24.692  1.00  0.00    -0.320 N 
ATOM     13  H   UNL A   1      33.855  21.921  24.323  1.00  0.00     0.347 HD
ATOM     14  H   UNL A   1      32.706  23.164  24.013  1.00  0.00     0.347 HD
BRANCH  12  15
ATOM     15  C   UNL A   1      32.019  21.665  25.127  1.00  0.00     0.344 C 
BRANCH  15  16
ATOM     16  C   UNL A   1      32.154  20.303  24.505  1.00  0.00     0.226 A 
ATOM     17  N   UNL A   1      32.164  20.123  23.174  1.00  0.00    -0.056 NA
ATOM     18  N   UNL A   1      32.389  19.168  25.239  1.00  0.00    -0.190 NA
ATOM     19  O   UNL A   1      32.384  18.754  23.041  1.00  0.00    -0.339 OA
ATOM     20  C   UNL A   1      32.525  18.251  24.305  1.00  0.00     0.229 A 
BRANCH  20  21
ATOM     21  C   UNL A   1      32.857  16.789  24.564  1.00  0.00     0.079 C 
ATOM     22  C   UNL A   1      34.073  16.203  23.873  1.00  0.00     0.014 C 
ATOM     23  C   UNL A   1      34.103  16.429  25.346  1.00  0.00     0.014 C 
ENDBRANCH  20  21
ENDBRANCH  15  16
ENDBRANCH  12  15
ENDBRANCH   6  12
ENDBRANCH   3   6
ENDBRANCH   1   2
BRANCH   1  24
ATOM     24  C   UNL A   1      37.109  21.245  24.839  1.00  0.00     0.023 C 
BRANCH  24  25
ATOM     25  C   UNL A   1      38.054  20.051  24.973  1.00  0.00     0.023 C 
BRANCH  25  26
ATOM     26  C   UNL A   1      39.192  20.227  25.973  1.00  0.00     0.116 C 
BRANCH  26  27
ATOM     27  N   UNL A   1      40.171  19.152  25.923  1.00  0.00    -0.352 N 
ATOM     28  C   UNL A   1      41.538  19.211  26.058  1.00  0.00     0.251 C 
ATOM     29  H   UNL A   1      39.802  18.252  25.770  1.00  0.00     0.163 HD
ATOM     30  O   UNL A   1      42.220  18.210  25.865  1.00  0.00    -0.269 OA
BRANCH  28  31
ATOM     31  C   UNL A   1      42.189  20.493  26.402  1.00  0.00     0.039 A 
ATOM     32  C   UNL A   1      42.734  21.268  25.376  1.00  0.00     0.014 A 
ATOM     33  C   UNL A   1      42.241  20.941  27.725  1.00  0.00     0.014 A 
ATOM     34  C   UNL A   1      43.266  22.526  25.667  1.00  0.00     0.010 A 
ATOM     35  C   UNL A   1      42.700  22.224  28.002  1.00  0.00     0.010 A 
ATOM     36  C   UNL A   1      43.214  23.032  26.977  1.00  0.00    -0.014 A 
BRANCH  36  37
ATOM     37  C   UNL A   1      43.685  24.405  27.291  1.00  0.00     0.031 A 
ATOM     38  C   UNL A   1      42.706  25.461  27.725  1.00  0.00     0.074 A 
ATOM     39  C   UNL A   1      44.984  24.721  27.120  1.00  0.00     0.049 A 
ATOM     40  N   UNL A   1      42.913  26.730  27.972  1.00  0.00    -0.248 NA
ATOM     41  C   UNL A   1      41.303  25.042  27.874  1.00  0.00     0.031 C 
ATOM     42  C   UNL A   1      46.026  23.801  26.658  1.00  0.00     0.029 A 
ATOM     43  N   UNL A   1      45.649  25.908  27.305  1.00  0.00    -0.354 N 
ATOM     44  C   UNL A   1      41.669  27.260  28.291  1.00  0.00     0.074 A 
ATOM     45  C   UNL A   1      40.705  26.191  28.153  1.00  0.00     0.031 C 
ATOM     46  C   UNL A   1      47.199  24.451  26.616  1.00  0.00     0.029 A 
ATOM     47  C   UNL A   1      46.989  25.840  27.009  1.00  0.00     0.049 A 
ATOM     48  H   UNL A   1      45.207  26.729  27.619  1.00  0.00     0.167 HD
ATOM     49  C   UNL A   1      41.362  28.519  28.686  1.00  0.00     0.037 A 
ATOM     50  C   UNL A   1      47.940  26.794  27.040  1.00  0.00     0.037 A 
ATOM     51  C   UNL A   1      42.326  29.576  28.843  1.00  0.00     0.049 A 
ATOM     52  C   UNL A   1      47.569  28.186  27.472  1.00  0.00     0.074 A 
ATOM     53  C   UNL A   1      42.122  30.869  29.294  1.00  0.00     0.029 A 
ATOM     54  N   UNL A   1      43.677  29.465  28.550  1.00  0.00    -0.354 N 
ATOM     55  N   UNL A   1      46.403  28.656  27.840  1.00  0.00    -0.248 NA
ATOM     56  C   UNL A   1      48.652  29.181  27.500  1.00  0.00     0.031 C 
ATOM     57  C   UNL A   1      43.340  31.553  29.230  1.00  0.00     0.029 A 
ATOM     58  C   UNL A   1      44.313  30.671  28.789  1.00  0.00     0.049 A 
ATOM     59  H   UNL A   1      44.118  28.648  28.220  1.00  0.00     0.167 HD
ATOM     60  C   UNL A   1      46.614  29.988  28.170  1.00  0.00     0.074 A 
ATOM     61  C   UNL A   1      48.025  30.248  27.974  1.00  0.00     0.031 C 
ATOM     62  C   UNL A   1      45.721  30.913  28.598  1.00  0.00     0.037 A 
BRANCH  49  63
ATOM     63  C   UNL A   1      39.921  28.820  28.980  1.00  0.00     0.057 A 
ATOM     64  C   UNL A   1      39.025  29.202  27.972  1.00  0.00     0.134 A 
ATOM     65  C   UNL A   1      39.412  28.691  30.278  1.00  0.00     0.134 A 
ATOM     66  F   UNL A   1      39.449  29.355  26.708  1.00  0.00    -0.206 F 
ATOM     67  C   UNL A   1      37.684  29.471  28.249  1.00  0.00     0.040 A 
ATOM     68  C   UNL A   1      38.067  28.930  30.563  1.00  0.00     0.040 A 
ATOM     69  F   UNL A   1      40.213  28.323  31.291  1.00  0.00    -0.206 F 
ATOM     70  C   UNL A   1      37.199  29.328  29.547  1.00  0.00     0.006 A 
ENDBRANCH  49  63
BRANCH  50  71
ATOM     71  C   UNL A   1      49.340  26.464  26.671  1.00  0.00     0.057 A 
ATOM     72  C   UNL A   1      49.810  26.664  25.367  1.00  0.00     0.134 A 
ATOM     73  C   UNL A   1      50.236  25.927  27.603  1.00  0.00     0.134 A 
ATOM     74  F   UNL A   1      48.993  27.158  24.425  1.00  0.00    -0.206 F 
ATOM     75  C   UNL A   1      51.111  26.323  24.998  1.00  0.00     0.040 A 
ATOM     76  C   UNL A   1      51.549  25.606  27.255  1.00  0.00     0.040 A 
ATOM     77  F   UNL A   1      49.851  25.717  28.871  1.00  0.00    -0.206 F 
ATOM     78  C   UNL A   1      51.987  25.796  25.946  1.00  0.00     0.006 A 
ENDBRANCH  50  71
BRANCH  62  79
ATOM     79  C   UNL A   1      46.248  32.281  28.921  1.00  0.00     0.057 A 
ATOM     80  C   UNL A   1      46.288  33.305  27.966  1.00  0.00     0.134 A 
ATOM     81  C   UNL A   1      46.685  32.587  30.216  1.00  0.00     0.134 A 
ATOM     82  F   UNL A   1      45.895  33.074  26.704  1.00  0.00    -0.206 F 
ATOM     83  C   UNL A   1      46.765  34.578  28.283  1.00  0.00     0.040 A 
ATOM     84  C   UNL A   1      47.138  33.863  30.551  1.00  0.00     0.040 A 
ATOM     85  F   UNL A   1      46.665  31.654  31.180  1.00  0.00    -0.206 F 
ATOM     86  C   UNL A   1      47.185  34.861  29.581  1.00  0.00     0.006 A 
ENDBRANCH  62  79
ENDBRANCH  36  37
ENDBRANCH  28  31
ENDBRANCH  26  27
ENDBRANCH  25  26
ENDBRANCH  24  25
ENDBRANCH   1  24
TORSDOF 16
ENDMDL
