MODEL 1
REMARK VINA RESULT:      -9.3      0.000      0.000
REMARK SMILES C=CCOc1ccccc1/C=C/c1cc(C(=O)NCCCCNC(=O)c2ccc(-c3c4nc(c(-c5c(F)cccc5F)c5ccc([nH]5)c(-c5c(F)cccc5F)c5nc(c(-c6c(F)cccc6F)c6ccc3[nH]6)C=C5)C=C4)cc2)ncn1
REMARK SMILES IDX 19 1 18 2 16 3 17 4 15 6 13 7 14 8 82 9 81 10 80 11 12 12
REMARK SMILES IDX 11 13 10 14 5 15 6 16 7 17 9 18 8 19 4 20 3 21 2 22 1 23
REMARK SMILES IDX 20 24 21 25 22 26 23 27 24 28 25 30 26 31 27 32 79 33 28 34
REMARK SMILES IDX 78 35 29 36 30 37 31 38 72 39 32 40 77 41 71 42 73 43 33 44
REMARK SMILES IDX 76 45 70 46 69 47 34 49 60 50 43 51 59 52 44 53 47 54 58 55
REMARK SMILES IDX 74 56 45 57 46 58 57 60 75 61 48 62 35 63 36 64 41 65 37 66
REMARK SMILES IDX 38 67 40 68 42 69 39 70 61 71 62 72 67 73 63 74 64 75 66 76
REMARK SMILES IDX 68 77 65 78 49 79 50 80 55 81 51 82 52 83 54 84 56 85 53 86
REMARK H PARENT 18 5 23 29 73 48 47 59
REMARK Flexibility Score: inf
ROOT
ATOM      1  C   UNL A   1      34.081  36.572  33.281  1.00  0.00     0.116 C 
ENDROOT
BRANCH   1   2
ATOM      2  N   UNL A   1      33.496  35.265  33.046  1.00  0.00    -0.351 N 
ATOM      3  C   UNL A   1      33.966  33.984  33.268  1.00  0.00     0.270 C 
ATOM      4  O   UNL A   1      33.202  33.057  32.995  1.00  0.00    -0.268 OA
ATOM      5  H   UNL A   1      32.593  35.297  32.654  1.00  0.00     0.163 HD
BRANCH   3   6
ATOM      6  C   UNL A   1      35.316  33.697  33.863  1.00  0.00     0.132 A 
ATOM      7  C   UNL A   1      37.218  32.376  34.183  1.00  0.00     0.067 A 
ATOM      8  C   UNL A   1      35.886  32.448  33.838  1.00  0.00     0.062 A 
ATOM      9  N   UNL A   1      37.878  33.412  34.727  1.00  0.00    -0.237 NA
ATOM     10  C   UNL A   1      37.191  34.558  34.832  1.00  0.00     0.223 A 
ATOM     11  N   UNL A   1      35.948  34.769  34.388  1.00  0.00    -0.231 NA
BRANCH   7  12
ATOM     12  C   UNL A   1      38.055  31.214  33.836  1.00  0.00     0.029 C 
ATOM     13  C   UNL A   1      39.335  31.122  34.235  1.00  0.00     0.014 C 
BRANCH  13  14
ATOM     14  C   UNL A   1      40.172  29.912  34.225  1.00  0.00     0.017 A 
ATOM     15  C   UNL A   1      41.082  29.696  35.280  1.00  0.00     0.126 A 
ATOM     16  C   UNL A   1      41.939  28.594  35.281  1.00  0.00     0.047 A 
ATOM     17  C   UNL A   1      41.872  27.670  34.241  1.00  0.00     0.004 A 
ATOM     18  C   UNL A   1      40.123  28.979  33.185  1.00  0.00     0.012 A 
ATOM     19  C   UNL A   1      40.964  27.859  33.199  1.00  0.00     0.001 A 
BRANCH  15  20
ATOM     20  O   UNL A   1      41.186  30.603  36.311  1.00  0.00    -0.489 OA
BRANCH  20  21
ATOM     21  C   UNL A   1      42.535  30.684  36.797  1.00  0.00     0.257 C 
BRANCH  21  22
ATOM     22  C   UNL A   1      42.730  32.016  37.463  1.00  0.00     0.006 C 
ATOM     23  C   UNL A   1      43.704  32.882  37.152  1.00  0.00     0.007 C 
ENDBRANCH  21  22
ENDBRANCH  20  21
ENDBRANCH  15  20
ENDBRANCH  13  14
ENDBRANCH   7  12
ENDBRANCH   3   6
ENDBRANCH   1   2
BRANCH   1  24
ATOM     24  C   UNL A   1      33.770  37.527  32.125  1.00  0.00     0.023 C 
BRANCH  24  25
ATOM     25  C   UNL A   1      32.883  36.927  31.034  1.00  0.00     0.023 C 
BRANCH  25  26
ATOM     26  C   UNL A   1      33.637  36.273  29.883  1.00  0.00     0.116 C 
BRANCH  26  27
ATOM     27  N   UNL A   1      32.791  35.465  29.018  1.00  0.00    -0.352 N 
ATOM     28  C   UNL A   1      33.078  34.260  28.425  1.00  0.00     0.251 C 
ATOM     29  H   UNL A   1      31.896  35.831  28.834  1.00  0.00     0.163 HD
ATOM     30  O   UNL A   1      32.290  33.748  27.637  1.00  0.00    -0.269 OA
BRANCH  28  31
ATOM     31  C   UNL A   1      34.369  33.602  28.714  1.00  0.00     0.039 A 
ATOM     32  C   UNL A   1      35.475  33.913  27.920  1.00  0.00     0.014 A 
ATOM     33  C   UNL A   1      34.494  32.714  29.785  1.00  0.00     0.014 A 
ATOM     34  C   UNL A   1      36.725  33.387  28.244  1.00  0.00     0.010 A 
ATOM     35  C   UNL A   1      35.751  32.247  30.149  1.00  0.00     0.010 A 
ATOM     36  C   UNL A   1      36.880  32.580  29.383  1.00  0.00    -0.014 A 
BRANCH  36  37
ATOM     37  C   UNL A   1      38.213  32.077  29.794  1.00  0.00     0.031 A 
ATOM     38  C   UNL A   1      38.698  30.741  29.308  1.00  0.00     0.074 A 
ATOM     39  C   UNL A   1      38.957  32.794  30.658  1.00  0.00     0.049 A 
ATOM     40  N   UNL A   1      39.801  30.104  29.607  1.00  0.00    -0.248 NA
ATOM     41  C   UNL A   1      37.812  30.013  28.387  1.00  0.00     0.031 C 
ATOM     42  C   UNL A   1      38.575  34.082  31.241  1.00  0.00     0.029 A 
ATOM     43  N   UNL A   1      40.189  32.536  31.204  1.00  0.00    -0.354 N 
ATOM     44  C   UNL A   1      39.734  28.896  28.923  1.00  0.00     0.074 A 
ATOM     45  C   UNL A   1      38.460  28.866  28.240  1.00  0.00     0.031 C 
ATOM     46  C   UNL A   1      39.562  34.513  32.042  1.00  0.00     0.029 A 
ATOM     47  C   UNL A   1      40.631  33.518  32.057  1.00  0.00     0.049 A 
ATOM     48  H   UNL A   1      40.707  31.724  31.004  1.00  0.00     0.167 HD
ATOM     49  C   UNL A   1      40.662  27.912  28.851  1.00  0.00     0.037 A 
ATOM     50  C   UNL A   1      41.768  33.604  32.772  1.00  0.00     0.037 A 
ATOM     51  C   UNL A   1      41.939  27.955  29.512  1.00  0.00     0.049 A 
ATOM     52  C   UNL A   1      42.781  32.498  32.676  1.00  0.00     0.074 A 
ATOM     53  C   UNL A   1      42.972  27.037  29.455  1.00  0.00     0.029 A 
ATOM     54  N   UNL A   1      42.357  28.976  30.355  1.00  0.00    -0.354 N 
ATOM     55  N   UNL A   1      42.735  31.394  31.974  1.00  0.00    -0.248 NA
ATOM     56  C   UNL A   1      44.008  32.656  33.472  1.00  0.00     0.031 C 
ATOM     57  C   UNL A   1      44.001  27.482  30.292  1.00  0.00     0.029 A 
ATOM     58  C   UNL A   1      43.626  28.699  30.837  1.00  0.00     0.049 A 
ATOM     59  H   UNL A   1      41.830  29.777  30.576  1.00  0.00     0.167 HD
ATOM     60  C   UNL A   1      43.934  30.737  32.218  1.00  0.00     0.074 A 
ATOM     61  C   UNL A   1      44.691  31.574  33.125  1.00  0.00     0.031 C 
ATOM     62  C   UNL A   1      44.369  29.547  31.734  1.00  0.00     0.037 A 
BRANCH  49  63
ATOM     63  C   UNL A   1      40.324  26.709  28.021  1.00  0.00     0.057 A 
ATOM     64  C   UNL A   1      40.841  26.535  26.730  1.00  0.00     0.134 A 
ATOM     65  C   UNL A   1      39.489  25.703  28.523  1.00  0.00     0.134 A 
ATOM     66  F   UNL A   1      41.635  27.469  26.185  1.00  0.00    -0.206 F 
ATOM     67  C   UNL A   1      40.514  25.420  25.956  1.00  0.00     0.040 A 
ATOM     68  C   UNL A   1      39.177  24.570  27.769  1.00  0.00     0.040 A 
ATOM     69  F   UNL A   1      38.965  25.803  29.754  1.00  0.00    -0.206 F 
ATOM     70  C   UNL A   1      39.684  24.431  26.478  1.00  0.00     0.006 A 
ENDBRANCH  49  63
BRANCH  50  71
ATOM     71  C   UNL A   1      42.026  34.798  33.615  1.00  0.00     0.057 A 
ATOM     72  C   UNL A   1      42.757  35.883  33.120  1.00  0.00     0.134 A 
ATOM     73  C   UNL A   1      41.552  34.885  34.929  1.00  0.00     0.134 A 
ATOM     74  F   UNL A   1      43.251  35.851  31.873  1.00  0.00    -0.206 F 
ATOM     75  C   UNL A   1      43.025  37.005  33.906  1.00  0.00     0.040 A 
ATOM     76  C   UNL A   1      41.793  36.010  35.720  1.00  0.00     0.040 A 
ATOM     77  F   UNL A   1      40.837  33.881  35.459  1.00  0.00    -0.206 F 
ATOM     78  C   UNL A   1      42.538  37.071  35.209  1.00  0.00     0.006 A 
ENDBRANCH  50  71
BRANCH  62  79
ATOM     79  C   UNL A   1      45.738  29.098  32.151  1.00  0.00     0.057 A 
ATOM     80  C   UNL A   1      45.940  28.289  33.275  1.00  0.00     0.134 A 
ATOM     81  C   UNL A   1      46.863  29.449  31.393  1.00  0.00     0.134 A 
ATOM     82  F   UNL A   1      44.904  27.929  34.049  1.00  0.00    -0.206 F 
ATOM     83  C   UNL A   1      47.216  27.861  33.644  1.00  0.00     0.040 A 
ATOM     84  C   UNL A   1      48.140  29.007  31.738  1.00  0.00     0.040 A 
ATOM     85  F   UNL A   1      46.736  30.217  30.300  1.00  0.00    -0.206 F 
ATOM     86  C   UNL A   1      48.319  28.214  32.870  1.00  0.00     0.006 A 
ENDBRANCH  62  79
ENDBRANCH  36  37
ENDBRANCH  28  31
ENDBRANCH  26  27
ENDBRANCH  25  26
ENDBRANCH  24  25
ENDBRANCH   1  24
TORSDOF 16
ENDMDL
MODEL 2
REMARK VINA RESULT:      -9.0      4.973     11.279
REMARK SMILES C=CCOc1ccccc1/C=C/c1cc(C(=O)NCCCCNC(=O)c2ccc(-c3c4nc(c(-c5c(F)cccc5F)c5ccc([nH]5)c(-c5c(F)cccc5F)c5nc(c(-c6c(F)cccc6F)c6ccc3[nH]6)C=C5)C=C4)cc2)ncn1
REMARK SMILES IDX 19 1 18 2 16 3 17 4 15 6 13 7 14 8 82 9 81 10 80 11 12 12
REMARK SMILES IDX 11 13 10 14 5 15 6 16 7 17 9 18 8 19 4 20 3 21 2 22 1 23
REMARK SMILES IDX 20 24 21 25 22 26 23 27 24 28 25 30 26 31 27 32 79 33 28 34
REMARK SMILES IDX 78 35 29 36 30 37 31 38 72 39 32 40 77 41 71 42 73 43 33 44
REMARK SMILES IDX 76 45 70 46 69 47 34 49 60 50 43 51 59 52 44 53 47 54 58 55
REMARK SMILES IDX 74 56 45 57 46 58 57 60 75 61 48 62 35 63 36 64 41 65 37 66
REMARK SMILES IDX 38 67 40 68 42 69 39 70 61 71 62 72 67 73 63 74 64 75 66 76
REMARK SMILES IDX 68 77 65 78 49 79 50 80 55 81 51 82 52 83 54 84 56 85 53 86
REMARK H PARENT 18 5 23 29 73 48 47 59
REMARK Flexibility Score: inf
ROOT
ATOM      1  C   UNL A   1      38.019  23.432  26.020  1.00  0.00     0.116 C 
ENDROOT
BRANCH   1   2
ATOM      2  N   UNL A   1      37.710  23.254  24.612  1.00  0.00    -0.351 N 
ATOM      3  C   UNL A   1      36.511  23.154  23.931  1.00  0.00     0.270 C 
ATOM      4  O   UNL A   1      36.576  23.046  22.706  1.00  0.00    -0.268 OA
ATOM      5  H   UNL A   1      38.504  23.194  24.034  1.00  0.00     0.163 HD
BRANCH   3   6
ATOM      6  C   UNL A   1      35.172  23.224  24.611  1.00  0.00     0.132 A 
ATOM      7  C   UNL A   1      33.409  24.366  25.638  1.00  0.00     0.067 A 
ATOM      8  C   UNL A   1      34.740  24.340  25.285  1.00  0.00     0.062 A 
ATOM      9  N   UNL A   1      32.617  23.285  25.536  1.00  0.00    -0.237 NA
ATOM     10  C   UNL A   1      33.171  22.199  24.983  1.00  0.00     0.223 A 
ATOM     11  N   UNL A   1      34.404  22.121  24.474  1.00  0.00    -0.231 NA
BRANCH   7  12
ATOM     12  C   UNL A   1      32.719  25.616  25.999  1.00  0.00     0.029 C 
ATOM     13  C   UNL A   1      33.371  26.790  26.062  1.00  0.00     0.014 C 
BRANCH  13  14
ATOM     14  C   UNL A   1      32.764  28.129  26.105  1.00  0.00     0.017 A 
ATOM     15  C   UNL A   1      31.961  28.557  25.029  1.00  0.00     0.126 A 
ATOM     16  C   UNL A   1      31.414  29.841  25.000  1.00  0.00     0.047 A 
ATOM     17  C   UNL A   1      31.635  30.706  26.069  1.00  0.00     0.004 A 
ATOM     18  C   UNL A   1      32.982  29.014  27.167  1.00  0.00     0.012 A 
ATOM     19  C   UNL A   1      32.413  30.292  27.151  1.00  0.00     0.001 A 
BRANCH  15  20
ATOM     20  O   UNL A   1      31.742  27.731  23.949  1.00  0.00    -0.489 OA
BRANCH  20  21
ATOM     21  C   UNL A   1      32.532  28.133  22.819  1.00  0.00     0.257 C 
BRANCH  21  22
ATOM     22  C   UNL A   1      33.373  26.970  22.377  1.00  0.00     0.006 C 
ATOM     23  C   UNL A   1      32.918  25.939  21.653  1.00  0.00     0.007 C 
ENDBRANCH  21  22
ENDBRANCH  20  21
ENDBRANCH  15  20
ENDBRANCH  13  14
ENDBRANCH   7  12
ENDBRANCH   3   6
ENDBRANCH   1   2
BRANCH   1  24
ATOM     24  C   UNL A   1      39.183  22.531  26.442  1.00  0.00     0.023 C 
BRANCH  24  25
ATOM     25  C   UNL A   1      39.272  21.214  25.670  1.00  0.00     0.023 C 
BRANCH  25  26
ATOM     26  C   UNL A   1      39.734  20.018  26.493  1.00  0.00     0.116 C 
BRANCH  26  27
ATOM     27  N   UNL A   1      40.861  19.310  25.906  1.00  0.00    -0.352 N 
ATOM     28  C   UNL A   1      42.163  19.729  25.782  1.00  0.00     0.251 C 
ATOM     29  H   UNL A   1      40.663  18.413  25.550  1.00  0.00     0.163 HD
ATOM     30  O   UNL A   1      42.981  19.052  25.169  1.00  0.00    -0.269 OA
BRANCH  28  31
ATOM     31  C   UNL A   1      42.562  21.028  26.361  1.00  0.00     0.039 A 
ATOM     32  C   UNL A   1      42.965  22.052  25.501  1.00  0.00     0.014 A 
ATOM     33  C   UNL A   1      42.502  21.243  27.740  1.00  0.00     0.014 A 
ATOM     34  C   UNL A   1      43.240  23.317  26.020  1.00  0.00     0.010 A 
ATOM     35  C   UNL A   1      42.707  22.521  28.246  1.00  0.00     0.010 A 
ATOM     36  C   UNL A   1      43.077  23.571  27.391  1.00  0.00    -0.014 A 
BRANCH  36  37
ATOM     37  C   UNL A   1      43.284  24.929  27.951  1.00  0.00     0.031 A 
ATOM     38  C   UNL A   1      44.657  25.369  28.375  1.00  0.00     0.074 A 
ATOM     39  C   UNL A   1      42.225  25.739  28.141  1.00  0.00     0.049 A 
ATOM     40  N   UNL A   1      45.026  26.488  28.943  1.00  0.00    -0.248 NA
ATOM     41  C   UNL A   1      45.753  24.413  28.155  1.00  0.00     0.031 C 
ATOM     42  C   UNL A   1      40.835  25.408  27.818  1.00  0.00     0.029 A 
ATOM     43  N   UNL A   1      42.151  27.006  28.661  1.00  0.00    -0.354 N 
ATOM     44  C   UNL A   1      46.393  26.364  29.162  1.00  0.00     0.074 A 
ATOM     45  C   UNL A   1      46.775  25.042  28.716  1.00  0.00     0.031 C 
ATOM     46  C   UNL A   1      40.051  26.454  28.124  1.00  0.00     0.029 A 
ATOM     47  C   UNL A   1      40.875  27.515  28.694  1.00  0.00     0.049 A 
ATOM     48  H   UNL A   1      42.938  27.504  28.981  1.00  0.00     0.167 HD
ATOM     49  C   UNL A   1      47.255  27.279  29.666  1.00  0.00     0.037 A 
ATOM     50  C   UNL A   1      40.422  28.703  29.138  1.00  0.00     0.037 A 
ATOM     51  C   UNL A   1      46.877  28.602  30.086  1.00  0.00     0.049 A 
ATOM     52  C   UNL A   1      41.399  29.700  29.694  1.00  0.00     0.074 A 
ATOM     53  C   UNL A   1      47.685  29.622  30.555  1.00  0.00     0.029 A 
ATOM     54  N   UNL A   1      45.576  29.086  30.088  1.00  0.00    -0.354 N 
ATOM     55  N   UNL A   1      42.698  29.596  29.833  1.00  0.00    -0.248 NA
ATOM     56  C   UNL A   1      40.845  30.983  30.151  1.00  0.00     0.031 C 
ATOM     57  C   UNL A   1      46.869  30.713  30.876  1.00  0.00     0.029 A 
ATOM     58  C   UNL A   1      45.558  30.386  30.567  1.00  0.00     0.049 A 
ATOM     59  H   UNL A   1      44.785  28.582  29.793  1.00  0.00     0.167 HD
ATOM     60  C   UNL A   1      43.122  30.806  30.366  1.00  0.00     0.074 A 
ATOM     61  C   UNL A   1      41.943  31.633  30.514  1.00  0.00     0.031 C 
ATOM     62  C   UNL A   1      44.376  31.198  30.702  1.00  0.00     0.037 A 
BRANCH  49  63
ATOM     63  C   UNL A   1      48.696  26.874  29.782  1.00  0.00     0.057 A 
ATOM     64  C   UNL A   1      49.195  26.247  30.931  1.00  0.00     0.134 A 
ATOM     65  C   UNL A   1      49.589  27.094  28.727  1.00  0.00     0.134 A 
ATOM     66  F   UNL A   1      48.394  26.020  31.984  1.00  0.00    -0.206 F 
ATOM     67  C   UNL A   1      50.538  25.882  31.040  1.00  0.00     0.040 A 
ATOM     68  C   UNL A   1      50.929  26.710  28.813  1.00  0.00     0.040 A 
ATOM     69  F   UNL A   1      49.177  27.684  27.595  1.00  0.00    -0.206 F 
ATOM     70  C   UNL A   1      51.408  26.109  29.977  1.00  0.00     0.006 A 
ENDBRANCH  49  63
BRANCH  50  71
ATOM     71  C   UNL A   1      38.978  29.029  29.042  1.00  0.00     0.057 A 
ATOM     72  C   UNL A   1      38.414  29.448  27.832  1.00  0.00     0.134 A 
ATOM     73  C   UNL A   1      38.129  28.931  30.150  1.00  0.00     0.134 A 
ATOM     74  F   UNL A   1      39.183  29.577  26.739  1.00  0.00    -0.206 F 
ATOM     75  C   UNL A   1      37.062  29.777  27.729  1.00  0.00     0.040 A 
ATOM     76  C   UNL A   1      36.769  29.235  30.057  1.00  0.00     0.040 A 
ATOM     77  F   UNL A   1      38.606  28.526  31.336  1.00  0.00    -0.206 F 
ATOM     78  C   UNL A   1      36.235  29.666  28.844  1.00  0.00     0.006 A 
ENDBRANCH  50  71
BRANCH  62  79
ATOM     79  C   UNL A   1      44.539  32.591  31.232  1.00  0.00     0.057 A 
ATOM     80  C   UNL A   1      44.746  33.685  30.384  1.00  0.00     0.134 A 
ATOM     81  C   UNL A   1      44.449  32.844  32.607  1.00  0.00     0.134 A 
ATOM     82  F   UNL A   1      44.854  33.507  29.058  1.00  0.00    -0.206 F 
ATOM     83  C   UNL A   1      44.878  34.980  30.885  1.00  0.00     0.040 A 
ATOM     84  C   UNL A   1      44.555  34.138  33.118  1.00  0.00     0.040 A 
ATOM     85  F   UNL A   1      44.244  31.840  33.473  1.00  0.00    -0.206 F 
ATOM     86  C   UNL A   1      44.775  35.210  32.255  1.00  0.00     0.006 A 
ENDBRANCH  62  79
ENDBRANCH  36  37
ENDBRANCH  28  31
ENDBRANCH  26  27
ENDBRANCH  25  26
ENDBRANCH  24  25
ENDBRANCH   1  24
TORSDOF 16
ENDMDL
MODEL 3
REMARK VINA RESULT:      -9.0      4.541     10.333
REMARK SMILES C=CCOc1ccccc1/C=C/c1cc(C(=O)NCCCCNC(=O)c2ccc(-c3c4nc(c(-c5c(F)cccc5F)c5ccc([nH]5)c(-c5c(F)cccc5F)c5nc(c(-c6c(F)cccc6F)c6ccc3[nH]6)C=C5)C=C4)cc2)ncn1
REMARK SMILES IDX 19 1 18 2 16 3 17 4 15 6 13 7 14 8 82 9 81 10 80 11 12 12
REMARK SMILES IDX 11 13 10 14 5 15 6 16 7 17 9 18 8 19 4 20 3 21 2 22 1 23
REMARK SMILES IDX 20 24 21 25 22 26 23 27 24 28 25 30 26 31 27 32 79 33 28 34
REMARK SMILES IDX 78 35 29 36 30 37 31 38 72 39 32 40 77 41 71 42 73 43 33 44
REMARK SMILES IDX 76 45 70 46 69 47 34 49 60 50 43 51 59 52 44 53 47 54 58 55
REMARK SMILES IDX 74 56 45 57 46 58 57 60 75 61 48 62 35 63 36 64 41 65 37 66
REMARK SMILES IDX 38 67 40 68 42 69 39 70 61 71 62 72 67 73 63 74 64 75 66 76
REMARK SMILES IDX 68 77 65 78 49 79 50 80 55 81 51 82 52 83 54 84 56 85 53 86
REMARK H PARENT 18 5 23 29 73 48 47 59
REMARK Flexibility Score: inf
ROOT
ATOM      1  C   UNL A   1      35.517  21.094  25.848  1.00  0.00     0.116 C 
ENDROOT
BRANCH   1   2
ATOM      2  N   UNL A   1      34.243  20.440  25.611  1.00  0.00    -0.351 N 
ATOM      3  C   UNL A   1      33.032  20.912  25.140  1.00  0.00     0.270 C 
ATOM      4  O   UNL A   1      32.127  20.087  25.009  1.00  0.00    -0.268 OA
ATOM      5  H   UNL A   1      34.241  19.480  25.826  1.00  0.00     0.163 HD
BRANCH   3   6
ATOM      6  C   UNL A   1      32.806  22.345  24.746  1.00  0.00     0.132 A 
ATOM      7  C   UNL A   1      32.741  24.643  25.174  1.00  0.00     0.067 A 
ATOM      8  C   UNL A   1      32.688  23.358  25.667  1.00  0.00     0.062 A 
ATOM      9  N   UNL A   1      32.688  24.912  23.859  1.00  0.00    -0.237 NA
ATOM     10  C   UNL A   1      32.674  23.852  23.041  1.00  0.00     0.223 A 
ATOM     11  N   UNL A   1      32.771  22.573  23.415  1.00  0.00    -0.231 NA
BRANCH   7  12
ATOM     12  C   UNL A   1      33.019  25.802  26.040  1.00  0.00     0.029 C 
ATOM     13  C   UNL A   1      33.416  26.982  25.533  1.00  0.00     0.014 C 
BRANCH  13  14
ATOM     14  C   UNL A   1      33.431  28.277  26.232  1.00  0.00     0.017 A 
ATOM     15  C   UNL A   1      32.277  29.086  26.206  1.00  0.00     0.126 A 
ATOM     16  C   UNL A   1      32.265  30.348  26.803  1.00  0.00     0.047 A 
ATOM     17  C   UNL A   1      33.400  30.804  27.469  1.00  0.00     0.004 A 
ATOM     18  C   UNL A   1      34.564  28.753  26.898  1.00  0.00     0.012 A 
ATOM     19  C   UNL A   1      34.544  30.007  27.520  1.00  0.00     0.001 A 
BRANCH  15  20
ATOM     20  O   UNL A   1      31.146  28.670  25.538  1.00  0.00    -0.489 OA
BRANCH  20  21
ATOM     21  C   UNL A   1      30.969  29.400  24.314  1.00  0.00     0.257 C 
BRANCH  21  22
ATOM     22  C   UNL A   1      31.203  28.470  23.158  1.00  0.00     0.006 C 
ATOM     23  C   UNL A   1      32.334  28.421  22.443  1.00  0.00     0.007 C 
ENDBRANCH  21  22
ENDBRANCH  20  21
ENDBRANCH  15  20
ENDBRANCH  13  14
ENDBRANCH   7  12
ENDBRANCH   3   6
ENDBRANCH   1   2
BRANCH   1  24
ATOM     24  C   UNL A   1      36.177  21.500  24.527  1.00  0.00     0.023 C 
BRANCH  24  25
ATOM     25  C   UNL A   1      36.378  23.007  24.361  1.00  0.00     0.023 C 
BRANCH  25  26
ATOM     26  C   UNL A   1      37.422  23.621  25.286  1.00  0.00     0.116 C 
BRANCH  26  27
ATOM     27  N   UNL A   1      38.604  22.791  25.458  1.00  0.00    -0.352 N 
ATOM     28  C   UNL A   1      39.767  23.089  26.125  1.00  0.00     0.251 C 
ATOM     29  H   UNL A   1      38.565  21.900  25.041  1.00  0.00     0.163 HD
ATOM     30  O   UNL A   1      40.720  22.316  26.096  1.00  0.00    -0.269 OA
BRANCH  28  31
ATOM     31  C   UNL A   1      39.878  24.373  26.846  1.00  0.00     0.039 A 
ATOM     32  C   UNL A   1      39.361  24.465  28.140  1.00  0.00     0.014 A 
ATOM     33  C   UNL A   1      40.521  25.467  26.262  1.00  0.00     0.014 A 
ATOM     34  C   UNL A   1      39.553  25.633  28.877  1.00  0.00     0.010 A 
ATOM     35  C   UNL A   1      40.773  26.603  27.022  1.00  0.00     0.010 A 
ATOM     36  C   UNL A   1      40.293  26.697  28.337  1.00  0.00    -0.014 A 
BRANCH  36  37
ATOM     37  C   UNL A   1      40.580  27.916  29.132  1.00  0.00     0.031 A 
ATOM     38  C   UNL A   1      41.881  28.044  29.873  1.00  0.00     0.074 A 
ATOM     39  C   UNL A   1      39.641  28.875  29.241  1.00  0.00     0.049 A 
ATOM     40  N   UNL A   1      42.287  28.999  30.670  1.00  0.00    -0.248 NA
ATOM     41  C   UNL A   1      42.840  26.939  29.719  1.00  0.00     0.031 C 
ATOM     42  C   UNL A   1      38.319  28.844  28.612  1.00  0.00     0.029 A 
ATOM     43  N   UNL A   1      39.653  30.062  29.930  1.00  0.00    -0.354 N 
ATOM     44  C   UNL A   1      43.540  28.603  31.123  1.00  0.00     0.074 A 
ATOM     45  C   UNL A   1      43.802  27.299  30.556  1.00  0.00     0.031 C 
ATOM     46  C   UNL A   1      37.658  29.970  28.923  1.00  0.00     0.029 A 
ATOM     47  C   UNL A   1      38.493  30.786  29.799  1.00  0.00     0.049 A 
ATOM     48  H   UNL A   1      40.419  30.366  30.468  1.00  0.00     0.167 HD
ATOM     49  C   UNL A   1      44.403  29.278  31.918  1.00  0.00     0.037 A 
ATOM     50  C   UNL A   1      38.142  31.973  30.329  1.00  0.00     0.037 A 
ATOM     51  C   UNL A   1      44.150  30.586  32.461  1.00  0.00     0.049 A 
ATOM     52  C   UNL A   1      39.118  32.701  31.211  1.00  0.00     0.074 A 
ATOM     53  C   UNL A   1      44.985  31.378  33.229  1.00  0.00     0.029 A 
ATOM     54  N   UNL A   1      42.969  31.295  32.291  1.00  0.00    -0.354 N 
ATOM     55  N   UNL A   1      40.325  32.347  31.576  1.00  0.00    -0.248 NA
ATOM     56  C   UNL A   1      38.682  33.998  31.749  1.00  0.00     0.031 C 
ATOM     57  C   UNL A   1      44.296  32.551  33.556  1.00  0.00     0.029 A 
ATOM     58  C   UNL A   1      43.048  32.508  32.956  1.00  0.00     0.049 A 
ATOM     59  H   UNL A   1      42.192  30.982  31.776  1.00  0.00     0.167 HD
ATOM     60  C   UNL A   1      40.805  33.385  32.363  1.00  0.00     0.074 A 
ATOM     61  C   UNL A   1      39.762  34.388  32.412  1.00  0.00     0.031 C 
ATOM     62  C   UNL A   1      42.002  33.498  32.989  1.00  0.00     0.037 A 
BRANCH  49  63
ATOM     63  C   UNL A   1      45.706  28.606  32.241  1.00  0.00     0.057 A 
ATOM     64  C   UNL A   1      45.854  27.787  33.369  1.00  0.00     0.134 A 
ATOM     65  C   UNL A   1      46.819  28.764  31.407  1.00  0.00     0.134 A 
ATOM     66  F   UNL A   1      44.829  27.607  34.216  1.00  0.00    -0.206 F 
ATOM     67  C   UNL A   1      47.070  27.175  33.672  1.00  0.00     0.040 A 
ATOM     68  C   UNL A   1      48.034  28.134  31.686  1.00  0.00     0.040 A 
ATOM     69  F   UNL A   1      46.746  29.529  30.308  1.00  0.00    -0.206 F 
ATOM     70  C   UNL A   1      48.164  27.343  32.826  1.00  0.00     0.006 A 
ENDBRANCH  49  63
BRANCH  50  71
ATOM     71  C   UNL A   1      36.819  32.565  30.012  1.00  0.00     0.057 A 
ATOM     72  C   UNL A   1      36.664  33.443  28.933  1.00  0.00     0.134 A 
ATOM     73  C   UNL A   1      35.683  32.273  30.775  1.00  0.00     0.134 A 
ATOM     74  F   UNL A   1      37.721  33.774  28.176  1.00  0.00    -0.206 F 
ATOM     75  C   UNL A   1      35.431  34.024  28.633  1.00  0.00     0.040 A 
ATOM     76  C   UNL A   1      34.438  32.829  30.474  1.00  0.00     0.040 A 
ATOM     77  F   UNL A   1      35.764  31.433  31.817  1.00  0.00    -0.206 F 
ATOM     78  C   UNL A   1      34.312  33.712  29.403  1.00  0.00     0.006 A 
ENDBRANCH  50  71
BRANCH  62  79
ATOM     79  C   UNL A   1      42.259  34.763  33.752  1.00  0.00     0.057 A 
ATOM     80  C   UNL A   1      41.973  34.874  35.118  1.00  0.00     0.134 A 
ATOM     81  C   UNL A   1      42.837  35.871  33.118  1.00  0.00     0.134 A 
ATOM     82  F   UNL A   1      41.406  33.853  35.779  1.00  0.00    -0.206 F 
ATOM     83  C   UNL A   1      42.233  36.050  35.823  1.00  0.00     0.040 A 
ATOM     84  C   UNL A   1      43.124  37.043  33.819  1.00  0.00     0.040 A 
ATOM     85  F   UNL A   1      43.142  35.827  31.813  1.00  0.00    -0.206 F 
ATOM     86  C   UNL A   1      42.816  37.136  35.175  1.00  0.00     0.006 A 
ENDBRANCH  62  79
ENDBRANCH  36  37
ENDBRANCH  28  31
ENDBRANCH  26  27
ENDBRANCH  25  26
ENDBRANCH  24  25
ENDBRANCH   1  24
TORSDOF 16
ENDMDL
