MODEL 1
REMARK VINA RESULT:     -13.2      0.000      0.000
REMARK SMILES Cc1cc([N+](=O)[O-])ccc1NC(=O)[C@@H]1[C@@H](C(=O)NCCCCNC(=O)c2ccc(-c3c4nc(c(-c5c(F)cccc5F)c5ccc([nH]5)c(-c5c(F)cccc5F)c5nc(c(-c6c(F)cccc6F)c6ccc3[nH]6)C=C5)C=C4)cc2)[C@H]2C=C[C@@H]1C2
REMARK SMILES IDX 20 1 19 2 18 3 16 4 17 5 15 7 14 8 83 9 80 10 82 11 84 12
REMARK SMILES IDX 81 13 12 14 11 15 13 17 10 18 1 19 2 20 3 21 4 22 9 23 8 24
REMARK SMILES IDX 5 25 6 26 7 27 21 28 22 29 23 30 24 31 25 33 26 34 27 35
REMARK SMILES IDX 79 36 28 37 78 38 29 39 30 40 31 41 72 42 32 43 77 44 71 45
REMARK SMILES IDX 73 46 33 47 76 48 70 49 69 50 34 52 60 53 43 54 59 55 44 56
REMARK SMILES IDX 47 57 58 58 74 59 45 60 46 61 57 63 75 64 48 65 35 66 36 67
REMARK SMILES IDX 41 68 37 69 38 70 40 71 42 72 39 73 61 74 62 75 67 76 63 77
REMARK SMILES IDX 64 78 66 79 68 80 65 81 49 82 50 83 55 84 51 85 52 86 54 87
REMARK SMILES IDX 56 88 53 89
REMARK H PARENT 18 6 11 16 23 32 73 51 47 62
REMARK Flexibility Score: inf
ROOT
ATOM      1  C   UNL A   1      37.424  21.439  25.088  1.00  0.00     0.023 C 
ENDROOT
BRANCH   1   2
ATOM      2  C   UNL A   1      37.007  22.559  24.132  1.00  0.00     0.116 C 
BRANCH   2   3
ATOM      3  N   UNL A   1      36.297  23.645  24.781  1.00  0.00    -0.356 N 
ATOM      4  C   UNL A   1      35.074  24.195  24.539  1.00  0.00     0.224 C 
ATOM      5  O   UNL A   1      34.743  25.130  25.273  1.00  0.00    -0.275 OA
ATOM      6  H   UNL A   1      36.786  24.058  25.529  1.00  0.00     0.163 HD
BRANCH   4   7
ATOM      7  C   UNL A   1      34.207  23.733  23.371  1.00  0.00     0.098 C 
ATOM      8  C   UNL A   1      32.978  24.712  23.132  1.00  0.00     0.099 C 
ATOM      9  C   UNL A   1      31.779  23.728  23.076  1.00  0.00     0.025 C 
ATOM     10  C   UNL A   1      33.481  22.376  23.576  1.00  0.00     0.025 C 
ATOM     11  C   UNL A   1      31.554  23.236  24.487  1.00  0.00    -0.027 C 
ATOM     12  C   UNL A   1      32.412  22.470  22.486  1.00  0.00     0.017 C 
ATOM     13  C   UNL A   1      32.585  22.435  24.792  1.00  0.00    -0.027 C 
BRANCH   8  14
ATOM     14  C   UNL A   1      33.067  25.571  21.881  1.00  0.00     0.228 C 
ATOM     15  N   UNL A   1      33.022  26.943  21.933  1.00  0.00    -0.326 N 
ATOM     16  H   UNL A   1      33.071  27.366  21.045  1.00  0.00     0.169 HD
ATOM     17  O   UNL A   1      33.145  25.056  20.761  1.00  0.00    -0.274 OA
BRANCH  15  18
ATOM     18  C   UNL A   1      32.919  27.878  22.989  1.00  0.00     0.044 A 
ATOM     19  C   UNL A   1      30.448  28.357  22.384  1.00  0.00     0.047 C 
ATOM     20  C   UNL A   1      31.672  28.492  23.255  1.00  0.00    -0.021 A 
ATOM     21  C   UNL A   1      31.528  29.306  24.402  1.00  0.00     0.091 A 
ATOM     22  C   UNL A   1      32.609  29.521  25.263  1.00  0.00     0.269 A 
ATOM     23  C   UNL A   1      34.007  28.213  23.806  1.00  0.00     0.033 A 
ATOM     24  C   UNL A   1      33.860  29.003  24.951  1.00  0.00     0.088 A 
BRANCH  22  25
ATOM     25  N   UNL A   1      32.427  30.293  26.497  1.00  0.00     0.062 N 
ATOM     26  O   UNL A   1      33.246  30.121  27.410  1.00  0.00    -0.258 OA
ATOM     27  O   UNL A   1      31.472  31.081  26.546  1.00  0.00    -0.258 OA
ENDBRANCH  22  25
ENDBRANCH  15  18
ENDBRANCH   8  14
ENDBRANCH   4   7
ENDBRANCH   2   3
ENDBRANCH   1   2
BRANCH   1  28
ATOM     28  C   UNL A   1      38.826  21.540  25.686  1.00  0.00     0.023 C 
BRANCH  28  29
ATOM     29  C   UNL A   1      39.132  22.841  26.417  1.00  0.00     0.116 C 
BRANCH  29  30
ATOM     30  N   UNL A   1      40.551  23.117  26.598  1.00  0.00    -0.352 N 
ATOM     31  C   UNL A   1      41.198  24.321  26.849  1.00  0.00     0.251 C 
ATOM     32  H   UNL A   1      41.140  22.331  26.535  1.00  0.00     0.163 HD
ATOM     33  O   UNL A   1      42.404  24.350  26.959  1.00  0.00    -0.269 OA
BRANCH  31  34
ATOM     34  C   UNL A   1      40.394  25.547  27.119  1.00  0.00     0.039 A 
ATOM     35  C   UNL A   1      40.685  26.693  26.370  1.00  0.00     0.014 A 
ATOM     36  C   UNL A   1      39.523  25.629  28.201  1.00  0.00     0.014 A 
ATOM     37  C   UNL A   1      40.327  27.945  26.868  1.00  0.00     0.010 A 
ATOM     38  C   UNL A   1      39.252  26.867  28.749  1.00  0.00     0.010 A 
ATOM     39  C   UNL A   1      39.724  28.022  28.122  1.00  0.00    -0.014 A 
BRANCH  39  40
ATOM     40  C   UNL A   1      39.725  29.242  28.922  1.00  0.00     0.031 A 
ATOM     41  C   UNL A   1      38.668  30.261  28.782  1.00  0.00     0.074 A 
ATOM     42  C   UNL A   1      40.672  29.383  29.877  1.00  0.00     0.049 A 
ATOM     43  N   UNL A   1      38.821  31.511  29.068  1.00  0.00    -0.248 NA
ATOM     44  C   UNL A   1      37.340  29.943  28.275  1.00  0.00     0.031 C 
ATOM     45  C   UNL A   1      40.708  30.360  30.959  1.00  0.00     0.029 A 
ATOM     46  N   UNL A   1      41.926  28.759  29.927  1.00  0.00    -0.354 N 
ATOM     47  C   UNL A   1      37.576  32.098  29.059  1.00  0.00     0.074 A 
ATOM     48  C   UNL A   1      36.700  31.097  28.491  1.00  0.00     0.031 C 
ATOM     49  C   UNL A   1      41.974  30.483  31.389  1.00  0.00     0.029 A 
ATOM     50  C   UNL A   1      42.811  29.699  30.495  1.00  0.00     0.049 A 
ATOM     51  H   UNL A   1      42.146  27.847  29.627  1.00  0.00     0.167 HD
ATOM     52  C   UNL A   1      37.392  33.306  29.669  1.00  0.00     0.037 A 
ATOM     53  C   UNL A   1      43.871  30.188  29.788  1.00  0.00     0.037 A 
ATOM     54  C   UNL A   1      38.646  33.821  30.216  1.00  0.00     0.049 A 
ATOM     55  C   UNL A   1      43.844  31.686  29.593  1.00  0.00     0.074 A 
ATOM     56  C   UNL A   1      39.188  33.780  31.491  1.00  0.00     0.029 A 
ATOM     57  N   UNL A   1      39.675  34.211  29.366  1.00  0.00    -0.354 N 
ATOM     58  N   UNL A   1      42.779  32.420  29.758  1.00  0.00    -0.248 NA
ATOM     59  C   UNL A   1      44.996  32.464  29.142  1.00  0.00     0.031 C 
ATOM     60  C   UNL A   1      40.565  34.089  31.398  1.00  0.00     0.029 A 
ATOM     61  C   UNL A   1      40.860  34.334  30.069  1.00  0.00     0.049 A 
ATOM     62  H   UNL A   1      39.575  34.376  28.401  1.00  0.00     0.167 HD
ATOM     63  C   UNL A   1      43.059  33.712  29.399  1.00  0.00     0.074 A 
ATOM     64  C   UNL A   1      44.467  33.697  29.051  1.00  0.00     0.031 C 
ATOM     65  C   UNL A   1      42.101  34.682  29.396  1.00  0.00     0.037 A 
BRANCH  52  66
ATOM     66  C   UNL A   1      36.029  33.838  30.067  1.00  0.00     0.057 A 
ATOM     67  C   UNL A   1      35.133  34.340  29.101  1.00  0.00     0.134 A 
ATOM     68  C   UNL A   1      35.565  33.945  31.389  1.00  0.00     0.134 A 
ATOM     69  F   UNL A   1      35.347  34.187  27.789  1.00  0.00    -0.206 F 
ATOM     70  C   UNL A   1      33.959  35.030  29.432  1.00  0.00     0.040 A 
ATOM     71  C   UNL A   1      34.422  34.678  31.739  1.00  0.00     0.040 A 
ATOM     72  F   UNL A   1      36.169  33.297  32.394  1.00  0.00    -0.206 F 
ATOM     73  C   UNL A   1      33.623  35.245  30.758  1.00  0.00     0.006 A 
ENDBRANCH  52  66
BRANCH  53  74
ATOM     74  C   UNL A   1      44.424  29.225  28.800  1.00  0.00     0.057 A 
ATOM     75  C   UNL A   1      45.273  28.200  29.252  1.00  0.00     0.134 A 
ATOM     76  C   UNL A   1      43.874  29.081  27.525  1.00  0.00     0.134 A 
ATOM     77  F   UNL A   1      45.831  28.274  30.472  1.00  0.00    -0.206 F 
ATOM     78  C   UNL A   1      45.482  27.034  28.511  1.00  0.00     0.040 A 
ATOM     79  C   UNL A   1      44.084  27.922  26.768  1.00  0.00     0.040 A 
ATOM     80  F   UNL A   1      43.035  30.004  27.033  1.00  0.00    -0.206 F 
ATOM     81  C   UNL A   1      44.860  26.880  27.276  1.00  0.00     0.006 A 
ENDBRANCH  53  74
BRANCH  65  82
ATOM     82  C   UNL A   1      42.270  36.067  28.837  1.00  0.00     0.057 A 
ATOM     83  C   UNL A   1      42.964  37.094  29.494  1.00  0.00     0.134 A 
ATOM     84  C   UNL A   1      41.848  36.363  27.524  1.00  0.00     0.134 A 
ATOM     85  F   UNL A   1      43.505  36.906  30.706  1.00  0.00    -0.206 F 
ATOM     86  C   UNL A   1      43.176  38.348  28.906  1.00  0.00     0.040 A 
ATOM     87  C   UNL A   1      42.096  37.595  26.910  1.00  0.00     0.040 A 
ATOM     88  F   UNL A   1      41.193  35.461  26.778  1.00  0.00    -0.206 F 
ATOM     89  C   UNL A   1      42.751  38.598  27.607  1.00  0.00     0.006 A 
ENDBRANCH  65  82
ENDBRANCH  39  40
ENDBRANCH  31  34
ENDBRANCH  29  30
ENDBRANCH  28  29
ENDBRANCH   1  28
TORSDOF 14
ENDMDL
MODEL 2
REMARK VINA RESULT:     -13.0      4.004      8.996
REMARK SMILES Cc1cc([N+](=O)[O-])ccc1NC(=O)[C@@H]1[C@@H](C(=O)NCCCCNC(=O)c2ccc(-c3c4nc(c(-c5c(F)cccc5F)c5ccc([nH]5)c(-c5c(F)cccc5F)c5nc(c(-c6c(F)cccc6F)c6ccc3[nH]6)C=C5)C=C4)cc2)[C@H]2C=C[C@@H]1C2
REMARK SMILES IDX 20 1 19 2 18 3 16 4 17 5 15 7 14 8 83 9 80 10 82 11 84 12
REMARK SMILES IDX 81 13 12 14 11 15 13 17 10 18 1 19 2 20 3 21 4 22 9 23 8 24
REMARK SMILES IDX 5 25 6 26 7 27 21 28 22 29 23 30 24 31 25 33 26 34 27 35
REMARK SMILES IDX 79 36 28 37 78 38 29 39 30 40 31 41 72 42 32 43 77 44 71 45
REMARK SMILES IDX 73 46 33 47 76 48 70 49 69 50 34 52 60 53 43 54 59 55 44 56
REMARK SMILES IDX 47 57 58 58 74 59 45 60 46 61 57 63 75 64 48 65 35 66 36 67
REMARK SMILES IDX 41 68 37 69 38 70 40 71 42 72 39 73 61 74 62 75 67 76 63 77
REMARK SMILES IDX 64 78 66 79 68 80 65 81 49 82 50 83 55 84 51 85 52 86 54 87
REMARK SMILES IDX 56 88 53 89
REMARK H PARENT 18 6 11 16 23 32 73 51 47 62
REMARK Flexibility Score: inf
ROOT
ATOM      1  C   UNL A   1      31.922  29.605  27.242  1.00  0.00     0.023 C 
ENDROOT
BRANCH   1   2
ATOM      2  C   UNL A   1      32.259  28.118  27.112  1.00  0.00     0.116 C 
BRANCH   2   3
ATOM      3  N   UNL A   1      31.131  27.296  26.716  1.00  0.00    -0.356 N 
ATOM      4  C   UNL A   1      31.071  26.084  26.097  1.00  0.00     0.224 C 
ATOM      5  O   UNL A   1      29.941  25.636  25.886  1.00  0.00    -0.275 OA
ATOM      6  H   UNL A   1      30.252  27.683  26.934  1.00  0.00     0.163 HD
BRANCH   4   7
ATOM      7  C   UNL A   1      32.331  25.367  25.619  1.00  0.00     0.098 C 
ATOM      8  C   UNL A   1      32.092  24.627  24.233  1.00  0.00     0.099 C 
ATOM      9  C   UNL A   1      32.631  23.201  24.525  1.00  0.00     0.025 C 
ATOM     10  C   UNL A   1      32.811  24.194  26.514  1.00  0.00     0.025 C 
ATOM     11  C   UNL A   1      31.630  22.537  25.444  1.00  0.00    -0.027 C 
ATOM     12  C   UNL A   1      33.740  23.468  25.540  1.00  0.00     0.017 C 
ATOM     13  C   UNL A   1      31.729  23.145  26.635  1.00  0.00    -0.027 C 
BRANCH   8  14
ATOM     14  C   UNL A   1      32.779  25.258  23.034  1.00  0.00     0.228 C 
ATOM     15  N   UNL A   1      32.390  26.475  22.527  1.00  0.00    -0.326 N 
ATOM     16  H   UNL A   1      32.912  26.750  21.738  1.00  0.00     0.169 HD
ATOM     17  O   UNL A   1      33.695  24.674  22.445  1.00  0.00    -0.274 OA
BRANCH  15  18
ATOM     18  C   UNL A   1      31.401  27.416  22.895  1.00  0.00     0.044 A 
ATOM     19  C   UNL A   1      33.212  29.050  23.758  1.00  0.00     0.047 C 
ATOM     20  C   UNL A   1      31.795  28.674  23.406  1.00  0.00    -0.021 A 
ATOM     21  C   UNL A   1      30.817  29.673  23.628  1.00  0.00     0.091 A 
ATOM     22  C   UNL A   1      29.469  29.420  23.363  1.00  0.00     0.269 A 
ATOM     23  C   UNL A   1      30.030  27.160  22.754  1.00  0.00     0.033 A 
ATOM     24  C   UNL A   1      29.066  28.153  22.957  1.00  0.00     0.088 A 
BRANCH  22  25
ATOM     25  N   UNL A   1      28.474  30.487  23.510  1.00  0.00     0.062 N 
ATOM     26  O   UNL A   1      27.286  30.201  23.308  1.00  0.00    -0.258 OA
ATOM     27  O   UNL A   1      28.882  31.610  23.841  1.00  0.00    -0.258 OA
ENDBRANCH  22  25
ENDBRANCH  15  18
ENDBRANCH   8  14
ENDBRANCH   4   7
ENDBRANCH   2   3
ENDBRANCH   1   2
BRANCH   1  28
ATOM     28  C   UNL A   1      33.086  30.583  27.094  1.00  0.00     0.023 C 
BRANCH  28  29
ATOM     29  C   UNL A   1      34.424  30.093  27.634  1.00  0.00     0.116 C 
BRANCH  29  30
ATOM     30  N   UNL A   1      35.073  31.004  28.566  1.00  0.00    -0.352 N 
ATOM     31  C   UNL A   1      36.301  30.895  29.209  1.00  0.00     0.251 C 
ATOM     32  H   UNL A   1      34.566  31.823  28.771  1.00  0.00     0.163 HD
ATOM     33  O   UNL A   1      36.669  31.764  29.967  1.00  0.00    -0.269 OA
BRANCH  31  34
ATOM     34  C   UNL A   1      37.220  29.776  28.853  1.00  0.00     0.039 A 
ATOM     35  C   UNL A   1      37.379  28.744  29.785  1.00  0.00     0.014 A 
ATOM     36  C   UNL A   1      38.047  29.833  27.736  1.00  0.00     0.014 A 
ATOM     37  C   UNL A   1      38.523  27.949  29.739  1.00  0.00     0.010 A 
ATOM     38  C   UNL A   1      39.229  29.118  27.740  1.00  0.00     0.010 A 
ATOM     39  C   UNL A   1      39.500  28.234  28.786  1.00  0.00    -0.014 A 
BRANCH  39  40
ATOM     40  C   UNL A   1      40.886  27.799  28.926  1.00  0.00     0.031 A 
ATOM     41  C   UNL A   1      41.363  26.533  28.337  1.00  0.00     0.074 A 
ATOM     42  C   UNL A   1      41.762  28.631  29.532  1.00  0.00     0.049 A 
ATOM     43  N   UNL A   1      42.373  25.861  28.781  1.00  0.00    -0.248 NA
ATOM     44  C   UNL A   1      40.708  25.907  27.198  1.00  0.00     0.031 C 
ATOM     45  C   UNL A   1      43.218  28.538  29.541  1.00  0.00     0.029 A 
ATOM     46  N   UNL A   1      41.471  29.650  30.449  1.00  0.00    -0.354 N 
ATOM     47  C   UNL A   1      42.674  24.895  27.847  1.00  0.00     0.074 A 
ATOM     48  C   UNL A   1      41.566  24.920  26.918  1.00  0.00     0.031 C 
ATOM     49  C   UNL A   1      43.689  29.236  30.587  1.00  0.00     0.029 A 
ATOM     50  C   UNL A   1      42.542  29.672  31.366  1.00  0.00     0.049 A 
ATOM     51  H   UNL A   1      40.678  30.234  30.452  1.00  0.00     0.167 HD
ATOM     52  C   UNL A   1      43.896  24.284  27.874  1.00  0.00     0.037 A 
ATOM     53  C   UNL A   1      42.345  29.396  32.688  1.00  0.00     0.037 A 
ATOM     54  C   UNL A   1      44.702  24.759  28.997  1.00  0.00     0.049 A 
ATOM     55  C   UNL A   1      43.126  28.205  33.193  1.00  0.00     0.074 A 
ATOM     56  C   UNL A   1      45.696  25.721  29.083  1.00  0.00     0.029 A 
ATOM     57  N   UNL A   1      44.330  24.462  30.304  1.00  0.00    -0.354 N 
ATOM     58  N   UNL A   1      43.663  27.307  32.415  1.00  0.00    -0.248 NA
ATOM     59  C   UNL A   1      43.313  27.902  34.610  1.00  0.00     0.031 C 
ATOM     60  C   UNL A   1      45.881  26.047  30.447  1.00  0.00     0.029 A 
ATOM     61  C   UNL A   1      45.010  25.273  31.194  1.00  0.00     0.049 A 
ATOM     62  H   UNL A   1      43.675  23.773  30.560  1.00  0.00     0.167 HD
ATOM     63  C   UNL A   1      44.203  26.308  33.181  1.00  0.00     0.074 A 
ATOM     64  C   UNL A   1      43.986  26.740  34.548  1.00  0.00     0.031 C 
ATOM     65  C   UNL A   1      44.760  25.195  32.624  1.00  0.00     0.037 A 
BRANCH  52  66
ATOM     66  C   UNL A   1      44.474  23.528  26.694  1.00  0.00     0.057 A 
ATOM     67  C   UNL A   1      44.057  22.215  26.394  1.00  0.00     0.134 A 
ATOM     68  C   UNL A   1      45.491  24.011  25.855  1.00  0.00     0.134 A 
ATOM     69  F   UNL A   1      43.000  21.653  26.995  1.00  0.00    -0.206 F 
ATOM     70  C   UNL A   1      44.703  21.403  25.453  1.00  0.00     0.040 A 
ATOM     71  C   UNL A   1      46.184  23.195  24.947  1.00  0.00     0.040 A 
ATOM     72  F   UNL A   1      45.824  25.309  25.837  1.00  0.00    -0.206 F 
ATOM     73  C   UNL A   1      45.804  21.875  24.759  1.00  0.00     0.006 A 
ENDBRANCH  52  66
BRANCH  53  74
ATOM     74  C   UNL A   1      40.999  29.786  33.185  1.00  0.00     0.057 A 
ATOM     75  C   UNL A   1      40.754  31.134  33.496  1.00  0.00     0.134 A 
ATOM     76  C   UNL A   1      39.887  28.956  33.027  1.00  0.00     0.134 A 
ATOM     77  F   UNL A   1      41.779  31.988  33.656  1.00  0.00    -0.206 F 
ATOM     78  C   UNL A   1      39.459  31.657  33.545  1.00  0.00     0.040 A 
ATOM     79  C   UNL A   1      38.585  29.465  33.084  1.00  0.00     0.040 A 
ATOM     80  F   UNL A   1      40.039  27.663  32.705  1.00  0.00    -0.206 F 
ATOM     81  C   UNL A   1      38.370  30.825  33.308  1.00  0.00     0.006 A 
ENDBRANCH  53  74
BRANCH  65  82
ATOM     82  C   UNL A   1      45.197  23.972  33.381  1.00  0.00     0.057 A 
ATOM     83  C   UNL A   1      46.455  23.836  33.986  1.00  0.00     0.134 A 
ATOM     84  C   UNL A   1      44.280  22.932  33.646  1.00  0.00     0.134 A 
ATOM     85  F   UNL A   1      47.380  24.801  33.895  1.00  0.00    -0.206 F 
ATOM     86  C   UNL A   1      46.797  22.717  34.756  1.00  0.00     0.040 A 
ATOM     87  C   UNL A   1      44.595  21.835  34.452  1.00  0.00     0.040 A 
ATOM     88  F   UNL A   1      43.035  22.952  33.147  1.00  0.00    -0.206 F 
ATOM     89  C   UNL A   1      45.863  21.717  35.000  1.00  0.00     0.006 A 
ENDBRANCH  65  82
ENDBRANCH  39  40
ENDBRANCH  31  34
ENDBRANCH  29  30
ENDBRANCH  28  29
ENDBRANCH   1  28
TORSDOF 14
ENDMDL
MODEL 3
REMARK VINA RESULT:     -13.0      3.676      9.483
REMARK SMILES Cc1cc([N+](=O)[O-])ccc1NC(=O)[C@@H]1[C@@H](C(=O)NCCCCNC(=O)c2ccc(-c3c4nc(c(-c5c(F)cccc5F)c5ccc([nH]5)c(-c5c(F)cccc5F)c5nc(c(-c6c(F)cccc6F)c6ccc3[nH]6)C=C5)C=C4)cc2)[C@H]2C=C[C@@H]1C2
REMARK SMILES IDX 20 1 19 2 18 3 16 4 17 5 15 7 14 8 83 9 80 10 82 11 84 12
REMARK SMILES IDX 81 13 12 14 11 15 13 17 10 18 1 19 2 20 3 21 4 22 9 23 8 24
REMARK SMILES IDX 5 25 6 26 7 27 21 28 22 29 23 30 24 31 25 33 26 34 27 35
REMARK SMILES IDX 79 36 28 37 78 38 29 39 30 40 31 41 72 42 32 43 77 44 71 45
REMARK SMILES IDX 73 46 33 47 76 48 70 49 69 50 34 52 60 53 43 54 59 55 44 56
REMARK SMILES IDX 47 57 58 58 74 59 45 60 46 61 57 63 75 64 48 65 35 66 36 67
REMARK SMILES IDX 41 68 37 69 38 70 40 71 42 72 39 73 61 74 62 75 67 76 63 77
REMARK SMILES IDX 64 78 66 79 68 80 65 81 49 82 50 83 55 84 51 85 52 86 54 87
REMARK SMILES IDX 56 88 53 89
REMARK H PARENT 18 6 11 16 23 32 73 51 47 62
REMARK Flexibility Score: inf
ROOT
ATOM      1  C   UNL A   1      32.736  30.205  26.957  1.00  0.00     0.023 C 
ENDROOT
BRANCH   1   2
ATOM      2  C   UNL A   1      31.798  30.613  25.819  1.00  0.00     0.116 C 
BRANCH   2   3
ATOM      3  N   UNL A   1      32.027  29.888  24.584  1.00  0.00    -0.356 N 
ATOM      4  C   UNL A   1      31.162  29.345  23.682  1.00  0.00     0.224 C 
ATOM      5  O   UNL A   1      31.672  28.774  22.715  1.00  0.00    -0.275 OA
ATOM      6  H   UNL A   1      32.977  29.765  24.358  1.00  0.00     0.163 HD
BRANCH   4   7
ATOM      7  C   UNL A   1      29.652  29.373  23.906  1.00  0.00     0.098 C 
ATOM      8  C   UNL A   1      28.907  28.306  22.995  1.00  0.00     0.099 C 
ATOM      9  C   UNL A   1      27.790  29.160  22.335  1.00  0.00     0.025 C 
ATOM     10  C   UNL A   1      28.940  30.686  23.486  1.00  0.00     0.025 C 
ATOM     11  C   UNL A   1      28.468  30.057  21.325  1.00  0.00    -0.027 C 
ATOM     12  C   UNL A   1      27.492  30.200  23.412  1.00  0.00     0.017 C 
ATOM     13  C   UNL A   1      29.171  30.965  22.017  1.00  0.00    -0.027 C 
BRANCH   8  14
ATOM     14  C   UNL A   1      28.340  27.105  23.733  1.00  0.00     0.228 C 
ATOM     15  N   UNL A   1      29.127  26.043  24.111  1.00  0.00    -0.326 N 
ATOM     16  H   UNL A   1      28.622  25.329  24.564  1.00  0.00     0.169 HD
ATOM     17  O   UNL A   1      27.134  27.025  23.987  1.00  0.00    -0.274 OA
BRANCH  15  18
ATOM     18  C   UNL A   1      30.506  25.757  23.989  1.00  0.00     0.044 A 
ATOM     19  C   UNL A   1      30.974  26.790  26.316  1.00  0.00     0.047 C 
ATOM     20  C   UNL A   1      31.373  26.039  25.071  1.00  0.00    -0.021 A 
ATOM     21  C   UNL A   1      32.721  25.612  25.012  1.00  0.00     0.091 A 
ATOM     22  C   UNL A   1      33.204  24.932  23.891  1.00  0.00     0.269 A 
ATOM     23  C   UNL A   1      31.056  25.180  22.836  1.00  0.00     0.033 A 
ATOM     24  C   UNL A   1      32.384  24.742  22.786  1.00  0.00     0.088 A 
BRANCH  22  25
ATOM     25  N   UNL A   1      34.576  24.414  23.876  1.00  0.00     0.062 N 
ATOM     26  O   UNL A   1      35.004  23.945  22.813  1.00  0.00    -0.258 OA
ATOM     27  O   UNL A   1      35.230  24.490  24.926  1.00  0.00    -0.258 OA
ENDBRANCH  22  25
ENDBRANCH  15  18
ENDBRANCH   8  14
ENDBRANCH   4   7
ENDBRANCH   2   3
ENDBRANCH   1   2
BRANCH   1  28
ATOM     28  C   UNL A   1      33.740  31.257  27.423  1.00  0.00     0.023 C 
BRANCH  28  29
ATOM     29  C   UNL A   1      34.662  30.825  28.556  1.00  0.00     0.116 C 
BRANCH  29  30
ATOM     30  N   UNL A   1      35.719  31.774  28.874  1.00  0.00    -0.352 N 
ATOM     31  C   UNL A   1      37.082  31.562  29.047  1.00  0.00     0.251 C 
ATOM     32  H   UNL A   1      35.424  32.707  28.983  1.00  0.00     0.163 HD
ATOM     33  O   UNL A   1      37.811  32.490  29.323  1.00  0.00    -0.269 OA
BRANCH  31  34
ATOM     34  C   UNL A   1      37.662  30.221  28.753  1.00  0.00     0.039 A 
ATOM     35  C   UNL A   1      37.726  29.296  29.802  1.00  0.00     0.014 A 
ATOM     36  C   UNL A   1      38.300  29.944  27.548  1.00  0.00     0.014 A 
ATOM     37  C   UNL A   1      38.642  28.247  29.737  1.00  0.00     0.010 A 
ATOM     38  C   UNL A   1      39.277  28.969  27.516  1.00  0.00     0.010 A 
ATOM     39  C   UNL A   1      39.500  28.173  28.641  1.00  0.00    -0.014 A 
BRANCH  39  40
ATOM     40  C   UNL A   1      40.757  27.434  28.675  1.00  0.00     0.031 A 
ATOM     41  C   UNL A   1      40.810  25.983  28.413  1.00  0.00     0.074 A 
ATOM     42  C   UNL A   1      41.904  28.125  28.860  1.00  0.00     0.049 A 
ATOM     43  N   UNL A   1      41.730  25.196  28.863  1.00  0.00    -0.248 NA
ATOM     44  C   UNL A   1      39.794  25.295  27.629  1.00  0.00     0.031 C 
ATOM     45  C   UNL A   1      43.271  27.655  28.659  1.00  0.00     0.029 A 
ATOM     46  N   UNL A   1      42.052  29.377  29.474  1.00  0.00    -0.354 N 
ATOM     47  C   UNL A   1      41.599  23.987  28.217  1.00  0.00     0.074 A 
ATOM     48  C   UNL A   1      40.338  24.079  27.514  1.00  0.00     0.031 C 
ATOM     49  C   UNL A   1      44.104  28.436  29.365  1.00  0.00     0.029 A 
ATOM     50  C   UNL A   1      43.284  29.337  30.158  1.00  0.00     0.049 A 
ATOM     51  H   UNL A   1      41.422  30.133  29.434  1.00  0.00     0.167 HD
ATOM     52  C   UNL A   1      42.637  23.100  28.223  1.00  0.00     0.037 A 
ATOM     53  C   UNL A   1      43.342  29.454  31.517  1.00  0.00     0.037 A 
ATOM     54  C   UNL A   1      43.761  23.603  29.011  1.00  0.00     0.049 A 
ATOM     55  C   UNL A   1      43.949  28.259  32.213  1.00  0.00     0.074 A 
ATOM     56  C   UNL A   1      44.928  24.258  28.650  1.00  0.00     0.029 A 
ATOM     57  N   UNL A   1      43.644  23.744  30.390  1.00  0.00    -0.354 N 
ATOM     58  N   UNL A   1      44.093  27.089  31.656  1.00  0.00    -0.248 NA
ATOM     59  C   UNL A   1      44.389  28.272  33.607  1.00  0.00     0.031 C 
ATOM     60  C   UNL A   1      45.484  24.845  29.810  1.00  0.00     0.029 A 
ATOM     61  C   UNL A   1      44.666  24.537  30.881  1.00  0.00     0.049 A 
ATOM     62  H   UNL A   1      42.936  23.337  30.939  1.00  0.00     0.167 HD
ATOM     63  C   UNL A   1      44.571  26.201  32.582  1.00  0.00     0.074 A 
ATOM     64  C   UNL A   1      44.770  26.994  33.779  1.00  0.00     0.031 C 
ATOM     65  C   UNL A   1      44.739  24.879  32.292  1.00  0.00     0.037 A 
BRANCH  52  66
ATOM     66  C   UNL A   1      42.757  21.954  27.238  1.00  0.00     0.057 A 
ATOM     67  C   UNL A   1      41.987  20.783  27.385  1.00  0.00     0.134 A 
ATOM     68  C   UNL A   1      43.660  21.914  26.163  1.00  0.00     0.134 A 
ATOM     69  F   UNL A   1      40.978  20.704  28.262  1.00  0.00    -0.206 F 
ATOM     70  C   UNL A   1      42.208  19.621  26.633  1.00  0.00     0.040 A 
ATOM     71  C   UNL A   1      43.932  20.744  25.437  1.00  0.00     0.040 A 
ATOM     72  F   UNL A   1      44.280  23.020  25.731  1.00  0.00    -0.206 F 
ATOM     73  C   UNL A   1      43.218  19.582  25.687  1.00  0.00     0.006 A 
ENDBRANCH  52  66
BRANCH  53  74
ATOM     74  C   UNL A   1      42.259  30.296  32.089  1.00  0.00     0.057 A 
ATOM     75  C   UNL A   1      42.400  31.694  32.066  1.00  0.00     0.134 A 
ATOM     76  C   UNL A   1      40.979  29.788  32.326  1.00  0.00     0.134 A 
ATOM     77  F   UNL A   1      43.603  32.247  31.838  1.00  0.00    -0.206 F 
ATOM     78  C   UNL A   1      41.301  32.549  32.169  1.00  0.00     0.040 A 
ATOM     79  C   UNL A   1      39.871  30.635  32.441  1.00  0.00     0.040 A 
ATOM     80  F   UNL A   1      40.759  28.466  32.338  1.00  0.00    -0.206 F 
ATOM     81  C   UNL A   1      40.025  32.017  32.327  1.00  0.00     0.006 A 
ENDBRANCH  53  74
BRANCH  65  82
ATOM     82  C   UNL A   1      45.070  23.807  33.292  1.00  0.00     0.057 A 
ATOM     83  C   UNL A   1      44.180  22.791  33.671  1.00  0.00     0.134 A 
ATOM     84  C   UNL A   1      46.380  23.687  33.802  1.00  0.00     0.134 A 
ATOM     85  F   UNL A   1      42.936  22.733  33.177  1.00  0.00    -0.206 F 
ATOM     86  C   UNL A   1      44.551  21.758  34.542  1.00  0.00     0.040 A 
ATOM     87  C   UNL A   1      46.774  22.635  34.633  1.00  0.00     0.040 A 
ATOM     88  F   UNL A   1      47.335  24.580  33.498  1.00  0.00    -0.206 F 
ATOM     89  C   UNL A   1      45.854  21.671  35.017  1.00  0.00     0.006 A 
ENDBRANCH  65  82
ENDBRANCH  39  40
ENDBRANCH  31  34
ENDBRANCH  29  30
ENDBRANCH  28  29
ENDBRANCH   1  28
TORSDOF 14
ENDMDL
