MODEL 1
REMARK VINA RESULT:     -11.7      0.000      0.000
REMARK SMILES C[C@@H]1[C@@H](C(=O)NCCCCNC(=O)c2ccc(-c3c4nc(c(-c5c(F)cccc5F)c5ccc([nH]5)c(-c5c(F)cccc5F)c5nc(c(-c6c(F)cccc6F)c6ccc3[nH]6)C=C5)C=C4)cc2)CCN1c1ccc(F)cc1C(N)=O
REMARK SMILES IDX 8 1 7 2 6 3 4 4 5 5 3 7 1 8 2 9 70 10 68 11 69 12 71 13
REMARK SMILES IDX 72 14 77 15 73 16 76 17 74 18 75 19 78 20 79 21 80 22 9 25
REMARK SMILES IDX 10 26 11 27 12 28 13 30 14 31 15 32 67 33 16 34 66 35 17 36
REMARK SMILES IDX 18 37 19 38 60 39 20 40 65 41 59 42 61 43 21 44 64 45 58 46
REMARK SMILES IDX 57 47 22 49 48 50 31 51 47 52 32 53 35 54 46 55 62 56 33 57
REMARK SMILES IDX 34 58 45 60 63 61 36 62 23 63 24 64 29 65 25 66 26 67 28 68
REMARK SMILES IDX 30 69 27 70 49 71 50 72 55 73 51 74 52 75 54 76 56 77 53 78
REMARK SMILES IDX 37 79 38 80 43 81 39 82 40 83 42 84 44 85 41 86
REMARK H PARENT 6 6 79 23 79 24 11 29 61 48 35 59
REMARK Flexibility Score: inf
ROOT
ATOM      1  C   UNL A   1      33.219  29.312  24.766  1.00  0.00     0.023 C 
ENDROOT
BRANCH   1   2
ATOM      2  C   UNL A   1      32.348  28.625  23.718  1.00  0.00     0.116 C 
BRANCH   2   3
ATOM      3  N   UNL A   1      33.091  27.800  22.786  1.00  0.00    -0.356 N 
ATOM      4  C   UNL A   1      33.023  26.451  22.583  1.00  0.00     0.225 C 
ATOM      5  O   UNL A   1      33.653  25.998  21.626  1.00  0.00    -0.275 OA
ATOM      6  H   UNL A   1      33.735  28.281  22.217  1.00  0.00     0.163 HD
BRANCH   4   7
ATOM      7  C   UNL A   1      32.259  25.577  23.571  1.00  0.00     0.102 C 
ATOM      8  C   UNL A   1      32.595  24.899  25.989  1.00  0.00     0.032 C 
ATOM      9  C   UNL A   1      33.210  24.891  24.589  1.00  0.00     0.091 C 
ATOM     10  N   UNL A   1      33.323  23.509  24.099  1.00  0.00    -0.367 N 
ATOM     11  C   UNL A   1      31.527  24.397  22.921  1.00  0.00     0.037 C 
ATOM     12  C   UNL A   1      32.578  23.304  22.869  1.00  0.00     0.118 C 
BRANCH  10  13
ATOM     13  C   UNL A   1      34.427  22.716  24.329  1.00  0.00     0.050 A 
ATOM     14  C   UNL A   1      35.663  23.052  23.746  1.00  0.00     0.030 A 
ATOM     15  C   UNL A   1      34.364  21.531  25.093  1.00  0.00     0.065 A 
ATOM     16  C   UNL A   1      36.782  22.228  23.886  1.00  0.00     0.041 A 
ATOM     17  C   UNL A   1      35.489  20.705  25.239  1.00  0.00     0.055 A 
ATOM     18  C   UNL A   1      36.680  21.059  24.626  1.00  0.00     0.124 A 
ATOM     19  F   UNL A   1      37.746  20.257  24.744  1.00  0.00    -0.207 F 
BRANCH  15  20
ATOM     20  C   UNL A   1      33.099  21.077  25.727  1.00  0.00     0.250 C 
ATOM     21  N   UNL A   1      32.934  21.450  27.036  1.00  0.00    -0.366 N 
ATOM     22  O   UNL A   1      32.261  20.399  25.154  1.00  0.00    -0.269 OA
ATOM     23  H   UNL A   1      33.619  21.998  27.482  1.00  0.00     0.159 HD
ATOM     24  H   UNL A   1      32.129  21.170  27.530  1.00  0.00     0.159 HD
ENDBRANCH  15  20
ENDBRANCH  10  13
ENDBRANCH   4   7
ENDBRANCH   2   3
ENDBRANCH   1   2
BRANCH   1  25
ATOM     25  C   UNL A   1      33.974  28.390  25.725  1.00  0.00     0.023 C 
BRANCH  25  26
ATOM     26  C   UNL A   1      33.653  28.553  27.207  1.00  0.00     0.116 C 
BRANCH  26  27
ATOM     27  N   UNL A   1      33.659  29.938  27.648  1.00  0.00    -0.352 N 
ATOM     28  C   UNL A   1      34.662  30.679  28.225  1.00  0.00     0.251 C 
ATOM     29  H   UNL A   1      32.812  30.421  27.512  1.00  0.00     0.163 HD
ATOM     30  O   UNL A   1      34.424  31.811  28.636  1.00  0.00    -0.269 OA
BRANCH  28  31
ATOM     31  C   UNL A   1      36.020  30.113  28.388  1.00  0.00     0.039 A 
ATOM     32  C   UNL A   1      36.905  30.167  27.307  1.00  0.00     0.014 A 
ATOM     33  C   UNL A   1      36.424  29.523  29.588  1.00  0.00     0.014 A 
ATOM     34  C   UNL A   1      38.215  29.703  27.454  1.00  0.00     0.010 A 
ATOM     35  C   UNL A   1      37.750  29.132  29.758  1.00  0.00     0.010 A 
ATOM     36  C   UNL A   1      38.660  29.218  28.694  1.00  0.00    -0.014 A 
BRANCH  36  37
ATOM     37  C   UNL A   1      40.068  28.791  28.899  1.00  0.00     0.031 A 
ATOM     38  C   UNL A   1      41.071  29.749  29.479  1.00  0.00     0.074 A 
ATOM     39  C   UNL A   1      40.465  27.569  28.494  1.00  0.00     0.049 A 
ATOM     40  N   UNL A   1      42.361  29.601  29.640  1.00  0.00    -0.248 NA
ATOM     41  C   UNL A   1      40.558  31.060  29.909  1.00  0.00     0.031 C 
ATOM     42  C   UNL A   1      39.604  26.559  27.874  1.00  0.00     0.029 A 
ATOM     43  N   UNL A   1      41.701  26.973  28.534  1.00  0.00    -0.354 N 
ATOM     44  C   UNL A   1      42.817  30.805  30.162  1.00  0.00     0.074 A 
ATOM     45  C   UNL A   1      41.673  31.687  30.251  1.00  0.00     0.031 C 
ATOM     46  C   UNL A   1      40.334  25.463  27.611  1.00  0.00     0.029 A 
ATOM     47  C   UNL A   1      41.717  25.702  28.010  1.00  0.00     0.049 A 
ATOM     48  H   UNL A   1      42.500  27.413  28.902  1.00  0.00     0.167 HD
ATOM     49  C   UNL A   1      44.070  31.141  30.551  1.00  0.00     0.037 A 
ATOM     50  C   UNL A   1      42.733  24.831  27.864  1.00  0.00     0.037 A 
ATOM     51  C   UNL A   1      45.201  30.253  30.501  1.00  0.00     0.049 A 
ATOM     52  C   UNL A   1      44.110  25.217  28.327  1.00  0.00     0.074 A 
ATOM     53  C   UNL A   1      46.499  30.482  30.924  1.00  0.00     0.029 A 
ATOM     54  N   UNL A   1      45.167  28.959  30.002  1.00  0.00    -0.354 N 
ATOM     55  N   UNL A   1      44.515  26.341  28.863  1.00  0.00    -0.248 NA
ATOM     56  C   UNL A   1      45.168  24.209  28.169  1.00  0.00     0.031 C 
ATOM     57  C   UNL A   1      47.256  29.336  30.658  1.00  0.00     0.029 A 
ATOM     58  C   UNL A   1      46.422  28.381  30.101  1.00  0.00     0.049 A 
ATOM     59  H   UNL A   1      44.369  28.518  29.632  1.00  0.00     0.167 HD
ATOM     60  C   UNL A   1      45.866  26.167  29.135  1.00  0.00     0.074 A 
ATOM     61  C   UNL A   1      46.210  24.825  28.709  1.00  0.00     0.031 C 
ATOM     62  C   UNL A   1      46.742  27.040  29.688  1.00  0.00     0.037 A 
BRANCH  49  63
ATOM     63  C   UNL A   1      44.278  32.532  31.073  1.00  0.00     0.057 A 
ATOM     64  C   UNL A   1      44.164  32.831  32.436  1.00  0.00     0.134 A 
ATOM     65  C   UNL A   1      44.612  33.579  30.206  1.00  0.00     0.134 A 
ATOM     66  F   UNL A   1      43.832  31.875  33.317  1.00  0.00    -0.206 F 
ATOM     67  C   UNL A   1      44.346  34.129  32.916  1.00  0.00     0.040 A 
ATOM     68  C   UNL A   1      44.822  34.876  30.677  1.00  0.00     0.040 A 
ATOM     69  F   UNL A   1      44.743  33.359  28.889  1.00  0.00    -0.206 F 
ATOM     70  C   UNL A   1      44.681  35.155  32.036  1.00  0.00     0.006 A 
ENDBRANCH  49  63
BRANCH  50  71
ATOM     71  C   UNL A   1      42.481  23.489  27.284  1.00  0.00     0.057 A 
ATOM     72  C   UNL A   1      42.067  22.424  28.094  1.00  0.00     0.134 A 
ATOM     73  C   UNL A   1      42.648  23.237  25.918  1.00  0.00     0.134 A 
ATOM     74  F   UNL A   1      41.909  22.603  29.413  1.00  0.00    -0.206 F 
ATOM     75  C   UNL A   1      41.844  21.151  27.569  1.00  0.00     0.040 A 
ATOM     76  C   UNL A   1      42.408  21.973  25.376  1.00  0.00     0.040 A 
ATOM     77  F   UNL A   1      43.035  24.218  25.091  1.00  0.00    -0.206 F 
ATOM     78  C   UNL A   1      42.010  20.925  26.204  1.00  0.00     0.006 A 
ENDBRANCH  50  71
BRANCH  62  79
ATOM     79  C   UNL A   1      48.145  26.558  29.906  1.00  0.00     0.057 A 
ATOM     80  C   UNL A   1      49.145  26.735  28.943  1.00  0.00     0.134 A 
ATOM     81  C   UNL A   1      48.505  25.941  31.110  1.00  0.00     0.134 A 
ATOM     82  F   UNL A   1      48.860  27.307  27.763  1.00  0.00    -0.206 F 
ATOM     83  C   UNL A   1      50.453  26.299  29.163  1.00  0.00     0.040 A 
ATOM     84  C   UNL A   1      49.813  25.519  31.350  1.00  0.00     0.040 A 
ATOM     85  F   UNL A   1      47.594  25.746  32.075  1.00  0.00    -0.206 F 
ATOM     86  C   UNL A   1      50.791  25.695  30.373  1.00  0.00     0.006 A 
ENDBRANCH  62  79
ENDBRANCH  36  37
ENDBRANCH  28  31
ENDBRANCH  26  27
ENDBRANCH  25  26
ENDBRANCH   1  25
TORSDOF 13
ENDMDL
MODEL 2
REMARK VINA RESULT:     -11.4      2.706      7.660
REMARK SMILES C[C@@H]1[C@@H](C(=O)NCCCCNC(=O)c2ccc(-c3c4nc(c(-c5c(F)cccc5F)c5ccc([nH]5)c(-c5c(F)cccc5F)c5nc(c(-c6c(F)cccc6F)c6ccc3[nH]6)C=C5)C=C4)cc2)CCN1c1ccc(F)cc1C(N)=O
REMARK SMILES IDX 8 1 7 2 6 3 4 4 5 5 3 7 1 8 2 9 70 10 68 11 69 12 71 13
REMARK SMILES IDX 72 14 77 15 73 16 76 17 74 18 75 19 78 20 79 21 80 22 9 25
REMARK SMILES IDX 10 26 11 27 12 28 13 30 14 31 15 32 67 33 16 34 66 35 17 36
REMARK SMILES IDX 18 37 19 38 60 39 20 40 65 41 59 42 61 43 21 44 64 45 58 46
REMARK SMILES IDX 57 47 22 49 48 50 31 51 47 52 32 53 35 54 46 55 62 56 33 57
REMARK SMILES IDX 34 58 45 60 63 61 36 62 23 63 24 64 29 65 25 66 26 67 28 68
REMARK SMILES IDX 30 69 27 70 49 71 50 72 55 73 51 74 52 75 54 76 56 77 53 78
REMARK SMILES IDX 37 79 38 80 43 81 39 82 40 83 42 84 44 85 41 86
REMARK H PARENT 6 6 79 23 79 24 11 29 61 48 35 59
REMARK Flexibility Score: inf
ROOT
ATOM      1  C   UNL A   1      36.821  20.384  25.000  1.00  0.00     0.023 C 
ENDROOT
BRANCH   1   2
ATOM      2  C   UNL A   1      36.997  21.884  24.773  1.00  0.00     0.116 C 
BRANCH   2   3
ATOM      3  N   UNL A   1      36.324  22.382  23.589  1.00  0.00    -0.356 N 
ATOM      4  C   UNL A   1      35.127  23.032  23.485  1.00  0.00     0.225 C 
ATOM      5  O   UNL A   1      34.835  23.488  22.379  1.00  0.00    -0.275 OA
ATOM      6  H   UNL A   1      36.799  22.231  22.740  1.00  0.00     0.163 HD
BRANCH   4   7
ATOM      7  C   UNL A   1      34.193  23.091  24.689  1.00  0.00     0.102 C 
ATOM      8  C   UNL A   1      31.723  22.667  25.056  1.00  0.00     0.032 C 
ATOM      9  C   UNL A   1      32.750  23.491  24.279  1.00  0.00     0.091 C 
ATOM     10  N   UNL A   1      32.649  24.908  24.660  1.00  0.00    -0.367 N 
ATOM     11  C   UNL A   1      34.577  24.158  25.721  1.00  0.00     0.037 C 
ATOM     12  C   UNL A   1      33.893  25.414  25.212  1.00  0.00     0.118 C 
BRANCH  10  13
ATOM     13  C   UNL A   1      31.809  25.800  24.028  1.00  0.00     0.050 A 
ATOM     14  C   UNL A   1      32.028  26.131  22.678  1.00  0.00     0.030 A 
ATOM     15  C   UNL A   1      30.751  26.450  24.698  1.00  0.00     0.065 A 
ATOM     16  C   UNL A   1      31.252  27.093  22.028  1.00  0.00     0.041 A 
ATOM     17  C   UNL A   1      29.966  27.412  24.045  1.00  0.00     0.055 A 
ATOM     18  C   UNL A   1      30.233  27.728  22.722  1.00  0.00     0.124 A 
ATOM     19  F   UNL A   1      29.501  28.667  22.108  1.00  0.00    -0.207 F 
BRANCH  15  20
ATOM     20  C   UNL A   1      30.455  26.188  26.130  1.00  0.00     0.250 C 
ATOM     21  N   UNL A   1      29.527  25.206  26.367  1.00  0.00    -0.366 N 
ATOM     22  O   UNL A   1      30.969  26.805  27.050  1.00  0.00    -0.269 OA
ATOM     23  H   UNL A   1      29.124  24.718  25.613  1.00  0.00     0.159 HD
ATOM     24  H   UNL A   1      29.265  24.989  27.291  1.00  0.00     0.159 HD
ENDBRANCH  15  20
ENDBRANCH  10  13
ENDBRANCH   4   7
ENDBRANCH   2   3
ENDBRANCH   1   2
BRANCH   1  25
ATOM     25  C   UNL A   1      38.101  19.547  24.993  1.00  0.00     0.023 C 
BRANCH  25  26
ATOM     26  C   UNL A   1      39.272  20.103  25.797  1.00  0.00     0.116 C 
BRANCH  26  27
ATOM     27  N   UNL A   1      40.410  19.200  25.854  1.00  0.00    -0.352 N 
ATOM     28  C   UNL A   1      41.728  19.455  26.147  1.00  0.00     0.251 C 
ATOM     29  H   UNL A   1      40.204  18.259  25.650  1.00  0.00     0.163 HD
ATOM     30  O   UNL A   1      42.563  18.563  26.023  1.00  0.00    -0.269 OA
BRANCH  28  31
ATOM     31  C   UNL A   1      42.158  20.804  26.577  1.00  0.00     0.039 A 
ATOM     32  C   UNL A   1      42.550  21.727  25.602  1.00  0.00     0.014 A 
ATOM     33  C   UNL A   1      42.190  21.163  27.926  1.00  0.00     0.014 A 
ATOM     34  C   UNL A   1      42.894  23.029  25.973  1.00  0.00     0.010 A 
ATOM     35  C   UNL A   1      42.459  22.481  28.288  1.00  0.00     0.010 A 
ATOM     36  C   UNL A   1      42.813  23.428  27.316  1.00  0.00    -0.014 A 
BRANCH  36  37
ATOM     37  C   UNL A   1      43.100  24.827  27.728  1.00  0.00     0.031 A 
ATOM     38  C   UNL A   1      44.519  25.282  27.920  1.00  0.00     0.074 A 
ATOM     39  C   UNL A   1      42.082  25.667  28.002  1.00  0.00     0.049 A 
ATOM     40  N   UNL A   1      44.969  26.425  28.372  1.00  0.00    -0.248 NA
ATOM     41  C   UNL A   1      45.574  24.311  27.588  1.00  0.00     0.031 C 
ATOM     42  C   UNL A   1      40.659  25.339  27.900  1.00  0.00     0.029 A 
ATOM     43  N   UNL A   1      42.093  26.970  28.435  1.00  0.00    -0.354 N 
ATOM     44  C   UNL A   1      46.351  26.302  28.404  1.00  0.00     0.074 A 
ATOM     45  C   UNL A   1      46.666  24.958  27.966  1.00  0.00     0.031 C 
ATOM     46  C   UNL A   1      39.934  26.417  28.241  1.00  0.00     0.029 A 
ATOM     47  C   UNL A   1      40.838  27.500  28.617  1.00  0.00     0.049 A 
ATOM     48  H   UNL A   1      42.920  27.476  28.600  1.00  0.00     0.167 HD
ATOM     49  C   UNL A   1      47.279  27.228  28.746  1.00  0.00     0.037 A 
ATOM     50  C   UNL A   1      40.459  28.719  29.044  1.00  0.00     0.037 A 
ATOM     51  C   UNL A   1      46.971  28.576  29.143  1.00  0.00     0.049 A 
ATOM     52  C   UNL A   1      41.507  29.739  29.395  1.00  0.00     0.074 A 
ATOM     53  C   UNL A   1      47.844  29.604  29.456  1.00  0.00     0.029 A 
ATOM     54  N   UNL A   1      45.689  29.086  29.276  1.00  0.00    -0.354 N 
ATOM     55  N   UNL A   1      42.811  29.622  29.373  1.00  0.00    -0.248 NA
ATOM     56  C   UNL A   1      41.027  31.060  29.823  1.00  0.00     0.031 C 
ATOM     57  C   UNL A   1      47.088  30.730  29.802  1.00  0.00     0.029 A 
ATOM     58  C   UNL A   1      45.746  30.412  29.671  1.00  0.00     0.049 A 
ATOM     59  H   UNL A   1      44.860  28.580  29.113  1.00  0.00     0.167 HD
ATOM     60  C   UNL A   1      43.310  30.861  29.754  1.00  0.00     0.074 A 
ATOM     61  C   UNL A   1      42.166  31.717  29.995  1.00  0.00     0.031 C 
ATOM     62  C   UNL A   1      44.599  31.254  29.891  1.00  0.00     0.037 A 
BRANCH  49  63
ATOM     63  C   UNL A   1      48.718  26.808  28.698  1.00  0.00     0.057 A 
ATOM     64  C   UNL A   1      49.353  26.226  29.802  1.00  0.00     0.134 A 
ATOM     65  C   UNL A   1      49.473  26.971  27.530  1.00  0.00     0.134 A 
ATOM     66  F   UNL A   1      48.689  26.055  30.955  1.00  0.00    -0.206 F 
ATOM     67  C   UNL A   1      50.696  25.848  29.757  1.00  0.00     0.040 A 
ATOM     68  C   UNL A   1      50.809  26.574  27.463  1.00  0.00     0.040 A 
ATOM     69  F   UNL A   1      48.924  27.517  26.434  1.00  0.00    -0.206 F 
ATOM     70  C   UNL A   1      51.426  26.017  28.583  1.00  0.00     0.006 A 
ENDBRANCH  49  63
BRANCH  50  71
ATOM     71  C   UNL A   1      39.018  29.059  29.130  1.00  0.00     0.057 A 
ATOM     72  C   UNL A   1      38.322  28.930  30.338  1.00  0.00     0.134 A 
ATOM     73  C   UNL A   1      38.303  29.514  28.016  1.00  0.00     0.134 A 
ATOM     74  F   UNL A   1      38.950  28.480  31.434  1.00  0.00    -0.206 F 
ATOM     75  C   UNL A   1      36.961  29.226  30.433  1.00  0.00     0.040 A 
ATOM     76  C   UNL A   1      36.947  29.834  28.102  1.00  0.00     0.040 A 
ATOM     77  F   UNL A   1      38.916  29.664  26.834  1.00  0.00    -0.206 F 
ATOM     78  C   UNL A   1      36.272  29.684  29.313  1.00  0.00     0.006 A 
ENDBRANCH  50  71
BRANCH  62  79
ATOM     79  C   UNL A   1      44.843  32.682  30.277  1.00  0.00     0.057 A 
ATOM     80  C   UNL A   1      44.995  33.070  31.613  1.00  0.00     0.134 A 
ATOM     81  C   UNL A   1      44.963  33.673  29.295  1.00  0.00     0.134 A 
ATOM     82  F   UNL A   1      44.878  32.170  32.601  1.00  0.00    -0.206 F 
ATOM     83  C   UNL A   1      45.241  34.399  31.961  1.00  0.00     0.040 A 
ATOM     84  C   UNL A   1      45.228  35.001  29.629  1.00  0.00     0.040 A 
ATOM     85  F   UNL A   1      44.831  33.364  27.996  1.00  0.00    -0.206 F 
ATOM     86  C   UNL A   1      45.364  35.368  30.966  1.00  0.00     0.006 A 
ENDBRANCH  62  79
ENDBRANCH  36  37
ENDBRANCH  28  31
ENDBRANCH  26  27
ENDBRANCH  25  26
ENDBRANCH   1  25
TORSDOF 13
ENDMDL
MODEL 3
REMARK VINA RESULT:     -11.3      2.441      7.669
REMARK SMILES C[C@@H]1[C@@H](C(=O)NCCCCNC(=O)c2ccc(-c3c4nc(c(-c5c(F)cccc5F)c5ccc([nH]5)c(-c5c(F)cccc5F)c5nc(c(-c6c(F)cccc6F)c6ccc3[nH]6)C=C5)C=C4)cc2)CCN1c1ccc(F)cc1C(N)=O
REMARK SMILES IDX 8 1 7 2 6 3 4 4 5 5 3 7 1 8 2 9 70 10 68 11 69 12 71 13
REMARK SMILES IDX 72 14 77 15 73 16 76 17 74 18 75 19 78 20 79 21 80 22 9 25
REMARK SMILES IDX 10 26 11 27 12 28 13 30 14 31 15 32 67 33 16 34 66 35 17 36
REMARK SMILES IDX 18 37 19 38 60 39 20 40 65 41 59 42 61 43 21 44 64 45 58 46
REMARK SMILES IDX 57 47 22 49 48 50 31 51 47 52 32 53 35 54 46 55 62 56 33 57
REMARK SMILES IDX 34 58 45 60 63 61 36 62 23 63 24 64 29 65 25 66 26 67 28 68
REMARK SMILES IDX 30 69 27 70 49 71 50 72 55 73 51 74 52 75 54 76 56 77 53 78
REMARK SMILES IDX 37 79 38 80 43 81 39 82 40 83 42 84 44 85 41 86
REMARK H PARENT 6 6 79 23 79 24 11 29 61 48 35 59
REMARK Flexibility Score: inf
ROOT
ATOM      1  C   UNL A   1      36.470  20.414  24.984  1.00  0.00     0.023 C 
ENDROOT
BRANCH   1   2
ATOM      2  C   UNL A   1      36.597  21.896  25.328  1.00  0.00     0.116 C 
BRANCH   2   3
ATOM      3  N   UNL A   1      35.797  22.306  26.465  1.00  0.00    -0.356 N 
ATOM      4  C   UNL A   1      34.473  22.640  26.515  1.00  0.00     0.225 C 
ATOM      5  O   UNL A   1      33.983  22.814  27.631  1.00  0.00    -0.275 OA
ATOM      6  H   UNL A   1      36.276  22.349  27.324  1.00  0.00     0.163 HD
BRANCH   4   7
ATOM      7  C   UNL A   1      33.701  22.856  25.218  1.00  0.00     0.102 C 
ATOM      8  C   UNL A   1      34.134  24.131  23.073  1.00  0.00     0.032 C 
ATOM      9  C   UNL A   1      34.005  24.244  24.591  1.00  0.00     0.091 C 
ATOM     10  N   UNL A   1      32.830  25.058  24.936  1.00  0.00    -0.367 N 
ATOM     11  C   UNL A   1      32.178  22.875  25.397  1.00  0.00     0.037 C 
ATOM     12  C   UNL A   1      31.873  24.321  25.743  1.00  0.00     0.118 C 
BRANCH  10  13
ATOM     13  C   UNL A   1      32.878  26.429  25.077  1.00  0.00     0.050 A 
ATOM     14  C   UNL A   1      33.634  26.998  26.119  1.00  0.00     0.030 A 
ATOM     15  C   UNL A   1      32.149  27.303  24.244  1.00  0.00     0.065 A 
ATOM     16  C   UNL A   1      33.638  28.376  26.347  1.00  0.00     0.041 A 
ATOM     17  C   UNL A   1      32.158  28.689  24.467  1.00  0.00     0.055 A 
ATOM     18  C   UNL A   1      32.894  29.206  25.521  1.00  0.00     0.124 A 
ATOM     19  F   UNL A   1      32.879  30.525  25.750  1.00  0.00    -0.207 F 
BRANCH  15  20
ATOM     20  C   UNL A   1      31.302  26.798  23.133  1.00  0.00     0.250 C 
ATOM     21  N   UNL A   1      31.891  26.809  21.895  1.00  0.00    -0.366 N 
ATOM     22  O   UNL A   1      30.151  26.417  23.281  1.00  0.00    -0.269 OA
ATOM     23  H   UNL A   1      32.820  27.118  21.795  1.00  0.00     0.159 HD
ATOM     24  H   UNL A   1      31.384  26.506  21.106  1.00  0.00     0.159 HD
ENDBRANCH  15  20
ENDBRANCH  10  13
ENDBRANCH   4   7
ENDBRANCH   2   3
ENDBRANCH   1   2
BRANCH   1  25
ATOM     25  C   UNL A   1      37.781  19.635  24.868  1.00  0.00     0.023 C 
BRANCH  25  26
ATOM     26  C   UNL A   1      38.945  20.149  25.708  1.00  0.00     0.116 C 
BRANCH  26  27
ATOM     27  N   UNL A   1      40.082  19.243  25.731  1.00  0.00    -0.352 N 
ATOM     28  C   UNL A   1      41.392  19.477  26.072  1.00  0.00     0.251 C 
ATOM     29  H   UNL A   1      39.882  18.318  25.459  1.00  0.00     0.163 HD
ATOM     30  O   UNL A   1      42.231  18.594  25.907  1.00  0.00    -0.269 OA
BRANCH  28  31
ATOM     31  C   UNL A   1      41.811  20.793  26.602  1.00  0.00     0.039 A 
ATOM     32  C   UNL A   1      42.299  21.753  25.709  1.00  0.00     0.014 A 
ATOM     33  C   UNL A   1      41.738  21.086  27.966  1.00  0.00     0.014 A 
ATOM     34  C   UNL A   1      42.637  23.028  26.172  1.00  0.00     0.010 A 
ATOM     35  C   UNL A   1      42.002  22.378  28.414  1.00  0.00     0.010 A 
ATOM     36  C   UNL A   1      42.453  23.363  27.523  1.00  0.00    -0.014 A 
BRANCH  36  37
ATOM     37  C   UNL A   1      42.731  24.733  28.026  1.00  0.00     0.031 A 
ATOM     38  C   UNL A   1      44.124  25.118  28.440  1.00  0.00     0.074 A 
ATOM     39  C   UNL A   1      41.718  25.608  28.182  1.00  0.00     0.049 A 
ATOM     40  N   UNL A   1      44.547  26.224  28.996  1.00  0.00    -0.248 NA
ATOM     41  C   UNL A   1      45.176  24.112  28.226  1.00  0.00     0.031 C 
ATOM     42  C   UNL A   1      40.313  25.348  27.863  1.00  0.00     0.029 A 
ATOM     43  N   UNL A   1      41.716  26.895  28.663  1.00  0.00    -0.354 N 
ATOM     44  C   UNL A   1      45.904  26.038  29.223  1.00  0.00     0.074 A 
ATOM     45  C   UNL A   1      46.226  24.697  28.784  1.00  0.00     0.031 C 
ATOM     46  C   UNL A   1      39.590  26.446  28.137  1.00  0.00     0.029 A 
ATOM     47  C   UNL A   1      40.470  27.474  28.682  1.00  0.00     0.049 A 
ATOM     48  H   UNL A   1      42.530  27.358  28.966  1.00  0.00     0.167 HD
ATOM     49  C   UNL A   1      46.807  26.910  29.732  1.00  0.00     0.037 A 
ATOM     50  C   UNL A   1      40.082  28.694  29.097  1.00  0.00     0.037 A 
ATOM     51  C   UNL A   1      46.499  28.257  30.133  1.00  0.00     0.049 A 
ATOM     52  C   UNL A   1      41.106  29.654  29.635  1.00  0.00     0.074 A 
ATOM     53  C   UNL A   1      47.356  29.234  30.609  1.00  0.00     0.029 A 
ATOM     54  N   UNL A   1      45.232  28.819  30.098  1.00  0.00    -0.354 N 
ATOM     55  N   UNL A   1      42.394  29.479  29.798  1.00  0.00    -0.248 NA
ATOM     56  C   UNL A   1      40.622  30.981  30.040  1.00  0.00     0.031 C 
ATOM     57  C   UNL A   1      46.602  30.380  30.885  1.00  0.00     0.029 A 
ATOM     58  C   UNL A   1      45.282  30.128  30.549  1.00  0.00     0.049 A 
ATOM     59  H   UNL A   1      44.416  28.356  29.797  1.00  0.00     0.167 HD
ATOM     60  C   UNL A   1      42.880  30.682  30.295  1.00  0.00     0.074 A 
ATOM     61  C   UNL A   1      41.748  31.580  30.402  1.00  0.00     0.031 C 
ATOM     62  C   UNL A   1      44.150  31.012  30.633  1.00  0.00     0.037 A 
BRANCH  49  63
ATOM     63  C   UNL A   1      48.221  26.428  29.877  1.00  0.00     0.057 A 
ATOM     64  C   UNL A   1      49.163  26.592  28.855  1.00  0.00     0.134 A 
ATOM     65  C   UNL A   1      48.649  25.810  31.059  1.00  0.00     0.134 A 
ATOM     66  F   UNL A   1      48.812  27.163  27.693  1.00  0.00    -0.206 F 
ATOM     67  C   UNL A   1      50.473  26.131  28.989  1.00  0.00     0.040 A 
ATOM     68  C   UNL A   1      49.963  25.369  31.216  1.00  0.00     0.040 A 
ATOM     69  F   UNL A   1      47.798  25.628  32.080  1.00  0.00    -0.206 F 
ATOM     70  C   UNL A   1      50.878  25.522  30.175  1.00  0.00     0.006 A 
ENDBRANCH  49  63
BRANCH  50  71
ATOM     71  C   UNL A   1      38.658  29.095  28.986  1.00  0.00     0.057 A 
ATOM     72  C   UNL A   1      37.797  28.993  30.086  1.00  0.00     0.134 A 
ATOM     73  C   UNL A   1      38.123  29.583  27.788  1.00  0.00     0.134 A 
ATOM     74  F   UNL A   1      38.249  28.514  31.253  1.00  0.00    -0.206 F 
ATOM     75  C   UNL A   1      36.450  29.347  29.995  1.00  0.00     0.040 A 
ATOM     76  C   UNL A   1      36.784  29.960  27.689  1.00  0.00     0.040 A 
ATOM     77  F   UNL A   1      38.899  29.710  26.703  1.00  0.00    -0.206 F 
ATOM     78  C   UNL A   1      35.942  29.837  28.793  1.00  0.00     0.006 A 
ENDBRANCH  50  71
BRANCH  62  79
ATOM     79  C   UNL A   1      44.391  32.414  31.106  1.00  0.00     0.057 A 
ATOM     80  C   UNL A   1      44.673  33.456  30.215  1.00  0.00     0.134 A 
ATOM     81  C   UNL A   1      44.301  32.730  32.467  1.00  0.00     0.134 A 
ATOM     82  F   UNL A   1      44.785  33.215  28.900  1.00  0.00    -0.206 F 
ATOM     83  C   UNL A   1      44.877  34.762  30.663  1.00  0.00     0.040 A 
ATOM     84  C   UNL A   1      44.483  34.035  32.926  1.00  0.00     0.040 A 
ATOM     85  F   UNL A   1      44.028  31.777  33.371  1.00  0.00    -0.206 F 
ATOM     86  C   UNL A   1      44.775  35.055  32.023  1.00  0.00     0.006 A 
ENDBRANCH  62  79
ENDBRANCH  36  37
ENDBRANCH  28  31
ENDBRANCH  26  27
ENDBRANCH  25  26
ENDBRANCH   1  25
TORSDOF 13
ENDMDL
