MODEL 1
REMARK VINA RESULT:     -11.7      0.000      0.000
REMARK SMILES CC1(C)[C@H](C(=O)Nc2ccccc2C(N)=O)[C@@H]1C(=O)NCCCCNC(=O)c1ccc(-c2c3nc(c(-c4c(F)cccc4F)c4ccc([nH]4)c(-c4c(F)cccc4F)c4nc(c(-c5c(F)cccc5F)c5ccc2[nH]5)C=C4)C=C3)cc1
REMARK SMILES IDX 22 1 21 2 20 3 18 4 19 5 17 7 1 8 2 9 3 10 4 11 5 12 6 13
REMARK SMILES IDX 7 14 8 16 9 17 13 18 10 19 12 20 11 21 14 22 15 23 16 24
REMARK SMILES IDX 23 27 24 28 25 29 26 30 27 32 28 33 29 34 81 35 30 36 80 37
REMARK SMILES IDX 31 38 32 39 33 40 74 41 34 42 79 43 73 44 75 45 35 46 78 47
REMARK SMILES IDX 72 48 71 49 36 51 62 52 45 53 61 54 46 55 49 56 60 57 76 58
REMARK SMILES IDX 47 59 48 60 59 62 77 63 50 64 37 65 38 66 43 67 39 68 40 69
REMARK SMILES IDX 42 70 44 71 41 72 63 73 64 74 69 75 65 76 66 77 68 78 70 79
REMARK SMILES IDX 67 80 51 81 52 82 57 83 53 84 54 85 56 86 58 87 55 88
REMARK H PARENT 20 6 7 15 15 25 15 26 25 31 75 50 49 61
REMARK Flexibility Score: inf
ROOT
ATOM      1  C   UNL A   1      37.317  20.947  24.818  1.00  0.00     0.023 C 
ENDROOT
BRANCH   1   2
ATOM      2  C   UNL A   1      35.931  20.606  25.344  1.00  0.00     0.116 C 
BRANCH   2   3
ATOM      3  N   UNL A   1      35.504  21.528  26.369  1.00  0.00    -0.356 N 
ATOM      4  C   UNL A   1      34.281  22.106  26.530  1.00  0.00     0.224 C 
ATOM      5  O   UNL A   1      34.176  23.037  27.321  1.00  0.00    -0.275 OA
ATOM      6  H   UNL A   1      36.184  21.770  27.039  1.00  0.00     0.163 HD
BRANCH   4   7
ATOM      7  C   UNL A   1      33.113  21.660  25.709  1.00  0.00     0.098 C 
ATOM      8  C   UNL A   1      32.364  21.483  23.193  1.00  0.00     0.013 C 
ATOM      9  C   UNL A   1      32.867  22.338  24.351  1.00  0.00    -0.011 C 
ATOM     10  C   UNL A   1      33.929  23.295  23.885  1.00  0.00     0.013 C 
ATOM     11  C   UNL A   1      31.846  22.470  25.462  1.00  0.00     0.098 C 
BRANCH  11  12
ATOM     12  C   UNL A   1      31.346  23.397  26.508  1.00  0.00     0.228 C 
ATOM     13  O   UNL A   1      30.772  22.865  27.466  1.00  0.00    -0.274 OA
ATOM     14  N   UNL A   1      31.584  24.732  26.632  1.00  0.00    -0.325 N 
ATOM     15  H   UNL A   1      31.356  25.097  27.518  1.00  0.00     0.169 HD
BRANCH  14  16
ATOM     16  C   UNL A   1      32.083  25.677  25.747  1.00  0.00     0.053 A 
ATOM     17  C   UNL A   1      33.204  26.380  26.213  1.00  0.00     0.027 A 
ATOM     18  C   UNL A   1      31.538  25.965  24.488  1.00  0.00     0.063 A 
ATOM     19  C   UNL A   1      33.885  27.251  25.371  1.00  0.00     0.002 A 
ATOM     20  C   UNL A   1      32.225  26.861  23.652  1.00  0.00     0.016 A 
ATOM     21  C   UNL A   1      33.412  27.469  24.081  1.00  0.00     0.001 A 
BRANCH  18  22
ATOM     22  C   UNL A   1      30.215  25.410  24.078  1.00  0.00     0.250 C 
ATOM     23  N   UNL A   1      29.091  25.955  24.637  1.00  0.00    -0.366 N 
ATOM     24  O   UNL A   1      30.107  24.496  23.272  1.00  0.00    -0.269 OA
ATOM     25  H   UNL A   1      29.171  26.691  25.286  1.00  0.00     0.159 HD
ATOM     26  H   UNL A   1      28.202  25.611  24.389  1.00  0.00     0.159 HD
ENDBRANCH  18  22
ENDBRANCH  14  16
ENDBRANCH  11  12
ENDBRANCH   4   7
ENDBRANCH   2   3
ENDBRANCH   1   2
BRANCH   1  27
ATOM     27  C   UNL A   1      38.319  19.790  24.849  1.00  0.00     0.023 C 
BRANCH  27  28
ATOM     28  C   UNL A   1      39.213  19.730  26.081  1.00  0.00     0.116 C 
BRANCH  28  29
ATOM     29  N   UNL A   1      40.484  19.072  25.828  1.00  0.00    -0.352 N 
ATOM     30  C   UNL A   1      41.759  19.577  25.891  1.00  0.00     0.251 C 
ATOM     31  H   UNL A   1      40.421  18.123  25.572  1.00  0.00     0.163 HD
ATOM     32  O   UNL A   1      42.705  18.918  25.474  1.00  0.00    -0.269 OA
BRANCH  30  33
ATOM     33  C   UNL A   1      41.991  20.926  26.447  1.00  0.00     0.039 A 
ATOM     34  C   UNL A   1      41.927  21.106  27.831  1.00  0.00     0.014 A 
ATOM     35  C   UNL A   1      42.255  22.014  25.611  1.00  0.00     0.014 A 
ATOM     36  C   UNL A   1      42.169  22.368  28.377  1.00  0.00     0.010 A 
ATOM     37  C   UNL A   1      42.593  23.246  26.160  1.00  0.00     0.010 A 
ATOM     38  C   UNL A   1      42.527  23.444  27.547  1.00  0.00    -0.014 A 
BRANCH  38  39
ATOM     39  C   UNL A   1      42.771  24.796  28.111  1.00  0.00     0.031 A 
ATOM     40  C   UNL A   1      44.164  25.195  28.523  1.00  0.00     0.074 A 
ATOM     41  C   UNL A   1      41.745  25.652  28.284  1.00  0.00     0.049 A 
ATOM     42  N   UNL A   1      44.581  26.315  29.058  1.00  0.00    -0.248 NA
ATOM     43  C   UNL A   1      45.224  24.191  28.339  1.00  0.00     0.031 C 
ATOM     44  C   UNL A   1      40.343  25.369  27.970  1.00  0.00     0.029 A 
ATOM     45  N   UNL A   1      41.725  26.936  28.767  1.00  0.00    -0.354 N 
ATOM     46  C   UNL A   1      45.941  26.143  29.282  1.00  0.00     0.074 A 
ATOM     47  C   UNL A   1      46.266  24.789  28.895  1.00  0.00     0.031 C 
ATOM     48  C   UNL A   1      39.605  26.459  28.237  1.00  0.00     0.029 A 
ATOM     49  C   UNL A   1      40.473  27.504  28.772  1.00  0.00     0.049 A 
ATOM     50  H   UNL A   1      42.531  27.406  29.081  1.00  0.00     0.167 HD
ATOM     51  C   UNL A   1      46.847  27.040  29.737  1.00  0.00     0.037 A 
ATOM     52  C   UNL A   1      40.074  28.729  29.161  1.00  0.00     0.037 A 
ATOM     53  C   UNL A   1      46.528  28.396  30.097  1.00  0.00     0.049 A 
ATOM     54  C   UNL A   1      41.099  29.709  29.665  1.00  0.00     0.074 A 
ATOM     55  C   UNL A   1      47.379  29.399  30.526  1.00  0.00     0.029 A 
ATOM     56  N   UNL A   1      45.251  28.938  30.070  1.00  0.00    -0.354 N 
ATOM     57  N   UNL A   1      42.393  29.553  29.811  1.00  0.00    -0.248 NA
ATOM     58  C   UNL A   1      40.610  31.042  30.043  1.00  0.00     0.031 C 
ATOM     59  C   UNL A   1      46.611  30.534  30.805  1.00  0.00     0.029 A 
ATOM     60  C   UNL A   1      45.290  30.258  30.488  1.00  0.00     0.049 A 
ATOM     61  H   UNL A   1      44.439  28.456  29.793  1.00  0.00     0.167 HD
ATOM     62  C   UNL A   1      42.877  30.778  30.254  1.00  0.00     0.074 A 
ATOM     63  C   UNL A   1      41.738  31.667  30.345  1.00  0.00     0.031 C 
ATOM     64  C   UNL A   1      44.150  31.136  30.556  1.00  0.00     0.037 A 
BRANCH  51  65
ATOM     65  C   UNL A   1      48.272  26.579  29.866  1.00  0.00     0.057 A 
ATOM     66  C   UNL A   1      49.213  26.782  28.846  1.00  0.00     0.134 A 
ATOM     67  C   UNL A   1      48.716  25.943  31.032  1.00  0.00     0.134 A 
ATOM     68  F   UNL A   1      48.852  27.373  27.696  1.00  0.00    -0.206 F 
ATOM     69  C   UNL A   1      50.532  26.340  28.967  1.00  0.00     0.040 A 
ATOM     70  C   UNL A   1      50.041  25.527  31.178  1.00  0.00     0.040 A 
ATOM     71  F   UNL A   1      47.873  25.720  32.051  1.00  0.00    -0.206 F 
ATOM     72  C   UNL A   1      50.950  25.717  30.140  1.00  0.00     0.006 A 
ENDBRANCH  51  65
BRANCH  52  73
ATOM     73  C   UNL A   1      38.643  29.117  29.059  1.00  0.00     0.057 A 
ATOM     74  C   UNL A   1      38.102  29.573  27.851  1.00  0.00     0.134 A 
ATOM     75  C   UNL A   1      37.788  29.061  30.166  1.00  0.00     0.134 A 
ATOM     76  F   UNL A   1      38.873  29.666  26.757  1.00  0.00    -0.206 F 
ATOM     77  C   UNL A   1      36.772  29.987  27.753  1.00  0.00     0.040 A 
ATOM     78  C   UNL A   1      36.449  29.444  30.076  1.00  0.00     0.040 A 
ATOM     79  F   UNL A   1      38.241  28.623  31.350  1.00  0.00    -0.206 F 
ATOM     80  C   UNL A   1      35.940  29.919  28.870  1.00  0.00     0.006 A 
ENDBRANCH  52  73
BRANCH  64  81
ATOM     81  C   UNL A   1      44.389  32.567  30.947  1.00  0.00     0.057 A 
ATOM     82  C   UNL A   1      44.661  33.565  30.004  1.00  0.00     0.134 A 
ATOM     83  C   UNL A   1      44.318  32.952  32.293  1.00  0.00     0.134 A 
ATOM     84  F   UNL A   1      44.753  33.263  28.699  1.00  0.00    -0.206 F 
ATOM     85  C   UNL A   1      44.888  34.888  30.387  1.00  0.00     0.040 A 
ATOM     86  C   UNL A   1      44.510  34.277  32.684  1.00  0.00     0.040 A 
ATOM     87  F   UNL A   1      44.048  32.049  33.248  1.00  0.00    -0.206 F 
ATOM     88  C   UNL A   1      44.807  35.248  31.731  1.00  0.00     0.006 A 
ENDBRANCH  64  81
ENDBRANCH  38  39
ENDBRANCH  30  33
ENDBRANCH  28  29
ENDBRANCH  27  28
ENDBRANCH   1  27
TORSDOF 14
ENDMDL
MODEL 2
REMARK VINA RESULT:     -11.7      4.334      9.152
REMARK SMILES CC1(C)[C@H](C(=O)Nc2ccccc2C(N)=O)[C@@H]1C(=O)NCCCCNC(=O)c1ccc(-c2c3nc(c(-c4c(F)cccc4F)c4ccc([nH]4)c(-c4c(F)cccc4F)c4nc(c(-c5c(F)cccc5F)c5ccc2[nH]5)C=C4)C=C3)cc1
REMARK SMILES IDX 22 1 21 2 20 3 18 4 19 5 17 7 1 8 2 9 3 10 4 11 5 12 6 13
REMARK SMILES IDX 7 14 8 16 9 17 13 18 10 19 12 20 11 21 14 22 15 23 16 24
REMARK SMILES IDX 23 27 24 28 25 29 26 30 27 32 28 33 29 34 81 35 30 36 80 37
REMARK SMILES IDX 31 38 32 39 33 40 74 41 34 42 79 43 73 44 75 45 35 46 78 47
REMARK SMILES IDX 72 48 71 49 36 51 62 52 45 53 61 54 46 55 49 56 60 57 76 58
REMARK SMILES IDX 47 59 48 60 59 62 77 63 50 64 37 65 38 66 43 67 39 68 40 69
REMARK SMILES IDX 42 70 44 71 41 72 63 73 64 74 69 75 65 76 66 77 68 78 70 79
REMARK SMILES IDX 67 80 51 81 52 82 57 83 53 84 54 85 56 86 58 87 55 88
REMARK H PARENT 20 6 7 15 15 25 15 26 25 31 75 50 49 61
REMARK Flexibility Score: inf
ROOT
ATOM      1  C   UNL A   1      31.631  30.629  26.634  1.00  0.00     0.023 C 
ENDROOT
BRANCH   1   2
ATOM      2  C   UNL A   1      31.541  30.191  25.180  1.00  0.00     0.116 C 
BRANCH   2   3
ATOM      3  N   UNL A   1      32.787  29.639  24.707  1.00  0.00    -0.356 N 
ATOM      4  C   UNL A   1      32.980  28.571  23.882  1.00  0.00     0.224 C 
ATOM      5  O   UNL A   1      34.113  28.112  23.779  1.00  0.00    -0.275 OA
ATOM      6  H   UNL A   1      33.603  30.092  25.019  1.00  0.00     0.163 HD
BRANCH   4   7
ATOM      7  C   UNL A   1      31.825  27.934  23.177  1.00  0.00     0.098 C 
ATOM      8  C   UNL A   1      29.527  26.769  23.711  1.00  0.00     0.013 C 
ATOM      9  C   UNL A   1      31.039  26.830  23.904  1.00  0.00    -0.011 C 
ATOM     10  C   UNL A   1      31.403  26.592  25.343  1.00  0.00     0.013 C 
ATOM     11  C   UNL A   1      31.799  26.511  22.632  1.00  0.00     0.098 C 
BRANCH  11  12
ATOM     12  C   UNL A   1      33.048  25.892  22.122  1.00  0.00     0.228 C 
ATOM     13  O   UNL A   1      33.430  26.289  21.015  1.00  0.00    -0.274 OA
ATOM     14  N   UNL A   1      33.912  25.073  22.784  1.00  0.00    -0.325 N 
ATOM     15  H   UNL A   1      34.786  24.974  22.341  1.00  0.00     0.169 HD
BRANCH  14  16
ATOM     16  C   UNL A   1      33.796  24.350  23.963  1.00  0.00     0.053 A 
ATOM     17  C   UNL A   1      34.723  24.695  24.956  1.00  0.00     0.027 A 
ATOM     18  C   UNL A   1      32.861  23.330  24.189  1.00  0.00     0.063 A 
ATOM     19  C   UNL A   1      34.623  24.148  26.230  1.00  0.00     0.002 A 
ATOM     20  C   UNL A   1      32.781  22.771  25.476  1.00  0.00     0.016 A 
ATOM     21  C   UNL A   1      33.635  23.207  26.497  1.00  0.00     0.001 A 
BRANCH  18  22
ATOM     22  C   UNL A   1      32.035  22.782  23.073  1.00  0.00     0.250 C 
ATOM     23  N   UNL A   1      30.713  23.130  23.023  1.00  0.00    -0.366 N 
ATOM     24  O   UNL A   1      32.499  22.041  22.216  1.00  0.00    -0.269 OA
ATOM     25  H   UNL A   1      30.334  23.725  23.709  1.00  0.00     0.159 HD
ATOM     26  H   UNL A   1      30.141  22.784  22.300  1.00  0.00     0.159 HD
ENDBRANCH  18  22
ENDBRANCH  14  16
ENDBRANCH  11  12
ENDBRANCH   4   7
ENDBRANCH   2   3
ENDBRANCH   1   2
BRANCH   1  27
ATOM     27  C   UNL A   1      31.428  32.128  26.867  1.00  0.00     0.023 C 
BRANCH  27  28
ATOM     28  C   UNL A   1      32.704  32.955  26.965  1.00  0.00     0.116 C 
BRANCH  28  29
ATOM     29  N   UNL A   1      32.510  34.217  27.660  1.00  0.00    -0.352 N 
ATOM     30  C   UNL A   1      33.149  34.712  28.769  1.00  0.00     0.251 C 
ATOM     31  H   UNL A   1      31.816  34.803  27.279  1.00  0.00     0.163 HD
ATOM     32  O   UNL A   1      32.732  35.724  29.321  1.00  0.00    -0.269 OA
BRANCH  30  33
ATOM     33  C   UNL A   1      34.334  34.013  29.311  1.00  0.00     0.039 A 
ATOM     34  C   UNL A   1      34.144  32.970  30.220  1.00  0.00     0.014 A 
ATOM     35  C   UNL A   1      35.626  34.393  28.939  1.00  0.00     0.014 A 
ATOM     36  C   UNL A   1      35.250  32.281  30.722  1.00  0.00     0.010 A 
ATOM     37  C   UNL A   1      36.718  33.644  29.362  1.00  0.00     0.010 A 
ATOM     38  C   UNL A   1      36.546  32.598  30.280  1.00  0.00    -0.014 A 
BRANCH  38  39
ATOM     39  C   UNL A   1      37.732  31.885  30.818  1.00  0.00     0.031 A 
ATOM     40  C   UNL A   1      38.240  32.211  32.198  1.00  0.00     0.074 A 
ATOM     41  C   UNL A   1      38.374  30.973  30.062  1.00  0.00     0.049 A 
ATOM     42  N   UNL A   1      39.271  31.723  32.839  1.00  0.00    -0.248 NA
ATOM     43  C   UNL A   1      37.509  33.247  32.946  1.00  0.00     0.031 C 
ATOM     44  C   UNL A   1      38.012  30.602  28.692  1.00  0.00     0.029 A 
ATOM     45  N   UNL A   1      39.466  30.191  30.340  1.00  0.00    -0.354 N 
ATOM     46  C   UNL A   1      39.317  32.399  34.052  1.00  0.00     0.074 A 
ATOM     47  C   UNL A   1      38.257  33.381  34.030  1.00  0.00     0.031 C 
ATOM     48  C   UNL A   1      38.846  29.640  28.263  1.00  0.00     0.029 A 
ATOM     49  C   UNL A   1      39.820  29.352  29.311  1.00  0.00     0.049 A 
ATOM     50  H   UNL A   1      39.950  30.228  31.196  1.00  0.00     0.167 HD
ATOM     51  C   UNL A   1      40.145  32.198  35.105  1.00  0.00     0.037 A 
ATOM     52  C   UNL A   1      40.817  28.450  29.226  1.00  0.00     0.037 A 
ATOM     53  C   UNL A   1      41.182  31.203  35.136  1.00  0.00     0.049 A 
ATOM     54  C   UNL A   1      41.725  28.247  30.409  1.00  0.00     0.074 A 
ATOM     55  C   UNL A   1      42.045  30.887  36.171  1.00  0.00     0.029 A 
ATOM     56  N   UNL A   1      41.496  30.359  34.081  1.00  0.00    -0.354 N 
ATOM     57  N   UNL A   1      41.715  28.848  31.575  1.00  0.00    -0.248 NA
ATOM     58  C   UNL A   1      42.772  27.225  30.270  1.00  0.00     0.031 C 
ATOM     59  C   UNL A   1      42.914  29.886  35.725  1.00  0.00     0.029 A 
ATOM     60  C   UNL A   1      42.551  29.533  34.435  1.00  0.00     0.049 A 
ATOM     61  H   UNL A   1      41.037  30.349  33.210  1.00  0.00     0.167 HD
ATOM     62  C   UNL A   1      42.723  28.249  32.320  1.00  0.00     0.074 A 
ATOM     63  C   UNL A   1      43.317  27.232  31.478  1.00  0.00     0.031 C 
ATOM     64  C   UNL A   1      43.119  28.514  33.590  1.00  0.00     0.037 A 
BRANCH  51  65
ATOM     65  C   UNL A   1      39.953  33.075  36.311  1.00  0.00     0.057 A 
ATOM     66  C   UNL A   1      40.659  34.274  36.477  1.00  0.00     0.134 A 
ATOM     67  C   UNL A   1      39.035  32.726  37.311  1.00  0.00     0.134 A 
ATOM     68  F   UNL A   1      41.564  34.662  35.565  1.00  0.00    -0.206 F 
ATOM     69  C   UNL A   1      40.486  35.077  37.606  1.00  0.00     0.040 A 
ATOM     70  C   UNL A   1      38.828  33.537  38.427  1.00  0.00     0.040 A 
ATOM     71  F   UNL A   1      38.320  31.595  37.216  1.00  0.00    -0.206 F 
ATOM     72  C   UNL A   1      39.561  34.713  38.582  1.00  0.00     0.006 A 
ENDBRANCH  51  65
BRANCH  52  73
ATOM     73  C   UNL A   1      40.992  27.644  27.990  1.00  0.00     0.057 A 
ATOM     74  C   UNL A   1      41.767  28.114  26.923  1.00  0.00     0.134 A 
ATOM     75  C   UNL A   1      40.375  26.396  27.837  1.00  0.00     0.134 A 
ATOM     76  F   UNL A   1      42.370  29.309  27.001  1.00  0.00    -0.206 F 
ATOM     77  C   UNL A   1      41.898  27.388  25.737  1.00  0.00     0.040 A 
ATOM     78  C   UNL A   1      40.522  25.647  26.669  1.00  0.00     0.040 A 
ATOM     79  F   UNL A   1      39.629  25.884  28.826  1.00  0.00    -0.206 F 
ATOM     80  C   UNL A   1      41.277  26.147  25.610  1.00  0.00     0.006 A 
ENDBRANCH  52  73
BRANCH  64  81
ATOM     81  C   UNL A   1      44.202  27.647  34.169  1.00  0.00     0.057 A 
ATOM     82  C   UNL A   1      45.552  28.011  34.134  1.00  0.00     0.134 A 
ATOM     83  C   UNL A   1      43.876  26.437  34.797  1.00  0.00     0.134 A 
ATOM     84  F   UNL A   1      45.935  29.152  33.539  1.00  0.00    -0.206 F 
ATOM     85  C   UNL A   1      46.544  27.189  34.670  1.00  0.00     0.040 A 
ATOM     86  C   UNL A   1      44.854  25.622  35.366  1.00  0.00     0.040 A 
ATOM     87  F   UNL A   1      42.599  26.032  34.879  1.00  0.00    -0.206 F 
ATOM     88  C   UNL A   1      46.195  25.993  35.294  1.00  0.00     0.006 A 
ENDBRANCH  64  81
ENDBRANCH  38  39
ENDBRANCH  30  33
ENDBRANCH  28  29
ENDBRANCH  27  28
ENDBRANCH   1  27
TORSDOF 14
ENDMDL
MODEL 3
REMARK VINA RESULT:     -11.5      1.407      2.110
REMARK SMILES CC1(C)[C@H](C(=O)Nc2ccccc2C(N)=O)[C@@H]1C(=O)NCCCCNC(=O)c1ccc(-c2c3nc(c(-c4c(F)cccc4F)c4ccc([nH]4)c(-c4c(F)cccc4F)c4nc(c(-c5c(F)cccc5F)c5ccc2[nH]5)C=C4)C=C3)cc1
REMARK SMILES IDX 22 1 21 2 20 3 18 4 19 5 17 7 1 8 2 9 3 10 4 11 5 12 6 13
REMARK SMILES IDX 7 14 8 16 9 17 13 18 10 19 12 20 11 21 14 22 15 23 16 24
REMARK SMILES IDX 23 27 24 28 25 29 26 30 27 32 28 33 29 34 81 35 30 36 80 37
REMARK SMILES IDX 31 38 32 39 33 40 74 41 34 42 79 43 73 44 75 45 35 46 78 47
REMARK SMILES IDX 72 48 71 49 36 51 62 52 45 53 61 54 46 55 49 56 60 57 76 58
REMARK SMILES IDX 47 59 48 60 59 62 77 63 50 64 37 65 38 66 43 67 39 68 40 69
REMARK SMILES IDX 42 70 44 71 41 72 63 73 64 74 69 75 65 76 66 77 68 78 70 79
REMARK SMILES IDX 67 80 51 81 52 82 57 83 53 84 54 85 56 86 58 87 55 88
REMARK H PARENT 20 6 7 15 15 25 15 26 25 31 75 50 49 61
REMARK Flexibility Score: inf
ROOT
ATOM      1  C   UNL A   1      36.585  19.933  25.002  1.00  0.00     0.023 C 
ENDROOT
BRANCH   1   2
ATOM      2  C   UNL A   1      36.638  21.443  24.820  1.00  0.00     0.116 C 
BRANCH   2   3
ATOM      3  N   UNL A   1      36.194  22.142  26.001  1.00  0.00    -0.356 N 
ATOM      4  C   UNL A   1      34.932  22.547  26.320  1.00  0.00     0.224 C 
ATOM      5  O   UNL A   1      34.789  23.328  27.255  1.00  0.00    -0.275 OA
ATOM      6  H   UNL A   1      36.891  22.353  26.662  1.00  0.00     0.163 HD
BRANCH   4   7
ATOM      7  C   UNL A   1      33.760  22.103  25.504  1.00  0.00     0.098 C 
ATOM      8  C   UNL A   1      32.867  22.206  23.031  1.00  0.00     0.013 C 
ATOM      9  C   UNL A   1      33.363  22.937  24.274  1.00  0.00    -0.011 C 
ATOM     10  C   UNL A   1      34.297  24.054  23.900  1.00  0.00     0.013 C 
ATOM     11  C   UNL A   1      32.408  22.805  25.444  1.00  0.00     0.098 C 
BRANCH  11  12
ATOM     12  C   UNL A   1      31.893  23.519  26.639  1.00  0.00     0.228 C 
ATOM     13  O   UNL A   1      31.583  22.803  27.599  1.00  0.00    -0.274 OA
ATOM     14  N   UNL A   1      31.877  24.860  26.876  1.00  0.00    -0.325 N 
ATOM     15  H   UNL A   1      31.713  25.097  27.817  1.00  0.00     0.169 HD
BRANCH  14  16
ATOM     16  C   UNL A   1      32.043  25.957  26.042  1.00  0.00     0.053 A 
ATOM     17  C   UNL A   1      33.293  26.585  26.143  1.00  0.00     0.027 A 
ATOM     18  C   UNL A   1      31.068  26.456  25.167  1.00  0.00     0.063 A 
ATOM     19  C   UNL A   1      33.639  27.604  25.264  1.00  0.00     0.002 A 
ATOM     20  C   UNL A   1      31.423  27.499  24.296  1.00  0.00     0.016 A 
ATOM     21  C   UNL A   1      32.714  28.041  24.322  1.00  0.00     0.001 A 
BRANCH  18  22
ATOM     22  C   UNL A   1      29.661  25.961  25.222  1.00  0.00     0.250 C 
ATOM     23  N   UNL A   1      28.939  25.953  24.060  1.00  0.00    -0.366 N 
ATOM     24  O   UNL A   1      29.142  25.570  26.259  1.00  0.00    -0.269 OA
ATOM     25  H   UNL A   1      29.350  26.266  23.223  1.00  0.00     0.159 HD
ATOM     26  H   UNL A   1      28.007  25.634  24.063  1.00  0.00     0.159 HD
ENDBRANCH  18  22
ENDBRANCH  14  16
ENDBRANCH  11  12
ENDBRANCH   4   7
ENDBRANCH   2   3
ENDBRANCH   1   2
BRANCH   1  27
ATOM     27  C   UNL A   1      37.931  19.221  24.856  1.00  0.00     0.023 C 
BRANCH  27  28
ATOM     28  C   UNL A   1      39.053  19.754  25.739  1.00  0.00     0.116 C 
BRANCH  28  29
ATOM     29  N   UNL A   1      40.201  18.864  25.796  1.00  0.00    -0.352 N 
ATOM     30  C   UNL A   1      41.528  19.159  25.993  1.00  0.00     0.251 C 
ATOM     31  H   UNL A   1      39.998  17.908  25.673  1.00  0.00     0.163 HD
ATOM     32  O   UNL A   1      42.382  18.294  25.836  1.00  0.00    -0.269 OA
BRANCH  30  33
ATOM     33  C   UNL A   1      41.929  20.528  26.379  1.00  0.00     0.039 A 
ATOM     34  C   UNL A   1      42.211  21.457  25.374  1.00  0.00     0.014 A 
ATOM     35  C   UNL A   1      42.044  20.892  27.723  1.00  0.00     0.014 A 
ATOM     36  C   UNL A   1      42.567  22.762  25.719  1.00  0.00     0.010 A 
ATOM     37  C   UNL A   1      42.301  22.216  28.063  1.00  0.00     0.010 A 
ATOM     38  C   UNL A   1      42.593  23.159  27.067  1.00  0.00    -0.014 A 
BRANCH  38  39
ATOM     39  C   UNL A   1      42.985  24.539  27.450  1.00  0.00     0.031 A 
ATOM     40  C   UNL A   1      44.431  24.955  27.373  1.00  0.00     0.074 A 
ATOM     41  C   UNL A   1      42.057  25.407  27.896  1.00  0.00     0.049 A 
ATOM     42  N   UNL A   1      44.982  26.101  27.685  1.00  0.00    -0.248 NA
ATOM     43  C   UNL A   1      45.391  23.938  26.912  1.00  0.00     0.031 C 
ATOM     44  C   UNL A   1      40.632  25.113  28.064  1.00  0.00     0.029 A 
ATOM     45  N   UNL A   1      42.174  26.716  28.291  1.00  0.00    -0.354 N 
ATOM     46  C   UNL A   1      46.345  25.936  27.471  1.00  0.00     0.074 A 
ATOM     47  C   UNL A   1      46.548  24.561  27.073  1.00  0.00     0.031 C 
ATOM     48  C   UNL A   1      40.003  26.219  28.494  1.00  0.00     0.029 A 
ATOM     49  C   UNL A   1      40.982  27.288  28.666  1.00  0.00     0.049 A 
ATOM     50  H   UNL A   1      43.031  27.199  28.305  1.00  0.00     0.167 HD
ATOM     51  C   UNL A   1      47.336  26.854  27.563  1.00  0.00     0.037 A 
ATOM     52  C   UNL A   1      40.711  28.534  29.097  1.00  0.00     0.037 A 
ATOM     53  C   UNL A   1      47.129  28.228  27.933  1.00  0.00     0.049 A 
ATOM     54  C   UNL A   1      41.830  29.536  29.192  1.00  0.00     0.074 A 
ATOM     55  C   UNL A   1      48.059  29.250  28.012  1.00  0.00     0.029 A 
ATOM     56  N   UNL A   1      45.904  28.773  28.286  1.00  0.00    -0.354 N 
ATOM     57  N   UNL A   1      43.105  29.384  28.924  1.00  0.00    -0.248 NA
ATOM     58  C   UNL A   1      41.469  30.890  29.635  1.00  0.00     0.031 C 
ATOM     59  C   UNL A   1      47.405  30.402  28.461  1.00  0.00     0.029 A 
ATOM     60  C   UNL A   1      46.056  30.114  28.599  1.00  0.00     0.049 A 
ATOM     61  H   UNL A   1      45.052  28.280  28.311  1.00  0.00     0.167 HD
ATOM     62  C   UNL A   1      43.688  30.629  29.123  1.00  0.00     0.074 A 
ATOM     63  C   UNL A   1      42.625  31.527  29.526  1.00  0.00     0.031 C 
ATOM     64  C   UNL A   1      44.985  30.999  28.982  1.00  0.00     0.037 A 
BRANCH  51  65
ATOM     65  C   UNL A   1      48.733  26.395  27.253  1.00  0.00     0.057 A 
ATOM     66  C   UNL A   1      49.591  25.903  28.247  1.00  0.00     0.134 A 
ATOM     67  C   UNL A   1      49.222  26.425  25.940  1.00  0.00     0.134 A 
ATOM     68  F   UNL A   1      49.193  25.859  29.528  1.00  0.00    -0.206 F 
ATOM     69  C   UNL A   1      50.893  25.491  27.953  1.00  0.00     0.040 A 
ATOM     70  C   UNL A   1      50.509  25.984  25.629  1.00  0.00     0.040 A 
ATOM     71  F   UNL A   1      48.455  26.878  24.937  1.00  0.00    -0.206 F 
ATOM     72  C   UNL A   1      51.352  25.523  26.639  1.00  0.00     0.006 A 
ENDBRANCH  51  65
BRANCH  52  73
ATOM     73  C   UNL A   1      39.317  28.922  29.437  1.00  0.00     0.057 A 
ATOM     74  C   UNL A   1      38.809  28.732  30.728  1.00  0.00     0.134 A 
ATOM     75  C   UNL A   1      38.455  29.470  28.480  1.00  0.00     0.134 A 
ATOM     76  F   UNL A   1      39.579  28.196  31.686  1.00  0.00    -0.206 F 
ATOM     77  C   UNL A   1      37.486  29.045  31.048  1.00  0.00     0.040 A 
ATOM     78  C   UNL A   1      37.140  29.815  28.793  1.00  0.00     0.040 A 
ATOM     79  F   UNL A   1      38.884  29.687  27.228  1.00  0.00    -0.206 F 
ATOM     80  C   UNL A   1      36.648  29.593  30.077  1.00  0.00     0.006 A 
ENDBRANCH  52  73
BRANCH  64  81
ATOM     81  C   UNL A   1      45.317  32.448  29.198  1.00  0.00     0.057 A 
ATOM     82  C   UNL A   1      45.237  33.396  28.171  1.00  0.00     0.134 A 
ATOM     83  C   UNL A   1      45.697  32.903  30.468  1.00  0.00     0.134 A 
ATOM     84  F   UNL A   1      44.888  33.026  26.928  1.00  0.00    -0.206 F 
ATOM     85  C   UNL A   1      45.556  34.737  28.389  1.00  0.00     0.040 A 
ATOM     86  C   UNL A   1      45.986  34.247  30.706  1.00  0.00     0.040 A 
ATOM     87  F   UNL A   1      45.782  32.051  31.501  1.00  0.00    -0.206 F 
ATOM     88  C   UNL A   1      45.927  35.166  29.662  1.00  0.00     0.006 A 
ENDBRANCH  64  81
ENDBRANCH  38  39
ENDBRANCH  30  33
ENDBRANCH  28  29
ENDBRANCH  27  28
ENDBRANCH   1  27
TORSDOF 14
ENDMDL
