MODEL 1
REMARK VINA RESULT:     -12.5      0.000      0.000
REMARK SMILES COC(=O)c1ccc([C@H]2Nc3c(C(=O)NCCCCNC(=O)c4ccc(-c5c6nc(c(-c7c(F)cccc7F)c7ccc([nH]7)c(-c7c(F)cccc7F)c7nc(c(-c8c(F)cccc8F)c8ccc5[nH]8)C=C7)C=C6)cc4)cccc3[C@@H]3[C@@H]4CC[C@@H](C4)[C@@H]32)cc1
REMARK SMILES IDX 17 1 16 2 15 3 13 4 14 5 12 7 9 8 10 9 87 10 11 11 81 13
REMARK SMILES IDX 85 14 80 15 82 16 84 17 86 18 77 19 79 20 83 21 78 22 8 23
REMARK SMILES IDX 5 24 6 25 89 26 7 27 88 28 3 29 4 30 2 31 1 32 18 33 19 34
REMARK SMILES IDX 20 35 21 36 22 38 23 39 24 40 76 41 25 42 75 43 26 44 27 45
REMARK SMILES IDX 28 46 69 47 29 48 74 49 68 50 70 51 30 52 73 53 67 54 66 55
REMARK SMILES IDX 31 57 57 58 40 59 56 60 41 61 44 62 55 63 71 64 42 65 43 66
REMARK SMILES IDX 54 68 72 69 45 70 32 71 33 72 38 73 34 74 35 75 37 76 39 77
REMARK SMILES IDX 36 78 58 79 59 80 64 81 60 82 61 83 63 84 65 85 62 86 46 87
REMARK SMILES IDX 47 88 52 89 48 90 49 91 51 92 53 93 50 94
REMARK H PARENT 15 6 10 12 20 37 70 56 44 67
REMARK Flexibility Score: inf
ROOT
ATOM      1  C   UNL A   1      34.872  22.655  23.523  1.00  0.00     0.023 C 
ENDROOT
BRANCH   1   2
ATOM      2  C   UNL A   1      34.074  23.092  22.297  1.00  0.00     0.116 C 
BRANCH   2   3
ATOM      3  N   UNL A   1      32.640  22.893  22.342  1.00  0.00    -0.352 N 
ATOM      4  C   UNL A   1      31.714  23.343  23.275  1.00  0.00     0.253 C 
ATOM      5  O   UNL A   1      30.524  23.113  23.053  1.00  0.00    -0.269 OA
ATOM      6  H   UNL A   1      32.266  22.359  21.604  1.00  0.00     0.163 HD
BRANCH   4   7
ATOM      7  C   UNL A   1      32.094  23.996  24.571  1.00  0.00     0.063 A 
ATOM      8  C   UNL A   1      31.588  27.477  24.238  1.00  0.00     0.113 C 
ATOM      9  N   UNL A   1      32.241  26.267  23.706  1.00  0.00    -0.377 N 
ATOM     10  C   UNL A   1      32.810  28.258  24.747  1.00  0.00     0.027 C 
ATOM     11  C   UNL A   1      32.469  25.335  24.711  1.00  0.00     0.051 A 
ATOM     12  H   UNL A   1      32.484  26.136  22.761  1.00  0.00     0.161 HD
ATOM     13  C   UNL A   1      33.561  27.289  25.800  1.00  0.00     0.030 C 
ATOM     14  C   UNL A   1      32.678  29.559  25.563  1.00  0.00    -0.005 C 
ATOM     15  C   UNL A   1      32.981  25.877  25.914  1.00  0.00    -0.020 A 
ATOM     16  C   UNL A   1      33.678  28.189  27.044  1.00  0.00    -0.003 C 
ATOM     17  C   UNL A   1      31.647  29.446  26.689  1.00  0.00     0.004 C 
ATOM     18  C   UNL A   1      33.985  29.538  26.380  1.00  0.00     0.008 C 
ATOM     19  C   UNL A   1      31.935  23.271  25.753  1.00  0.00     0.016 A 
ATOM     20  C   UNL A   1      32.885  25.104  27.064  1.00  0.00     0.006 A 
ATOM     21  C   UNL A   1      32.305  28.472  27.675  1.00  0.00     0.004 C 
ATOM     22  C   UNL A   1      32.299  23.831  26.990  1.00  0.00     0.001 A 
BRANCH   8  23
ATOM     23  C   UNL A   1      30.520  27.675  23.164  1.00  0.00    -0.025 A 
ATOM     24  C   UNL A   1      28.578  29.579  22.484  1.00  0.00     0.060 A 
ATOM     25  C   UNL A   1      29.875  29.724  21.995  1.00  0.00     0.016 A 
ATOM     26  C   UNL A   1      28.201  28.370  23.094  1.00  0.00     0.016 A 
ATOM     27  C   UNL A   1      30.829  28.754  22.290  1.00  0.00     0.007 A 
ATOM     28  C   UNL A   1      29.169  27.402  23.423  1.00  0.00     0.007 A 
BRANCH  24  29
ATOM     29  C   UNL A   1      27.727  30.807  22.490  1.00  0.00     0.337 C 
ATOM     30  O   UNL A   1      27.154  31.230  23.470  1.00  0.00    -0.246 OA
BRANCH  29  31
ATOM     31  O   UNL A   1      27.566  31.256  21.214  1.00  0.00    -0.465 OA
ATOM     32  C   UNL A   1      27.923  32.628  21.009  1.00  0.00     0.282 C 
ENDBRANCH  29  31
ENDBRANCH  24  29
ENDBRANCH   8  23
ENDBRANCH   4   7
ENDBRANCH   2   3
ENDBRANCH   1   2
BRANCH   1  33
ATOM     33  C   UNL A   1      36.189  23.386  23.782  1.00  0.00     0.023 C 
BRANCH  33  34
ATOM     34  C   UNL A   1      36.721  23.347  25.213  1.00  0.00     0.116 C 
BRANCH  34  35
ATOM     35  N   UNL A   1      37.923  22.550  25.399  1.00  0.00    -0.352 N 
ATOM     36  C   UNL A   1      39.105  22.830  26.045  1.00  0.00     0.251 C 
ATOM     37  H   UNL A   1      37.885  21.656  24.990  1.00  0.00     0.163 HD
ATOM     38  O   UNL A   1      40.006  21.994  26.038  1.00  0.00    -0.269 OA
BRANCH  36  39
ATOM     39  C   UNL A   1      39.336  24.137  26.703  1.00  0.00     0.039 A 
ATOM     40  C   UNL A   1      38.793  24.342  27.977  1.00  0.00     0.014 A 
ATOM     41  C   UNL A   1      40.056  25.164  26.090  1.00  0.00     0.014 A 
ATOM     42  C   UNL A   1      39.061  25.524  28.671  1.00  0.00     0.010 A 
ATOM     43  C   UNL A   1      40.391  26.309  26.814  1.00  0.00     0.010 A 
ATOM     44  C   UNL A   1      39.909  26.497  28.119  1.00  0.00    -0.014 A 
BRANCH  44  45
ATOM     45  C   UNL A   1      40.322  27.694  28.901  1.00  0.00     0.031 A 
ATOM     46  C   UNL A   1      41.675  27.756  29.554  1.00  0.00     0.074 A 
ATOM     47  C   UNL A   1      39.449  28.706  29.079  1.00  0.00     0.049 A 
ATOM     48  N   UNL A   1      42.179  28.685  30.328  1.00  0.00    -0.248 NA
ATOM     49  C   UNL A   1      42.574  26.614  29.326  1.00  0.00     0.031 C 
ATOM     50  C   UNL A   1      38.089  28.757  28.539  1.00  0.00     0.029 A 
ATOM     51  N   UNL A   1      39.573  29.888  29.769  1.00  0.00    -0.354 N 
ATOM     52  C   UNL A   1      43.442  28.235  30.691  1.00  0.00     0.074 A 
ATOM     53  C   UNL A   1      43.608  26.927  30.092  1.00  0.00     0.031 C 
ATOM     54  C   UNL A   1      37.515  29.918  28.894  1.00  0.00     0.029 A 
ATOM     55  C   UNL A   1      38.450  30.678  29.719  1.00  0.00     0.049 A 
ATOM     56  H   UNL A   1      40.390  30.143  30.255  1.00  0.00     0.167 HD
ATOM     57  C   UNL A   1      44.385  28.859  31.435  1.00  0.00     0.037 A 
ATOM     58  C   UNL A   1      38.197  31.877  30.276  1.00  0.00     0.037 A 
ATOM     59  C   UNL A   1      44.232  30.170  32.011  1.00  0.00     0.049 A 
ATOM     60  C   UNL A   1      39.259  32.547  31.103  1.00  0.00     0.074 A 
ATOM     61  C   UNL A   1      45.154  30.906  32.736  1.00  0.00     0.029 A 
ATOM     62  N   UNL A   1      43.084  30.942  31.926  1.00  0.00    -0.354 N 
ATOM     63  N   UNL A   1      40.467  32.131  31.390  1.00  0.00    -0.248 NA
ATOM     64  C   UNL A   1      38.919  33.855  31.683  1.00  0.00     0.031 C 
ATOM     65  C   UNL A   1      44.551  32.108  33.121  1.00  0.00     0.029 A 
ATOM     66  C   UNL A   1      43.268  32.140  32.599  1.00  0.00     0.049 A 
ATOM     67  H   UNL A   1      42.260  30.678  31.457  1.00  0.00     0.167 HD
ATOM     68  C   UNL A   1      41.043  33.136  32.157  1.00  0.00     0.074 A 
ATOM     69  C   UNL A   1      40.055  34.186  32.281  1.00  0.00     0.031 C 
ATOM     70  C   UNL A   1      42.280  33.182  32.707  1.00  0.00     0.037 A 
BRANCH  57  71
ATOM     71  C   UNL A   1      45.678  28.132  31.664  1.00  0.00     0.057 A 
ATOM     72  C   UNL A   1      46.777  28.298  30.811  1.00  0.00     0.134 A 
ATOM     73  C   UNL A   1      45.839  27.283  32.766  1.00  0.00     0.134 A 
ATOM     74  F   UNL A   1      46.685  29.089  29.730  1.00  0.00    -0.206 F 
ATOM     75  C   UNL A   1      47.982  27.629  31.032  1.00  0.00     0.040 A 
ATOM     76  C   UNL A   1      47.047  26.629  33.013  1.00  0.00     0.040 A 
ATOM     77  F   UNL A   1      44.830  27.086  33.627  1.00  0.00    -0.206 F 
ATOM     78  C   UNL A   1      48.120  26.796  32.140  1.00  0.00     0.006 A 
ENDBRANCH  57  71
BRANCH  58  79
ATOM     79  C   UNL A   1      36.890  32.542  30.048  1.00  0.00     0.057 A 
ATOM     80  C   UNL A   1      35.793  32.276  30.877  1.00  0.00     0.134 A 
ATOM     81  C   UNL A   1      36.698  33.446  28.997  1.00  0.00     0.134 A 
ATOM     82  F   UNL A   1      35.910  31.402  31.888  1.00  0.00    -0.206 F 
ATOM     83  C   UNL A   1      34.550  32.868  30.659  1.00  0.00     0.040 A 
ATOM     84  C   UNL A   1      35.466  34.065  28.780  1.00  0.00     0.040 A 
ATOM     85  F   UNL A   1      37.711  33.748  28.172  1.00  0.00    -0.206 F 
ATOM     86  C   UNL A   1      34.385  33.771  29.609  1.00  0.00     0.006 A 
ENDBRANCH  58  79
BRANCH  70  87
ATOM     87  C   UNL A   1      42.649  34.424  33.464  1.00  0.00     0.057 A 
ATOM     88  C   UNL A   1      42.467  34.530  34.847  1.00  0.00     0.134 A 
ATOM     89  C   UNL A   1      43.229  35.514  32.801  1.00  0.00     0.134 A 
ATOM     90  F   UNL A   1      41.904  33.526  35.537  1.00  0.00    -0.206 F 
ATOM     91  C   UNL A   1      42.829  35.684  35.544  1.00  0.00     0.040 A 
ATOM     92  C   UNL A   1      43.617  36.664  33.490  1.00  0.00     0.040 A 
ATOM     93  F   UNL A   1      43.438  35.474  31.477  1.00  0.00    -0.206 F 
ATOM     94  C   UNL A   1      43.413  36.752  34.865  1.00  0.00     0.006 A 
ENDBRANCH  70  87
ENDBRANCH  44  45
ENDBRANCH  36  39
ENDBRANCH  34  35
ENDBRANCH  33  34
ENDBRANCH   1  33
TORSDOF 14
ENDMDL
MODEL 2
REMARK VINA RESULT:     -12.5      2.699      6.247
REMARK SMILES COC(=O)c1ccc([C@H]2Nc3c(C(=O)NCCCCNC(=O)c4ccc(-c5c6nc(c(-c7c(F)cccc7F)c7ccc([nH]7)c(-c7c(F)cccc7F)c7nc(c(-c8c(F)cccc8F)c8ccc5[nH]8)C=C7)C=C6)cc4)cccc3[C@@H]3[C@@H]4CC[C@@H](C4)[C@@H]32)cc1
REMARK SMILES IDX 17 1 16 2 15 3 13 4 14 5 12 7 9 8 10 9 87 10 11 11 81 13
REMARK SMILES IDX 85 14 80 15 82 16 84 17 86 18 77 19 79 20 83 21 78 22 8 23
REMARK SMILES IDX 5 24 6 25 89 26 7 27 88 28 3 29 4 30 2 31 1 32 18 33 19 34
REMARK SMILES IDX 20 35 21 36 22 38 23 39 24 40 76 41 25 42 75 43 26 44 27 45
REMARK SMILES IDX 28 46 69 47 29 48 74 49 68 50 70 51 30 52 73 53 67 54 66 55
REMARK SMILES IDX 31 57 57 58 40 59 56 60 41 61 44 62 55 63 71 64 42 65 43 66
REMARK SMILES IDX 54 68 72 69 45 70 32 71 33 72 38 73 34 74 35 75 37 76 39 77
REMARK SMILES IDX 36 78 58 79 59 80 64 81 60 82 61 83 63 84 65 85 62 86 46 87
REMARK SMILES IDX 47 88 52 89 48 90 49 91 51 92 53 93 50 94
REMARK H PARENT 15 6 10 12 20 37 70 56 44 67
REMARK Flexibility Score: inf
ROOT
ATOM      1  C   UNL A   1      34.358  22.172  23.638  1.00  0.00     0.023 C 
ENDROOT
BRANCH   1   2
ATOM      2  C   UNL A   1      33.774  22.850  22.401  1.00  0.00     0.116 C 
BRANCH   2   3
ATOM      3  N   UNL A   1      32.329  22.909  22.305  1.00  0.00    -0.352 N 
ATOM      4  C   UNL A   1      31.414  23.542  23.136  1.00  0.00     0.253 C 
ATOM      5  O   UNL A   1      30.228  23.520  22.799  1.00  0.00    -0.269 OA
ATOM      6  H   UNL A   1      31.939  22.428  21.539  1.00  0.00     0.163 HD
BRANCH   4   7
ATOM      7  C   UNL A   1      31.778  24.155  24.456  1.00  0.00     0.063 A 
ATOM      8  C   UNL A   1      31.512  27.665  24.147  1.00  0.00     0.113 C 
ATOM      9  N   UNL A   1      32.109  26.422  23.628  1.00  0.00    -0.377 N 
ATOM     10  C   UNL A   1      32.758  28.360  24.719  1.00  0.00     0.027 C 
ATOM     11  C   UNL A   1      32.232  25.466  24.629  1.00  0.00     0.051 A 
ATOM     12  H   UNL A   1      32.384  26.285  22.692  1.00  0.00     0.161 HD
ATOM     13  C   UNL A   1      33.399  27.333  25.790  1.00  0.00     0.030 C 
ATOM     14  C   UNL A   1      32.675  29.659  25.545  1.00  0.00    -0.005 C 
ATOM     15  C   UNL A   1      32.724  25.961  25.860  1.00  0.00    -0.020 A 
ATOM     16  C   UNL A   1      33.519  28.210  27.050  1.00  0.00    -0.003 C 
ATOM     17  C   UNL A   1      31.591  29.601  26.624  1.00  0.00     0.004 C 
ATOM     18  C   UNL A   1      33.941  29.544  26.418  1.00  0.00     0.008 C 
ATOM     19  C   UNL A   1      31.521  23.430  25.620  1.00  0.00     0.016 A 
ATOM     20  C   UNL A   1      32.529  25.184  26.994  1.00  0.00     0.006 A 
ATOM     21  C   UNL A   1      32.141  28.575  27.625  1.00  0.00     0.004 C 
ATOM     22  C   UNL A   1      31.866  23.952  26.878  1.00  0.00     0.001 A 
BRANCH   8  23
ATOM     23  C   UNL A   1      30.508  27.944  23.031  1.00  0.00    -0.025 A 
ATOM     24  C   UNL A   1      28.581  29.880  22.398  1.00  0.00     0.060 A 
ATOM     25  C   UNL A   1      29.902  30.079  22.003  1.00  0.00     0.016 A 
ATOM     26  C   UNL A   1      28.187  28.619  22.880  1.00  0.00     0.016 A 
ATOM     27  C   UNL A   1      30.852  29.097  22.272  1.00  0.00     0.007 A 
ATOM     28  C   UNL A   1      29.148  27.636  23.183  1.00  0.00     0.007 A 
BRANCH  24  29
ATOM     29  C   UNL A   1      27.713  31.094  22.456  1.00  0.00     0.337 C 
ATOM     30  O   UNL A   1      27.278  31.568  23.483  1.00  0.00    -0.246 OA
BRANCH  29  31
ATOM     31  O   UNL A   1      27.358  31.461  21.193  1.00  0.00    -0.465 OA
ATOM     32  C   UNL A   1      27.916  32.703  20.749  1.00  0.00     0.282 C 
ENDBRANCH  29  31
ENDBRANCH  24  29
ENDBRANCH   8  23
ENDBRANCH   4   7
ENDBRANCH   2   3
ENDBRANCH   1   2
BRANCH   1  33
ATOM     33  C   UNL A   1      35.326  23.001  24.483  1.00  0.00     0.023 C 
BRANCH  33  34
ATOM     34  C   UNL A   1      35.864  22.338  25.749  1.00  0.00     0.116 C 
BRANCH  34  35
ATOM     35  N   UNL A   1      36.921  21.363  25.528  1.00  0.00    -0.352 N 
ATOM     36  C   UNL A   1      38.276  21.429  25.756  1.00  0.00     0.251 C 
ATOM     37  H   UNL A   1      36.613  20.509  25.149  1.00  0.00     0.163 HD
ATOM     38  O   UNL A   1      38.983  20.471  25.451  1.00  0.00    -0.269 OA
BRANCH  36  39
ATOM     39  C   UNL A   1      38.909  22.649  26.310  1.00  0.00     0.039 A 
ATOM     40  C   UNL A   1      40.027  22.496  27.138  1.00  0.00     0.014 A 
ATOM     41  C   UNL A   1      38.419  23.929  26.046  1.00  0.00     0.014 A 
ATOM     42  C   UNL A   1      40.709  23.621  27.609  1.00  0.00     0.010 A 
ATOM     43  C   UNL A   1      39.146  25.051  26.448  1.00  0.00     0.010 A 
ATOM     44  C   UNL A   1      40.308  24.909  27.223  1.00  0.00    -0.014 A 
BRANCH  44  45
ATOM     45  C   UNL A   1      41.107  26.109  27.595  1.00  0.00     0.031 A 
ATOM     46  C   UNL A   1      40.494  27.220  28.402  1.00  0.00     0.074 A 
ATOM     47  C   UNL A   1      42.374  26.229  27.150  1.00  0.00     0.049 A 
ATOM     48  N   UNL A   1      41.015  28.368  28.760  1.00  0.00    -0.248 NA
ATOM     49  C   UNL A   1      39.105  27.027  28.848  1.00  0.00     0.031 C 
ATOM     50  C   UNL A   1      43.078  25.248  26.321  1.00  0.00     0.029 A 
ATOM     51  N   UNL A   1      43.296  27.232  27.326  1.00  0.00    -0.354 N 
ATOM     52  C   UNL A   1      40.017  29.037  29.456  1.00  0.00     0.074 A 
ATOM     53  C   UNL A   1      38.844  28.188  29.429  1.00  0.00     0.031 C 
ATOM     54  C   UNL A   1      44.326  25.684  26.085  1.00  0.00     0.029 A 
ATOM     55  C   UNL A   1      44.500  26.991  26.711  1.00  0.00     0.049 A 
ATOM     56  H   UNL A   1      43.110  28.048  27.845  1.00  0.00     0.167 HD
ATOM     57  C   UNL A   1      40.075  30.237  30.081  1.00  0.00     0.037 A 
ATOM     58  C   UNL A   1      45.620  27.737  26.652  1.00  0.00     0.037 A 
ATOM     59  C   UNL A   1      41.248  31.072  30.132  1.00  0.00     0.049 A 
ATOM     60  C   UNL A   1      45.657  29.070  27.348  1.00  0.00     0.074 A 
ATOM     61  C   UNL A   1      41.417  32.281  30.786  1.00  0.00     0.029 A 
ATOM     62  N   UNL A   1      42.451  30.785  29.507  1.00  0.00    -0.354 N 
ATOM     63  N   UNL A   1      44.722  29.662  28.048  1.00  0.00    -0.248 NA
ATOM     64  C   UNL A   1      46.908  29.835  27.245  1.00  0.00     0.031 C 
ATOM     65  C   UNL A   1      42.712  32.743  30.526  1.00  0.00     0.029 A 
ATOM     66  C   UNL A   1      43.363  31.801  29.746  1.00  0.00     0.049 A 
ATOM     67  H   UNL A   1      42.630  29.979  28.971  1.00  0.00     0.167 HD
ATOM     68  C   UNL A   1      45.280  30.854  28.495  1.00  0.00     0.074 A 
ATOM     69  C   UNL A   1      46.637  30.895  27.994  1.00  0.00     0.031 C 
ATOM     70  C   UNL A   1      44.715  31.825  29.251  1.00  0.00     0.037 A 
BRANCH  57  71
ATOM     71  C   UNL A   1      38.832  30.719  30.771  1.00  0.00     0.057 A 
ATOM     72  C   UNL A   1      38.573  30.419  32.114  1.00  0.00     0.134 A 
ATOM     73  C   UNL A   1      37.902  31.520  30.097  1.00  0.00     0.134 A 
ATOM     74  F   UNL A   1      39.419  29.647  32.814  1.00  0.00    -0.206 F 
ATOM     75  C   UNL A   1      37.421  30.877  32.757  1.00  0.00     0.040 A 
ATOM     76  C   UNL A   1      36.760  32.006  30.735  1.00  0.00     0.040 A 
ATOM     77  F   UNL A   1      38.093  31.852  28.811  1.00  0.00    -0.206 F 
ATOM     78  C   UNL A   1      36.514  31.679  32.067  1.00  0.00     0.006 A 
ENDBRANCH  57  71
BRANCH  58  79
ATOM     79  C   UNL A   1      46.814  27.232  25.929  1.00  0.00     0.057 A 
ATOM     80  C   UNL A   1      47.792  26.482  26.593  1.00  0.00     0.134 A 
ATOM     81  C   UNL A   1      47.014  27.494  24.569  1.00  0.00     0.134 A 
ATOM     82  F   UNL A   1      47.666  26.218  27.901  1.00  0.00    -0.206 F 
ATOM     83  C   UNL A   1      48.935  26.026  25.936  1.00  0.00     0.040 A 
ATOM     84  C   UNL A   1      48.141  27.023  23.892  1.00  0.00     0.040 A 
ATOM     85  F   UNL A   1      46.110  28.201  23.875  1.00  0.00    -0.206 F 
ATOM     86  C   UNL A   1      49.109  26.293  24.578  1.00  0.00     0.006 A 
ENDBRANCH  58  79
BRANCH  70  87
ATOM     87  C   UNL A   1      45.576  32.999  29.615  1.00  0.00     0.057 A 
ATOM     88  C   UNL A   1      46.377  33.002  30.763  1.00  0.00     0.134 A 
ATOM     89  C   UNL A   1      45.629  34.126  28.784  1.00  0.00     0.134 A 
ATOM     90  F   UNL A   1      46.360  31.959  31.606  1.00  0.00    -0.206 F 
ATOM     91  C   UNL A   1      47.187  34.093  31.084  1.00  0.00     0.040 A 
ATOM     92  C   UNL A   1      46.452  35.213  29.082  1.00  0.00     0.040 A 
ATOM     93  F   UNL A   1      44.891  34.185  27.666  1.00  0.00    -0.206 F 
ATOM     94  C   UNL A   1      47.231  35.200  30.237  1.00  0.00     0.006 A 
ENDBRANCH  70  87
ENDBRANCH  44  45
ENDBRANCH  36  39
ENDBRANCH  34  35
ENDBRANCH  33  34
ENDBRANCH   1  33
TORSDOF 14
ENDMDL
MODEL 3
REMARK VINA RESULT:     -12.1      3.858      5.962
REMARK SMILES COC(=O)c1ccc([C@H]2Nc3c(C(=O)NCCCCNC(=O)c4ccc(-c5c6nc(c(-c7c(F)cccc7F)c7ccc([nH]7)c(-c7c(F)cccc7F)c7nc(c(-c8c(F)cccc8F)c8ccc5[nH]8)C=C7)C=C6)cc4)cccc3[C@@H]3[C@@H]4CC[C@@H](C4)[C@@H]32)cc1
REMARK SMILES IDX 17 1 16 2 15 3 13 4 14 5 12 7 9 8 10 9 87 10 11 11 81 13
REMARK SMILES IDX 85 14 80 15 82 16 84 17 86 18 77 19 79 20 83 21 78 22 8 23
REMARK SMILES IDX 5 24 6 25 89 26 7 27 88 28 3 29 4 30 2 31 1 32 18 33 19 34
REMARK SMILES IDX 20 35 21 36 22 38 23 39 24 40 76 41 25 42 75 43 26 44 27 45
REMARK SMILES IDX 28 46 69 47 29 48 74 49 68 50 70 51 30 52 73 53 67 54 66 55
REMARK SMILES IDX 31 57 57 58 40 59 56 60 41 61 44 62 55 63 71 64 42 65 43 66
REMARK SMILES IDX 54 68 72 69 45 70 32 71 33 72 38 73 34 74 35 75 37 76 39 77
REMARK SMILES IDX 36 78 58 79 59 80 64 81 60 82 61 83 63 84 65 85 62 86 46 87
REMARK SMILES IDX 47 88 52 89 48 90 49 91 51 92 53 93 50 94
REMARK H PARENT 15 6 10 12 20 37 70 56 44 67
REMARK Flexibility Score: inf
ROOT
ATOM      1  C   UNL A   1      40.302  19.775  25.906  1.00  0.00     0.023 C 
ENDROOT
BRANCH   1   2
ATOM      2  C   UNL A   1      39.167  20.414  25.110  1.00  0.00     0.116 C 
BRANCH   2   3
ATOM      3  N   UNL A   1      37.921  19.678  25.038  1.00  0.00    -0.352 N 
ATOM      4  C   UNL A   1      36.621  20.151  24.920  1.00  0.00     0.253 C 
ATOM      5  O   UNL A   1      35.720  19.319  24.793  1.00  0.00    -0.269 OA
ATOM      6  H   UNL A   1      38.009  18.698  25.078  1.00  0.00     0.163 HD
BRANCH   4   7
ATOM      7  C   UNL A   1      36.253  21.601  25.042  1.00  0.00     0.063 A 
ATOM      8  C   UNL A   1      32.974  22.011  23.791  1.00  0.00     0.113 C 
ATOM      9  N   UNL A   1      34.343  21.531  23.532  1.00  0.00    -0.377 N 
ATOM     10  C   UNL A   1      32.903  23.203  22.823  1.00  0.00     0.027 C 
ATOM     11  C   UNL A   1      35.276  22.244  24.277  1.00  0.00     0.051 A 
ATOM     12  H   UNL A   1      34.569  20.800  22.912  1.00  0.00     0.161 HD
ATOM     13  C   UNL A   1      34.127  24.182  23.219  1.00  0.00     0.030 C 
ATOM     14  C   UNL A   1      31.714  24.183  22.804  1.00  0.00    -0.005 C 
ATOM     15  C   UNL A   1      35.068  23.643  24.299  1.00  0.00    -0.020 A 
ATOM     16  C   UNL A   1      33.414  25.533  23.406  1.00  0.00    -0.003 C 
ATOM     17  C   UNL A   1      31.313  24.649  24.205  1.00  0.00     0.004 C 
ATOM     18  C   UNL A   1      32.387  25.464  22.267  1.00  0.00     0.008 C 
ATOM     19  C   UNL A   1      36.815  22.345  26.081  1.00  0.00     0.016 A 
ATOM     20  C   UNL A   1      35.702  24.376  25.294  1.00  0.00     0.006 A 
ATOM     21  C   UNL A   1      32.494  25.528  24.638  1.00  0.00     0.004 C 
ATOM     22  C   UNL A   1      36.519  23.711  26.222  1.00  0.00     0.001 A 
BRANCH   8  23
ATOM     23  C   UNL A   1      32.264  20.667  23.940  1.00  0.00    -0.025 A 
ATOM     24  C   UNL A   1      32.954  17.974  24.299  1.00  0.00     0.060 A 
ATOM     25  C   UNL A   1      32.807  18.794  25.416  1.00  0.00     0.016 A 
ATOM     26  C   UNL A   1      32.518  18.432  23.044  1.00  0.00     0.016 A 
ATOM     27  C   UNL A   1      32.416  20.120  25.244  1.00  0.00     0.007 A 
ATOM     28  C   UNL A   1      32.153  19.779  22.860  1.00  0.00     0.007 A 
BRANCH  24  29
ATOM     29  C   UNL A   1      33.748  16.723  24.492  1.00  0.00     0.337 C 
ATOM     30  O   UNL A   1      34.398  16.191  23.619  1.00  0.00    -0.246 OA
BRANCH  29  31
ATOM     31  O   UNL A   1      33.483  16.201  25.722  1.00  0.00    -0.465 OA
ATOM     32  C   UNL A   1      32.591  15.080  25.720  1.00  0.00     0.282 C 
ENDBRANCH  29  31
ENDBRANCH  24  29
ENDBRANCH   8  23
ENDBRANCH   4   7
ENDBRANCH   2   3
ENDBRANCH   1   2
BRANCH   1  33
ATOM     33  C   UNL A   1      41.459  20.691  26.308  1.00  0.00     0.023 C 
BRANCH  33  34
ATOM     34  C   UNL A   1      41.309  22.170  25.957  1.00  0.00     0.116 C 
BRANCH  34  35
ATOM     35  N   UNL A   1      42.419  22.737  25.206  1.00  0.00    -0.352 N 
ATOM     36  C   UNL A   1      43.195  23.849  25.437  1.00  0.00     0.251 C 
ATOM     37  H   UNL A   1      42.655  22.238  24.391  1.00  0.00     0.163 HD
ATOM     38  O   UNL A   1      44.068  24.152  24.626  1.00  0.00    -0.269 OA
BRANCH  36  39
ATOM     39  C   UNL A   1      42.965  24.722  26.612  1.00  0.00     0.039 A 
ATOM     40  C   UNL A   1      43.311  26.074  26.510  1.00  0.00     0.014 A 
ATOM     41  C   UNL A   1      42.435  24.238  27.809  1.00  0.00     0.014 A 
ATOM     42  C   UNL A   1      43.029  26.952  27.560  1.00  0.00     0.010 A 
ATOM     43  C   UNL A   1      42.078  25.127  28.824  1.00  0.00     0.010 A 
ATOM     44  C   UNL A   1      42.359  26.497  28.706  1.00  0.00    -0.014 A 
BRANCH  44  45
ATOM     45  C   UNL A   1      41.921  27.442  29.769  1.00  0.00     0.031 A 
ATOM     46  C   UNL A   1      42.610  27.467  31.106  1.00  0.00     0.074 A 
ATOM     47  C   UNL A   1      40.856  28.240  29.552  1.00  0.00     0.049 A 
ATOM     48  N   UNL A   1      42.323  28.173  32.171  1.00  0.00    -0.248 NA
ATOM     49  C   UNL A   1      43.759  26.565  31.276  1.00  0.00     0.031 C 
ATOM     50  C   UNL A   1      40.068  28.287  28.319  1.00  0.00     0.029 A 
ATOM     51  N   UNL A   1      40.246  29.164  30.366  1.00  0.00    -0.354 N 
ATOM     52  C   UNL A   1      43.241  27.790  33.140  1.00  0.00     0.074 A 
ATOM     53  C   UNL A   1      44.065  26.755  32.551  1.00  0.00     0.031 C 
ATOM     54  C   UNL A   1      39.100  29.208  28.447  1.00  0.00     0.029 A 
ATOM     55  C   UNL A   1      39.171  29.790  29.784  1.00  0.00     0.049 A 
ATOM     56  H   UNL A   1      40.551  29.357  31.282  1.00  0.00     0.167 HD
ATOM     57  C   UNL A   1      43.401  28.270  34.396  1.00  0.00     0.037 A 
ATOM     58  C   UNL A   1      38.333  30.726  30.269  1.00  0.00     0.037 A 
ATOM     59  C   UNL A   1      42.601  29.317  34.976  1.00  0.00     0.049 A 
ATOM     60  C   UNL A   1      38.528  31.237  31.670  1.00  0.00     0.074 A 
ATOM     61  C   UNL A   1      42.724  29.905  36.223  1.00  0.00     0.029 A 
ATOM     62  N   UNL A   1      41.530  29.934  34.347  1.00  0.00    -0.354 N 
ATOM     63  N   UNL A   1      39.436  30.903  32.552  1.00  0.00    -0.248 NA
ATOM     64  C   UNL A   1      37.579  32.258  32.139  1.00  0.00     0.031 C 
ATOM     65  C   UNL A   1      41.704  30.853  36.364  1.00  0.00     0.029 A 
ATOM     66  C   UNL A   1      40.973  30.885  35.187  1.00  0.00     0.049 A 
ATOM     67  H   UNL A   1      41.213  29.726  33.439  1.00  0.00     0.167 HD
ATOM     68  C   UNL A   1      39.189  31.692  33.669  1.00  0.00     0.074 A 
ATOM     69  C   UNL A   1      38.052  32.528  33.348  1.00  0.00     0.031 C 
ATOM     70  C   UNL A   1      39.847  31.719  34.853  1.00  0.00     0.037 A 
BRANCH  57  71
ATOM     71  C   UNL A   1      44.495  27.669  35.231  1.00  0.00     0.057 A 
ATOM     72  C   UNL A   1      45.778  28.229  35.275  1.00  0.00     0.134 A 
ATOM     73  C   UNL A   1      44.254  26.542  36.026  1.00  0.00     0.134 A 
ATOM     74  F   UNL A   1      46.078  29.303  34.529  1.00  0.00    -0.206 F 
ATOM     75  C   UNL A   1      46.790  27.674  36.061  1.00  0.00     0.040 A 
ATOM     76  C   UNL A   1      45.250  25.994  36.836  1.00  0.00     0.040 A 
ATOM     77  F   UNL A   1      43.044  25.961  36.037  1.00  0.00    -0.206 F 
ATOM     78  C   UNL A   1      46.524  26.557  36.850  1.00  0.00     0.006 A 
ENDBRANCH  57  71
BRANCH  58  79
ATOM     79  C   UNL A   1      37.245  31.265  29.416  1.00  0.00     0.057 A 
ATOM     80  C   UNL A   1      37.358  32.528  28.820  1.00  0.00     0.134 A 
ATOM     81  C   UNL A   1      36.068  30.546  29.183  1.00  0.00     0.134 A 
ATOM     82  F   UNL A   1      38.454  33.274  29.024  1.00  0.00    -0.206 F 
ATOM     83  C   UNL A   1      36.333  33.063  28.040  1.00  0.00     0.040 A 
ATOM     84  C   UNL A   1      35.044  31.058  28.385  1.00  0.00     0.040 A 
ATOM     85  F   UNL A   1      35.902  29.328  29.720  1.00  0.00    -0.206 F 
ATOM     86  C   UNL A   1      35.172  32.324  27.817  1.00  0.00     0.006 A 
ENDBRANCH  58  79
BRANCH  70  87
ATOM     87  C   UNL A   1      39.377  32.709  35.877  1.00  0.00     0.057 A 
ATOM     88  C   UNL A   1      38.383  32.394  36.811  1.00  0.00     0.134 A 
ATOM     89  C   UNL A   1      39.955  33.984  35.951  1.00  0.00     0.134 A 
ATOM     90  F   UNL A   1      37.781  31.195  36.784  1.00  0.00    -0.206 F 
ATOM     91  C   UNL A   1      37.965  33.317  37.771  1.00  0.00     0.040 A 
ATOM     92  C   UNL A   1      39.562  34.907  36.921  1.00  0.00     0.040 A 
ATOM     93  F   UNL A   1      40.917  34.347  35.091  1.00  0.00    -0.206 F 
ATOM     94  C   UNL A   1      38.561  34.576  37.831  1.00  0.00     0.006 A 
ENDBRANCH  70  87
ENDBRANCH  44  45
ENDBRANCH  36  39
ENDBRANCH  34  35
ENDBRANCH  33  34
ENDBRANCH   1  33
TORSDOF 14
ENDMDL
