MODEL 1
REMARK VINA RESULT:     -12.8      0.000      0.000
REMARK SMILES O=C(CSc1ccc(NC(=O)c2cccc3ccccc23)cc1)NCCCCNC(=O)c1ccc(-c2c3nc(c(-c4c(F)cccc4F)c4ccc([nH]4)c(-c4c(F)cccc4F)c4nc(c(-c5c(F)cccc5F)c5ccc2[nH]5)C=C4)C=C3)cc1
REMARK SMILES IDX 25 1 24 2 1 3 2 4 3 6 4 7 5 8 6 9 23 10 7 11 22 12 8 13 9 14
REMARK SMILES IDX 10 15 11 17 12 18 13 19 21 20 14 21 16 22 20 23 15 24 17 25
REMARK SMILES IDX 19 26 18 27 26 28 27 29 28 30 29 31 30 32 31 34 32 35 33 36
REMARK SMILES IDX 85 37 34 38 84 39 35 40 36 41 37 42 78 43 38 44 83 45 77 46
REMARK SMILES IDX 79 47 39 48 82 49 76 50 75 51 40 53 66 54 49 55 65 56 50 57
REMARK SMILES IDX 53 58 64 59 80 60 51 61 52 62 63 64 81 65 54 66 41 67 42 68
REMARK SMILES IDX 47 69 43 70 44 71 46 72 48 73 45 74 67 75 68 76 73 77 69 78
REMARK SMILES IDX 70 79 72 80 74 81 71 82 55 83 56 84 61 85 57 86 58 87 60 88
REMARK SMILES IDX 62 89 59 90
REMARK H PARENT 24 5 9 16 29 33 79 52 53 63
REMARK Flexibility Score: inf
ROOT
ATOM      1  C   UNL A   1      40.319  21.839  27.088  1.00  0.00     0.116 C 
ENDROOT
BRANCH   1   2
ATOM      2  N   UNL A   1      39.185  21.453  26.276  1.00  0.00    -0.355 N 
ATOM      3  O   UNL A   1      38.251  23.539  26.090  1.00  0.00    -0.274 OA
ATOM      4  C   UNL A   1      38.267  22.351  25.778  1.00  0.00     0.230 C 
ATOM      5  H   UNL A   1      39.064  20.498  26.068  1.00  0.00     0.163 HD
BRANCH   4   6
ATOM      6  C   UNL A   1      37.237  21.755  24.832  1.00  0.00     0.174 C 
BRANCH   6   7
ATOM      7  S   UNL A   1      36.651  22.962  23.576  1.00  0.00    -0.116 SA
BRANCH   7   8
ATOM      8  C   UNL A   1      35.047  23.393  24.228  1.00  0.00     0.008 A 
ATOM      9  C   UNL A   1      33.910  22.892  23.590  1.00  0.00     0.017 A 
ATOM     10  C   UNL A   1      34.877  24.238  25.324  1.00  0.00     0.017 A 
ATOM     11  C   UNL A   1      32.633  23.152  24.102  1.00  0.00     0.027 A 
ATOM     12  C   UNL A   1      33.606  24.476  25.850  1.00  0.00     0.027 A 
ATOM     13  C   UNL A   1      32.484  23.869  25.284  1.00  0.00     0.041 A 
BRANCH  13  14
ATOM     14  N   UNL A   1      31.292  23.981  26.011  1.00  0.00    -0.322 N 
ATOM     15  C   UNL A   1      30.342  24.967  26.109  1.00  0.00     0.256 C 
ATOM     16  H   UNL A   1      31.094  23.191  26.564  1.00  0.00     0.170 HD
ATOM     17  O   UNL A   1      29.406  24.797  26.895  1.00  0.00    -0.269 OA
BRANCH  15  18
ATOM     18  C   UNL A   1      30.360  26.226  25.330  1.00  0.00     0.048 A 
ATOM     19  C   UNL A   1      29.705  26.137  24.090  1.00  0.00     0.014 A 
ATOM     20  C   UNL A   1      31.024  27.426  25.723  1.00  0.00    -0.006 A 
ATOM     21  C   UNL A   1      29.697  27.217  23.218  1.00  0.00     0.001 A 
ATOM     22  C   UNL A   1      31.000  28.516  24.815  1.00  0.00    -0.018 A 
ATOM     23  C   UNL A   1      31.681  27.638  26.963  1.00  0.00     0.009 A 
ATOM     24  C   UNL A   1      30.356  28.389  23.573  1.00  0.00     0.009 A 
ATOM     25  C   UNL A   1      31.598  29.740  25.158  1.00  0.00     0.009 A 
ATOM     26  C   UNL A   1      32.187  28.890  27.326  1.00  0.00     0.001 A 
ATOM     27  C   UNL A   1      32.156  29.937  26.417  1.00  0.00     0.001 A 
ENDBRANCH  15  18
ENDBRANCH  13  14
ENDBRANCH   7   8
ENDBRANCH   6   7
ENDBRANCH   4   6
ENDBRANCH   1   2
BRANCH   1  28
ATOM     28  C   UNL A   1      41.458  20.831  26.995  1.00  0.00     0.023 C 
BRANCH  28  29
ATOM     29  C   UNL A   1      42.637  21.270  26.122  1.00  0.00     0.023 C 
BRANCH  29  30
ATOM     30  C   UNL A   1      42.443  22.582  25.369  1.00  0.00     0.116 C 
BRANCH  30  31
ATOM     31  N   UNL A   1      43.697  23.167  24.922  1.00  0.00    -0.352 N 
ATOM     32  C   UNL A   1      44.255  24.388  25.222  1.00  0.00     0.251 C 
ATOM     33  H   UNL A   1      44.227  22.603  24.313  1.00  0.00     0.163 HD
ATOM     34  O   UNL A   1      45.254  24.767  24.622  1.00  0.00    -0.269 OA
BRANCH  32  35
ATOM     35  C   UNL A   1      43.636  25.262  26.245  1.00  0.00     0.039 A 
ATOM     36  C   UNL A   1      42.768  24.690  27.180  1.00  0.00     0.014 A 
ATOM     37  C   UNL A   1      43.896  26.634  26.283  1.00  0.00     0.014 A 
ATOM     38  C   UNL A   1      42.221  25.480  28.195  1.00  0.00     0.010 A 
ATOM     39  C   UNL A   1      43.415  27.403  27.340  1.00  0.00     0.010 A 
ATOM     40  C   UNL A   1      42.574  26.835  28.310  1.00  0.00    -0.014 A 
BRANCH  40  41
ATOM     41  C   UNL A   1      42.083  27.665  29.442  1.00  0.00     0.031 A 
ATOM     42  C   UNL A   1      42.743  27.582  30.792  1.00  0.00     0.074 A 
ATOM     43  C   UNL A   1      40.999  28.448  29.274  1.00  0.00     0.049 A 
ATOM     44  N   UNL A   1      42.415  28.176  31.911  1.00  0.00    -0.248 NA
ATOM     45  C   UNL A   1      43.912  26.696  30.903  1.00  0.00     0.031 C 
ATOM     46  C   UNL A   1      40.238  28.584  28.030  1.00  0.00     0.029 A 
ATOM     47  N   UNL A   1      40.341  29.269  30.156  1.00  0.00    -0.354 N 
ATOM     48  C   UNL A   1      43.329  27.733  32.858  1.00  0.00     0.074 A 
ATOM     49  C   UNL A   1      44.187  26.773  32.197  1.00  0.00     0.031 C 
ATOM     50  C   UNL A   1      39.233  29.453  28.222  1.00  0.00     0.029 A 
ATOM     51  C   UNL A   1      39.249  29.902  29.611  1.00  0.00     0.049 A 
ATOM     52  H   UNL A   1      40.625  29.395  31.090  1.00  0.00     0.167 HD
ATOM     53  C   UNL A   1      43.459  28.107  34.154  1.00  0.00     0.037 A 
ATOM     54  C   UNL A   1      38.352  30.738  30.168  1.00  0.00     0.037 A 
ATOM     55  C   UNL A   1      42.610  29.069  34.808  1.00  0.00     0.049 A 
ATOM     56  C   UNL A   1      38.500  31.117  31.616  1.00  0.00     0.074 A 
ATOM     57  C   UNL A   1      42.690  29.548  36.104  1.00  0.00     0.029 A 
ATOM     58  N   UNL A   1      41.519  29.693  34.220  1.00  0.00    -0.354 N 
ATOM     59  N   UNL A   1      39.409  30.739  32.482  1.00  0.00    -0.248 NA
ATOM     60  C   UNL A   1      37.501  32.046  32.163  1.00  0.00     0.031 C 
ATOM     61  C   UNL A   1      41.617  30.419  36.317  1.00  0.00     0.029 A 
ATOM     62  C   UNL A   1      40.903  30.531  35.135  1.00  0.00     0.049 A 
ATOM     63  H   UNL A   1      41.226  29.558  33.289  1.00  0.00     0.167 HD
ATOM     64  C   UNL A   1      39.110  31.404  33.664  1.00  0.00     0.074 A 
ATOM     65  C   UNL A   1      37.945  32.222  33.399  1.00  0.00     0.031 C 
ATOM     66  C   UNL A   1      39.745  31.344  34.860  1.00  0.00     0.037 A 
BRANCH  53  67
ATOM     67  C   UNL A   1      44.563  27.471  34.950  1.00  0.00     0.057 A 
ATOM     68  C   UNL A   1      45.842  28.039  35.028  1.00  0.00     0.134 A 
ATOM     69  C   UNL A   1      44.337  26.294  35.677  1.00  0.00     0.134 A 
ATOM     70  F   UNL A   1      46.130  29.161  34.350  1.00  0.00    -0.206 F 
ATOM     71  C   UNL A   1      46.864  27.444  35.769  1.00  0.00     0.040 A 
ATOM     72  C   UNL A   1      45.341  25.706  36.448  1.00  0.00     0.040 A 
ATOM     73  F   UNL A   1      43.134  25.700  35.657  1.00  0.00    -0.206 F 
ATOM     74  C   UNL A   1      46.613  26.277  36.488  1.00  0.00     0.006 A 
ENDBRANCH  53  67
BRANCH  54  75
ATOM     75  C   UNL A   1      37.237  31.283  29.352  1.00  0.00     0.057 A 
ATOM     76  C   UNL A   1      37.309  32.564  28.791  1.00  0.00     0.134 A 
ATOM     77  C   UNL A   1      36.071  30.543  29.119  1.00  0.00     0.134 A 
ATOM     78  F   UNL A   1      38.391  33.330  28.993  1.00  0.00    -0.206 F 
ATOM     79  C   UNL A   1      36.254  33.098  28.048  1.00  0.00     0.040 A 
ATOM     80  C   UNL A   1      35.021  31.053  28.354  1.00  0.00     0.040 A 
ATOM     81  F   UNL A   1      35.942  29.307  29.621  1.00  0.00    -0.206 F 
ATOM     82  C   UNL A   1      35.107  32.339  27.824  1.00  0.00     0.006 A 
ENDBRANCH  54  75
BRANCH  66  83
ATOM     83  C   UNL A   1      39.218  32.215  35.966  1.00  0.00     0.057 A 
ATOM     84  C   UNL A   1      39.628  33.545  36.126  1.00  0.00     0.134 A 
ATOM     85  C   UNL A   1      38.258  31.724  36.860  1.00  0.00     0.134 A 
ATOM     86  F   UNL A   1      40.553  34.074  35.311  1.00  0.00    -0.206 F 
ATOM     87  C   UNL A   1      39.121  34.346  37.150  1.00  0.00     0.040 A 
ATOM     88  C   UNL A   1      37.721  32.525  37.869  1.00  0.00     0.040 A 
ATOM     89  F   UNL A   1      37.813  30.462  36.758  1.00  0.00    -0.206 F 
ATOM     90  C   UNL A   1      38.158  33.839  38.021  1.00  0.00     0.006 A 
ENDBRANCH  66  83
ENDBRANCH  40  41
ENDBRANCH  32  35
ENDBRANCH  30  31
ENDBRANCH  29  30
ENDBRANCH  28  29
ENDBRANCH   1  28
TORSDOF 15
ENDMDL
MODEL 2
REMARK VINA RESULT:     -12.4      4.300      7.989
REMARK SMILES O=C(CSc1ccc(NC(=O)c2cccc3ccccc23)cc1)NCCCCNC(=O)c1ccc(-c2c3nc(c(-c4c(F)cccc4F)c4ccc([nH]4)c(-c4c(F)cccc4F)c4nc(c(-c5c(F)cccc5F)c5ccc2[nH]5)C=C4)C=C3)cc1
REMARK SMILES IDX 25 1 24 2 1 3 2 4 3 6 4 7 5 8 6 9 23 10 7 11 22 12 8 13 9 14
REMARK SMILES IDX 10 15 11 17 12 18 13 19 21 20 14 21 16 22 20 23 15 24 17 25
REMARK SMILES IDX 19 26 18 27 26 28 27 29 28 30 29 31 30 32 31 34 32 35 33 36
REMARK SMILES IDX 85 37 34 38 84 39 35 40 36 41 37 42 78 43 38 44 83 45 77 46
REMARK SMILES IDX 79 47 39 48 82 49 76 50 75 51 40 53 66 54 49 55 65 56 50 57
REMARK SMILES IDX 53 58 64 59 80 60 51 61 52 62 63 64 81 65 54 66 41 67 42 68
REMARK SMILES IDX 47 69 43 70 44 71 46 72 48 73 45 74 67 75 68 76 73 77 69 78
REMARK SMILES IDX 70 79 72 80 74 81 71 82 55 83 56 84 61 85 57 86 58 87 60 88
REMARK SMILES IDX 62 89 59 90
REMARK H PARENT 24 5 9 16 29 33 79 52 53 63
REMARK Flexibility Score: inf
ROOT
ATOM      1  C   UNL A   1      36.464  21.809  25.596  1.00  0.00     0.116 C 
ENDROOT
BRANCH   1   2
ATOM      2  N   UNL A   1      35.061  21.547  25.363  1.00  0.00    -0.355 N 
ATOM      3  O   UNL A   1      34.794  22.994  23.605  1.00  0.00    -0.274 OA
ATOM      4  C   UNL A   1      34.343  22.115  24.333  1.00  0.00     0.230 C 
ATOM      5  H   UNL A   1      34.594  20.931  25.973  1.00  0.00     0.163 HD
BRANCH   4   6
ATOM      6  C   UNL A   1      32.922  21.596  24.181  1.00  0.00     0.174 C 
BRANCH   6   7
ATOM      7  S   UNL A   1      31.873  21.975  25.641  1.00  0.00    -0.116 SA
BRANCH   7   8
ATOM      8  C   UNL A   1      30.997  23.423  25.075  1.00  0.00     0.008 A 
ATOM      9  C   UNL A   1      30.462  24.295  26.025  1.00  0.00     0.017 A 
ATOM     10  C   UNL A   1      30.792  23.703  23.723  1.00  0.00     0.017 A 
ATOM     11  C   UNL A   1      29.822  25.474  25.629  1.00  0.00     0.027 A 
ATOM     12  C   UNL A   1      30.176  24.892  23.329  1.00  0.00     0.027 A 
ATOM     13  C   UNL A   1      29.758  25.820  24.282  1.00  0.00     0.041 A 
BRANCH  13  14
ATOM     14  N   UNL A   1      29.364  27.072  23.793  1.00  0.00    -0.322 N 
ATOM     15  C   UNL A   1      30.043  28.242  23.555  1.00  0.00     0.256 C 
ATOM     16  H   UNL A   1      28.406  27.124  23.574  1.00  0.00     0.170 HD
ATOM     17  O   UNL A   1      29.397  29.219  23.166  1.00  0.00    -0.269 OA
BRANCH  15  18
ATOM     18  C   UNL A   1      31.503  28.412  23.731  1.00  0.00     0.048 A 
ATOM     19  C   UNL A   1      32.222  28.435  22.523  1.00  0.00     0.014 A 
ATOM     20  C   UNL A   1      32.177  28.483  24.986  1.00  0.00    -0.006 A 
ATOM     21  C   UNL A   1      33.607  28.520  22.530  1.00  0.00     0.001 A 
ATOM     22  C   UNL A   1      33.593  28.571  24.965  1.00  0.00    -0.018 A 
ATOM     23  C   UNL A   1      31.550  28.506  26.259  1.00  0.00     0.009 A 
ATOM     24  C   UNL A   1      34.285  28.569  23.744  1.00  0.00     0.009 A 
ATOM     25  C   UNL A   1      34.315  28.686  26.164  1.00  0.00     0.009 A 
ATOM     26  C   UNL A   1      32.277  28.717  27.435  1.00  0.00     0.001 A 
ATOM     27  C   UNL A   1      33.661  28.794  27.388  1.00  0.00     0.001 A 
ENDBRANCH  15  18
ENDBRANCH  13  14
ENDBRANCH   7   8
ENDBRANCH   6   7
ENDBRANCH   4   6
ENDBRANCH   1   2
BRANCH   1  28
ATOM     28  C   UNL A   1      37.347  21.193  24.518  1.00  0.00     0.023 C 
BRANCH  28  29
ATOM     29  C   UNL A   1      38.107  19.935  24.949  1.00  0.00     0.023 C 
BRANCH  29  30
ATOM     30  C   UNL A   1      39.195  20.151  25.996  1.00  0.00     0.116 C 
BRANCH  30  31
ATOM     31  N   UNL A   1      40.256  19.160  25.921  1.00  0.00    -0.352 N 
ATOM     32  C   UNL A   1      41.614  19.310  26.082  1.00  0.00     0.251 C 
ATOM     33  H   UNL A   1      39.957  18.242  25.728  1.00  0.00     0.163 HD
ATOM     34  O   UNL A   1      42.366  18.377  25.828  1.00  0.00    -0.269 OA
BRANCH  32  35
ATOM     35  C   UNL A   1      42.175  20.606  26.529  1.00  0.00     0.039 A 
ATOM     36  C   UNL A   1      42.690  21.482  25.568  1.00  0.00     0.014 A 
ATOM     37  C   UNL A   1      42.207  20.958  27.880  1.00  0.00     0.014 A 
ATOM     38  C   UNL A   1      43.166  22.737  25.956  1.00  0.00     0.010 A 
ATOM     39  C   UNL A   1      42.608  22.238  28.256  1.00  0.00     0.010 A 
ATOM     40  C   UNL A   1      43.090  23.144  27.299  1.00  0.00    -0.014 A 
BRANCH  40  41
ATOM     41  C   UNL A   1      43.497  24.512  27.712  1.00  0.00     0.031 A 
ATOM     42  C   UNL A   1      42.459  25.553  28.036  1.00  0.00     0.074 A 
ATOM     43  C   UNL A   1      44.804  24.840  27.736  1.00  0.00     0.049 A 
ATOM     44  N   UNL A   1      42.621  26.813  28.349  1.00  0.00    -0.248 NA
ATOM     45  C   UNL A   1      41.053  25.125  27.976  1.00  0.00     0.031 C 
ATOM     46  C   UNL A   1      45.909  23.939  27.401  1.00  0.00     0.029 A 
ATOM     47  N   UNL A   1      45.425  26.025  28.046  1.00  0.00    -0.354 N 
ATOM     48  C   UNL A   1      41.342  27.330  28.516  1.00  0.00     0.074 A 
ATOM     49  C   UNL A   1      40.415  26.262  28.210  1.00  0.00     0.031 C 
ATOM     50  C   UNL A   1      47.071  24.597  27.543  1.00  0.00     0.029 A 
ATOM     51  C   UNL A   1      46.794  25.975  27.936  1.00  0.00     0.049 A 
ATOM     52  H   UNL A   1      44.936  26.834  28.321  1.00  0.00     0.167 HD
ATOM     53  C   UNL A   1      40.973  28.572  28.911  1.00  0.00     0.037 A 
ATOM     54  C   UNL A   1      47.724  26.933  28.118  1.00  0.00     0.037 A 
ATOM     55  C   UNL A   1      41.898  29.631  29.225  1.00  0.00     0.049 A 
ATOM     56  C   UNL A   1      47.288  28.313  28.530  1.00  0.00     0.074 A 
ATOM     57  C   UNL A   1      41.623  30.909  29.679  1.00  0.00     0.029 A 
ATOM     58  N   UNL A   1      43.277  29.538  29.109  1.00  0.00    -0.354 N 
ATOM     59  N   UNL A   1      46.078  28.768  28.747  1.00  0.00    -0.248 NA
ATOM     60  C   UNL A   1      48.349  29.311  28.729  1.00  0.00     0.031 C 
ATOM     61  C   UNL A   1      42.830  31.606  29.785  1.00  0.00     0.029 A 
ATOM     62  C   UNL A   1      43.864  30.744  29.457  1.00  0.00     0.049 A 
ATOM     63  H   UNL A   1      43.767  28.733  28.822  1.00  0.00     0.167 HD
ATOM     64  C   UNL A   1      46.233  30.092  29.136  1.00  0.00     0.074 A 
ATOM     65  C   UNL A   1      47.655  30.362  29.140  1.00  0.00     0.031 C 
ATOM     66  C   UNL A   1      45.282  31.001  29.462  1.00  0.00     0.037 A 
BRANCH  53  67
ATOM     67  C   UNL A   1      39.501  28.852  29.027  1.00  0.00     0.057 A 
ATOM     68  C   UNL A   1      38.812  28.703  30.239  1.00  0.00     0.134 A 
ATOM     69  C   UNL A   1      38.770  29.310  27.923  1.00  0.00     0.134 A 
ATOM     70  F   UNL A   1      39.449  28.260  31.334  1.00  0.00    -0.206 F 
ATOM     71  C   UNL A   1      37.444  28.965  30.340  1.00  0.00     0.040 A 
ATOM     72  C   UNL A   1      37.409  29.606  28.020  1.00  0.00     0.040 A 
ATOM     73  F   UNL A   1      39.366  29.485  26.735  1.00  0.00    -0.206 F 
ATOM     74  C   UNL A   1      36.740  29.425  29.230  1.00  0.00     0.006 A 
ENDBRANCH  53  67
BRANCH  54  75
ATOM     75  C   UNL A   1      49.163  26.619  27.921  1.00  0.00     0.057 A 
ATOM     76  C   UNL A   1      49.748  26.672  26.650  1.00  0.00     0.134 A 
ATOM     77  C   UNL A   1      49.984  26.252  28.993  1.00  0.00     0.134 A 
ATOM     78  F   UNL A   1      49.009  26.999  25.580  1.00  0.00    -0.206 F 
ATOM     79  C   UNL A   1      51.091  26.349  26.449  1.00  0.00     0.040 A 
ATOM     80  C   UNL A   1      51.336  25.954  28.811  1.00  0.00     0.040 A 
ATOM     81  F   UNL A   1      49.487  26.190  30.237  1.00  0.00    -0.206 F 
ATOM     82  C   UNL A   1      51.891  25.993  27.534  1.00  0.00     0.006 A 
ENDBRANCH  54  75
BRANCH  66  83
ATOM     83  C   UNL A   1      45.748  32.365  29.889  1.00  0.00     0.057 A 
ATOM     84  C   UNL A   1      46.060  32.662  31.222  1.00  0.00     0.134 A 
ATOM     85  C   UNL A   1      45.924  33.384  28.943  1.00  0.00     0.134 A 
ATOM     86  F   UNL A   1      45.902  31.735  32.179  1.00  0.00    -0.206 F 
ATOM     87  C   UNL A   1      46.503  33.929  31.602  1.00  0.00     0.040 A 
ATOM     88  C   UNL A   1      46.396  34.646  29.307  1.00  0.00     0.040 A 
ATOM     89  F   UNL A   1      45.655  33.166  27.647  1.00  0.00    -0.206 F 
ATOM     90  C   UNL A   1      46.681  34.923  30.642  1.00  0.00     0.006 A 
ENDBRANCH  66  83
ENDBRANCH  40  41
ENDBRANCH  32  35
ENDBRANCH  30  31
ENDBRANCH  29  30
ENDBRANCH  28  29
ENDBRANCH   1  28
TORSDOF 15
ENDMDL
MODEL 3
REMARK VINA RESULT:     -12.4      3.365      8.772
REMARK SMILES O=C(CSc1ccc(NC(=O)c2cccc3ccccc23)cc1)NCCCCNC(=O)c1ccc(-c2c3nc(c(-c4c(F)cccc4F)c4ccc([nH]4)c(-c4c(F)cccc4F)c4nc(c(-c5c(F)cccc5F)c5ccc2[nH]5)C=C4)C=C3)cc1
REMARK SMILES IDX 25 1 24 2 1 3 2 4 3 6 4 7 5 8 6 9 23 10 7 11 22 12 8 13 9 14
REMARK SMILES IDX 10 15 11 17 12 18 13 19 21 20 14 21 16 22 20 23 15 24 17 25
REMARK SMILES IDX 19 26 18 27 26 28 27 29 28 30 29 31 30 32 31 34 32 35 33 36
REMARK SMILES IDX 85 37 34 38 84 39 35 40 36 41 37 42 78 43 38 44 83 45 77 46
REMARK SMILES IDX 79 47 39 48 82 49 76 50 75 51 40 53 66 54 49 55 65 56 50 57
REMARK SMILES IDX 53 58 64 59 80 60 51 61 52 62 63 64 81 65 54 66 41 67 42 68
REMARK SMILES IDX 47 69 43 70 44 71 46 72 48 73 45 74 67 75 68 76 73 77 69 78
REMARK SMILES IDX 70 79 72 80 74 81 71 82 55 83 56 84 61 85 57 86 58 87 60 88
REMARK SMILES IDX 62 89 59 90
REMARK H PARENT 24 5 9 16 29 33 79 52 53 63
REMARK Flexibility Score: inf
ROOT
ATOM      1  C   UNL A   1      35.130  32.454  28.422  1.00  0.00     0.116 C 
ENDROOT
BRANCH   1   2
ATOM      2  N   UNL A   1      33.913  31.934  27.837  1.00  0.00    -0.355 N 
ATOM      3  O   UNL A   1      34.660  29.794  27.494  1.00  0.00    -0.274 OA
ATOM      4  C   UNL A   1      33.748  30.615  27.477  1.00  0.00     0.230 C 
ATOM      5  H   UNL A   1      33.164  32.556  27.689  1.00  0.00     0.163 HD
BRANCH   4   6
ATOM      6  C   UNL A   1      32.345  30.249  27.015  1.00  0.00     0.174 C 
BRANCH   6   7
ATOM      7  S   UNL A   1      31.930  28.490  27.349  1.00  0.00    -0.116 SA
BRANCH   7   8
ATOM      8  C   UNL A   1      32.326  27.735  25.782  1.00  0.00     0.008 A 
ATOM      9  C   UNL A   1      33.533  27.044  25.659  1.00  0.00     0.017 A 
ATOM     10  C   UNL A   1      31.500  27.836  24.662  1.00  0.00     0.017 A 
ATOM     11  C   UNL A   1      33.859  26.383  24.469  1.00  0.00     0.027 A 
ATOM     12  C   UNL A   1      31.812  27.155  23.484  1.00  0.00     0.027 A 
ATOM     13  C   UNL A   1      32.957  26.362  23.410  1.00  0.00     0.041 A 
BRANCH  13  14
ATOM     14  N   UNL A   1      33.066  25.542  22.278  1.00  0.00    -0.322 N 
ATOM     15  C   UNL A   1      33.239  24.191  22.112  1.00  0.00     0.256 C 
ATOM     16  H   UNL A   1      33.007  26.037  21.429  1.00  0.00     0.170 HD
ATOM     17  O   UNL A   1      33.360  23.757  20.964  1.00  0.00    -0.269 OA
BRANCH  15  18
ATOM     18  C   UNL A   1      33.287  23.211  23.222  1.00  0.00     0.048 A 
ATOM     19  C   UNL A   1      32.022  22.851  23.718  1.00  0.00     0.014 A 
ATOM     20  C   UNL A   1      34.479  22.700  23.816  1.00  0.00    -0.006 A 
ATOM     21  C   UNL A   1      31.909  21.994  24.803  1.00  0.00     0.001 A 
ATOM     22  C   UNL A   1      34.335  21.824  24.923  1.00  0.00    -0.018 A 
ATOM     23  C   UNL A   1      35.801  22.965  23.374  1.00  0.00     0.009 A 
ATOM     24  C   UNL A   1      33.059  21.501  25.410  1.00  0.00     0.009 A 
ATOM     25  C   UNL A   1      35.467  21.252  25.527  1.00  0.00     0.009 A 
ATOM     26  C   UNL A   1      36.908  22.314  23.925  1.00  0.00     0.001 A 
ATOM     27  C   UNL A   1      36.742  21.466  25.010  1.00  0.00     0.001 A 
ENDBRANCH  15  18
ENDBRANCH  13  14
ENDBRANCH   7   8
ENDBRANCH   6   7
ENDBRANCH   4   6
ENDBRANCH   1   2
BRANCH   1  28
ATOM     28  C   UNL A   1      35.006  33.929  28.783  1.00  0.00     0.023 C 
BRANCH  28  29
ATOM     29  C   UNL A   1      33.581  34.400  29.087  1.00  0.00     0.023 C 
BRANCH  29  30
ATOM     30  C   UNL A   1      33.440  35.874  29.455  1.00  0.00     0.116 C 
BRANCH  30  31
ATOM     31  N   UNL A   1      32.522  36.095  30.560  1.00  0.00    -0.352 N 
ATOM     32  C   UNL A   1      32.598  35.670  31.866  1.00  0.00     0.251 C 
ATOM     33  H   UNL A   1      31.726  36.632  30.341  1.00  0.00     0.163 HD
ATOM     34  O   UNL A   1      31.644  35.829  32.617  1.00  0.00    -0.269 OA
BRANCH  32  35
ATOM     35  C   UNL A   1      33.817  34.990  32.361  1.00  0.00     0.039 A 
ATOM     36  C   UNL A   1      33.697  33.704  32.898  1.00  0.00     0.014 A 
ATOM     37  C   UNL A   1      35.068  35.609  32.310  1.00  0.00     0.014 A 
ATOM     38  C   UNL A   1      34.840  33.015  33.313  1.00  0.00     0.010 A 
ATOM     39  C   UNL A   1      36.214  34.893  32.648  1.00  0.00     0.010 A 
ATOM     40  C   UNL A   1      36.114  33.586  33.152  1.00  0.00    -0.014 A 
BRANCH  40  41
ATOM     41  C   UNL A   1      37.346  32.827  33.493  1.00  0.00     0.031 A 
ATOM     42  C   UNL A   1      38.106  33.131  34.755  1.00  0.00     0.074 A 
ATOM     43  C   UNL A   1      37.820  31.904  32.632  1.00  0.00     0.049 A 
ATOM     44  N   UNL A   1      39.233  32.622  35.185  1.00  0.00    -0.248 NA
ATOM     45  C   UNL A   1      37.535  34.159  35.639  1.00  0.00     0.031 C 
ATOM     46  C   UNL A   1      37.204  31.547  31.352  1.00  0.00     0.029 A 
ATOM     47  N   UNL A   1      38.935  31.106  32.698  1.00  0.00    -0.354 N 
ATOM     48  C   UNL A   1      39.509  33.271  36.382  1.00  0.00     0.074 A 
ATOM     49  C   UNL A   1      38.465  34.253  36.579  1.00  0.00     0.031 C 
ATOM     50  C   UNL A   1      37.937  30.587  30.765  1.00  0.00     0.029 A 
ATOM     51  C   UNL A   1      39.096  30.292  31.602  1.00  0.00     0.049 A 
ATOM     52  H   UNL A   1      39.560  31.115  33.458  1.00  0.00     0.167 HD
ATOM     53  C   UNL A   1      40.526  33.054  37.251  1.00  0.00     0.037 A 
ATOM     54  C   UNL A   1      40.073  29.416  31.297  1.00  0.00     0.037 A 
ATOM     55  C   UNL A   1      41.560  32.070  37.058  1.00  0.00     0.049 A 
ATOM     56  C   UNL A   1      41.207  29.212  32.264  1.00  0.00     0.074 A 
ATOM     57  C   UNL A   1      42.606  31.743  37.903  1.00  0.00     0.029 A 
ATOM     58  N   UNL A   1      41.683  31.260  35.939  1.00  0.00    -0.354 N 
ATOM     59  N   UNL A   1      41.419  29.787  33.423  1.00  0.00    -0.248 NA
ATOM     60  C   UNL A   1      42.234  28.231  31.884  1.00  0.00     0.031 C 
ATOM     61  C   UNL A   1      43.393  30.775  37.272  1.00  0.00     0.029 A 
ATOM     62  C   UNL A   1      42.804  30.453  36.060  1.00  0.00     0.049 A 
ATOM     63  H   UNL A   1      41.066  31.258  35.172  1.00  0.00     0.167 HD
ATOM     64  C   UNL A   1      42.584  29.219  33.923  1.00  0.00     0.074 A 
ATOM     65  C   UNL A   1      43.023  28.242  32.948  1.00  0.00     0.031 C 
ATOM     66  C   UNL A   1      43.230  29.481  35.085  1.00  0.00     0.037 A 
BRANCH  53  67
ATOM     67  C   UNL A   1      40.568  33.900  38.492  1.00  0.00     0.057 A 
ATOM     68  C   UNL A   1      41.333  35.073  38.562  1.00  0.00     0.134 A 
ATOM     69  C   UNL A   1      39.811  33.557  39.620  1.00  0.00     0.134 A 
ATOM     70  F   UNL A   1      42.089  35.456  37.522  1.00  0.00    -0.206 F 
ATOM     71  C   UNL A   1      41.369  35.856  39.718  1.00  0.00     0.040 A 
ATOM     72  C   UNL A   1      39.813  34.348  40.770  1.00  0.00     0.040 A 
ATOM     73  F   UNL A   1      39.048  32.454  39.620  1.00  0.00    -0.206 F 
ATOM     74  C   UNL A   1      40.601  35.497  40.824  1.00  0.00     0.006 A 
ENDBRANCH  53  67
BRANCH  54  75
ATOM     75  C   UNL A   1      40.018  28.656  30.022  1.00  0.00     0.057 A 
ATOM     76  C   UNL A   1      39.302  27.457  29.923  1.00  0.00     0.134 A 
ATOM     77  C   UNL A   1      40.685  29.104  28.875  1.00  0.00     0.134 A 
ATOM     78  F   UNL A   1      38.658  26.966  30.992  1.00  0.00    -0.206 F 
ATOM     79  C   UNL A   1      39.269  26.719  28.738  1.00  0.00     0.040 A 
ATOM     80  C   UNL A   1      40.637  28.391  27.675  1.00  0.00     0.040 A 
ATOM     81  F   UNL A   1      41.382  30.249  28.900  1.00  0.00    -0.206 F 
ATOM     82  C   UNL A   1      39.935  27.190  27.608  1.00  0.00     0.006 A 
ENDBRANCH  54  75
BRANCH  66  83
ATOM     83  C   UNL A   1      44.461  28.674  35.388  1.00  0.00     0.057 A 
ATOM     84  C   UNL A   1      44.399  27.446  36.061  1.00  0.00     0.134 A 
ATOM     85  C   UNL A   1      45.721  29.115  34.966  1.00  0.00     0.134 A 
ATOM     86  F   UNL A   1      43.225  26.971  36.503  1.00  0.00    -0.206 F 
ATOM     87  C   UNL A   1      45.550  26.701  36.325  1.00  0.00     0.040 A 
ATOM     88  C   UNL A   1      46.876  28.364  35.197  1.00  0.00     0.040 A 
ATOM     89  F   UNL A   1      45.852  30.277  34.308  1.00  0.00    -0.206 F 
ATOM     90  C   UNL A   1      46.791  27.155  35.886  1.00  0.00     0.006 A 
ENDBRANCH  66  83
ENDBRANCH  40  41
ENDBRANCH  32  35
ENDBRANCH  30  31
ENDBRANCH  29  30
ENDBRANCH  28  29
ENDBRANCH   1  28
TORSDOF 15
ENDMDL
