MODEL 1
REMARK VINA RESULT:     -11.5      0.000      0.000
REMARK SMILES CC[NH2+][C@@]1(C(=O)NCCCCNC(=O)c2ccc(-c3c4nc(c(-c5c(F)cccc5F)c5ccc([nH]5)c(-c5c(F)cccc5F)c5nc(c(-c6c(F)cccc6F)c6ccc3[nH]6)C=C5)C=C4)cc2)CCC[C@@H](Sc2ncc(C)cn2)C1
REMARK SMILES IDX 9 1 8 2 7 3 5 4 6 5 4 7 69 8 81 9 70 10 72 11 71 12 3 13
REMARK SMILES IDX 2 16 1 17 73 18 74 19 75 20 80 21 76 22 79 23 77 24 78 25
REMARK SMILES IDX 10 26 11 27 12 28 13 29 14 31 15 32 16 33 68 34 17 35 67 36
REMARK SMILES IDX 18 37 19 38 20 39 61 40 21 41 66 42 60 43 62 44 22 45 65 46
REMARK SMILES IDX 59 47 58 48 23 50 49 51 32 52 48 53 33 54 36 55 47 56 63 57
REMARK SMILES IDX 34 58 35 59 46 61 64 62 37 63 24 64 25 65 30 66 26 67 27 68
REMARK SMILES IDX 29 69 31 70 28 71 50 72 51 73 56 74 52 75 53 76 55 77 57 78
REMARK SMILES IDX 54 79 38 80 39 81 44 82 40 83 41 84 43 85 45 86 42 87
REMARK H PARENT 7 6 3 14 3 15 12 30 62 49 36 60
REMARK Flexibility Score: inf
ROOT
ATOM      1  C   UNL A   1      37.122  22.361  24.438  1.00  0.00     0.023 C 
ENDROOT
BRANCH   1   2
ATOM      2  C   UNL A   1      36.837  23.464  25.463  1.00  0.00     0.116 C 
BRANCH   2   3
ATOM      3  N   UNL A   1      35.957  23.001  26.508  1.00  0.00    -0.351 N 
ATOM      4  C   UNL A   1      34.646  23.147  26.790  1.00  0.00     0.281 C 
ATOM      5  O   UNL A   1      34.326  22.648  27.887  1.00  0.00    -0.268 OA
ATOM      6  H   UNL A   1      36.424  22.446  27.174  1.00  0.00     0.163 HD
BRANCH   4   7
ATOM      7  C   UNL A   1      33.520  23.909  25.938  1.00  0.00     0.176 C 
ATOM      8  C   UNL A   1      32.198  24.205  26.691  1.00  0.00     0.079 C 
ATOM      9  C   UNL A   1      33.323  23.174  24.591  1.00  0.00     0.094 C 
ATOM     10  C   UNL A   1      30.982  23.301  26.453  1.00  0.00     0.008 C 
ATOM     11  C   UNL A   1      32.269  22.076  24.654  1.00  0.00     0.061 C 
ATOM     12  C   UNL A   1      30.914  22.628  25.087  1.00  0.00     0.015 C 
BRANCH   7  13
ATOM     13  N   UNL A   1      34.154  25.273  25.768  1.00  0.00    -0.334 N 
ATOM     14  H   UNL A   1      34.589  25.516  26.658  1.00  0.00     0.347 HD
ATOM     15  H   UNL A   1      34.786  25.158  24.976  1.00  0.00     0.347 HD
BRANCH  13  16
ATOM     16  C   UNL A   1      33.305  26.393  25.386  1.00  0.00     0.257 C 
ATOM     17  C   UNL A   1      33.688  27.620  26.203  1.00  0.00     0.071 C 
ENDBRANCH  13  16
ENDBRANCH   7  13
BRANCH  11  18
ATOM     18  S   UNL A   1      32.229  21.052  23.132  1.00  0.00    -0.083 SA
BRANCH  18  19
ATOM     19  C   UNL A   1      32.455  19.438  23.813  1.00  0.00     0.187 A 
ATOM     20  N   UNL A   1      32.363  19.296  25.144  1.00  0.00    -0.231 NA
ATOM     21  N   UNL A   1      32.757  18.456  22.950  1.00  0.00    -0.231 NA
ATOM     22  C   UNL A   1      32.607  18.066  25.629  1.00  0.00     0.119 A 
ATOM     23  C   UNL A   1      32.987  17.245  23.488  1.00  0.00     0.119 A 
ATOM     24  C   UNL A   1      32.940  16.985  24.841  1.00  0.00    -0.014 A 
ATOM     25  C   UNL A   1      33.207  15.631  25.395  1.00  0.00     0.048 C 
ENDBRANCH  18  19
ENDBRANCH  11  18
ENDBRANCH   4   7
ENDBRANCH   2   3
ENDBRANCH   1   2
BRANCH   1  26
ATOM     26  C   UNL A   1      37.619  21.048  25.028  1.00  0.00     0.023 C 
BRANCH  26  27
ATOM     27  C   UNL A   1      38.965  21.132  25.735  1.00  0.00     0.116 C 
BRANCH  27  28
ATOM     28  N   UNL A   1      39.770  19.919  25.657  1.00  0.00    -0.352 N 
ATOM     29  C   UNL A   1      41.085  19.755  26.040  1.00  0.00     0.251 C 
ATOM     30  H   UNL A   1      39.323  19.123  25.288  1.00  0.00     0.163 HD
ATOM     31  O   UNL A   1      41.666  18.690  25.897  1.00  0.00    -0.269 OA
BRANCH  29  32
ATOM     32  C   UNL A   1      41.796  20.934  26.572  1.00  0.00     0.039 A 
ATOM     33  C   UNL A   1      42.356  21.841  25.673  1.00  0.00     0.014 A 
ATOM     34  C   UNL A   1      41.750  21.212  27.941  1.00  0.00     0.014 A 
ATOM     35  C   UNL A   1      42.771  23.090  26.134  1.00  0.00     0.010 A 
ATOM     36  C   UNL A   1      42.091  22.482  28.384  1.00  0.00     0.010 A 
ATOM     37  C   UNL A   1      42.582  23.440  27.482  1.00  0.00    -0.014 A 
BRANCH  37  38
ATOM     38  C   UNL A   1      42.840  24.818  27.967  1.00  0.00     0.031 A 
ATOM     39  C   UNL A   1      44.221  25.211  28.403  1.00  0.00     0.074 A 
ATOM     40  C   UNL A   1      41.810  25.674  28.124  1.00  0.00     0.049 A 
ATOM     41  N   UNL A   1      44.622  26.310  28.985  1.00  0.00    -0.248 NA
ATOM     42  C   UNL A   1      45.285  24.216  28.193  1.00  0.00     0.031 C 
ATOM     43  C   UNL A   1      40.409  25.388  27.805  1.00  0.00     0.029 A 
ATOM     44  N   UNL A   1      41.782  26.957  28.613  1.00  0.00    -0.354 N 
ATOM     45  C   UNL A   1      45.973  26.127  29.242  1.00  0.00     0.074 A 
ATOM     46  C   UNL A   1      46.317  24.797  28.788  1.00  0.00     0.031 C 
ATOM     47  C   UNL A   1      39.663  26.469  28.090  1.00  0.00     0.029 A 
ATOM     48  C   UNL A   1      40.525  27.509  28.641  1.00  0.00     0.049 A 
ATOM     49  H   UNL A   1      42.588  27.434  28.916  1.00  0.00     0.167 HD
ATOM     50  C   UNL A   1      46.854  26.996  29.792  1.00  0.00     0.037 A 
ATOM     51  C   UNL A   1      40.113  28.716  29.072  1.00  0.00     0.037 A 
ATOM     52  C   UNL A   1      46.524  28.338  30.189  1.00  0.00     0.049 A 
ATOM     53  C   UNL A   1      41.119  29.681  29.629  1.00  0.00     0.074 A 
ATOM     54  C   UNL A   1      47.368  29.327  30.661  1.00  0.00     0.029 A 
ATOM     55  N   UNL A   1      45.249  28.880  30.150  1.00  0.00    -0.354 N 
ATOM     56  N   UNL A   1      42.408  29.521  29.801  1.00  0.00    -0.248 NA
ATOM     57  C   UNL A   1      40.615  30.996  30.051  1.00  0.00     0.031 C 
ATOM     58  C   UNL A   1      46.598  30.464  30.931  1.00  0.00     0.029 A 
ATOM     59  C   UNL A   1      45.280  30.187  30.603  1.00  0.00     0.049 A 
ATOM     60  H   UNL A   1      44.442  28.405  29.847  1.00  0.00     0.167 HD
ATOM     61  C   UNL A   1      42.872  30.715  30.334  1.00  0.00     0.074 A 
ATOM     62  C   UNL A   1      41.729  31.597  30.446  1.00  0.00     0.031 C 
ATOM     63  C   UNL A   1      44.132  31.050  30.701  1.00  0.00     0.037 A 
BRANCH  50  64
ATOM     64  C   UNL A   1      48.260  26.520  29.981  1.00  0.00     0.057 A 
ATOM     65  C   UNL A   1      49.244  26.724  29.005  1.00  0.00     0.134 A 
ATOM     66  C   UNL A   1      48.641  25.868  31.159  1.00  0.00     0.134 A 
ATOM     67  F   UNL A   1      48.936  27.329  27.847  1.00  0.00    -0.206 F 
ATOM     68  C   UNL A   1      50.552  26.275  29.185  1.00  0.00     0.040 A 
ATOM     69  C   UNL A   1      49.952  25.432  31.360  1.00  0.00     0.040 A 
ATOM     70  F   UNL A   1      47.746  25.642  32.133  1.00  0.00    -0.206 F 
ATOM     71  C   UNL A   1      50.910  25.632  30.367  1.00  0.00     0.006 A 
ENDBRANCH  50  64
BRANCH  51  72
ATOM     72  C   UNL A   1      38.681  29.090  28.975  1.00  0.00     0.057 A 
ATOM     73  C   UNL A   1      38.144  29.566  27.774  1.00  0.00     0.134 A 
ATOM     74  C   UNL A   1      37.821  28.991  30.074  1.00  0.00     0.134 A 
ATOM     75  F   UNL A   1      38.928  29.701  26.692  1.00  0.00    -0.206 F 
ATOM     76  C   UNL A   1      36.806  29.945  27.671  1.00  0.00     0.040 A 
ATOM     77  C   UNL A   1      36.475  29.349  29.981  1.00  0.00     0.040 A 
ATOM     78  F   UNL A   1      38.276  28.537  31.251  1.00  0.00    -0.206 F 
ATOM     79  C   UNL A   1      35.965  29.833  28.777  1.00  0.00     0.006 A 
ENDBRANCH  51  72
BRANCH  63  80
ATOM     80  C   UNL A   1      44.343  32.432  31.238  1.00  0.00     0.057 A 
ATOM     81  C   UNL A   1      44.604  33.514  30.390  1.00  0.00     0.134 A 
ATOM     82  C   UNL A   1      44.239  32.688  32.610  1.00  0.00     0.134 A 
ATOM     83  F   UNL A   1      44.728  33.326  29.068  1.00  0.00    -0.206 F 
ATOM     84  C   UNL A   1      44.761  34.807  30.891  1.00  0.00     0.040 A 
ATOM     85  C   UNL A   1      44.378  33.978  33.121  1.00  0.00     0.040 A 
ATOM     86  F   UNL A   1      43.987  31.690  33.472  1.00  0.00    -0.206 F 
ATOM     87  C   UNL A   1      44.641  35.042  32.260  1.00  0.00     0.006 A 
ENDBRANCH  63  80
ENDBRANCH  37  38
ENDBRANCH  29  32
ENDBRANCH  27  28
ENDBRANCH  26  27
ENDBRANCH   1  26
TORSDOF 15
ENDMDL
MODEL 2
REMARK VINA RESULT:     -11.4      4.899      9.219
REMARK SMILES CC[NH2+][C@@]1(C(=O)NCCCCNC(=O)c2ccc(-c3c4nc(c(-c5c(F)cccc5F)c5ccc([nH]5)c(-c5c(F)cccc5F)c5nc(c(-c6c(F)cccc6F)c6ccc3[nH]6)C=C5)C=C4)cc2)CCC[C@@H](Sc2ncc(C)cn2)C1
REMARK SMILES IDX 9 1 8 2 7 3 5 4 6 5 4 7 69 8 81 9 70 10 72 11 71 12 3 13
REMARK SMILES IDX 2 16 1 17 73 18 74 19 75 20 80 21 76 22 79 23 77 24 78 25
REMARK SMILES IDX 10 26 11 27 12 28 13 29 14 31 15 32 16 33 68 34 17 35 67 36
REMARK SMILES IDX 18 37 19 38 20 39 61 40 21 41 66 42 60 43 62 44 22 45 65 46
REMARK SMILES IDX 59 47 58 48 23 50 49 51 32 52 48 53 33 54 36 55 47 56 63 57
REMARK SMILES IDX 34 58 35 59 46 61 64 62 37 63 24 64 25 65 30 66 26 67 27 68
REMARK SMILES IDX 29 69 31 70 28 71 50 72 51 73 56 74 52 75 53 76 55 77 57 78
REMARK SMILES IDX 54 79 38 80 39 81 44 82 40 83 41 84 43 85 45 86 42 87
REMARK H PARENT 7 6 3 14 3 15 12 30 62 49 36 60
REMARK Flexibility Score: inf
ROOT
ATOM      1  C   UNL A   1      31.219  30.487  25.503  1.00  0.00     0.023 C 
ENDROOT
BRANCH   1   2
ATOM      2  C   UNL A   1      32.551  29.785  25.789  1.00  0.00     0.116 C 
BRANCH   2   3
ATOM      3  N   UNL A   1      33.304  29.564  24.580  1.00  0.00    -0.351 N 
ATOM      4  C   UNL A   1      33.613  28.489  23.826  1.00  0.00     0.281 C 
ATOM      5  O   UNL A   1      34.403  28.756  22.898  1.00  0.00    -0.268 OA
ATOM      6  H   UNL A   1      33.684  30.398  24.216  1.00  0.00     0.163 HD
BRANCH   4   7
ATOM      7  C   UNL A   1      33.146  26.967  24.019  1.00  0.00     0.176 C 
ATOM      8  C   UNL A   1      33.558  25.992  22.887  1.00  0.00     0.079 C 
ATOM      9  C   UNL A   1      31.635  26.940  24.350  1.00  0.00     0.094 C 
ATOM     10  C   UNL A   1      32.524  25.594  21.827  1.00  0.00     0.008 C 
ATOM     11  C   UNL A   1      30.751  26.860  23.111  1.00  0.00     0.061 C 
ATOM     12  C   UNL A   1      31.068  25.620  22.280  1.00  0.00     0.015 C 
BRANCH   7  13
ATOM     13  N   UNL A   1      34.004  26.544  25.193  1.00  0.00    -0.334 N 
ATOM     14  H   UNL A   1      34.799  27.183  25.230  1.00  0.00     0.347 HD
ATOM     15  H   UNL A   1      33.368  26.571  25.990  1.00  0.00     0.347 HD
BRANCH  13  16
ATOM     16  C   UNL A   1      34.541  25.190  25.212  1.00  0.00     0.257 C 
ATOM     17  C   UNL A   1      33.701  24.327  26.144  1.00  0.00     0.071 C 
ENDBRANCH  13  16
ENDBRANCH   7  13
BRANCH  11  18
ATOM     18  S   UNL A   1      28.972  27.085  23.501  1.00  0.00    -0.083 SA
BRANCH  18  19
ATOM     19  C   UNL A   1      28.680  28.680  22.802  1.00  0.00     0.187 A 
ATOM     20  N   UNL A   1      29.633  29.211  22.020  1.00  0.00    -0.231 NA
ATOM     21  N   UNL A   1      27.532  29.287  23.141  1.00  0.00    -0.231 NA
ATOM     22  C   UNL A   1      29.402  30.454  21.561  1.00  0.00     0.119 A 
ATOM     23  C   UNL A   1      27.349  30.526  22.651  1.00  0.00     0.119 A 
ATOM     24  C   UNL A   1      28.267  31.179  21.856  1.00  0.00    -0.014 A 
ATOM     25  C   UNL A   1      28.028  32.553  21.339  1.00  0.00     0.048 C 
ENDBRANCH  18  19
ENDBRANCH  11  18
ENDBRANCH   4   7
ENDBRANCH   2   3
ENDBRANCH   1   2
BRANCH   1  26
ATOM     26  C   UNL A   1      31.032  31.823  26.208  1.00  0.00     0.023 C 
BRANCH  26  27
ATOM     27  C   UNL A   1      32.322  32.567  26.523  1.00  0.00     0.116 C 
BRANCH  27  28
ATOM     28  N   UNL A   1      32.153  33.753  27.354  1.00  0.00    -0.352 N 
ATOM     29  C   UNL A   1      33.018  34.241  28.312  1.00  0.00     0.251 C 
ATOM     30  H   UNL A   1      31.324  34.266  27.217  1.00  0.00     0.163 HD
ATOM     31  O   UNL A   1      32.751  35.235  28.970  1.00  0.00    -0.269 OA
BRANCH  29  32
ATOM     32  C   UNL A   1      34.259  33.482  28.566  1.00  0.00     0.039 A 
ATOM     33  C   UNL A   1      35.479  34.154  28.500  1.00  0.00     0.014 A 
ATOM     34  C   UNL A   1      34.184  32.167  29.031  1.00  0.00     0.014 A 
ATOM     35  C   UNL A   1      36.623  33.541  29.013  1.00  0.00     0.010 A 
ATOM     36  C   UNL A   1      35.306  31.591  29.610  1.00  0.00     0.010 A 
ATOM     37  C   UNL A   1      36.529  32.282  29.628  1.00  0.00    -0.014 A 
BRANCH  37  38
ATOM     38  C   UNL A   1      37.681  31.683  30.345  1.00  0.00     0.031 A 
ATOM     39  C   UNL A   1      38.521  30.639  29.669  1.00  0.00     0.074 A 
ATOM     40  C   UNL A   1      37.898  31.993  31.639  1.00  0.00     0.049 A 
ATOM     41  N   UNL A   1      39.476  29.898  30.166  1.00  0.00    -0.248 NA
ATOM     42  C   UNL A   1      38.218  30.364  28.255  1.00  0.00     0.031 C 
ATOM     43  C   UNL A   1      37.107  32.939  32.431  1.00  0.00     0.029 A 
ATOM     44  N   UNL A   1      38.838  31.528  32.523  1.00  0.00    -0.354 N 
ATOM     45  C   UNL A   1      39.862  29.047  29.141  1.00  0.00     0.074 A 
ATOM     46  C   UNL A   1      39.015  29.336  28.004  1.00  0.00     0.031 C 
ATOM     47  C   UNL A   1      37.607  32.997  33.676  1.00  0.00     0.029 A 
ATOM     48  C   UNL A   1      38.729  32.070  33.780  1.00  0.00     0.049 A 
ATOM     49  H   UNL A   1      39.526  30.867  32.279  1.00  0.00     0.167 HD
ATOM     50  C   UNL A   1      40.849  28.119  29.140  1.00  0.00     0.037 A 
ATOM     51  C   UNL A   1      39.447  31.838  34.895  1.00  0.00     0.037 A 
ATOM     52  C   UNL A   1      41.729  27.874  30.250  1.00  0.00     0.049 A 
ATOM     53  C   UNL A   1      40.570  30.841  34.853  1.00  0.00     0.074 A 
ATOM     54  C   UNL A   1      42.821  27.027  30.312  1.00  0.00     0.029 A 
ATOM     55  N   UNL A   1      41.621  28.483  31.490  1.00  0.00    -0.354 N 
ATOM     56  N   UNL A   1      40.971  30.094  33.854  1.00  0.00    -0.248 NA
ATOM     57  C   UNL A   1      41.341  30.656  36.091  1.00  0.00     0.031 C 
ATOM     58  C   UNL A   1      43.361  27.107  31.600  1.00  0.00     0.029 A 
ATOM     59  C   UNL A   1      42.619  28.021  32.330  1.00  0.00     0.049 A 
ATOM     60  H   UNL A   1      40.935  29.145  31.738  1.00  0.00     0.167 HD
ATOM     61  C   UNL A   1      42.049  29.363  34.336  1.00  0.00     0.074 A 
ATOM     62  C   UNL A   1      42.248  29.766  35.712  1.00  0.00     0.031 C 
ATOM     63  C   UNL A   1      42.803  28.439  33.695  1.00  0.00     0.037 A 
BRANCH  50  64
ATOM     64  C   UNL A   1      41.031  27.313  27.892  1.00  0.00     0.057 A 
ATOM     65  C   UNL A   1      41.863  27.745  26.852  1.00  0.00     0.134 A 
ATOM     66  C   UNL A   1      40.383  26.082  27.736  1.00  0.00     0.134 A 
ATOM     67  F   UNL A   1      42.498  28.924  26.936  1.00  0.00    -0.206 F 
ATOM     68  C   UNL A   1      42.027  26.992  25.689  1.00  0.00     0.040 A 
ATOM     69  C   UNL A   1      40.556  25.309  26.587  1.00  0.00     0.040 A 
ATOM     70  F   UNL A   1      39.574  25.611  28.697  1.00  0.00    -0.206 F 
ATOM     71  C   UNL A   1      41.376  25.767  25.557  1.00  0.00     0.006 A 
ENDBRANCH  50  64
BRANCH  51  72
ATOM     72  C   UNL A   1      39.142  32.578  36.144  1.00  0.00     0.057 A 
ATOM     73  C   UNL A   1      38.299  32.027  37.115  1.00  0.00     0.134 A 
ATOM     74  C   UNL A   1      39.674  33.847  36.392  1.00  0.00     0.134 A 
ATOM     75  F   UNL A   1      37.744  30.821  36.921  1.00  0.00    -0.206 F 
ATOM     76  C   UNL A   1      37.982  32.719  38.284  1.00  0.00     0.040 A 
ATOM     77  C   UNL A   1      39.380  34.544  37.567  1.00  0.00     0.040 A 
ATOM     78  F   UNL A   1      40.493  34.425  35.501  1.00  0.00    -0.206 F 
ATOM     79  C   UNL A   1      38.527  33.981  38.514  1.00  0.00     0.006 A 
ENDBRANCH  51  72
BRANCH  63  80
ATOM     80  C   UNL A   1      43.924  27.816  34.469  1.00  0.00     0.057 A 
ATOM     81  C   UNL A   1      45.188  28.412  34.533  1.00  0.00     0.134 A 
ATOM     82  C   UNL A   1      43.721  26.635  35.192  1.00  0.00     0.134 A 
ATOM     83  F   UNL A   1      45.444  29.537  33.849  1.00  0.00    -0.206 F 
ATOM     84  C   UNL A   1      46.219  27.849  35.286  1.00  0.00     0.040 A 
ATOM     85  C   UNL A   1      44.738  26.072  35.963  1.00  0.00     0.040 A 
ATOM     86  F   UNL A   1      42.529  26.020  35.172  1.00  0.00    -0.206 F 
ATOM     87  C   UNL A   1      45.992  26.679  36.010  1.00  0.00     0.006 A 
ENDBRANCH  63  80
ENDBRANCH  37  38
ENDBRANCH  29  32
ENDBRANCH  27  28
ENDBRANCH  26  27
ENDBRANCH   1  26
TORSDOF 15
ENDMDL
MODEL 3
REMARK VINA RESULT:     -11.4      4.624      8.830
REMARK SMILES CC[NH2+][C@@]1(C(=O)NCCCCNC(=O)c2ccc(-c3c4nc(c(-c5c(F)cccc5F)c5ccc([nH]5)c(-c5c(F)cccc5F)c5nc(c(-c6c(F)cccc6F)c6ccc3[nH]6)C=C5)C=C4)cc2)CCC[C@@H](Sc2ncc(C)cn2)C1
REMARK SMILES IDX 9 1 8 2 7 3 5 4 6 5 4 7 69 8 81 9 70 10 72 11 71 12 3 13
REMARK SMILES IDX 2 16 1 17 73 18 74 19 75 20 80 21 76 22 79 23 77 24 78 25
REMARK SMILES IDX 10 26 11 27 12 28 13 29 14 31 15 32 16 33 68 34 17 35 67 36
REMARK SMILES IDX 18 37 19 38 20 39 61 40 21 41 66 42 60 43 62 44 22 45 65 46
REMARK SMILES IDX 59 47 58 48 23 50 49 51 32 52 48 53 33 54 36 55 47 56 63 57
REMARK SMILES IDX 34 58 35 59 46 61 64 62 37 63 24 64 25 65 30 66 26 67 27 68
REMARK SMILES IDX 29 69 31 70 28 71 50 72 51 73 56 74 52 75 53 76 55 77 57 78
REMARK SMILES IDX 54 79 38 80 39 81 44 82 40 83 41 84 43 85 45 86 42 87
REMARK H PARENT 7 6 3 14 3 15 12 30 62 49 36 60
REMARK Flexibility Score: inf
ROOT
ATOM      1  C   UNL A   1      32.006  30.618  26.913  1.00  0.00     0.023 C 
ENDROOT
BRANCH   1   2
ATOM      2  C   UNL A   1      31.532  29.572  25.899  1.00  0.00     0.116 C 
BRANCH   2   3
ATOM      3  N   UNL A   1      32.421  29.491  24.766  1.00  0.00    -0.351 N 
ATOM      4  C   UNL A   1      32.380  28.895  23.557  1.00  0.00     0.281 C 
ATOM      5  O   UNL A   1      33.448  29.005  22.924  1.00  0.00    -0.268 OA
ATOM      6  H   UNL A   1      33.258  29.991  24.909  1.00  0.00     0.163 HD
BRANCH   4   7
ATOM      7  C   UNL A   1      31.186  28.048  22.900  1.00  0.00     0.176 C 
ATOM      8  C   UNL A   1      30.042  27.646  23.865  1.00  0.00     0.079 C 
ATOM      9  C   UNL A   1      31.785  26.861  22.109  1.00  0.00     0.094 C 
ATOM     10  C   UNL A   1      30.003  26.220  24.429  1.00  0.00     0.008 C 
ATOM     11  C   UNL A   1      31.963  25.606  22.954  1.00  0.00     0.061 C 
ATOM     12  C   UNL A   1      30.638  25.146  23.553  1.00  0.00     0.015 C 
BRANCH   7  13
ATOM     13  N   UNL A   1      30.553  29.087  21.998  1.00  0.00    -0.334 N 
ATOM     14  H   UNL A   1      31.289  29.739  21.728  1.00  0.00     0.347 HD
ATOM     15  H   UNL A   1      30.136  28.542  21.244  1.00  0.00     0.347 HD
BRANCH  13  16
ATOM     16  C   UNL A   1      29.447  29.879  22.518  1.00  0.00     0.257 C 
ATOM     17  C   UNL A   1      28.667  30.481  21.356  1.00  0.00     0.071 C 
ENDBRANCH  13  16
ENDBRANCH   7  13
BRANCH  11  18
ATOM     18  S   UNL A   1      32.902  24.296  22.077  1.00  0.00    -0.083 SA
BRANCH  18  19
ATOM     19  C   UNL A   1      34.276  24.089  23.166  1.00  0.00     0.187 A 
ATOM     20  N   UNL A   1      35.302  23.329  22.751  1.00  0.00    -0.231 NA
ATOM     21  N   UNL A   1      34.184  24.670  24.372  1.00  0.00    -0.231 NA
ATOM     22  C   UNL A   1      36.298  23.141  23.635  1.00  0.00     0.119 A 
ATOM     23  C   UNL A   1      35.210  24.454  25.215  1.00  0.00     0.119 A 
ATOM     24  C   UNL A   1      36.305  23.676  24.905  1.00  0.00    -0.014 A 
ATOM     25  C   UNL A   1      37.416  23.457  25.870  1.00  0.00     0.048 C 
ENDBRANCH  18  19
ENDBRANCH  11  18
ENDBRANCH   4   7
ENDBRANCH   2   3
ENDBRANCH   1   2
BRANCH   1  26
ATOM     26  C   UNL A   1      31.406  32.006  26.734  1.00  0.00     0.023 C 
BRANCH  26  27
ATOM     27  C   UNL A   1      32.421  33.138  26.663  1.00  0.00     0.116 C 
BRANCH  27  28
ATOM     28  N   UNL A   1      32.201  34.213  27.623  1.00  0.00    -0.352 N 
ATOM     29  C   UNL A   1      33.006  34.571  28.685  1.00  0.00     0.251 C 
ATOM     30  H   UNL A   1      31.382  34.746  27.500  1.00  0.00     0.163 HD
ATOM     31  O   UNL A   1      32.699  35.478  29.444  1.00  0.00    -0.269 OA
BRANCH  29  32
ATOM     32  C   UNL A   1      34.228  33.777  28.918  1.00  0.00     0.039 A 
ATOM     33  C   UNL A   1      35.468  34.394  28.756  1.00  0.00     0.014 A 
ATOM     34  C   UNL A   1      34.128  32.492  29.457  1.00  0.00     0.014 A 
ATOM     35  C   UNL A   1      36.613  33.762  29.244  1.00  0.00     0.010 A 
ATOM     36  C   UNL A   1      35.254  31.901  30.009  1.00  0.00     0.010 A 
ATOM     37  C   UNL A   1      36.503  32.542  29.930  1.00  0.00    -0.014 A 
BRANCH  37  38
ATOM     38  C   UNL A   1      37.667  31.934  30.620  1.00  0.00     0.031 A 
ATOM     39  C   UNL A   1      38.475  30.874  29.931  1.00  0.00     0.074 A 
ATOM     40  C   UNL A   1      37.922  32.253  31.905  1.00  0.00     0.049 A 
ATOM     41  N   UNL A   1      39.434  30.126  30.409  1.00  0.00    -0.248 NA
ATOM     42  C   UNL A   1      38.130  30.591  28.529  1.00  0.00     0.031 C 
ATOM     43  C   UNL A   1      37.165  33.216  32.710  1.00  0.00     0.029 A 
ATOM     44  N   UNL A   1      38.881  31.784  32.768  1.00  0.00    -0.354 N 
ATOM     45  C   UNL A   1      39.781  29.261  29.381  1.00  0.00     0.074 A 
ATOM     46  C   UNL A   1      38.907  29.551  28.265  1.00  0.00     0.031 C 
ATOM     47  C   UNL A   1      37.700  33.278  33.941  1.00  0.00     0.029 A 
ATOM     48  C   UNL A   1      38.812  32.338  34.023  1.00  0.00     0.049 A 
ATOM     49  H   UNL A   1      39.553  31.112  32.510  1.00  0.00     0.167 HD
ATOM     50  C   UNL A   1      40.755  28.321  29.361  1.00  0.00     0.037 A 
ATOM     51  C   UNL A   1      39.559  32.106  35.119  1.00  0.00     0.037 A 
ATOM     52  C   UNL A   1      41.662  28.074  30.449  1.00  0.00     0.049 A 
ATOM     53  C   UNL A   1      40.667  31.095  35.055  1.00  0.00     0.074 A 
ATOM     54  C   UNL A   1      42.746  27.214  30.488  1.00  0.00     0.029 A 
ATOM     55  N   UNL A   1      41.596  28.695  31.686  1.00  0.00    -0.354 N 
ATOM     56  N   UNL A   1      41.031  30.334  34.053  1.00  0.00    -0.248 NA
ATOM     57  C   UNL A   1      41.469  30.911  36.273  1.00  0.00     0.031 C 
ATOM     58  C   UNL A   1      43.322  27.298  31.761  1.00  0.00     0.029 A 
ATOM     59  C   UNL A   1      42.611  28.228  32.502  1.00  0.00     0.049 A 
ATOM     60  H   UNL A   1      40.925  29.367  31.946  1.00  0.00     0.167 HD
ATOM     61  C   UNL A   1      42.113  29.594  34.511  1.00  0.00     0.074 A 
ATOM     62  C   UNL A   1      42.354  30.005  35.878  1.00  0.00     0.031 C 
ATOM     63  C   UNL A   1      42.838  28.655  33.858  1.00  0.00     0.037 A 
BRANCH  50  64
ATOM     64  C   UNL A   1      40.894  27.502  28.116  1.00  0.00     0.057 A 
ATOM     65  C   UNL A   1      40.224  26.282  27.959  1.00  0.00     0.134 A 
ATOM     66  C   UNL A   1      41.689  27.947  27.054  1.00  0.00     0.134 A 
ATOM     67  F   UNL A   1      39.460  25.795  28.949  1.00  0.00    -0.206 F 
ATOM     68  C   UNL A   1      40.359  25.521  26.797  1.00  0.00     0.040 A 
ATOM     69  C   UNL A   1      41.815  27.206  25.878  1.00  0.00     0.040 A 
ATOM     70  F   UNL A   1      42.355  29.109  27.141  1.00  0.00    -0.206 F 
ATOM     71  C   UNL A   1      41.153  25.986  25.751  1.00  0.00     0.006 A 
ENDBRANCH  50  64
BRANCH  51  72
ATOM     72  C   UNL A   1      39.297  32.860  36.369  1.00  0.00     0.057 A 
ATOM     73  C   UNL A   1      38.412  32.364  37.334  1.00  0.00     0.134 A 
ATOM     74  C   UNL A   1      39.912  34.090  36.626  1.00  0.00     0.134 A 
ATOM     75  F   UNL A   1      37.778  31.199  37.131  1.00  0.00    -0.206 F 
ATOM     76  C   UNL A   1      38.136  33.071  38.504  1.00  0.00     0.040 A 
ATOM     77  C   UNL A   1      39.659  34.800  37.802  1.00  0.00     0.040 A 
ATOM     78  F   UNL A   1      40.773  34.614  35.742  1.00  0.00    -0.206 F 
ATOM     79  C   UNL A   1      38.764  34.293  38.742  1.00  0.00     0.006 A 
ENDBRANCH  51  72
BRANCH  63  80
ATOM     80  C   UNL A   1      43.971  28.024  34.606  1.00  0.00     0.057 A 
ATOM     81  C   UNL A   1      43.804  26.830  35.317  1.00  0.00     0.134 A 
ATOM     82  C   UNL A   1      45.250  28.592  34.576  1.00  0.00     0.134 A 
ATOM     83  F   UNL A   1      42.598  26.248  35.392  1.00  0.00    -0.206 F 
ATOM     84  C   UNL A   1      44.871  26.225  35.980  1.00  0.00     0.040 A 
ATOM     85  C   UNL A   1      46.329  27.988  35.222  1.00  0.00     0.040 A 
ATOM     86  F   UNL A   1      45.473  29.734  33.908  1.00  0.00    -0.206 F 
ATOM     87  C   UNL A   1      46.140  26.800  35.927  1.00  0.00     0.006 A 
ENDBRANCH  63  80
ENDBRANCH  37  38
ENDBRANCH  29  32
ENDBRANCH  27  28
ENDBRANCH  26  27
ENDBRANCH   1  26
TORSDOF 15
ENDMDL
