MODEL 1
REMARK VINA RESULT:     -11.7      0.000      0.000
REMARK SMILES C[N@@H+](Cc1ccc2nsnc2c1)Cc1ccccc1C(=O)NCCCCNC(=O)c1ccc(-c2c3nc(c(-c4c(F)cccc4F)c4ccc([nH]4)c(-c4c(F)cccc4F)c4nc(c(-c5c(F)cccc5F)c5ccc2[nH]5)C=C4)C=C3)cc1
REMARK SMILES IDX 23 1 22 2 20 3 21 4 19 6 14 7 15 8 16 9 18 10 17 11 13 12
REMARK SMILES IDX 2 13 1 14 3 16 4 17 5 18 12 19 6 20 11 21 7 22 10 23 8 24
REMARK SMILES IDX 9 25 24 26 25 27 26 28 27 29 28 30 29 32 30 33 31 34 83 35
REMARK SMILES IDX 32 36 82 37 33 38 34 39 35 40 76 41 36 42 81 43 75 44 77 45
REMARK SMILES IDX 37 46 80 47 74 48 73 49 38 51 64 52 47 53 63 54 48 55 51 56
REMARK SMILES IDX 62 57 78 58 49 59 50 60 61 62 79 63 52 64 39 65 40 66 45 67
REMARK SMILES IDX 41 68 42 69 44 70 46 71 43 72 65 73 66 74 71 75 67 76 68 77
REMARK SMILES IDX 70 78 72 79 69 80 53 81 54 82 59 83 55 84 56 85 58 86 60 87
REMARK SMILES IDX 57 88
REMARK H PARENT 22 5 2 15 27 31 77 50 51 61
REMARK Flexibility Score: inf
ROOT
ATOM      1  C   UNL A   1      35.757  23.484  25.123  1.00  0.00     0.116 C 
ENDROOT
BRANCH   1   2
ATOM      2  N   UNL A   1      34.907  24.318  24.231  1.00  0.00    -0.352 N 
ATOM      3  C   UNL A   1      34.122  25.390  23.896  1.00  0.00     0.251 C 
ATOM      4  O   UNL A   1      33.962  25.244  22.658  1.00  0.00    -0.269 OA
ATOM      5  H   UNL A   1      34.910  23.795  23.396  1.00  0.00     0.163 HD
BRANCH   3   6
ATOM      6  C   UNL A   1      33.405  26.656  24.475  1.00  0.00     0.048 A 
ATOM      7  C   UNL A   1      32.434  27.633  24.114  1.00  0.00     0.019 A 
ATOM      8  C   UNL A   1      32.150  28.740  25.009  1.00  0.00     0.010 A 
ATOM      9  C   UNL A   1      32.686  28.881  26.269  1.00  0.00     0.001 A 
ATOM     10  C   UNL A   1      33.897  26.865  25.817  1.00  0.00     0.014 A 
ATOM     11  C   UNL A   1      33.553  27.913  26.689  1.00  0.00     0.001 A 
BRANCH   7  12
ATOM     12  C   UNL A   1      31.476  27.808  22.961  1.00  0.00     0.299 C 
BRANCH  12  13
ATOM     13  N   UNL A   1      30.102  28.074  23.208  1.00  0.00    -0.330 N 
ATOM     14  C   UNL A   1      29.713  29.232  22.462  1.00  0.00     0.333 C 
ATOM     15  H   UNL A   1      29.935  28.338  24.179  1.00  0.00     0.348 HD
BRANCH  13  16
ATOM     16  C   UNL A   1      29.193  26.990  23.589  1.00  0.00     0.299 C 
BRANCH  16  17
ATOM     17  C   UNL A   1      29.808  25.676  24.102  1.00  0.00     0.009 A 
ATOM     18  C   UNL A   1      30.224  24.653  23.199  1.00  0.00     0.012 A 
ATOM     19  C   UNL A   1      30.029  25.536  25.495  1.00  0.00     0.041 A 
ATOM     20  C   UNL A   1      31.002  23.531  23.577  1.00  0.00     0.032 A 
ATOM     21  C   UNL A   1      30.874  24.482  25.917  1.00  0.00     0.105 A 
ATOM     22  C   UNL A   1      31.382  23.466  24.938  1.00  0.00     0.104 A 
ATOM     23  N   UNL A   1      31.322  24.290  27.167  1.00  0.00    -0.173 NA
ATOM     24  N   UNL A   1      32.194  22.553  25.495  1.00  0.00    -0.173 NA
ATOM     25  S   UNL A   1      32.342  22.980  27.096  1.00  0.00     0.069 S 
ENDBRANCH  16  17
ENDBRANCH  13  16
ENDBRANCH  12  13
ENDBRANCH   7  12
ENDBRANCH   3   6
ENDBRANCH   1   2
BRANCH   1  26
ATOM     26  C   UNL A   1      37.009  22.855  24.492  1.00  0.00     0.023 C 
BRANCH  26  27
ATOM     27  C   UNL A   1      37.426  21.476  25.001  1.00  0.00     0.023 C 
BRANCH  27  28
ATOM     28  C   UNL A   1      38.766  21.395  25.722  1.00  0.00     0.116 C 
BRANCH  28  29
ATOM     29  N   UNL A   1      39.494  20.133  25.593  1.00  0.00    -0.352 N 
ATOM     30  C   UNL A   1      40.801  19.890  25.981  1.00  0.00     0.251 C 
ATOM     31  H   UNL A   1      39.005  19.379  25.190  1.00  0.00     0.163 HD
ATOM     32  O   UNL A   1      41.334  18.797  25.819  1.00  0.00    -0.269 OA
BRANCH  30  33
ATOM     33  C   UNL A   1      41.565  21.017  26.557  1.00  0.00     0.039 A 
ATOM     34  C   UNL A   1      42.131  21.970  25.707  1.00  0.00     0.014 A 
ATOM     35  C   UNL A   1      41.530  21.218  27.938  1.00  0.00     0.014 A 
ATOM     36  C   UNL A   1      42.568  23.185  26.241  1.00  0.00     0.010 A 
ATOM     37  C   UNL A   1      41.860  22.466  28.445  1.00  0.00     0.010 A 
ATOM     38  C   UNL A   1      42.386  23.461  27.606  1.00  0.00    -0.014 A 
BRANCH  38  39
ATOM     39  C   UNL A   1      42.780  24.766  28.195  1.00  0.00     0.031 A 
ATOM     40  C   UNL A   1      41.725  25.817  28.413  1.00  0.00     0.074 A 
ATOM     41  C   UNL A   1      44.074  25.039  28.460  1.00  0.00     0.049 A 
ATOM     42  N   UNL A   1      41.854  27.048  28.838  1.00  0.00    -0.248 NA
ATOM     43  C   UNL A   1      40.344  25.448  28.061  1.00  0.00     0.031 C 
ATOM     44  C   UNL A   1      45.202  24.134  28.222  1.00  0.00     0.029 A 
ATOM     45  N   UNL A   1      44.659  26.164  28.985  1.00  0.00    -0.354 N 
ATOM     46  C   UNL A   1      40.581  27.599  28.773  1.00  0.00     0.074 A 
ATOM     47  C   UNL A   1      39.711  26.602  28.195  1.00  0.00     0.031 C 
ATOM     48  C   UNL A   1      46.336  24.726  28.635  1.00  0.00     0.029 A 
ATOM     49  C   UNL A   1      46.021  26.058  29.143  1.00  0.00     0.049 A 
ATOM     50  H   UNL A   1      44.151  26.972  29.227  1.00  0.00     0.167 HD
ATOM     51  C   UNL A   1      40.160  28.812  29.199  1.00  0.00     0.037 A 
ATOM     52  C   UNL A   1      46.907  26.935  29.653  1.00  0.00     0.037 A 
ATOM     53  C   UNL A   1      41.015  29.779  29.830  1.00  0.00     0.049 A 
ATOM     54  C   UNL A   1      46.410  28.259  30.167  1.00  0.00     0.074 A 
ATOM     55  C   UNL A   1      40.681  31.010  30.362  1.00  0.00     0.029 A 
ATOM     56  N   UNL A   1      42.377  29.611  30.023  1.00  0.00    -0.354 N 
ATOM     57  N   UNL A   1      45.189  28.740  30.171  1.00  0.00    -0.248 NA
ATOM     58  C   UNL A   1      47.410  29.160  30.760  1.00  0.00     0.031 C 
ATOM     59  C   UNL A   1      41.849  31.600  30.856  1.00  0.00     0.029 A 
ATOM     60  C   UNL A   1      42.902  30.719  30.665  1.00  0.00     0.049 A 
ATOM     61  H   UNL A   1      42.895  28.821  29.745  1.00  0.00     0.167 HD
ATOM     62  C   UNL A   1      45.268  29.978  30.795  1.00  0.00     0.074 A 
ATOM     63  C   UNL A   1      46.654  30.170  31.166  1.00  0.00     0.031 C 
ATOM     64  C   UNL A   1      44.282  30.876  31.041  1.00  0.00     0.037 A 
BRANCH  51  65
ATOM     65  C   UNL A   1      38.706  29.135  29.016  1.00  0.00     0.057 A 
ATOM     66  C   UNL A   1      38.195  29.559  27.781  1.00  0.00     0.134 A 
ATOM     67  C   UNL A   1      37.809  29.033  30.086  1.00  0.00     0.134 A 
ATOM     68  F   UNL A   1      39.006  29.699  26.721  1.00  0.00    -0.206 F 
ATOM     69  C   UNL A   1      36.852  29.908  27.627  1.00  0.00     0.040 A 
ATOM     70  C   UNL A   1      36.457  29.349  29.935  1.00  0.00     0.040 A 
ATOM     71  F   UNL A   1      38.231  28.632  31.294  1.00  0.00    -0.206 F 
ATOM     72  C   UNL A   1      35.978  29.798  28.705  1.00  0.00     0.006 A 
ENDBRANCH  51  65
BRANCH  52  73
ATOM     73  C   UNL A   1      48.345  26.575  29.761  1.00  0.00     0.057 A 
ATOM     74  C   UNL A   1      49.253  26.931  28.754  1.00  0.00     0.134 A 
ATOM     75  C   UNL A   1      48.845  25.854  30.851  1.00  0.00     0.134 A 
ATOM     76  F   UNL A   1      48.832  27.606  27.674  1.00  0.00    -0.206 F 
ATOM     77  C   UNL A   1      50.599  26.564  28.816  1.00  0.00     0.040 A 
ATOM     78  C   UNL A   1      50.194  25.500  30.937  1.00  0.00     0.040 A 
ATOM     79  F   UNL A   1      48.031  25.489  31.852  1.00  0.00    -0.206 F 
ATOM     80  C   UNL A   1      51.074  25.848  29.913  1.00  0.00     0.006 A 
ENDBRANCH  52  73
BRANCH  64  81
ATOM     81  C   UNL A   1      44.659  32.124  31.781  1.00  0.00     0.057 A 
ATOM     82  C   UNL A   1      45.034  33.296  31.113  1.00  0.00     0.134 A 
ATOM     83  C   UNL A   1      44.592  32.165  33.180  1.00  0.00     0.134 A 
ATOM     84  F   UNL A   1      45.126  33.314  29.775  1.00  0.00    -0.206 F 
ATOM     85  C   UNL A   1      45.348  34.461  31.811  1.00  0.00     0.040 A 
ATOM     86  C   UNL A   1      44.880  33.332  33.888  1.00  0.00     0.040 A 
ATOM     87  F   UNL A   1      44.230  31.078  33.878  1.00  0.00    -0.206 F 
ATOM     88  C   UNL A   1      45.264  34.483  33.203  1.00  0.00     0.006 A 
ENDBRANCH  64  81
ENDBRANCH  38  39
ENDBRANCH  30  33
ENDBRANCH  28  29
ENDBRANCH  27  28
ENDBRANCH  26  27
ENDBRANCH   1  26
TORSDOF 15
ENDMDL
MODEL 2
REMARK VINA RESULT:     -11.4      2.606      7.306
REMARK SMILES C[N@@H+](Cc1ccc2nsnc2c1)Cc1ccccc1C(=O)NCCCCNC(=O)c1ccc(-c2c3nc(c(-c4c(F)cccc4F)c4ccc([nH]4)c(-c4c(F)cccc4F)c4nc(c(-c5c(F)cccc5F)c5ccc2[nH]5)C=C4)C=C3)cc1
REMARK SMILES IDX 23 1 22 2 20 3 21 4 19 6 14 7 15 8 16 9 18 10 17 11 13 12
REMARK SMILES IDX 2 13 1 14 3 16 4 17 5 18 12 19 6 20 11 21 7 22 10 23 8 24
REMARK SMILES IDX 9 25 24 26 25 27 26 28 27 29 28 30 29 32 30 33 31 34 83 35
REMARK SMILES IDX 32 36 82 37 33 38 34 39 35 40 76 41 36 42 81 43 75 44 77 45
REMARK SMILES IDX 37 46 80 47 74 48 73 49 38 51 64 52 47 53 63 54 48 55 51 56
REMARK SMILES IDX 62 57 78 58 49 59 50 60 61 62 79 63 52 64 39 65 40 66 45 67
REMARK SMILES IDX 41 68 42 69 44 70 46 71 43 72 65 73 66 74 71 75 67 76 68 77
REMARK SMILES IDX 70 78 72 79 69 80 53 81 54 82 59 83 55 84 56 85 58 86 60 87
REMARK SMILES IDX 57 88
REMARK H PARENT 22 5 2 15 27 31 77 50 51 61
REMARK Flexibility Score: inf
ROOT
ATOM      1  C   UNL A   1      31.413  27.912  27.203  1.00  0.00     0.116 C 
ENDROOT
BRANCH   1   2
ATOM      2  N   UNL A   1      31.407  26.461  26.878  1.00  0.00    -0.352 N 
ATOM      3  C   UNL A   1      31.880  25.302  26.320  1.00  0.00     0.251 C 
ATOM      4  O   UNL A   1      31.123  24.426  26.808  1.00  0.00    -0.269 OA
ATOM      5  H   UNL A   1      30.583  26.154  27.323  1.00  0.00     0.163 HD
BRANCH   3   6
ATOM      6  C   UNL A   1      32.968  24.723  25.353  1.00  0.00     0.048 A 
ATOM      7  C   UNL A   1      33.179  24.450  23.971  1.00  0.00     0.019 A 
ATOM      8  C   UNL A   1      34.392  23.778  23.541  1.00  0.00     0.010 A 
ATOM      9  C   UNL A   1      35.443  23.458  24.372  1.00  0.00     0.001 A 
ATOM     10  C   UNL A   1      34.125  24.379  26.147  1.00  0.00     0.014 A 
ATOM     11  C   UNL A   1      35.316  23.789  25.691  1.00  0.00     0.001 A 
BRANCH   7  12
ATOM     12  C   UNL A   1      32.433  24.762  22.697  1.00  0.00     0.299 C 
BRANCH  12  13
ATOM     13  N   UNL A   1      32.612  26.015  22.053  1.00  0.00    -0.330 N 
ATOM     14  C   UNL A   1      32.447  25.839  20.642  1.00  0.00     0.333 C 
ATOM     15  H   UNL A   1      33.568  26.358  22.149  1.00  0.00     0.348 HD
BRANCH  13  16
ATOM     16  C   UNL A   1      32.338  27.263  22.768  1.00  0.00     0.299 C 
BRANCH  16  17
ATOM     17  C   UNL A   1      30.917  27.848  22.685  1.00  0.00     0.009 A 
ATOM     18  C   UNL A   1      29.796  27.144  23.217  1.00  0.00     0.012 A 
ATOM     19  C   UNL A   1      30.754  29.145  22.138  1.00  0.00     0.041 A 
ATOM     20  C   UNL A   1      28.509  27.713  23.386  1.00  0.00     0.032 A 
ATOM     21  C   UNL A   1      29.515  29.794  22.358  1.00  0.00     0.105 A 
ATOM     22  C   UNL A   1      28.373  29.069  23.006  1.00  0.00     0.104 A 
ATOM     23  N   UNL A   1      29.236  31.072  22.057  1.00  0.00    -0.173 NA
ATOM     24  N   UNL A   1      27.283  29.836  23.167  1.00  0.00    -0.173 NA
ATOM     25  S   UNL A   1      27.690  31.346  22.603  1.00  0.00     0.069 S 
ENDBRANCH  16  17
ENDBRANCH  13  16
ENDBRANCH  12  13
ENDBRANCH   7  12
ENDBRANCH   3   6
ENDBRANCH   1   2
BRANCH   1  26
ATOM     26  C   UNL A   1      31.597  28.881  26.025  1.00  0.00     0.023 C 
BRANCH  26  27
ATOM     27  C   UNL A   1      32.983  29.498  25.841  1.00  0.00     0.023 C 
BRANCH  27  28
ATOM     28  C   UNL A   1      33.925  29.420  27.036  1.00  0.00     0.116 C 
BRANCH  28  29
ATOM     29  N   UNL A   1      33.921  30.572  27.938  1.00  0.00    -0.352 N 
ATOM     30  C   UNL A   1      34.971  31.003  28.731  1.00  0.00     0.251 C 
ATOM     31  H   UNL A   1      33.087  31.093  27.986  1.00  0.00     0.163 HD
ATOM     32  O   UNL A   1      34.869  31.977  29.470  1.00  0.00    -0.269 OA
BRANCH  30  33
ATOM     33  C   UNL A   1      36.222  30.215  28.700  1.00  0.00     0.039 A 
ATOM     34  C   UNL A   1      37.048  30.280  27.574  1.00  0.00     0.014 A 
ATOM     35  C   UNL A   1      36.652  29.590  29.870  1.00  0.00     0.014 A 
ATOM     36  C   UNL A   1      38.358  29.805  27.664  1.00  0.00     0.010 A 
ATOM     37  C   UNL A   1      37.986  29.225  29.988  1.00  0.00     0.010 A 
ATOM     38  C   UNL A   1      38.852  29.324  28.888  1.00  0.00    -0.014 A 
BRANCH  38  39
ATOM     39  C   UNL A   1      40.259  28.872  29.036  1.00  0.00     0.031 A 
ATOM     40  C   UNL A   1      41.267  29.810  29.640  1.00  0.00     0.074 A 
ATOM     41  C   UNL A   1      40.647  27.668  28.565  1.00  0.00     0.049 A 
ATOM     42  N   UNL A   1      42.558  29.656  29.793  1.00  0.00    -0.248 NA
ATOM     43  C   UNL A   1      40.764  31.118  30.091  1.00  0.00     0.031 C 
ATOM     44  C   UNL A   1      39.783  26.697  27.890  1.00  0.00     0.029 A 
ATOM     45  N   UNL A   1      41.877  27.059  28.581  1.00  0.00    -0.354 N 
ATOM     46  C   UNL A   1      43.015  30.854  30.327  1.00  0.00     0.074 A 
ATOM     47  C   UNL A   1      41.885  31.750  30.396  1.00  0.00     0.031 C 
ATOM     48  C   UNL A   1      40.501  25.602  27.590  1.00  0.00     0.029 A 
ATOM     49  C   UNL A   1      41.879  25.800  28.029  1.00  0.00     0.049 A 
ATOM     50  H   UNL A   1      42.683  27.485  28.954  1.00  0.00     0.167 HD
ATOM     51  C   UNL A   1      44.256  31.168  30.764  1.00  0.00     0.037 A 
ATOM     52  C   UNL A   1      42.880  24.907  27.907  1.00  0.00     0.037 A 
ATOM     53  C   UNL A   1      45.364  30.254  30.751  1.00  0.00     0.049 A 
ATOM     54  C   UNL A   1      44.241  25.258  28.446  1.00  0.00     0.074 A 
ATOM     55  C   UNL A   1      46.645  30.443  31.232  1.00  0.00     0.029 A 
ATOM     56  N   UNL A   1      45.311  28.968  30.235  1.00  0.00    -0.354 N 
ATOM     57  N   UNL A   1      44.643  26.368  29.020  1.00  0.00    -0.248 NA
ATOM     58  C   UNL A   1      45.287  24.230  28.333  1.00  0.00     0.031 C 
ATOM     59  C   UNL A   1      47.378  29.277  30.985  1.00  0.00     0.029 A 
ATOM     60  C   UNL A   1      46.540  28.351  30.384  1.00  0.00     0.049 A 
ATOM     61  H   UNL A   1      44.517  28.555  29.825  1.00  0.00     0.167 HD
ATOM     62  C   UNL A   1      45.972  26.158  29.367  1.00  0.00     0.074 A 
ATOM     63  C   UNL A   1      46.305  24.812  28.949  1.00  0.00     0.031 C 
ATOM     64  C   UNL A   1      46.839  27.003  29.977  1.00  0.00     0.037 A 
BRANCH  51  65
ATOM     65  C   UNL A   1      44.457  32.549  31.317  1.00  0.00     0.057 A 
ATOM     66  C   UNL A   1      44.861  33.617  30.503  1.00  0.00     0.134 A 
ATOM     67  C   UNL A   1      44.258  32.813  32.677  1.00  0.00     0.134 A 
ATOM     68  F   UNL A   1      45.089  33.426  29.194  1.00  0.00    -0.206 F 
ATOM     69  C   UNL A   1      45.097  34.888  31.029  1.00  0.00     0.040 A 
ATOM     70  C   UNL A   1      44.461  34.087  33.209  1.00  0.00     0.040 A 
ATOM     71  F   UNL A   1      43.871  31.836  33.512  1.00  0.00    -0.206 F 
ATOM     72  C   UNL A   1      44.892  35.127  32.386  1.00  0.00     0.006 A 
ENDBRANCH  51  65
BRANCH  52  73
ATOM     73  C   UNL A   1      42.628  23.573  27.303  1.00  0.00     0.057 A 
ATOM     74  C   UNL A   1      42.229  22.488  28.096  1.00  0.00     0.134 A 
ATOM     75  C   UNL A   1      42.796  23.339  25.934  1.00  0.00     0.134 A 
ATOM     76  F   UNL A   1      42.069  22.642  29.419  1.00  0.00    -0.206 F 
ATOM     77  C   UNL A   1      42.030  21.217  27.554  1.00  0.00     0.040 A 
ATOM     78  C   UNL A   1      42.578  22.078  25.374  1.00  0.00     0.040 A 
ATOM     79  F   UNL A   1      43.170  24.336  25.118  1.00  0.00    -0.206 F 
ATOM     80  C   UNL A   1      42.202  21.010  26.187  1.00  0.00     0.006 A 
ENDBRANCH  52  73
BRANCH  64  81
ATOM     81  C   UNL A   1      48.214  26.482  30.269  1.00  0.00     0.057 A 
ATOM     82  C   UNL A   1      48.513  25.812  31.462  1.00  0.00     0.134 A 
ATOM     83  C   UNL A   1      49.236  26.606  29.319  1.00  0.00     0.134 A 
ATOM     84  F   UNL A   1      47.579  25.671  32.414  1.00  0.00    -0.206 F 
ATOM     85  C   UNL A   1      49.787  25.301  31.708  1.00  0.00     0.040 A 
ATOM     86  C   UNL A   1      50.507  26.077  29.543  1.00  0.00     0.040 A 
ATOM     87  F   UNL A   1      49.010  27.229  28.152  1.00  0.00    -0.206 F 
ATOM     88  C   UNL A   1      50.787  25.426  30.743  1.00  0.00     0.006 A 
ENDBRANCH  64  81
ENDBRANCH  38  39
ENDBRANCH  30  33
ENDBRANCH  28  29
ENDBRANCH  27  28
ENDBRANCH  26  27
ENDBRANCH   1  26
TORSDOF 15
ENDMDL
MODEL 3
REMARK VINA RESULT:     -11.4      2.506      6.678
REMARK SMILES C[N@@H+](Cc1ccc2nsnc2c1)Cc1ccccc1C(=O)NCCCCNC(=O)c1ccc(-c2c3nc(c(-c4c(F)cccc4F)c4ccc([nH]4)c(-c4c(F)cccc4F)c4nc(c(-c5c(F)cccc5F)c5ccc2[nH]5)C=C4)C=C3)cc1
REMARK SMILES IDX 23 1 22 2 20 3 21 4 19 6 14 7 15 8 16 9 18 10 17 11 13 12
REMARK SMILES IDX 2 13 1 14 3 16 4 17 5 18 12 19 6 20 11 21 7 22 10 23 8 24
REMARK SMILES IDX 9 25 24 26 25 27 26 28 27 29 28 30 29 32 30 33 31 34 83 35
REMARK SMILES IDX 32 36 82 37 33 38 34 39 35 40 76 41 36 42 81 43 75 44 77 45
REMARK SMILES IDX 37 46 80 47 74 48 73 49 38 51 64 52 47 53 63 54 48 55 51 56
REMARK SMILES IDX 62 57 78 58 49 59 50 60 61 62 79 63 52 64 39 65 40 66 45 67
REMARK SMILES IDX 41 68 42 69 44 70 46 71 43 72 65 73 66 74 71 75 67 76 68 77
REMARK SMILES IDX 70 78 72 79 69 80 53 81 54 82 59 83 55 84 56 85 58 86 60 87
REMARK SMILES IDX 57 88
REMARK H PARENT 22 5 2 15 27 31 77 50 51 61
REMARK Flexibility Score: inf
ROOT
ATOM      1  C   UNL A   1      35.022  23.785  24.020  1.00  0.00     0.116 C 
ENDROOT
BRANCH   1   2
ATOM      2  N   UNL A   1      34.278  24.620  23.040  1.00  0.00    -0.352 N 
ATOM      3  C   UNL A   1      33.261  25.429  22.604  1.00  0.00     0.251 C 
ATOM      4  O   UNL A   1      33.668  25.806  21.476  1.00  0.00    -0.269 OA
ATOM      5  H   UNL A   1      34.846  24.552  22.238  1.00  0.00     0.163 HD
BRANCH   3   6
ATOM      6  C   UNL A   1      31.863  26.016  22.995  1.00  0.00     0.048 A 
ATOM      7  C   UNL A   1      30.710  25.692  23.765  1.00  0.00     0.019 A 
ATOM      8  C   UNL A   1      29.552  26.567  23.743  1.00  0.00     0.010 A 
ATOM      9  C   UNL A   1      29.505  27.782  23.096  1.00  0.00     0.001 A 
ATOM     10  C   UNL A   1      31.739  27.313  22.370  1.00  0.00     0.014 A 
ATOM     11  C   UNL A   1      30.628  28.171  22.421  1.00  0.00     0.001 A 
BRANCH   7  12
ATOM     12  C   UNL A   1      30.357  24.604  24.749  1.00  0.00     0.299 C 
BRANCH  12  13
ATOM     13  N   UNL A   1      30.944  24.593  26.043  1.00  0.00    -0.330 N 
ATOM     14  C   UNL A   1      30.354  23.540  26.812  1.00  0.00     0.333 C 
ATOM     15  H   UNL A   1      30.719  25.438  26.569  1.00  0.00     0.348 HD
BRANCH  13  16
ATOM     16  C   UNL A   1      32.301  25.105  26.246  1.00  0.00     0.299 C 
BRANCH  16  17
ATOM     17  C   UNL A   1      32.485  26.624  26.414  1.00  0.00     0.009 A 
ATOM     18  C   UNL A   1      31.390  27.465  26.773  1.00  0.00     0.012 A 
ATOM     19  C   UNL A   1      33.789  27.162  26.285  1.00  0.00     0.041 A 
ATOM     20  C   UNL A   1      31.526  28.818  27.170  1.00  0.00     0.032 A 
ATOM     21  C   UNL A   1      33.999  28.482  26.751  1.00  0.00     0.105 A 
ATOM     22  C   UNL A   1      32.847  29.324  27.215  1.00  0.00     0.104 A 
ATOM     23  N   UNL A   1      35.187  29.097  26.856  1.00  0.00    -0.173 NA
ATOM     24  N   UNL A   1      33.221  30.537  27.652  1.00  0.00    -0.173 NA
ATOM     25  S   UNL A   1      34.879  30.581  27.539  1.00  0.00     0.069 S 
ENDBRANCH  16  17
ENDBRANCH  13  16
ENDBRANCH  12  13
ENDBRANCH   7  12
ENDBRANCH   3   6
ENDBRANCH   1   2
BRANCH   1  26
ATOM     26  C   UNL A   1      36.414  23.295  23.592  1.00  0.00     0.023 C 
BRANCH  26  27
ATOM     27  C   UNL A   1      36.793  21.863  23.966  1.00  0.00     0.023 C 
BRANCH  27  28
ATOM     28  C   UNL A   1      37.360  21.653  25.365  1.00  0.00     0.116 C 
BRANCH  28  29
ATOM     29  N   UNL A   1      38.400  20.634  25.495  1.00  0.00    -0.352 N 
ATOM     30  C   UNL A   1      39.606  20.765  26.163  1.00  0.00     0.251 C 
ATOM     31  H   UNL A   1      38.226  19.766  25.064  1.00  0.00     0.163 HD
ATOM     32  O   UNL A   1      40.427  19.855  26.206  1.00  0.00    -0.269 OA
BRANCH  30  33
ATOM     33  C   UNL A   1      39.904  22.071  26.788  1.00  0.00     0.039 A 
ATOM     34  C   UNL A   1      40.925  22.163  27.738  1.00  0.00     0.014 A 
ATOM     35  C   UNL A   1      39.304  23.219  26.268  1.00  0.00     0.014 A 
ATOM     36  C   UNL A   1      41.419  23.421  28.088  1.00  0.00     0.010 A 
ATOM     37  C   UNL A   1      39.873  24.456  26.533  1.00  0.00     0.010 A 
ATOM     38  C   UNL A   1      40.932  24.573  27.447  1.00  0.00    -0.014 A 
BRANCH  38  39
ATOM     39  C   UNL A   1      41.479  25.921  27.747  1.00  0.00     0.031 A 
ATOM     40  C   UNL A   1      42.858  26.274  27.261  1.00  0.00     0.074 A 
ATOM     41  C   UNL A   1      40.785  26.790  28.511  1.00  0.00     0.049 A 
ATOM     42  N   UNL A   1      43.562  27.357  27.473  1.00  0.00    -0.248 NA
ATOM     43  C   UNL A   1      43.560  25.251  26.467  1.00  0.00     0.031 C 
ATOM     44  C   UNL A   1      39.471  26.540  29.108  1.00  0.00     0.029 A 
ATOM     45  N   UNL A   1      41.095  28.063  28.920  1.00  0.00    -0.354 N 
ATOM     46  C   UNL A   1      44.790  27.127  26.866  1.00  0.00     0.074 A 
ATOM     47  C   UNL A   1      44.767  25.779  26.350  1.00  0.00     0.031 C 
ATOM     48  C   UNL A   1      39.073  27.638  29.774  1.00  0.00     0.029 A 
ATOM     49  C   UNL A   1      40.111  28.659  29.672  1.00  0.00     0.049 A 
ATOM     50  H   UNL A   1      41.944  28.508  28.694  1.00  0.00     0.167 HD
ATOM     51  C   UNL A   1      45.830  27.977  26.710  1.00  0.00     0.037 A 
ATOM     52  C   UNL A   1      40.054  29.895  30.205  1.00  0.00     0.037 A 
ATOM     53  C   UNL A   1      45.827  29.338  27.171  1.00  0.00     0.049 A 
ATOM     54  C   UNL A   1      41.201  30.842  29.977  1.00  0.00     0.074 A 
ATOM     55  C   UNL A   1      46.798  30.308  27.007  1.00  0.00     0.029 A 
ATOM     56  N   UNL A   1      44.788  29.921  27.880  1.00  0.00    -0.354 N 
ATOM     57  N   UNL A   1      42.327  30.639  29.334  1.00  0.00    -0.248 NA
ATOM     58  C   UNL A   1      41.068  32.195  30.537  1.00  0.00     0.031 C 
ATOM     59  C   UNL A   1      46.356  31.475  27.639  1.00  0.00     0.029 A 
ATOM     60  C   UNL A   1      45.094  31.240  28.164  1.00  0.00     0.049 A 
ATOM     61  H   UNL A   1      43.955  29.466  28.141  1.00  0.00     0.167 HD
ATOM     62  C   UNL A   1      43.016  31.844  29.381  1.00  0.00     0.074 A 
ATOM     63  C   UNL A   1      42.179  32.776  30.106  1.00  0.00     0.031 C 
ATOM     64  C   UNL A   1      44.233  32.152  28.870  1.00  0.00     0.037 A 
BRANCH  51  65
ATOM     65  C   UNL A   1      47.037  27.456  25.987  1.00  0.00     0.057 A 
ATOM     66  C   UNL A   1      47.144  27.519  24.591  1.00  0.00     0.134 A 
ATOM     67  C   UNL A   1      48.100  26.877  26.691  1.00  0.00     0.134 A 
ATOM     68  F   UNL A   1      46.151  28.043  23.856  1.00  0.00    -0.206 F 
ATOM     69  C   UNL A   1      48.245  26.987  23.917  1.00  0.00     0.040 A 
ATOM     70  C   UNL A   1      49.220  26.370  26.030  1.00  0.00     0.040 A 
ATOM     71  F   UNL A   1      48.063  26.786  28.029  1.00  0.00    -0.206 F 
ATOM     72  C   UNL A   1      49.290  26.415  24.639  1.00  0.00     0.006 A 
ENDBRANCH  51  65
BRANCH  52  73
ATOM     73  C   UNL A   1      38.849  30.335  30.956  1.00  0.00     0.057 A 
ATOM     74  C   UNL A   1      38.707  30.048  32.320  1.00  0.00     0.134 A 
ATOM     75  C   UNL A   1      37.806  31.030  30.335  1.00  0.00     0.134 A 
ATOM     76  F   UNL A   1      39.664  29.368  32.969  1.00  0.00    -0.206 F 
ATOM     77  C   UNL A   1      37.564  30.414  33.033  1.00  0.00     0.040 A 
ATOM     78  C   UNL A   1      36.666  31.424  31.041  1.00  0.00     0.040 A 
ATOM     79  F   UNL A   1      37.882  31.344  29.033  1.00  0.00    -0.206 F 
ATOM     80  C   UNL A   1      36.539  31.108  32.392  1.00  0.00     0.006 A 
ENDBRANCH  52  73
BRANCH  64  81
ATOM     81  C   UNL A   1      44.711  33.563  29.038  1.00  0.00     0.057 A 
ATOM     82  C   UNL A   1      45.502  33.952  30.126  1.00  0.00     0.134 A 
ATOM     83  C   UNL A   1      44.418  34.531  28.068  1.00  0.00     0.134 A 
ATOM     84  F   UNL A   1      45.807  33.073  31.092  1.00  0.00    -0.206 F 
ATOM     85  C   UNL A   1      45.969  35.260  30.253  1.00  0.00     0.040 A 
ATOM     86  C   UNL A   1      44.901  35.836  28.171  1.00  0.00     0.040 A 
ATOM     87  F   UNL A   1      43.673  34.219  26.996  1.00  0.00    -0.206 F 
ATOM     88  C   UNL A   1      45.675  36.204  29.269  1.00  0.00     0.006 A 
ENDBRANCH  64  81
ENDBRANCH  38  39
ENDBRANCH  30  33
ENDBRANCH  28  29
ENDBRANCH  27  28
ENDBRANCH  26  27
ENDBRANCH   1  26
TORSDOF 15
ENDMDL
