MODEL 1
REMARK VINA RESULT:     -12.0      0.000      0.000
REMARK SMILES Cc1nn(C)cc1-c1cc(C(F)(F)F)nc(N2CCC[C@@H]2C(=O)NCCCCNC(=O)c2ccc(-c3c4nc(c(-c5c(F)cccc5F)c5ccc([nH]5)c(-c5c(F)cccc5F)c5nc(c(-c6c(F)cccc6F)c6ccc3[nH]6)C=C5)C=C4)cc2)n1
REMARK SMILES IDX 26 1 25 2 24 3 22 4 23 5 21 7 17 8 18 9 19 10 20 11 16 12
REMARK SMILES IDX 8 13 9 14 86 15 10 16 15 17 7 18 1 19 2 20 3 21 4 22 6 23
REMARK SMILES IDX 5 24 11 25 12 26 13 27 14 28 27 29 28 30 29 31 30 32 31 34
REMARK SMILES IDX 32 35 33 36 85 37 34 38 84 39 35 40 36 41 37 42 78 43 38 44
REMARK SMILES IDX 83 45 77 46 79 47 39 48 82 49 76 50 75 51 40 53 66 54 49 55
REMARK SMILES IDX 65 56 50 57 53 58 64 59 80 60 51 61 52 62 63 64 81 65 54 66
REMARK SMILES IDX 41 67 42 68 47 69 43 70 44 71 46 72 48 73 45 74 67 75 68 76
REMARK SMILES IDX 73 77 69 78 70 79 72 80 74 81 71 82 55 83 56 84 61 85 57 86
REMARK SMILES IDX 58 87 60 88 62 89 59 90
REMARK H PARENT 24 6 29 33 79 52 53 63
REMARK Flexibility Score: inf
ROOT
ATOM      1  C   UNL A   1      31.838  27.050  26.299  1.00  0.00     0.023 C 
ENDROOT
BRANCH   1   2
ATOM      2  C   UNL A   1      32.543  25.710  26.107  1.00  0.00     0.116 C 
BRANCH   2   3
ATOM      3  N   UNL A   1      31.737  24.607  26.594  1.00  0.00    -0.354 N 
ATOM      4  C   UNL A   1      31.041  23.643  25.922  1.00  0.00     0.242 C 
ATOM      5  O   UNL A   1      30.404  22.842  26.620  1.00  0.00    -0.273 OA
ATOM      6  H   UNL A   1      31.683  24.543  27.575  1.00  0.00     0.163 HD
BRANCH   4   7
ATOM      7  C   UNL A   1      30.969  23.563  24.380  1.00  0.00     0.174 C 
ATOM      8  N   UNL A   1      32.266  23.468  23.731  1.00  0.00    -0.329 N 
ATOM      9  C   UNL A   1      32.426  24.357  22.609  1.00  0.00     0.120 C 
ATOM     10  C   UNL A   1      31.401  25.455  22.879  1.00  0.00     0.024 C 
ATOM     11  C   UNL A   1      30.322  24.803  23.746  1.00  0.00     0.037 C 
BRANCH   8  12
ATOM     12  C   UNL A   1      33.165  22.508  24.054  1.00  0.00     0.227 A 
ATOM     13  C   UNL A   1      33.675  20.329  24.536  1.00  0.00     0.080 A 
ATOM     14  C   UNL A   1      34.926  20.669  24.996  1.00  0.00     0.062 A 
ATOM     15  N   UNL A   1      32.777  21.232  24.099  1.00  0.00    -0.213 NA
ATOM     16  C   UNL A   1      35.248  22.008  24.934  1.00  0.00     0.150 A 
ATOM     17  N   UNL A   1      34.386  22.920  24.423  1.00  0.00    -0.208 NA
BRANCH  13  18
ATOM     18  C   UNL A   1      33.290  18.937  24.461  1.00  0.00     0.041 A 
ATOM     19  C   UNL A   1      32.527  18.533  21.984  1.00  0.00     0.069 C 
ATOM     20  C   UNL A   1      32.754  18.158  23.402  1.00  0.00     0.069 A 
ATOM     21  N   UNL A   1      32.426  16.924  23.813  1.00  0.00    -0.178 NA
ATOM     22  N   UNL A   1      32.775  16.908  25.111  1.00  0.00    -0.275 N 
ATOM     23  C   UNL A   1      33.304  18.086  25.547  1.00  0.00     0.119 A 
ATOM     24  C   UNL A   1      32.526  15.724  25.897  1.00  0.00     0.173 C 
ENDBRANCH  13  18
BRANCH  16  25
ATOM     25  C   UNL A   1      36.564  22.499  25.504  1.00  0.00     0.433 C 
ATOM     26  F   UNL A   1      37.399  23.026  24.566  1.00  0.00    -0.165 F 
ATOM     27  F   UNL A   1      36.394  23.471  26.448  1.00  0.00    -0.165 F 
ATOM     28  F   UNL A   1      37.283  21.517  26.124  1.00  0.00    -0.165 F 
ENDBRANCH  16  25
ENDBRANCH   8  12
ENDBRANCH   4   7
ENDBRANCH   2   3
ENDBRANCH   1   2
BRANCH   1  29
ATOM     29  C   UNL A   1      32.737  28.271  26.100  1.00  0.00     0.023 C 
BRANCH  29  30
ATOM     30  C   UNL A   1      33.699  28.564  27.248  1.00  0.00     0.116 C 
BRANCH  30  31
ATOM     31  N   UNL A   1      33.681  29.952  27.684  1.00  0.00    -0.352 N 
ATOM     32  C   UNL A   1      34.700  30.689  28.239  1.00  0.00     0.251 C 
ATOM     33  H   UNL A   1      32.826  30.426  27.567  1.00  0.00     0.163 HD
ATOM     34  O   UNL A   1      34.494  31.826  28.651  1.00  0.00    -0.269 OA
BRANCH  32  35
ATOM     35  C   UNL A   1      36.040  30.081  28.377  1.00  0.00     0.039 A 
ATOM     36  C   UNL A   1      36.932  30.170  27.307  1.00  0.00     0.014 A 
ATOM     37  C   UNL A   1      36.423  29.461  29.568  1.00  0.00     0.014 A 
ATOM     38  C   UNL A   1      38.240  29.704  27.459  1.00  0.00     0.010 A 
ATOM     39  C   UNL A   1      37.744  29.056  29.741  1.00  0.00     0.010 A 
ATOM     40  C   UNL A   1      38.666  29.179  28.689  1.00  0.00    -0.014 A 
BRANCH  40  41
ATOM     41  C   UNL A   1      40.076  28.768  28.904  1.00  0.00     0.031 A 
ATOM     42  C   UNL A   1      41.065  29.737  29.487  1.00  0.00     0.074 A 
ATOM     43  C   UNL A   1      40.480  27.546  28.507  1.00  0.00     0.049 A 
ATOM     44  N   UNL A   1      42.351  29.589  29.681  1.00  0.00    -0.248 NA
ATOM     45  C   UNL A   1      40.546  31.057  29.880  1.00  0.00     0.031 C 
ATOM     46  C   UNL A   1      39.627  26.532  27.881  1.00  0.00     0.029 A 
ATOM     47  N   UNL A   1      41.716  26.952  28.559  1.00  0.00    -0.354 N 
ATOM     48  C   UNL A   1      42.796  30.799  30.197  1.00  0.00     0.074 A 
ATOM     49  C   UNL A   1      41.653  31.685  30.246  1.00  0.00     0.031 C 
ATOM     50  C   UNL A   1      40.361  25.436  27.627  1.00  0.00     0.029 A 
ATOM     51  C   UNL A   1      41.739  25.681  28.040  1.00  0.00     0.049 A 
ATOM     52  H   UNL A   1      42.511  27.396  28.932  1.00  0.00     0.167 HD
ATOM     53  C   UNL A   1      44.041  31.133  30.613  1.00  0.00     0.037 A 
ATOM     54  C   UNL A   1      42.760  24.811  27.908  1.00  0.00     0.037 A 
ATOM     55  C   UNL A   1      45.168  30.239  30.597  1.00  0.00     0.049 A 
ATOM     56  C   UNL A   1      44.129  25.206  28.385  1.00  0.00     0.074 A 
ATOM     57  C   UNL A   1      46.452  30.462  31.064  1.00  0.00     0.029 A 
ATOM     58  N   UNL A   1      45.147  28.950  30.086  1.00  0.00    -0.354 N 
ATOM     59  N   UNL A   1      44.520  26.328  28.938  1.00  0.00    -0.248 NA
ATOM     60  C   UNL A   1      45.200  24.212  28.221  1.00  0.00     0.031 C 
ATOM     61  C   UNL A   1      47.217  29.320  30.803  1.00  0.00     0.029 A 
ATOM     62  C   UNL A   1      46.399  28.373  30.210  1.00  0.00     0.049 A 
ATOM     63  H   UNL A   1      44.357  28.511  29.694  1.00  0.00     0.167 HD
ATOM     64  C   UNL A   1      45.871  26.164  29.217  1.00  0.00     0.074 A 
ATOM     65  C   UNL A   1      46.229  24.830  28.781  1.00  0.00     0.031 C 
ATOM     66  C   UNL A   1      46.736  27.040  29.783  1.00  0.00     0.037 A 
BRANCH  53  67
ATOM     67  C   UNL A   1      44.247  32.526  31.129  1.00  0.00     0.057 A 
ATOM     68  C   UNL A   1      44.107  32.837  32.487  1.00  0.00     0.134 A 
ATOM     69  C   UNL A   1      44.628  33.559  30.264  1.00  0.00     0.134 A 
ATOM     70  F   UNL A   1      43.732  31.894  33.365  1.00  0.00    -0.206 F 
ATOM     71  C   UNL A   1      44.318  34.133  32.965  1.00  0.00     0.040 A 
ATOM     72  C   UNL A   1      44.866  34.853  30.733  1.00  0.00     0.040 A 
ATOM     73  F   UNL A   1      44.784  33.328  28.952  1.00  0.00    -0.206 F 
ATOM     74  C   UNL A   1      44.705  35.142  32.087  1.00  0.00     0.006 A 
ENDBRANCH  53  67
BRANCH  54  75
ATOM     75  C   UNL A   1      42.524  23.468  27.322  1.00  0.00     0.057 A 
ATOM     76  C   UNL A   1      42.677  23.246  25.949  1.00  0.00     0.134 A 
ATOM     77  C   UNL A   1      42.126  22.383  28.112  1.00  0.00     0.134 A 
ATOM     78  F   UNL A   1      43.038  24.253  25.139  1.00  0.00    -0.206 F 
ATOM     79  C   UNL A   1      42.422  21.999  25.376  1.00  0.00     0.040 A 
ATOM     80  C   UNL A   1      41.890  21.124  27.556  1.00  0.00     0.040 A 
ATOM     81  F   UNL A   1      41.968  22.528  29.435  1.00  0.00    -0.206 F 
ATOM     82  C   UNL A   1      42.030  20.933  26.182  1.00  0.00     0.006 A 
ENDBRANCH  54  75
BRANCH  66  83
ATOM     83  C   UNL A   1      48.144  26.570  29.999  1.00  0.00     0.057 A 
ATOM     84  C   UNL A   1      48.527  25.900  31.168  1.00  0.00     0.134 A 
ATOM     85  C   UNL A   1      49.116  26.756  29.009  1.00  0.00     0.134 A 
ATOM     86  F   UNL A   1      47.644  25.704  32.159  1.00  0.00    -0.206 F 
ATOM     87  C   UNL A   1      49.834  25.449  31.352  1.00  0.00     0.040 A 
ATOM     88  C   UNL A   1      50.420  26.289  29.172  1.00  0.00     0.040 A 
ATOM     89  F   UNL A   1      48.810  27.383  27.863  1.00  0.00    -0.206 F 
ATOM     90  C   UNL A   1      50.784  25.637  30.349  1.00  0.00     0.006 A 
ENDBRANCH  66  83
ENDBRANCH  40  41
ENDBRANCH  32  35
ENDBRANCH  30  31
ENDBRANCH  29  30
ENDBRANCH   1  29
TORSDOF 14
ENDMDL
MODEL 2
REMARK VINA RESULT:     -12.0      3.320      6.991
REMARK SMILES Cc1nn(C)cc1-c1cc(C(F)(F)F)nc(N2CCC[C@@H]2C(=O)NCCCCNC(=O)c2ccc(-c3c4nc(c(-c5c(F)cccc5F)c5ccc([nH]5)c(-c5c(F)cccc5F)c5nc(c(-c6c(F)cccc6F)c6ccc3[nH]6)C=C5)C=C4)cc2)n1
REMARK SMILES IDX 26 1 25 2 24 3 22 4 23 5 21 7 17 8 18 9 19 10 20 11 16 12
REMARK SMILES IDX 8 13 9 14 86 15 10 16 15 17 7 18 1 19 2 20 3 21 4 22 6 23
REMARK SMILES IDX 5 24 11 25 12 26 13 27 14 28 27 29 28 30 29 31 30 32 31 34
REMARK SMILES IDX 32 35 33 36 85 37 34 38 84 39 35 40 36 41 37 42 78 43 38 44
REMARK SMILES IDX 83 45 77 46 79 47 39 48 82 49 76 50 75 51 40 53 66 54 49 55
REMARK SMILES IDX 65 56 50 57 53 58 64 59 80 60 51 61 52 62 63 64 81 65 54 66
REMARK SMILES IDX 41 67 42 68 47 69 43 70 44 71 46 72 48 73 45 74 67 75 68 76
REMARK SMILES IDX 73 77 69 78 70 79 72 80 74 81 71 82 55 83 56 84 61 85 57 86
REMARK SMILES IDX 58 87 60 88 62 89 59 90
REMARK H PARENT 24 6 29 33 79 52 53 63
REMARK Flexibility Score: inf
ROOT
ATOM      1  C   UNL A   1      32.350  27.212  25.838  1.00  0.00     0.023 C 
ENDROOT
BRANCH   1   2
ATOM      2  C   UNL A   1      32.940  25.805  25.888  1.00  0.00     0.116 C 
BRANCH   2   3
ATOM      3  N   UNL A   1      32.127  24.913  26.691  1.00  0.00    -0.354 N 
ATOM      4  C   UNL A   1      31.275  23.910  26.328  1.00  0.00     0.242 C 
ATOM      5  O   UNL A   1      30.681  23.337  27.251  1.00  0.00    -0.273 OA
ATOM      6  H   UNL A   1      32.205  25.053  27.662  1.00  0.00     0.163 HD
BRANCH   4   7
ATOM      7  C   UNL A   1      30.984  23.530  24.858  1.00  0.00     0.174 C 
ATOM      8  N   UNL A   1      32.172  23.209  24.084  1.00  0.00    -0.329 N 
ATOM      9  C   UNL A   1      32.216  23.841  22.791  1.00  0.00     0.120 C 
ATOM     10  C   UNL A   1      31.292  25.045  22.954  1.00  0.00     0.024 C 
ATOM     11  C   UNL A   1      30.315  24.663  24.067  1.00  0.00     0.037 C 
BRANCH   8  12
ATOM     12  C   UNL A   1      33.061  22.268  24.483  1.00  0.00     0.227 A 
ATOM     13  C   UNL A   1      35.201  21.619  24.970  1.00  0.00     0.080 A 
ATOM     14  C   UNL A   1      34.849  20.290  24.989  1.00  0.00     0.062 A 
ATOM     15  N   UNL A   1      34.335  22.609  24.687  1.00  0.00    -0.213 NA
ATOM     16  C   UNL A   1      33.520  20.014  24.753  1.00  0.00     0.150 A 
ATOM     17  N   UNL A   1      32.618  21.004  24.544  1.00  0.00    -0.208 NA
BRANCH  13  18
ATOM     18  C   UNL A   1      36.550  22.012  25.314  1.00  0.00     0.041 A 
ATOM     19  C   UNL A   1      38.038  19.886  24.933  1.00  0.00     0.069 C 
ATOM     20  C   UNL A   1      37.768  21.283  25.353  1.00  0.00     0.069 A 
ATOM     21  N   UNL A   1      38.769  22.021  25.854  1.00  0.00    -0.178 NA
ATOM     22  N   UNL A   1      38.203  23.214  26.104  1.00  0.00    -0.275 N 
ATOM     23  C   UNL A   1      36.878  23.264  25.793  1.00  0.00     0.119 A 
ATOM     24  C   UNL A   1      38.996  24.264  26.697  1.00  0.00     0.173 C 
ENDBRANCH  13  18
BRANCH  16  25
ATOM     25  C   UNL A   1      33.047  18.576  24.657  1.00  0.00     0.433 C 
ATOM     26  F   UNL A   1      31.953  18.417  23.863  1.00  0.00    -0.165 F 
ATOM     27  F   UNL A   1      34.005  17.745  24.152  1.00  0.00    -0.165 F 
ATOM     28  F   UNL A   1      32.705  18.040  25.866  1.00  0.00    -0.165 F 
ENDBRANCH  16  25
ENDBRANCH   8  12
ENDBRANCH   4   7
ENDBRANCH   2   3
ENDBRANCH   1   2
BRANCH   1  29
ATOM     29  C   UNL A   1      32.716  28.008  24.584  1.00  0.00     0.023 C 
BRANCH  29  30
ATOM     30  C   UNL A   1      33.404  29.346  24.841  1.00  0.00     0.116 C 
BRANCH  30  31
ATOM     31  N   UNL A   1      32.590  30.282  25.600  1.00  0.00    -0.352 N 
ATOM     32  C   UNL A   1      32.901  30.935  26.769  1.00  0.00     0.251 C 
ATOM     33  H   UNL A   1      31.698  30.473  25.229  1.00  0.00     0.163 HD
ATOM     34  O   UNL A   1      32.060  31.620  27.344  1.00  0.00    -0.269 OA
BRANCH  32  35
ATOM     35  C   UNL A   1      34.247  30.769  27.355  1.00  0.00     0.039 A 
ATOM     36  C   UNL A   1      35.011  31.909  27.618  1.00  0.00     0.014 A 
ATOM     37  C   UNL A   1      34.737  29.500  27.673  1.00  0.00     0.014 A 
ATOM     38  C   UNL A   1      36.237  31.780  28.274  1.00  0.00     0.010 A 
ATOM     39  C   UNL A   1      35.926  29.379  28.385  1.00  0.00     0.010 A 
ATOM     40  C   UNL A   1      36.685  30.519  28.698  1.00  0.00    -0.014 A 
BRANCH  40  41
ATOM     41  C   UNL A   1      37.935  30.369  29.482  1.00  0.00     0.031 A 
ATOM     42  C   UNL A   1      39.103  29.619  28.907  1.00  0.00     0.074 A 
ATOM     43  C   UNL A   1      37.993  30.847  30.741  1.00  0.00     0.049 A 
ATOM     44  N   UNL A   1      40.250  29.320  29.464  1.00  0.00    -0.248 NA
ATOM     45  C   UNL A   1      38.954  29.116  27.532  1.00  0.00     0.031 C 
ATOM     46  C   UNL A   1      36.908  31.548  31.432  1.00  0.00     0.029 A 
ATOM     47  N   UNL A   1      39.003  30.803  31.669  1.00  0.00    -0.354 N 
ATOM     48  C   UNL A   1      40.946  28.578  28.519  1.00  0.00     0.074 A 
ATOM     49  C   UNL A   1      40.079  28.435  27.369  1.00  0.00     0.031 C 
ATOM     50  C   UNL A   1      37.318  31.887  32.665  1.00  0.00     0.029 A 
ATOM     51  C   UNL A   1      38.679  31.398  32.864  1.00  0.00     0.049 A 
ATOM     52  H   UNL A   1      39.876  30.383  31.495  1.00  0.00     0.167 HD
ATOM     53  C   UNL A   1      42.203  28.081  28.595  1.00  0.00     0.037 A 
ATOM     54  C   UNL A   1      39.399  31.531  33.995  1.00  0.00     0.037 A 
ATOM     55  C   UNL A   1      43.077  28.255  29.725  1.00  0.00     0.049 A 
ATOM     56  C   UNL A   1      40.794  30.975  34.048  1.00  0.00     0.074 A 
ATOM     57  C   UNL A   1      44.393  27.851  29.867  1.00  0.00     0.029 A 
ATOM     58  N   UNL A   1      42.722  28.885  30.908  1.00  0.00    -0.354 N 
ATOM     59  N   UNL A   1      41.467  30.339  33.121  1.00  0.00    -0.248 NA
ATOM     60  C   UNL A   1      41.532  31.158  35.307  1.00  0.00     0.031 C 
ATOM     61  C   UNL A   1      44.823  28.204  31.150  1.00  0.00     0.029 A 
ATOM     62  C   UNL A   1      43.788  28.865  31.791  1.00  0.00     0.049 A 
ATOM     63  H   UNL A   1      41.843  29.288  31.091  1.00  0.00     0.167 HD
ATOM     64  C   UNL A   1      42.715  30.075  33.669  1.00  0.00     0.074 A 
ATOM     65  C   UNL A   1      42.709  30.627  35.008  1.00  0.00     0.031 C 
ATOM     66  C   UNL A   1      43.770  29.431  33.115  1.00  0.00     0.037 A 
BRANCH  53  67
ATOM     67  C   UNL A   1      42.712  27.305  27.417  1.00  0.00     0.057 A 
ATOM     68  C   UNL A   1      43.363  27.933  26.347  1.00  0.00     0.134 A 
ATOM     69  C   UNL A   1      42.586  25.912  27.370  1.00  0.00     0.134 A 
ATOM     70  F   UNL A   1      43.505  29.267  26.325  1.00  0.00    -0.206 F 
ATOM     71  C   UNL A   1      43.851  27.203  25.260  1.00  0.00     0.040 A 
ATOM     72  C   UNL A   1      43.092  25.169  26.301  1.00  0.00     0.040 A 
ATOM     73  F   UNL A   1      41.978  25.248  28.365  1.00  0.00    -0.206 F 
ATOM     74  C   UNL A   1      43.722  25.816  25.240  1.00  0.00     0.006 A 
ENDBRANCH  53  67
BRANCH  54  75
ATOM     75  C   UNL A   1      38.826  32.243  35.165  1.00  0.00     0.057 A 
ATOM     76  C   UNL A   1      38.869  33.639  35.247  1.00  0.00     0.134 A 
ATOM     77  C   UNL A   1      38.241  31.550  36.231  1.00  0.00     0.134 A 
ATOM     78  F   UNL A   1      39.435  34.356  34.264  1.00  0.00    -0.206 F 
ATOM     79  C   UNL A   1      38.370  34.322  36.358  1.00  0.00     0.040 A 
ATOM     80  C   UNL A   1      37.718  32.221  37.337  1.00  0.00     0.040 A 
ATOM     81  F   UNL A   1      38.163  30.211  36.209  1.00  0.00    -0.206 F 
ATOM     82  C   UNL A   1      37.789  33.611  37.406  1.00  0.00     0.006 A 
ENDBRANCH  54  75
BRANCH  66  83
ATOM     83  C   UNL A   1      45.019  29.325  33.939  1.00  0.00     0.057 A 
ATOM     84  C   UNL A   1      46.007  30.315  33.911  1.00  0.00     0.134 A 
ATOM     85  C   UNL A   1      45.213  28.237  34.799  1.00  0.00     0.134 A 
ATOM     86  F   UNL A   1      45.886  31.375  33.097  1.00  0.00    -0.206 F 
ATOM     87  C   UNL A   1      47.157  30.218  34.696  1.00  0.00     0.040 A 
ATOM     88  C   UNL A   1      46.347  28.140  35.606  1.00  0.00     0.040 A 
ATOM     89  F   UNL A   1      44.299  27.259  34.877  1.00  0.00    -0.206 F 
ATOM     90  C   UNL A   1      47.326  29.131  35.552  1.00  0.00     0.006 A 
ENDBRANCH  66  83
ENDBRANCH  40  41
ENDBRANCH  32  35
ENDBRANCH  30  31
ENDBRANCH  29  30
ENDBRANCH   1  29
TORSDOF 14
ENDMDL
MODEL 3
REMARK VINA RESULT:     -12.0      3.537      8.521
REMARK SMILES Cc1nn(C)cc1-c1cc(C(F)(F)F)nc(N2CCC[C@@H]2C(=O)NCCCCNC(=O)c2ccc(-c3c4nc(c(-c5c(F)cccc5F)c5ccc([nH]5)c(-c5c(F)cccc5F)c5nc(c(-c6c(F)cccc6F)c6ccc3[nH]6)C=C5)C=C4)cc2)n1
REMARK SMILES IDX 26 1 25 2 24 3 22 4 23 5 21 7 17 8 18 9 19 10 20 11 16 12
REMARK SMILES IDX 8 13 9 14 86 15 10 16 15 17 7 18 1 19 2 20 3 21 4 22 6 23
REMARK SMILES IDX 5 24 11 25 12 26 13 27 14 28 27 29 28 30 29 31 30 32 31 34
REMARK SMILES IDX 32 35 33 36 85 37 34 38 84 39 35 40 36 41 37 42 78 43 38 44
REMARK SMILES IDX 83 45 77 46 79 47 39 48 82 49 76 50 75 51 40 53 66 54 49 55
REMARK SMILES IDX 65 56 50 57 53 58 64 59 80 60 51 61 52 62 63 64 81 65 54 66
REMARK SMILES IDX 41 67 42 68 47 69 43 70 44 71 46 72 48 73 45 74 67 75 68 76
REMARK SMILES IDX 73 77 69 78 70 79 72 80 74 81 71 82 55 83 56 84 61 85 57 86
REMARK SMILES IDX 58 87 60 88 62 89 59 90
REMARK H PARENT 24 6 29 33 79 52 53 63
REMARK Flexibility Score: inf
ROOT
ATOM      1  C   UNL A   1      35.094  23.304  24.013  1.00  0.00     0.023 C 
ENDROOT
BRANCH   1   2
ATOM      2  C   UNL A   1      34.396  24.656  24.138  1.00  0.00     0.116 C 
BRANCH   2   3
ATOM      3  N   UNL A   1      34.004  25.177  22.843  1.00  0.00    -0.354 N 
ATOM      4  C   UNL A   1      32.782  25.235  22.235  1.00  0.00     0.242 C 
ATOM      5  O   UNL A   1      32.764  25.710  21.092  1.00  0.00    -0.273 OA
ATOM      6  H   UNL A   1      34.743  25.553  22.314  1.00  0.00     0.163 HD
BRANCH   4   7
ATOM      7  C   UNL A   1      31.487  24.685  22.873  1.00  0.00     0.174 C 
ATOM      8  N   UNL A   1      31.182  25.253  24.177  1.00  0.00    -0.329 N 
ATOM      9  C   UNL A   1      30.813  24.276  25.169  1.00  0.00     0.120 C 
ATOM     10  C   UNL A   1      31.432  22.985  24.641  1.00  0.00     0.024 C 
ATOM     11  C   UNL A   1      31.538  23.171  23.126  1.00  0.00     0.037 C 
BRANCH   8  12
ATOM     12  C   UNL A   1      31.089  26.589  24.377  1.00  0.00     0.227 A 
ATOM     13  C   UNL A   1      30.310  28.652  23.765  1.00  0.00     0.080 A 
ATOM     14  C   UNL A   1      31.172  29.291  24.626  1.00  0.00     0.062 A 
ATOM     15  N   UNL A   1      30.280  27.316  23.604  1.00  0.00    -0.213 NA
ATOM     16  C   UNL A   1      31.988  28.474  25.378  1.00  0.00     0.150 A 
ATOM     17  N   UNL A   1      31.917  27.124  25.286  1.00  0.00    -0.208 NA
BRANCH  13  18
ATOM     18  C   UNL A   1      29.340  29.421  23.015  1.00  0.00     0.041 A 
ATOM     19  C   UNL A   1      27.012  28.316  23.501  1.00  0.00     0.069 C 
ATOM     20  C   UNL A   1      27.938  29.273  22.847  1.00  0.00     0.069 A 
ATOM     21  N   UNL A   1      27.453  30.149  21.955  1.00  0.00    -0.178 NA
ATOM     22  N   UNL A   1      28.527  30.865  21.581  1.00  0.00    -0.275 N 
ATOM     23  C   UNL A   1      29.681  30.474  22.191  1.00  0.00     0.119 A 
ATOM     24  C   UNL A   1      28.378  31.896  20.583  1.00  0.00     0.173 C 
ENDBRANCH  13  18
BRANCH  16  25
ATOM     25  C   UNL A   1      33.040  29.081  26.285  1.00  0.00     0.433 C 
ATOM     26  F   UNL A   1      33.212  30.419  26.098  1.00  0.00    -0.165 F 
ATOM     27  F   UNL A   1      32.745  28.918  27.608  1.00  0.00    -0.165 F 
ATOM     28  F   UNL A   1      34.277  28.526  26.121  1.00  0.00    -0.165 F 
ENDBRANCH  16  25
ENDBRANCH   8  12
ENDBRANCH   4   7
ENDBRANCH   2   3
ENDBRANCH   1   2
BRANCH   1  29
ATOM     29  C   UNL A   1      36.575  23.319  24.394  1.00  0.00     0.023 C 
BRANCH  29  30
ATOM     30  C   UNL A   1      36.871  23.038  25.865  1.00  0.00     0.116 C 
BRANCH  30  31
ATOM     31  N   UNL A   1      38.048  22.208  26.073  1.00  0.00    -0.352 N 
ATOM     32  C   UNL A   1      39.298  22.587  26.501  1.00  0.00     0.251 C 
ATOM     33  H   UNL A   1      37.935  21.249  25.882  1.00  0.00     0.163 HD
ATOM     34  O   UNL A   1      40.220  21.777  26.528  1.00  0.00    -0.269 OA
BRANCH  32  35
ATOM     35  C   UNL A   1      39.535  23.993  26.887  1.00  0.00     0.039 A 
ATOM     36  C   UNL A   1      39.302  24.376  28.210  1.00  0.00     0.014 A 
ATOM     37  C   UNL A   1      40.018  24.918  25.958  1.00  0.00     0.014 A 
ATOM     38  C   UNL A   1      39.628  25.670  28.621  1.00  0.00     0.010 A 
ATOM     39  C   UNL A   1      40.403  26.186  26.384  1.00  0.00     0.010 A 
ATOM     40  C   UNL A   1      40.217  26.572  27.721  1.00  0.00    -0.014 A 
BRANCH  40  41
ATOM     41  C   UNL A   1      40.661  27.918  28.159  1.00  0.00     0.031 A 
ATOM     42  C   UNL A   1      42.124  28.262  28.176  1.00  0.00     0.074 A 
ATOM     43  C   UNL A   1      39.752  28.805  28.609  1.00  0.00     0.049 A 
ATOM     44  N   UNL A   1      42.711  29.356  28.595  1.00  0.00    -0.248 NA
ATOM     45  C   UNL A   1      43.052  27.233  27.683  1.00  0.00     0.031 C 
ATOM     46  C   UNL A   1      38.308  28.571  28.691  1.00  0.00     0.029 A 
ATOM     47  N   UNL A   1      39.910  30.078  29.098  1.00  0.00    -0.354 N 
ATOM     48  C   UNL A   1      44.072  29.137  28.435  1.00  0.00     0.074 A 
ATOM     49  C   UNL A   1      44.229  27.793  27.923  1.00  0.00     0.031 C 
ATOM     50  C   UNL A   1      37.712  29.672  29.178  1.00  0.00     0.029 A 
ATOM     51  C   UNL A   1      38.731  30.674  29.474  1.00  0.00     0.049 A 
ATOM     52  H   UNL A   1      40.786  30.521  29.171  1.00  0.00     0.167 HD
ATOM     53  C   UNL A   1      45.098  29.989  28.673  1.00  0.00     0.037 A 
ATOM     54  C   UNL A   1      38.500  31.890  30.003  1.00  0.00     0.037 A 
ATOM     55  C   UNL A   1      44.938  31.337  29.149  1.00  0.00     0.049 A 
ATOM     56  C   UNL A   1      39.657  32.817  30.251  1.00  0.00     0.074 A 
ATOM     57  C   UNL A   1      45.911  32.301  29.351  1.00  0.00     0.029 A 
ATOM     58  N   UNL A   1      43.726  31.914  29.496  1.00  0.00    -0.354 N 
ATOM     59  N   UNL A   1      40.933  32.624  30.026  1.00  0.00    -0.248 NA
ATOM     60  C   UNL A   1      39.339  34.134  30.822  1.00  0.00     0.031 C 
ATOM     61  C   UNL A   1      45.292  33.449  29.856  1.00  0.00     0.029 A 
ATOM     62  C   UNL A   1      43.929  33.214  29.929  1.00  0.00     0.049 A 
ATOM     63  H   UNL A   1      42.851  31.465  29.442  1.00  0.00     0.167 HD
ATOM     64  C   UNL A   1      41.568  33.803  30.398  1.00  0.00     0.074 A 
ATOM     65  C   UNL A   1      40.534  34.709  30.854  1.00  0.00     0.031 C 
ATOM     66  C   UNL A   1      42.888  34.106  30.366  1.00  0.00     0.037 A 
BRANCH  53  67
ATOM     67  C   UNL A   1      46.487  29.487  28.415  1.00  0.00     0.057 A 
ATOM     68  C   UNL A   1      47.240  28.853  29.412  1.00  0.00     0.134 A 
ATOM     69  C   UNL A   1      47.065  29.605  27.145  1.00  0.00     0.134 A 
ATOM     70  F   UNL A   1      46.748  28.720  30.653  1.00  0.00    -0.206 F 
ATOM     71  C   UNL A   1      48.526  28.372  29.160  1.00  0.00     0.040 A 
ATOM     72  C   UNL A   1      48.341  29.106  26.874  1.00  0.00     0.040 A 
ATOM     73  F   UNL A   1      46.397  30.198  26.144  1.00  0.00    -0.206 F 
ATOM     74  C   UNL A   1      49.077  28.492  27.887  1.00  0.00     0.006 A 
ENDBRANCH  53  67
BRANCH  54  75
ATOM     75  C   UNL A   1      37.112  32.318  30.313  1.00  0.00     0.057 A 
ATOM     76  C   UNL A   1      36.518  31.996  31.539  1.00  0.00     0.134 A 
ATOM     77  C   UNL A   1      36.344  33.038  29.392  1.00  0.00     0.134 A 
ATOM     78  F   UNL A   1      37.200  31.290  32.454  1.00  0.00    -0.206 F 
ATOM     79  C   UNL A   1      35.202  32.356  31.831  1.00  0.00     0.040 A 
ATOM     80  C   UNL A   1      35.033  33.425  29.679  1.00  0.00     0.040 A 
ATOM     81  F   UNL A   1      36.858  33.383  28.202  1.00  0.00    -0.206 F 
ATOM     82  C   UNL A   1      34.457  33.076  30.899  1.00  0.00     0.006 A 
ENDBRANCH  54  75
BRANCH  66  83
ATOM     83  C   UNL A   1      43.284  35.487  30.798  1.00  0.00     0.057 A 
ATOM     84  C   UNL A   1      43.569  35.788  32.135  1.00  0.00     0.134 A 
ATOM     85  C   UNL A   1      43.417  36.515  29.857  1.00  0.00     0.134 A 
ATOM     86  F   UNL A   1      43.445  34.849  33.085  1.00  0.00    -0.206 F 
ATOM     87  C   UNL A   1      43.955  37.071  32.525  1.00  0.00     0.040 A 
ATOM     88  C   UNL A   1      43.826  37.796  30.231  1.00  0.00     0.040 A 
ATOM     89  F   UNL A   1      43.167  36.288  28.560  1.00  0.00    -0.206 F 
ATOM     90  C   UNL A   1      44.092  38.078  31.570  1.00  0.00     0.006 A 
ENDBRANCH  66  83
ENDBRANCH  40  41
ENDBRANCH  32  35
ENDBRANCH  30  31
ENDBRANCH  29  30
ENDBRANCH   1  29
TORSDOF 14
ENDMDL
