MODEL 1
REMARK VINA RESULT:     -12.1      0.000      0.000
REMARK SMILES Cc1n[nH]c(C)c1C(=O)N1CC(n2cc(C(=O)NCCCCNC(=O)c3ccc(-c4c5nc(c(-c6c(F)cccc6F)c6ccc([nH]6)c(-c6c(F)cccc6F)c6nc(c(-c7c(F)cccc7F)c7ccc4[nH]7)C=C6)C=C5)cc3)nn2)C1
REMARK SMILES IDX 20 1 19 2 18 3 16 4 17 5 15 7 13 8 14 9 81 10 80 11 12 12
REMARK SMILES IDX 8 13 9 14 10 15 11 16 82 17 7 18 1 19 2 20 3 21 4 22 5 23
REMARK SMILES IDX 6 25 21 26 22 27 23 28 24 29 25 31 26 32 27 33 79 34 28 35
REMARK SMILES IDX 78 36 29 37 30 38 31 39 72 40 32 41 77 42 71 43 73 44 33 45
REMARK SMILES IDX 76 46 70 47 69 48 34 50 60 51 43 52 59 53 44 54 47 55 58 56
REMARK SMILES IDX 74 57 45 58 46 59 57 61 75 62 48 63 35 64 36 65 41 66 37 67
REMARK SMILES IDX 38 68 40 69 42 70 39 71 61 72 62 73 67 74 63 75 64 76 66 77
REMARK SMILES IDX 68 78 65 79 49 80 50 81 55 82 51 83 52 84 54 85 56 86 53 87
REMARK H PARENT 18 6 4 24 23 30 73 49 47 60
REMARK Flexibility Score: inf
ROOT
ATOM      1  C   UNL A   1      40.257  21.303  26.563  1.00  0.00     0.023 C 
ENDROOT
BRANCH   1   2
ATOM      2  C   UNL A   1      38.967  21.657  25.825  1.00  0.00     0.116 C 
BRANCH   2   3
ATOM      3  N   UNL A   1      38.155  20.491  25.543  1.00  0.00    -0.351 N 
ATOM      4  C   UNL A   1      36.855  20.395  25.096  1.00  0.00     0.273 C 
ATOM      5  O   UNL A   1      36.469  19.292  24.720  1.00  0.00    -0.267 OA
ATOM      6  H   UNL A   1      38.604  19.628  25.696  1.00  0.00     0.163 HD
BRANCH   4   7
ATOM      7  C   UNL A   1      36.000  21.575  25.052  1.00  0.00     0.170 A 
ATOM      8  N   UNL A   1      34.596  23.193  25.401  1.00  0.00    -0.245 N 
ATOM      9  C   UNL A   1      35.056  22.029  25.951  1.00  0.00     0.145 A 
ATOM     10  N   UNL A   1      35.179  23.433  24.219  1.00  0.00    -0.066 NA
ATOM     11  N   UNL A   1      36.016  22.435  23.975  1.00  0.00    -0.125 NA
BRANCH   8  12
ATOM     12  C   UNL A   1      33.703  24.094  26.069  1.00  0.00     0.148 C 
ATOM     13  C   UNL A   1      31.337  26.334  25.823  1.00  0.00     0.257 C 
ATOM     14  O   UNL A   1      30.478  26.021  26.649  1.00  0.00    -0.269 OA
ATOM     15  N   UNL A   1      32.250  25.403  25.384  1.00  0.00    -0.334 N 
ATOM     16  C   UNL A   1      32.232  23.967  25.642  1.00  0.00     0.149 C 
ATOM     17  C   UNL A   1      33.701  25.471  25.367  1.00  0.00     0.149 C 
BRANCH  13  18
ATOM     18  C   UNL A   1      31.391  27.681  25.254  1.00  0.00     0.083 A 
ATOM     19  C   UNL A   1      32.196  29.002  27.379  1.00  0.00     0.069 C 
ATOM     20  C   UNL A   1      31.759  28.870  25.964  1.00  0.00     0.072 A 
ATOM     21  N   UNL A   1      31.663  29.966  25.204  1.00  0.00    -0.180 NA
ATOM     22  N   UNL A   1      31.200  29.512  24.039  1.00  0.00    -0.282 N 
ATOM     23  C   UNL A   1      31.018  28.156  23.999  1.00  0.00     0.045 A 
ATOM     24  H   UNL A   1      31.006  30.101  23.275  1.00  0.00     0.190 HD
ATOM     25  C   UNL A   1      30.463  27.531  22.775  1.00  0.00     0.067 C 
ENDBRANCH  13  18
ENDBRANCH   8  12
ENDBRANCH   4   7
ENDBRANCH   2   3
ENDBRANCH   1   2
BRANCH   1  26
ATOM     26  C   UNL A   1      40.851  19.932  26.205  1.00  0.00     0.023 C 
BRANCH  26  27
ATOM     27  C   UNL A   1      42.225  19.642  26.811  1.00  0.00     0.116 C 
BRANCH  27  28
ATOM     28  N   UNL A   1      43.263  19.485  25.796  1.00  0.00    -0.352 N 
ATOM     29  C   UNL A   1      43.968  20.456  25.120  1.00  0.00     0.251 C 
ATOM     30  H   UNL A   1      43.490  18.556  25.563  1.00  0.00     0.163 HD
ATOM     31  O   UNL A   1      44.599  20.176  24.106  1.00  0.00    -0.269 OA
BRANCH  29  32
ATOM     32  C   UNL A   1      43.948  21.844  25.618  1.00  0.00     0.039 A 
ATOM     33  C   UNL A   1      43.098  22.787  25.039  1.00  0.00     0.014 A 
ATOM     34  C   UNL A   1      44.759  22.198  26.691  1.00  0.00     0.014 A 
ATOM     35  C   UNL A   1      42.997  24.060  25.610  1.00  0.00     0.010 A 
ATOM     36  C   UNL A   1      44.595  23.432  27.305  1.00  0.00     0.010 A 
ATOM     37  C   UNL A   1      43.721  24.387  26.768  1.00  0.00    -0.014 A 
BRANCH  37  38
ATOM     38  C   UNL A   1      43.482  25.683  27.439  1.00  0.00     0.031 A 
ATOM     39  C   UNL A   1      44.425  26.817  27.155  1.00  0.00     0.074 A 
ATOM     40  C   UNL A   1      42.355  26.032  28.098  1.00  0.00     0.049 A 
ATOM     41  N   UNL A   1      45.057  27.571  28.003  1.00  0.00    -0.248 NA
ATOM     42  C   UNL A   1      44.641  27.194  25.750  1.00  0.00     0.031 C 
ATOM     43  C   UNL A   1      41.110  25.276  28.250  1.00  0.00     0.029 A 
ATOM     44  N   UNL A   1      42.054  27.238  28.677  1.00  0.00    -0.354 N 
ATOM     45  C   UNL A   1      45.636  28.601  27.263  1.00  0.00     0.074 A 
ATOM     46  C   UNL A   1      45.388  28.294  25.874  1.00  0.00     0.031 C 
ATOM     47  C   UNL A   1      40.129  26.112  28.648  1.00  0.00     0.029 A 
ATOM     48  C   UNL A   1      40.710  27.410  28.944  1.00  0.00     0.049 A 
ATOM     49  H   UNL A   1      42.734  27.919  28.883  1.00  0.00     0.167 HD
ATOM     50  C   UNL A   1      46.179  29.718  27.822  1.00  0.00     0.037 A 
ATOM     51  C   UNL A   1      40.085  28.533  29.361  1.00  0.00     0.037 A 
ATOM     52  C   UNL A   1      46.413  29.595  29.232  1.00  0.00     0.049 A 
ATOM     53  C   UNL A   1      41.078  29.437  29.977  1.00  0.00     0.074 A 
ATOM     54  C   UNL A   1      47.145  28.750  30.043  1.00  0.00     0.029 A 
ATOM     55  N   UNL A   1      45.650  30.344  30.091  1.00  0.00    -0.354 N 
ATOM     56  N   UNL A   1      41.658  29.229  31.125  1.00  0.00    -0.248 NA
ATOM     57  C   UNL A   1      41.634  30.525  29.185  1.00  0.00     0.031 C 
ATOM     58  C   UNL A   1      46.443  28.711  31.285  1.00  0.00     0.029 A 
ATOM     59  C   UNL A   1      45.313  29.512  31.127  1.00  0.00     0.049 A 
ATOM     60  H   UNL A   1      45.396  31.289  29.985  1.00  0.00     0.167 HD
ATOM     61  C   UNL A   1      42.875  29.880  31.027  1.00  0.00     0.074 A 
ATOM     62  C   UNL A   1      42.728  30.789  29.900  1.00  0.00     0.031 C 
ATOM     63  C   UNL A   1      43.980  29.409  31.673  1.00  0.00     0.037 A 
BRANCH  50  64
ATOM     64  C   UNL A   1      46.299  31.046  27.125  1.00  0.00     0.057 A 
ATOM     65  C   UNL A   1      47.540  31.701  27.046  1.00  0.00     0.134 A 
ATOM     66  C   UNL A   1      45.180  31.814  26.752  1.00  0.00     0.134 A 
ATOM     67  F   UNL A   1      48.667  31.083  27.430  1.00  0.00    -0.206 F 
ATOM     68  C   UNL A   1      47.660  33.032  26.628  1.00  0.00     0.040 A 
ATOM     69  C   UNL A   1      45.292  33.132  26.294  1.00  0.00     0.040 A 
ATOM     70  F   UNL A   1      43.933  31.343  26.895  1.00  0.00    -0.206 F 
ATOM     71  C   UNL A   1      46.533  33.750  26.246  1.00  0.00     0.006 A 
ENDBRANCH  50  64
BRANCH  51  72
ATOM     72  C   UNL A   1      38.671  28.915  29.183  1.00  0.00     0.057 A 
ATOM     73  C   UNL A   1      37.779  28.954  30.261  1.00  0.00     0.134 A 
ATOM     74  C   UNL A   1      38.208  29.452  27.970  1.00  0.00     0.134 A 
ATOM     75  F   UNL A   1      38.150  28.516  31.472  1.00  0.00    -0.206 F 
ATOM     76  C   UNL A   1      36.491  29.489  30.136  1.00  0.00     0.040 A 
ATOM     77  C   UNL A   1      36.921  29.979  27.829  1.00  0.00     0.040 A 
ATOM     78  F   UNL A   1      39.017  29.548  26.904  1.00  0.00    -0.206 F 
ATOM     79  C   UNL A   1      36.058  30.003  28.918  1.00  0.00     0.006 A 
ENDBRANCH  51  72
BRANCH  63  80
ATOM     80  C   UNL A   1      43.769  28.422  32.781  1.00  0.00     0.057 A 
ATOM     81  C   UNL A   1      43.687  27.039  32.573  1.00  0.00     0.134 A 
ATOM     82  C   UNL A   1      43.776  28.869  34.106  1.00  0.00     0.134 A 
ATOM     83  F   UNL A   1      43.782  26.519  31.341  1.00  0.00    -0.206 F 
ATOM     84  C   UNL A   1      43.559  26.141  33.635  1.00  0.00     0.040 A 
ATOM     85  C   UNL A   1      43.679  27.979  35.180  1.00  0.00     0.040 A 
ATOM     86  F   UNL A   1      43.918  30.175  34.381  1.00  0.00    -0.206 F 
ATOM     87  C   UNL A   1      43.557  26.612  34.946  1.00  0.00     0.006 A 
ENDBRANCH  63  80
ENDBRANCH  37  38
ENDBRANCH  29  32
ENDBRANCH  27  28
ENDBRANCH  26  27
ENDBRANCH   1  26
TORSDOF 13
ENDMDL
MODEL 2
REMARK VINA RESULT:     -11.9      2.601      7.949
REMARK SMILES Cc1n[nH]c(C)c1C(=O)N1CC(n2cc(C(=O)NCCCCNC(=O)c3ccc(-c4c5nc(c(-c6c(F)cccc6F)c6ccc([nH]6)c(-c6c(F)cccc6F)c6nc(c(-c7c(F)cccc7F)c7ccc4[nH]7)C=C6)C=C5)cc3)nn2)C1
REMARK SMILES IDX 20 1 19 2 18 3 16 4 17 5 15 7 13 8 14 9 81 10 80 11 12 12
REMARK SMILES IDX 8 13 9 14 10 15 11 16 82 17 7 18 1 19 2 20 3 21 4 22 5 23
REMARK SMILES IDX 6 25 21 26 22 27 23 28 24 29 25 31 26 32 27 33 79 34 28 35
REMARK SMILES IDX 78 36 29 37 30 38 31 39 72 40 32 41 77 42 71 43 73 44 33 45
REMARK SMILES IDX 76 46 70 47 69 48 34 50 60 51 43 52 59 53 44 54 47 55 58 56
REMARK SMILES IDX 74 57 45 58 46 59 57 61 75 62 48 63 35 64 36 65 41 66 37 67
REMARK SMILES IDX 38 68 40 69 42 70 39 71 61 72 62 73 67 74 63 75 64 76 66 77
REMARK SMILES IDX 68 78 65 79 49 80 50 81 55 82 51 83 52 84 54 85 56 86 53 87
REMARK H PARENT 18 6 4 24 23 30 73 49 47 60
REMARK Flexibility Score: inf
ROOT
ATOM      1  C   UNL A   1      33.087  30.012  25.714  1.00  0.00     0.023 C 
ENDROOT
BRANCH   1   2
ATOM      2  C   UNL A   1      31.592  29.697  25.728  1.00  0.00     0.116 C 
BRANCH   2   3
ATOM      3  N   UNL A   1      30.915  30.182  24.543  1.00  0.00    -0.351 N 
ATOM      4  C   UNL A   1      30.271  29.494  23.538  1.00  0.00     0.273 C 
ATOM      5  O   UNL A   1      29.582  30.147  22.760  1.00  0.00    -0.267 OA
ATOM      6  H   UNL A   1      30.915  31.162  24.439  1.00  0.00     0.163 HD
BRANCH   4   7
ATOM      7  C   UNL A   1      30.393  28.044  23.439  1.00  0.00     0.170 A 
ATOM      8  N   UNL A   1      30.992  25.981  23.126  1.00  0.00    -0.245 N 
ATOM      9  C   UNL A   1      31.412  27.266  22.924  1.00  0.00     0.145 A 
ATOM     10  N   UNL A   1      29.777  25.953  23.691  1.00  0.00    -0.066 NA
ATOM     11  N   UNL A   1      29.383  27.207  23.858  1.00  0.00    -0.125 NA
BRANCH   8  12
ATOM     12  C   UNL A   1      31.805  24.827  22.881  1.00  0.00     0.148 C 
ATOM     13  C   UNL A   1      33.457  22.293  24.116  1.00  0.00     0.257 C 
ATOM     14  O   UNL A   1      33.136  21.311  23.446  1.00  0.00    -0.269 OA
ATOM     15  N   UNL A   1      32.660  23.414  24.133  1.00  0.00    -0.334 N 
ATOM     16  C   UNL A   1      31.318  23.545  23.575  1.00  0.00     0.149 C 
ATOM     17  C   UNL A   1      33.007  24.797  23.853  1.00  0.00     0.149 C 
BRANCH  13  18
ATOM     18  C   UNL A   1      34.665  22.288  24.943  1.00  0.00     0.083 A 
ATOM     19  C   UNL A   1      36.447  22.822  23.086  1.00  0.00     0.069 C 
ATOM     20  C   UNL A   1      36.000  22.507  24.468  1.00  0.00     0.072 A 
ATOM     21  N   UNL A   1      36.910  22.387  25.439  1.00  0.00    -0.180 NA
ATOM     22  N   UNL A   1      36.196  22.052  26.514  1.00  0.00    -0.282 N 
ATOM     23  C   UNL A   1      34.847  21.978  26.289  1.00  0.00     0.045 A 
ATOM     24  H   UNL A   1      36.602  21.874  27.392  1.00  0.00     0.190 HD
ATOM     25  C   UNL A   1      33.945  21.570  27.391  1.00  0.00     0.067 C 
ENDBRANCH  13  18
ENDBRANCH   8  12
ENDBRANCH   4   7
ENDBRANCH   2   3
ENDBRANCH   1   2
BRANCH   1  26
ATOM     26  C   UNL A   1      34.005  28.798  25.914  1.00  0.00     0.023 C 
BRANCH  26  27
ATOM     27  C   UNL A   1      34.532  28.610  27.339  1.00  0.00     0.116 C 
BRANCH  27  28
ATOM     28  N   UNL A   1      34.709  29.877  28.042  1.00  0.00    -0.352 N 
ATOM     29  C   UNL A   1      35.795  30.325  28.761  1.00  0.00     0.251 C 
ATOM     30  H   UNL A   1      33.945  30.497  27.996  1.00  0.00     0.163 HD
ATOM     31  O   UNL A   1      35.687  31.281  29.522  1.00  0.00    -0.269 OA
BRANCH  29  32
ATOM     32  C   UNL A   1      37.090  29.635  28.620  1.00  0.00     0.039 A 
ATOM     33  C   UNL A   1      37.888  29.856  27.497  1.00  0.00     0.014 A 
ATOM     34  C   UNL A   1      37.525  28.786  29.633  1.00  0.00     0.014 A 
ATOM     35  C   UNL A   1      39.169  29.296  27.446  1.00  0.00     0.010 A 
ATOM     36  C   UNL A   1      38.827  28.301  29.617  1.00  0.00     0.010 A 
ATOM     37  C   UNL A   1      39.665  28.538  28.520  1.00  0.00    -0.014 A 
BRANCH  37  38
ATOM     38  C   UNL A   1      41.072  28.086  28.508  1.00  0.00     0.031 A 
ATOM     39  C   UNL A   1      41.404  26.803  27.801  1.00  0.00     0.074 A 
ATOM     40  C   UNL A   1      42.142  28.834  28.858  1.00  0.00     0.049 A 
ATOM     41  N   UNL A   1      42.072  25.784  28.252  1.00  0.00    -0.248 NA
ATOM     42  C   UNL A   1      40.989  26.667  26.396  1.00  0.00     0.031 C 
ATOM     43  C   UNL A   1      42.185  30.243  29.256  1.00  0.00     0.029 A 
ATOM     44  N   UNL A   1      43.469  28.491  28.802  1.00  0.00    -0.354 N 
ATOM     45  C   UNL A   1      42.289  24.940  27.163  1.00  0.00     0.074 A 
ATOM     46  C   UNL A   1      41.560  25.509  26.054  1.00  0.00     0.031 C 
ATOM     47  C   UNL A   1      43.454  30.693  29.163  1.00  0.00     0.029 A 
ATOM     48  C   UNL A   1      44.329  29.570  28.871  1.00  0.00     0.049 A 
ATOM     49  H   UNL A   1      43.779  27.560  28.720  1.00  0.00     0.167 HD
ATOM     50  C   UNL A   1      43.155  23.888  27.186  1.00  0.00     0.037 A 
ATOM     51  C   UNL A   1      45.667  29.575  28.688  1.00  0.00     0.037 A 
ATOM     52  C   UNL A   1      43.564  23.515  28.509  1.00  0.00     0.049 A 
ATOM     53  C   UNL A   1      46.187  28.207  28.888  1.00  0.00     0.074 A 
ATOM     54  C   UNL A   1      42.926  23.103  29.662  1.00  0.00     0.029 A 
ATOM     55  N   UNL A   1      44.866  23.735  28.879  1.00  0.00    -0.354 N 
ATOM     56  N   UNL A   1      46.260  27.602  30.040  1.00  0.00    -0.248 NA
ATOM     57  C   UNL A   1      46.437  27.366  27.726  1.00  0.00     0.031 C 
ATOM     58  C   UNL A   1      43.754  23.550  30.736  1.00  0.00     0.029 A 
ATOM     59  C   UNL A   1      44.822  24.233  30.156  1.00  0.00     0.049 A 
ATOM     60  H   UNL A   1      45.671  23.570  28.336  1.00  0.00     0.167 HD
ATOM     61  C   UNL A   1      46.172  26.255  29.737  1.00  0.00     0.074 A 
ATOM     62  C   UNL A   1      46.457  26.169  28.312  1.00  0.00     0.031 C 
ATOM     63  C   UNL A   1      45.583  25.377  30.599  1.00  0.00     0.037 A 
BRANCH  50  64
ATOM     64  C   UNL A   1      43.831  23.317  25.970  1.00  0.00     0.057 A 
ATOM     65  C   UNL A   1      43.752  21.942  25.689  1.00  0.00     0.134 A 
ATOM     66  C   UNL A   1      44.766  24.041  25.208  1.00  0.00     0.134 A 
ATOM     67  F   UNL A   1      42.934  21.144  26.393  1.00  0.00    -0.206 F 
ATOM     68  C   UNL A   1      44.553  21.327  24.719  1.00  0.00     0.040 A 
ATOM     69  C   UNL A   1      45.544  23.446  24.207  1.00  0.00     0.040 A 
ATOM     70  F   UNL A   1      45.020  25.334  25.460  1.00  0.00    -0.206 F 
ATOM     71  C   UNL A   1      45.449  22.081  23.971  1.00  0.00     0.006 A 
ENDBRANCH  50  64
BRANCH  51  72
ATOM     72  C   UNL A   1      46.529  30.694  28.262  1.00  0.00     0.057 A 
ATOM     73  C   UNL A   1      46.359  31.324  27.024  1.00  0.00     0.134 A 
ATOM     74  C   UNL A   1      47.418  31.312  29.159  1.00  0.00     0.134 A 
ATOM     75  F   UNL A   1      45.489  30.841  26.126  1.00  0.00    -0.206 F 
ATOM     76  C   UNL A   1      47.045  32.498  26.690  1.00  0.00     0.040 A 
ATOM     77  C   UNL A   1      48.118  32.477  28.834  1.00  0.00     0.040 A 
ATOM     78  F   UNL A   1      47.580  30.840  30.405  1.00  0.00    -0.206 F 
ATOM     79  C   UNL A   1      47.928  33.078  27.595  1.00  0.00     0.006 A 
ENDBRANCH  51  72
BRANCH  63  80
ATOM     80  C   UNL A   1      45.392  25.818  32.018  1.00  0.00     0.057 A 
ATOM     81  C   UNL A   1      46.364  25.646  33.013  1.00  0.00     0.134 A 
ATOM     82  C   UNL A   1      44.250  26.549  32.361  1.00  0.00     0.134 A 
ATOM     83  F   UNL A   1      47.535  25.052  32.740  1.00  0.00    -0.206 F 
ATOM     84  C   UNL A   1      46.183  26.131  34.310  1.00  0.00     0.040 A 
ATOM     85  C   UNL A   1      44.070  27.066  33.647  1.00  0.00     0.040 A 
ATOM     86  F   UNL A   1      43.309  26.807  31.439  1.00  0.00    -0.206 F 
ATOM     87  C   UNL A   1      45.031  26.846  34.629  1.00  0.00     0.006 A 
ENDBRANCH  63  80
ENDBRANCH  37  38
ENDBRANCH  29  32
ENDBRANCH  27  28
ENDBRANCH  26  27
ENDBRANCH   1  26
TORSDOF 13
ENDMDL
MODEL 3
REMARK VINA RESULT:     -11.5      3.297      7.265
REMARK SMILES Cc1n[nH]c(C)c1C(=O)N1CC(n2cc(C(=O)NCCCCNC(=O)c3ccc(-c4c5nc(c(-c6c(F)cccc6F)c6ccc([nH]6)c(-c6c(F)cccc6F)c6nc(c(-c7c(F)cccc7F)c7ccc4[nH]7)C=C6)C=C5)cc3)nn2)C1
REMARK SMILES IDX 20 1 19 2 18 3 16 4 17 5 15 7 13 8 14 9 81 10 80 11 12 12
REMARK SMILES IDX 8 13 9 14 10 15 11 16 82 17 7 18 1 19 2 20 3 21 4 22 5 23
REMARK SMILES IDX 6 25 21 26 22 27 23 28 24 29 25 31 26 32 27 33 79 34 28 35
REMARK SMILES IDX 78 36 29 37 30 38 31 39 72 40 32 41 77 42 71 43 73 44 33 45
REMARK SMILES IDX 76 46 70 47 69 48 34 50 60 51 43 52 59 53 44 54 47 55 58 56
REMARK SMILES IDX 74 57 45 58 46 59 57 61 75 62 48 63 35 64 36 65 41 66 37 67
REMARK SMILES IDX 38 68 40 69 42 70 39 71 61 72 62 73 67 74 63 75 64 76 66 77
REMARK SMILES IDX 68 78 65 79 49 80 50 81 55 82 51 83 52 84 54 85 56 86 53 87
REMARK H PARENT 18 6 4 24 23 30 73 49 47 60
REMARK Flexibility Score: inf
ROOT
ATOM      1  C   UNL A   1      36.824  22.002  24.403  1.00  0.00     0.023 C 
ENDROOT
BRANCH   1   2
ATOM      2  C   UNL A   1      36.163  21.197  25.521  1.00  0.00     0.116 C 
BRANCH   2   3
ATOM      3  N   UNL A   1      34.974  20.503  25.072  1.00  0.00    -0.351 N 
ATOM      4  C   UNL A   1      33.695  20.969  24.861  1.00  0.00     0.273 C 
ATOM      5  O   UNL A   1      32.918  20.229  24.263  1.00  0.00    -0.267 OA
ATOM      6  H   UNL A   1      35.101  19.544  24.888  1.00  0.00     0.163 HD
BRANCH   4   7
ATOM      7  C   UNL A   1      33.309  22.301  25.311  1.00  0.00     0.170 A 
ATOM      8  N   UNL A   1      32.838  24.406  25.553  1.00  0.00    -0.245 N 
ATOM      9  C   UNL A   1      33.346  23.514  24.651  1.00  0.00     0.145 A 
ATOM     10  N   UNL A   1      32.541  23.805  26.714  1.00  0.00    -0.066 NA
ATOM     11  N   UNL A   1      32.855  22.523  26.593  1.00  0.00    -0.125 NA
BRANCH   8  12
ATOM     12  C   UNL A   1      32.545  25.775  25.245  1.00  0.00     0.148 C 
ATOM     13  C   UNL A   1      33.515  28.894  25.313  1.00  0.00     0.257 C 
ATOM     14  O   UNL A   1      33.289  29.351  24.191  1.00  0.00    -0.269 OA
ATOM     15  N   UNL A   1      33.607  27.535  25.504  1.00  0.00    -0.334 N 
ATOM     16  C   UNL A   1      33.655  26.505  24.472  1.00  0.00     0.149 C 
ATOM     17  C   UNL A   1      32.896  26.685  26.444  1.00  0.00     0.149 C 
BRANCH  13  18
ATOM     18  C   UNL A   1      33.730  29.773  26.464  1.00  0.00     0.083 A 
ATOM     19  C   UNL A   1      31.474  31.120  26.391  1.00  0.00     0.069 C 
ATOM     20  C   UNL A   1      32.818  30.778  26.925  1.00  0.00     0.072 A 
ATOM     21  N   UNL A   1      33.305  31.468  27.962  1.00  0.00    -0.180 NA
ATOM     22  N   UNL A   1      34.523  30.959  28.147  1.00  0.00    -0.282 N 
ATOM     23  C   UNL A   1      34.840  29.940  27.288  1.00  0.00     0.045 A 
ATOM     24  H   UNL A   1      35.140  31.285  28.840  1.00  0.00     0.190 HD
ATOM     25  C   UNL A   1      36.184  29.319  27.358  1.00  0.00     0.067 C 
ENDBRANCH  13  18
ENDBRANCH   8  12
ENDBRANCH   4   7
ENDBRANCH   2   3
ENDBRANCH   1   2
BRANCH   1  26
ATOM     26  C   UNL A   1      36.856  23.520  24.632  1.00  0.00     0.023 C 
BRANCH  26  27
ATOM     27  C   UNL A   1      37.525  23.967  25.933  1.00  0.00     0.116 C 
BRANCH  27  28
ATOM     28  N   UNL A   1      38.852  23.385  26.110  1.00  0.00    -0.352 N 
ATOM     29  C   UNL A   1      39.986  23.957  26.641  1.00  0.00     0.251 C 
ATOM     30  H   UNL A   1      38.949  22.453  25.807  1.00  0.00     0.163 HD
ATOM     31  O   UNL A   1      41.086  23.442  26.465  1.00  0.00    -0.269 OA
BRANCH  29  32
ATOM     32  C   UNL A   1      39.871  25.207  27.414  1.00  0.00     0.039 A 
ATOM     33  C   UNL A   1      39.327  25.195  28.698  1.00  0.00     0.014 A 
ATOM     34  C   UNL A   1      40.340  26.396  26.864  1.00  0.00     0.014 A 
ATOM     35  C   UNL A   1      39.349  26.365  29.464  1.00  0.00     0.010 A 
ATOM     36  C   UNL A   1      40.437  27.534  27.655  1.00  0.00     0.010 A 
ATOM     37  C   UNL A   1      39.933  27.541  28.962  1.00  0.00    -0.014 A 
BRANCH  37  38
ATOM     38  C   UNL A   1      40.081  28.718  29.843  1.00  0.00     0.031 A 
ATOM     39  C   UNL A   1      38.877  29.583  30.087  1.00  0.00     0.074 A 
ATOM     40  C   UNL A   1      41.132  28.966  30.656  1.00  0.00     0.049 A 
ATOM     41  N   UNL A   1      38.772  30.871  29.965  1.00  0.00    -0.248 NA
ATOM     42  C   UNL A   1      37.656  28.932  30.587  1.00  0.00     0.031 C 
ATOM     43  C   UNL A   1      42.309  28.133  30.912  1.00  0.00     0.029 A 
ATOM     44  N   UNL A   1      41.290  30.002  31.541  1.00  0.00    -0.354 N 
ATOM     45  C   UNL A   1      37.532  31.220  30.500  1.00  0.00     0.074 A 
ATOM     46  C   UNL A   1      36.866  29.982  30.827  1.00  0.00     0.031 C 
ATOM     47  C   UNL A   1      42.918  28.559  32.039  1.00  0.00     0.029 A 
ATOM     48  C   UNL A   1      42.281  29.788  32.480  1.00  0.00     0.049 A 
ATOM     49  H   UNL A   1      40.747  30.822  31.510  1.00  0.00     0.167 HD
ATOM     50  C   UNL A   1      37.162  32.503  30.770  1.00  0.00     0.037 A 
ATOM     51  C   UNL A   1      42.569  30.540  33.565  1.00  0.00     0.037 A 
ATOM     52  C   UNL A   1      38.004  33.483  30.147  1.00  0.00     0.049 A 
ATOM     53  C   UNL A   1      42.021  31.898  33.372  1.00  0.00     0.074 A 
ATOM     54  C   UNL A   1      38.376  33.789  28.852  1.00  0.00     0.029 A 
ATOM     55  N   UNL A   1      38.813  34.254  30.943  1.00  0.00    -0.354 N 
ATOM     56  N   UNL A   1      42.492  32.775  32.531  1.00  0.00    -0.248 NA
ATOM     57  C   UNL A   1      40.741  32.238  33.976  1.00  0.00     0.031 C 
ATOM     58  C   UNL A   1      39.682  34.356  28.954  1.00  0.00     0.029 A 
ATOM     59  C   UNL A   1      40.025  34.322  30.306  1.00  0.00     0.049 A 
ATOM     60  H   UNL A   1      38.571  34.674  31.800  1.00  0.00     0.167 HD
ATOM     61  C   UNL A   1      41.407  33.569  32.206  1.00  0.00     0.074 A 
ATOM     62  C   UNL A   1      40.420  33.304  33.243  1.00  0.00     0.031 C 
ATOM     63  C   UNL A   1      41.293  34.133  30.969  1.00  0.00     0.037 A 
BRANCH  50  64
ATOM     64  C   UNL A   1      36.145  32.895  31.805  1.00  0.00     0.057 A 
ATOM     65  C   UNL A   1      35.028  33.673  31.451  1.00  0.00     0.134 A 
ATOM     66  C   UNL A   1      36.365  32.742  33.187  1.00  0.00     0.134 A 
ATOM     67  F   UNL A   1      34.754  33.931  30.163  1.00  0.00    -0.206 F 
ATOM     68  C   UNL A   1      34.191  34.262  32.406  1.00  0.00     0.040 A 
ATOM     69  C   UNL A   1      35.513  33.292  34.151  1.00  0.00     0.040 A 
ATOM     70  F   UNL A   1      37.460  32.123  33.653  1.00  0.00    -0.206 F 
ATOM     71  C   UNL A   1      34.430  34.068  33.762  1.00  0.00     0.006 A 
ENDBRANCH  50  64
BRANCH  51  72
ATOM     72  C   UNL A   1      43.231  30.125  34.817  1.00  0.00     0.057 A 
ATOM     73  C   UNL A   1      42.669  29.160  35.661  1.00  0.00     0.134 A 
ATOM     74  C   UNL A   1      44.545  30.524  35.114  1.00  0.00     0.134 A 
ATOM     75  F   UNL A   1      41.441  28.677  35.424  1.00  0.00    -0.206 F 
ATOM     76  C   UNL A   1      43.372  28.629  36.749  1.00  0.00     0.040 A 
ATOM     77  C   UNL A   1      45.254  30.010  36.203  1.00  0.00     0.040 A 
ATOM     78  F   UNL A   1      45.207  31.372  34.312  1.00  0.00    -0.206 F 
ATOM     79  C   UNL A   1      44.668  29.053  37.023  1.00  0.00     0.006 A 
ENDBRANCH  51  72
BRANCH  63  80
ATOM     80  C   UNL A   1      42.526  34.202  30.120  1.00  0.00     0.057 A 
ATOM     81  C   UNL A   1      42.992  33.125  29.354  1.00  0.00     0.134 A 
ATOM     82  C   UNL A   1      43.189  35.424  29.973  1.00  0.00     0.134 A 
ATOM     83  F   UNL A   1      42.349  31.949  29.352  1.00  0.00    -0.206 F 
ATOM     84  C   UNL A   1      44.106  33.244  28.520  1.00  0.00     0.040 A 
ATOM     85  C   UNL A   1      44.287  35.564  29.119  1.00  0.00     0.040 A 
ATOM     86  F   UNL A   1      42.756  36.513  30.627  1.00  0.00    -0.206 F 
ATOM     87  C   UNL A   1      44.756  34.469  28.399  1.00  0.00     0.006 A 
ENDBRANCH  63  80
ENDBRANCH  37  38
ENDBRANCH  29  32
ENDBRANCH  27  28
ENDBRANCH  26  27
ENDBRANCH   1  26
TORSDOF 13
ENDMDL
