MODEL 1
REMARK VINA RESULT:     -12.1      0.000      0.000
REMARK SMILES O=C(NCCCCNC(=O)[C@@]1(Cl)C=CC=C(c2ccccc2)[C@H]1Cl)c1ccc(-c2c3nc(c(-c4c(F)cccc4F)c4ccc([nH]4)c(-c4c(F)cccc4F)c4nc(c(-c5c(F)cccc5F)c5ccc2[nH]5)C=C4)C=C3)cc1
REMARK SMILES IDX 5 1 4 2 3 3 1 4 2 5 25 7 26 8 78 9 27 10 77 11 28 12 29 13
REMARK SMILES IDX 30 14 71 15 31 16 76 17 70 18 72 19 32 20 75 21 69 22 68 23
REMARK SMILES IDX 33 25 59 26 42 27 58 28 43 29 46 30 57 31 73 32 44 33 45 34
REMARK SMILES IDX 56 36 74 37 47 38 34 39 35 40 40 41 36 42 37 43 39 44 41 45
REMARK SMILES IDX 38 46 60 47 61 48 66 49 62 50 63 51 65 52 67 53 64 54 48 55
REMARK SMILES IDX 49 56 54 57 50 58 51 59 53 60 55 61 52 62 6 63 7 64 8 65
REMARK SMILES IDX 9 66 10 68 11 69 12 70 13 71 23 72 14 73 16 74 24 75 15 76
REMARK SMILES IDX 17 77 18 78 22 79 19 80 21 81 20 82
REMARK H PARENT 3 6 72 24 46 35 8 67
REMARK Flexibility Score: inf
ROOT
ATOM      1  C   UNL A   1      37.515  20.041  24.954  1.00  0.00     0.023 C 
ENDROOT
BRANCH   1   2
ATOM      2  C   UNL A   1      38.762  20.448  25.729  1.00  0.00     0.116 C 
BRANCH   2   3
ATOM      3  N   UNL A   1      39.829  19.460  25.685  1.00  0.00    -0.352 N 
ATOM      4  O   UNL A   1      41.916  18.626  25.842  1.00  0.00    -0.269 OA
ATOM      5  C   UNL A   1      41.153  19.567  26.039  1.00  0.00     0.251 C 
ATOM      6  H   UNL A   1      39.560  18.575  25.348  1.00  0.00     0.163 HD
BRANCH   5   7
ATOM      7  C   UNL A   1      41.675  20.827  26.612  1.00  0.00     0.039 A 
ATOM      8  C   UNL A   1      41.703  21.039  27.991  1.00  0.00     0.014 A 
ATOM      9  C   UNL A   1      42.136  21.823  25.744  1.00  0.00     0.014 A 
ATOM     10  C   UNL A   1      42.006  22.303  28.489  1.00  0.00     0.010 A 
ATOM     11  C   UNL A   1      42.531  23.063  26.254  1.00  0.00     0.010 A 
ATOM     12  C   UNL A   1      42.418  23.332  27.626  1.00  0.00    -0.014 A 
BRANCH  12  13
ATOM     13  C   UNL A   1      42.731  24.671  28.186  1.00  0.00     0.031 A 
ATOM     14  C   UNL A   1      44.150  25.076  28.483  1.00  0.00     0.074 A 
ATOM     15  C   UNL A   1      41.728  25.547  28.387  1.00  0.00     0.049 A 
ATOM     16  N   UNL A   1      44.605  26.218  28.936  1.00  0.00    -0.248 NA
ATOM     17  C   UNL A   1      45.196  24.067  28.249  1.00  0.00     0.031 C 
ATOM     18  C   UNL A   1      40.311  25.272  28.145  1.00  0.00     0.029 A 
ATOM     19  N   UNL A   1      41.747  26.850  28.813  1.00  0.00    -0.354 N 
ATOM     20  C   UNL A   1      45.979  26.057  29.070  1.00  0.00     0.074 A 
ATOM     21  C   UNL A   1      46.283  24.700  28.669  1.00  0.00     0.031 C 
ATOM     22  C   UNL A   1      39.603  26.390  28.368  1.00  0.00     0.029 A 
ATOM     23  C   UNL A   1      40.507  27.440  28.822  1.00  0.00     0.049 A 
ATOM     24  H   UNL A   1      42.569  27.317  29.087  1.00  0.00     0.167 HD
ATOM     25  C   UNL A   1      46.901  26.959  29.484  1.00  0.00     0.037 A 
ATOM     26  C   UNL A   1      40.137  28.689  29.159  1.00  0.00     0.037 A 
ATOM     27  C   UNL A   1      46.603  28.318  29.852  1.00  0.00     0.049 A 
ATOM     28  C   UNL A   1      41.179  29.668  29.610  1.00  0.00     0.074 A 
ATOM     29  C   UNL A   1      47.477  29.320  30.240  1.00  0.00     0.029 A 
ATOM     30  N   UNL A   1      45.331  28.869  29.875  1.00  0.00    -0.354 N 
ATOM     31  N   UNL A   1      42.475  29.507  29.707  1.00  0.00    -0.248 NA
ATOM     32  C   UNL A   1      40.703  31.000  30.005  1.00  0.00     0.031 C 
ATOM     33  C   UNL A   1      46.729  30.466  30.533  1.00  0.00     0.029 A 
ATOM     34  C   UNL A   1      45.394  30.191  30.289  1.00  0.00     0.049 A 
ATOM     35  H   UNL A   1      44.504  28.393  29.633  1.00  0.00     0.167 HD
ATOM     36  C   UNL A   1      42.976  30.722  30.154  1.00  0.00     0.074 A 
ATOM     37  C   UNL A   1      41.842  31.613  30.298  1.00  0.00     0.031 C 
ATOM     38  C   UNL A   1      44.258  31.066  30.423  1.00  0.00     0.037 A 
BRANCH  25  39
ATOM     39  C   UNL A   1      48.326  26.495  29.580  1.00  0.00     0.057 A 
ATOM     40  C   UNL A   1      49.236  26.663  28.529  1.00  0.00     0.134 A 
ATOM     41  C   UNL A   1      48.802  25.901  30.757  1.00  0.00     0.134 A 
ATOM     42  F   UNL A   1      48.842  27.214  27.371  1.00  0.00    -0.206 F 
ATOM     43  C   UNL A   1      50.561  26.234  28.636  1.00  0.00     0.040 A 
ATOM     44  C   UNL A   1      50.130  25.489  30.884  1.00  0.00     0.040 A 
ATOM     45  F   UNL A   1      47.985  25.716  31.805  1.00  0.00    -0.206 F 
ATOM     46  C   UNL A   1      51.012  25.650  29.817  1.00  0.00     0.006 A 
ENDBRANCH  25  39
BRANCH  26  47
ATOM     47  C   UNL A   1      38.711  29.082  29.057  1.00  0.00     0.057 A 
ATOM     48  C   UNL A   1      37.866  29.019  30.171  1.00  0.00     0.134 A 
ATOM     49  C   UNL A   1      38.167  29.554  27.857  1.00  0.00     0.134 A 
ATOM     50  F   UNL A   1      38.327  28.560  31.343  1.00  0.00    -0.206 F 
ATOM     51  C   UNL A   1      36.528  29.408  30.093  1.00  0.00     0.040 A 
ATOM     52  C   UNL A   1      36.838  29.967  27.770  1.00  0.00     0.040 A 
ATOM     53  F   UNL A   1      38.931  29.644  26.758  1.00  0.00    -0.206 F 
ATOM     54  C   UNL A   1      36.013  29.891  28.891  1.00  0.00     0.006 A 
ENDBRANCH  26  47
BRANCH  38  55
ATOM     55  C   UNL A   1      44.502  32.476  30.868  1.00  0.00     0.057 A 
ATOM     56  C   UNL A   1      44.519  32.829  32.223  1.00  0.00     0.134 A 
ATOM     57  C   UNL A   1      44.741  33.489  29.930  1.00  0.00     0.134 A 
ATOM     58  F   UNL A   1      44.282  31.908  33.169  1.00  0.00    -0.206 F 
ATOM     59  C   UNL A   1      44.741  34.146  32.629  1.00  0.00     0.040 A 
ATOM     60  C   UNL A   1      44.986  34.804  30.325  1.00  0.00     0.040 A 
ATOM     61  F   UNL A   1      44.744  33.213  28.617  1.00  0.00    -0.206 F 
ATOM     62  C   UNL A   1      44.980  35.137  31.678  1.00  0.00     0.006 A 
ENDBRANCH  38  55
ENDBRANCH  12  13
ENDBRANCH   5   7
ENDBRANCH   2   3
ENDBRANCH   1   2
BRANCH   1  63
ATOM     63  C   UNL A   1      36.471  21.132  24.733  1.00  0.00     0.023 C 
BRANCH  63  64
ATOM     64  C   UNL A   1      35.582  21.474  25.924  1.00  0.00     0.116 C 
BRANCH  64  65
ATOM     65  N   UNL A   1      34.278  20.836  25.889  1.00  0.00    -0.354 N 
ATOM     66  C   UNL A   1      33.146  21.148  25.187  1.00  0.00     0.247 C 
ATOM     67  H   UNL A   1      34.196  20.044  26.467  1.00  0.00     0.163 HD
ATOM     68  O   UNL A   1      32.295  20.250  25.137  1.00  0.00    -0.273 OA
BRANCH  66  69
ATOM     69  C   UNL A   1      32.901  22.548  24.556  1.00  0.00     0.161 C 
ATOM     70  Cl  UNL A   1      34.182  22.811  23.277  1.00  0.00    -0.102 Cl
ATOM     71  C   UNL A   1      31.616  22.563  23.738  1.00  0.00     0.008 C 
ATOM     72  C   UNL A   1      32.936  23.687  25.625  1.00  0.00     0.146 C 
ATOM     73  C   UNL A   1      30.881  23.675  23.591  1.00  0.00    -0.002 C 
ATOM     74  C   UNL A   1      32.183  24.948  25.209  1.00  0.00    -0.020 C 
ATOM     75  Cl  UNL A   1      32.195  23.169  27.204  1.00  0.00    -0.115 Cl
ATOM     76  C   UNL A   1      31.262  24.912  24.226  1.00  0.00     0.006 C 
BRANCH  74  77
ATOM     77  C   UNL A   1      32.430  26.205  25.950  1.00  0.00    -0.021 A 
ATOM     78  C   UNL A   1      33.678  26.840  25.833  1.00  0.00     0.008 A 
ATOM     79  C   UNL A   1      31.433  26.826  26.711  1.00  0.00     0.008 A 
ATOM     80  C   UNL A   1      33.925  28.060  26.463  1.00  0.00     0.001 A 
ATOM     81  C   UNL A   1      31.681  28.051  27.341  1.00  0.00     0.001 A 
ATOM     82  C   UNL A   1      32.925  28.666  27.216  1.00  0.00     0.000 A 
ENDBRANCH  74  77
ENDBRANCH  66  69
ENDBRANCH  64  65
ENDBRANCH  63  64
ENDBRANCH   1  63
TORSDOF 12
ENDMDL
MODEL 2
REMARK VINA RESULT:     -12.0      1.438      3.075
REMARK SMILES O=C(NCCCCNC(=O)[C@@]1(Cl)C=CC=C(c2ccccc2)[C@H]1Cl)c1ccc(-c2c3nc(c(-c4c(F)cccc4F)c4ccc([nH]4)c(-c4c(F)cccc4F)c4nc(c(-c5c(F)cccc5F)c5ccc2[nH]5)C=C4)C=C3)cc1
REMARK SMILES IDX 5 1 4 2 3 3 1 4 2 5 25 7 26 8 78 9 27 10 77 11 28 12 29 13
REMARK SMILES IDX 30 14 71 15 31 16 76 17 70 18 72 19 32 20 75 21 69 22 68 23
REMARK SMILES IDX 33 25 59 26 42 27 58 28 43 29 46 30 57 31 73 32 44 33 45 34
REMARK SMILES IDX 56 36 74 37 47 38 34 39 35 40 40 41 36 42 37 43 39 44 41 45
REMARK SMILES IDX 38 46 60 47 61 48 66 49 62 50 63 51 65 52 67 53 64 54 48 55
REMARK SMILES IDX 49 56 54 57 50 58 51 59 53 60 55 61 52 62 6 63 7 64 8 65
REMARK SMILES IDX 9 66 10 68 11 69 12 70 13 71 23 72 14 73 16 74 24 75 15 76
REMARK SMILES IDX 17 77 18 78 22 79 19 80 21 81 20 82
REMARK H PARENT 3 6 72 24 46 35 8 67
REMARK Flexibility Score: inf
ROOT
ATOM      1  C   UNL A   1      37.799  20.738  24.802  1.00  0.00     0.023 C 
ENDROOT
BRANCH   1   2
ATOM      2  C   UNL A   1      38.618  20.414  26.046  1.00  0.00     0.116 C 
BRANCH   2   3
ATOM      3  N   UNL A   1      39.721  19.499  25.800  1.00  0.00    -0.352 N 
ATOM      4  O   UNL A   1      41.853  18.790  25.634  1.00  0.00    -0.269 OA
ATOM      5  C   UNL A   1      41.073  19.668  25.988  1.00  0.00     0.251 C 
ATOM      6  H   UNL A   1      39.459  18.620  25.443  1.00  0.00     0.163 HD
BRANCH   5   7
ATOM      7  C   UNL A   1      41.596  20.922  26.573  1.00  0.00     0.039 A 
ATOM      8  C   UNL A   1      41.676  21.099  27.955  1.00  0.00     0.014 A 
ATOM      9  C   UNL A   1      42.004  21.947  25.714  1.00  0.00     0.014 A 
ATOM     10  C   UNL A   1      41.978  22.355  28.472  1.00  0.00     0.010 A 
ATOM     11  C   UNL A   1      42.399  23.182  26.239  1.00  0.00     0.010 A 
ATOM     12  C   UNL A   1      42.337  23.413  27.621  1.00  0.00    -0.014 A 
BRANCH  12  13
ATOM     13  C   UNL A   1      42.650  24.744  28.203  1.00  0.00     0.031 A 
ATOM     14  C   UNL A   1      44.067  25.136  28.525  1.00  0.00     0.074 A 
ATOM     15  C   UNL A   1      41.649  25.622  28.402  1.00  0.00     0.049 A 
ATOM     16  N   UNL A   1      44.522  26.269  28.999  1.00  0.00    -0.248 NA
ATOM     17  C   UNL A   1      45.110  24.124  28.292  1.00  0.00     0.031 C 
ATOM     18  C   UNL A   1      40.234  25.359  28.137  1.00  0.00     0.029 A 
ATOM     19  N   UNL A   1      41.669  26.920  28.845  1.00  0.00    -0.354 N 
ATOM     20  C   UNL A   1      45.893  26.098  29.149  1.00  0.00     0.074 A 
ATOM     21  C   UNL A   1      46.195  24.746  28.735  1.00  0.00     0.031 C 
ATOM     22  C   UNL A   1      39.529  26.477  28.365  1.00  0.00     0.029 A 
ATOM     23  C   UNL A   1      40.433  27.517  28.845  1.00  0.00     0.049 A 
ATOM     24  H   UNL A   1      42.490  27.378  29.136  1.00  0.00     0.167 HD
ATOM     25  C   UNL A   1      46.815  26.990  29.588  1.00  0.00     0.037 A 
ATOM     26  C   UNL A   1      40.065  28.763  29.194  1.00  0.00     0.037 A 
ATOM     27  C   UNL A   1      46.519  28.346  29.969  1.00  0.00     0.049 A 
ATOM     28  C   UNL A   1      41.106  29.730  29.672  1.00  0.00     0.074 A 
ATOM     29  C   UNL A   1      47.394  29.338  30.382  1.00  0.00     0.029 A 
ATOM     30  N   UNL A   1      45.250  28.904  29.982  1.00  0.00    -0.354 N 
ATOM     31  N   UNL A   1      42.400  29.560  29.784  1.00  0.00    -0.248 NA
ATOM     32  C   UNL A   1      40.633  31.060  30.077  1.00  0.00     0.031 C 
ATOM     33  C   UNL A   1      46.648  30.484  30.680  1.00  0.00     0.029 A 
ATOM     34  C   UNL A   1      45.315  30.220  30.414  1.00  0.00     0.049 A 
ATOM     35  H   UNL A   1      44.424  28.435  29.723  1.00  0.00     0.167 HD
ATOM     36  C   UNL A   1      42.901  30.766  30.254  1.00  0.00     0.074 A 
ATOM     37  C   UNL A   1      41.771  31.662  30.394  1.00  0.00     0.031 C 
ATOM     38  C   UNL A   1      44.182  31.099  30.544  1.00  0.00     0.037 A 
BRANCH  25  39
ATOM     39  C   UNL A   1      48.236  26.516  29.697  1.00  0.00     0.057 A 
ATOM     40  C   UNL A   1      49.166  26.710  28.669  1.00  0.00     0.134 A 
ATOM     41  C   UNL A   1      48.686  25.886  30.865  1.00  0.00     0.134 A 
ATOM     42  F   UNL A   1      48.796  27.296  27.520  1.00  0.00    -0.206 F 
ATOM     43  C   UNL A   1      50.487  26.272  28.787  1.00  0.00     0.040 A 
ATOM     44  C   UNL A   1      50.010  25.465  31.005  1.00  0.00     0.040 A 
ATOM     45  F   UNL A   1      47.849  25.676  31.892  1.00  0.00    -0.206 F 
ATOM     46  C   UNL A   1      50.913  25.652  29.960  1.00  0.00     0.006 A 
ENDBRANCH  25  39
BRANCH  26  47
ATOM     47  C   UNL A   1      38.643  29.165  29.078  1.00  0.00     0.057 A 
ATOM     48  C   UNL A   1      37.788  29.117  30.185  1.00  0.00     0.134 A 
ATOM     49  C   UNL A   1      38.112  29.632  27.869  1.00  0.00     0.134 A 
ATOM     50  F   UNL A   1      38.238  28.664  31.364  1.00  0.00    -0.206 F 
ATOM     51  C   UNL A   1      36.454  29.515  30.094  1.00  0.00     0.040 A 
ATOM     52  C   UNL A   1      36.787  30.054  27.769  1.00  0.00     0.040 A 
ATOM     53  F   UNL A   1      38.885  29.708  26.776  1.00  0.00    -0.206 F 
ATOM     54  C   UNL A   1      35.953  29.992  28.884  1.00  0.00     0.006 A 
ENDBRANCH  26  47
BRANCH  38  55
ATOM     55  C   UNL A   1      44.428  32.502  31.012  1.00  0.00     0.057 A 
ATOM     56  C   UNL A   1      44.412  32.840  32.370  1.00  0.00     0.134 A 
ATOM     57  C   UNL A   1      44.701  33.522  30.092  1.00  0.00     0.134 A 
ATOM     58  F   UNL A   1      44.140  31.912  33.299  1.00  0.00    -0.206 F 
ATOM     59  C   UNL A   1      44.635  34.150  32.797  1.00  0.00     0.040 A 
ATOM     60  C   UNL A   1      44.949  34.831  30.507  1.00  0.00     0.040 A 
ATOM     61  F   UNL A   1      44.737  33.261  28.776  1.00  0.00    -0.206 F 
ATOM     62  C   UNL A   1      44.909  35.149  31.863  1.00  0.00     0.006 A 
ENDBRANCH  38  55
ENDBRANCH  12  13
ENDBRANCH   5   7
ENDBRANCH   2   3
ENDBRANCH   1   2
BRANCH   1  63
ATOM     63  C   UNL A   1      37.532  22.217  24.535  1.00  0.00     0.023 C 
BRANCH  63  64
ATOM     64  C   UNL A   1      37.167  23.071  25.745  1.00  0.00     0.116 C 
BRANCH  64  65
ATOM     65  N   UNL A   1      36.243  24.150  25.447  1.00  0.00    -0.354 N 
ATOM     66  C   UNL A   1      34.900  24.270  25.681  1.00  0.00     0.247 C 
ATOM     67  H   UNL A   1      36.652  24.928  25.003  1.00  0.00     0.163 HD
ATOM     68  O   UNL A   1      34.452  25.421  25.585  1.00  0.00    -0.273 OA
BRANCH  66  69
ATOM     69  C   UNL A   1      33.980  23.052  25.972  1.00  0.00     0.161 C 
ATOM     70  Cl  UNL A   1      34.397  22.430  27.643  1.00  0.00    -0.102 Cl
ATOM     71  C   UNL A   1      32.530  23.488  26.140  1.00  0.00     0.008 C 
ATOM     72  C   UNL A   1      34.140  21.926  24.902  1.00  0.00     0.146 C 
ATOM     73  C   UNL A   1      31.505  22.684  25.821  1.00  0.00    -0.002 C 
ATOM     74  C   UNL A   1      32.934  20.997  24.796  1.00  0.00    -0.020 C 
ATOM     75  Cl  UNL A   1      34.389  22.601  23.229  1.00  0.00    -0.115 Cl
ATOM     76  C   UNL A   1      31.730  21.368  25.276  1.00  0.00     0.006 C 
BRANCH  74  77
ATOM     77  C   UNL A   1      33.087  19.703  24.096  1.00  0.00    -0.021 A 
ATOM     78  C   UNL A   1      34.060  18.790  24.539  1.00  0.00     0.008 A 
ATOM     79  C   UNL A   1      32.244  19.322  23.045  1.00  0.00     0.008 A 
ATOM     80  C   UNL A   1      34.189  17.534  23.946  1.00  0.00     0.001 A 
ATOM     81  C   UNL A   1      32.373  18.061  22.452  1.00  0.00     0.001 A 
ATOM     82  C   UNL A   1      33.344  17.169  22.904  1.00  0.00     0.000 A 
ENDBRANCH  74  77
ENDBRANCH  66  69
ENDBRANCH  64  65
ENDBRANCH  63  64
ENDBRANCH   1  63
TORSDOF 12
ENDMDL
MODEL 3
REMARK VINA RESULT:     -11.9      4.219      8.972
REMARK SMILES O=C(NCCCCNC(=O)[C@@]1(Cl)C=CC=C(c2ccccc2)[C@H]1Cl)c1ccc(-c2c3nc(c(-c4c(F)cccc4F)c4ccc([nH]4)c(-c4c(F)cccc4F)c4nc(c(-c5c(F)cccc5F)c5ccc2[nH]5)C=C4)C=C3)cc1
REMARK SMILES IDX 5 1 4 2 3 3 1 4 2 5 25 7 26 8 78 9 27 10 77 11 28 12 29 13
REMARK SMILES IDX 30 14 71 15 31 16 76 17 70 18 72 19 32 20 75 21 69 22 68 23
REMARK SMILES IDX 33 25 59 26 42 27 58 28 43 29 46 30 57 31 73 32 44 33 45 34
REMARK SMILES IDX 56 36 74 37 47 38 34 39 35 40 40 41 36 42 37 43 39 44 41 45
REMARK SMILES IDX 38 46 60 47 61 48 66 49 62 50 63 51 65 52 67 53 64 54 48 55
REMARK SMILES IDX 49 56 54 57 50 58 51 59 53 60 55 61 52 62 6 63 7 64 8 65
REMARK SMILES IDX 9 66 10 68 11 69 12 70 13 71 23 72 14 73 16 74 24 75 15 76
REMARK SMILES IDX 17 77 18 78 22 79 19 80 21 81 20 82
REMARK H PARENT 3 6 72 24 46 35 8 67
REMARK Flexibility Score: inf
ROOT
ATOM      1  C   UNL A   1      31.664  31.656  26.533  1.00  0.00     0.023 C 
ENDROOT
BRANCH   1   2
ATOM      2  C   UNL A   1      32.863  32.425  27.076  1.00  0.00     0.116 C 
BRANCH   2   3
ATOM      3  N   UNL A   1      32.523  33.728  27.626  1.00  0.00    -0.352 N 
ATOM      4  O   UNL A   1      32.662  35.533  28.967  1.00  0.00    -0.269 OA
ATOM      5  C   UNL A   1      33.167  34.484  28.577  1.00  0.00     0.251 C 
ATOM      6  H   UNL A   1      31.704  34.132  27.260  1.00  0.00     0.163 HD
BRANCH   5   7
ATOM      7  C   UNL A   1      34.441  34.019  29.168  1.00  0.00     0.039 A 
ATOM      8  C   UNL A   1      35.671  34.411  28.638  1.00  0.00     0.014 A 
ATOM      9  C   UNL A   1      34.398  33.160  30.271  1.00  0.00     0.014 A 
ATOM     10  C   UNL A   1      36.839  33.800  29.083  1.00  0.00     0.010 A 
ATOM     11  C   UNL A   1      35.583  32.618  30.779  1.00  0.00     0.010 A 
ATOM     12  C   UNL A   1      36.809  32.892  30.155  1.00  0.00    -0.014 A 
BRANCH  12  13
ATOM     13  C   UNL A   1      38.072  32.252  30.604  1.00  0.00     0.031 A 
ATOM     14  C   UNL A   1      38.843  32.798  31.776  1.00  0.00     0.074 A 
ATOM     15  C   UNL A   1      38.504  31.142  29.976  1.00  0.00     0.049 A 
ATOM     16  N   UNL A   1      39.941  32.341  32.326  1.00  0.00    -0.248 NA
ATOM     17  C   UNL A   1      38.321  34.019  32.410  1.00  0.00     0.031 C 
ATOM     18  C   UNL A   1      37.849  30.520  28.824  1.00  0.00     0.029 A 
ATOM     19  N   UNL A   1      39.575  30.325  30.232  1.00  0.00    -0.354 N 
ATOM     20  C   UNL A   1      40.257  33.230  33.346  1.00  0.00     0.074 A 
ATOM     21  C   UNL A   1      39.247  34.265  33.329  1.00  0.00     0.031 C 
ATOM     22  C   UNL A   1      38.496  29.388  28.510  1.00  0.00     0.029 A 
ATOM     23  C   UNL A   1      39.641  29.235  29.400  1.00  0.00     0.049 A 
ATOM     24  H   UNL A   1      40.232  30.504  30.942  1.00  0.00     0.167 HD
ATOM     25  C   UNL A   1      41.291  33.184  34.221  1.00  0.00     0.037 A 
ATOM     26  C   UNL A   1      40.527  28.223  29.356  1.00  0.00     0.037 A 
ATOM     27  C   UNL A   1      42.279  32.137  34.260  1.00  0.00     0.049 A 
ATOM     28  C   UNL A   1      41.660  28.195  30.338  1.00  0.00     0.074 A 
ATOM     29  C   UNL A   1      43.337  31.980  35.139  1.00  0.00     0.029 A 
ATOM     30  N   UNL A   1      42.328  31.065  33.382  1.00  0.00    -0.354 N 
ATOM     31  N   UNL A   1      41.929  29.029  31.311  1.00  0.00    -0.248 NA
ATOM     32  C   UNL A   1      42.615  27.087  30.209  1.00  0.00     0.031 C 
ATOM     33  C   UNL A   1      44.048  30.833  34.769  1.00  0.00     0.029 A 
ATOM     34  C   UNL A   1      43.409  30.253  33.686  1.00  0.00     0.049 A 
ATOM     35  H   UNL A   1      41.689  30.904  32.650  1.00  0.00     0.167 HD
ATOM     36  C   UNL A   1      43.073  28.539  31.926  1.00  0.00     0.074 A 
ATOM     37  C   UNL A   1      43.438  27.326  31.221  1.00  0.00     0.031 C 
ATOM     38  C   UNL A   1      43.757  29.048  32.977  1.00  0.00     0.037 A 
BRANCH  25  39
ATOM     39  C   UNL A   1      41.420  34.316  35.199  1.00  0.00     0.057 A 
ATOM     40  C   UNL A   1      42.108  35.495  34.887  1.00  0.00     0.134 A 
ATOM     41  C   UNL A   1      40.817  34.235  36.462  1.00  0.00     0.134 A 
ATOM     42  F   UNL A   1      42.717  35.632  33.700  1.00  0.00    -0.206 F 
ATOM     43  C   UNL A   1      42.212  36.543  35.804  1.00  0.00     0.040 A 
ATOM     44  C   UNL A   1      40.895  35.285  37.378  1.00  0.00     0.040 A 
ATOM     45  F   UNL A   1      40.137  33.137  36.823  1.00  0.00    -0.206 F 
ATOM     46  C   UNL A   1      41.601  36.442  37.052  1.00  0.00     0.006 A 
ENDBRANCH  25  39
BRANCH  26  47
ATOM     47  C   UNL A   1      40.354  27.143  28.355  1.00  0.00     0.057 A 
ATOM     48  C   UNL A   1      39.524  26.047  28.615  1.00  0.00     0.134 A 
ATOM     49  C   UNL A   1      40.990  27.194  27.110  1.00  0.00     0.134 A 
ATOM     50  F   UNL A   1      38.901  25.938  29.797  1.00  0.00    -0.206 F 
ATOM     51  C   UNL A   1      39.336  25.036  27.672  1.00  0.00     0.040 A 
ATOM     52  C   UNL A   1      40.794  26.202  26.149  1.00  0.00     0.040 A 
ATOM     53  F   UNL A   1      41.792  28.224  26.801  1.00  0.00    -0.206 F 
ATOM     54  C   UNL A   1      39.967  25.116  26.432  1.00  0.00     0.006 A 
ENDBRANCH  26  47
BRANCH  38  55
ATOM     55  C   UNL A   1      44.953  28.275  33.446  1.00  0.00     0.057 A 
ATOM     56  C   UNL A   1      46.240  28.543  32.965  1.00  0.00     0.134 A 
ATOM     57  C   UNL A   1      44.816  27.262  34.404  1.00  0.00     0.134 A 
ATOM     58  F   UNL A   1      46.434  29.490  32.035  1.00  0.00    -0.206 F 
ATOM     59  C   UNL A   1      47.347  27.813  33.401  1.00  0.00     0.040 A 
ATOM     60  C   UNL A   1      45.918  26.541  34.865  1.00  0.00     0.040 A 
ATOM     61  F   UNL A   1      43.610  26.961  34.909  1.00  0.00    -0.206 F 
ATOM     62  C   UNL A   1      47.187  26.812  34.358  1.00  0.00     0.006 A 
ENDBRANCH  38  55
ENDBRANCH  12  13
ENDBRANCH   5   7
ENDBRANCH   2   3
ENDBRANCH   1   2
BRANCH   1  63
ATOM     63  C   UNL A   1      31.780  30.134  26.535  1.00  0.00     0.023 C 
BRANCH  63  64
ATOM     64  C   UNL A   1      32.601  29.513  25.410  1.00  0.00     0.116 C 
BRANCH  64  65
ATOM     65  N   UNL A   1      31.859  29.318  24.178  1.00  0.00    -0.354 N 
ATOM     66  C   UNL A   1      31.196  28.223  23.693  1.00  0.00     0.247 C 
ATOM     67  H   UNL A   1      31.826  30.108  23.591  1.00  0.00     0.163 HD
ATOM     68  O   UNL A   1      30.413  28.453  22.762  1.00  0.00    -0.273 OA
BRANCH  66  69
ATOM     69  C   UNL A   1      31.451  26.781  24.215  1.00  0.00     0.161 C 
ATOM     70  Cl  UNL A   1      30.996  26.744  25.987  1.00  0.00    -0.102 Cl
ATOM     71  C   UNL A   1      30.463  25.795  23.605  1.00  0.00     0.008 C 
ATOM     72  C   UNL A   1      32.935  26.337  24.010  1.00  0.00     0.146 C 
ATOM     73  C   UNL A   1      30.780  24.509  23.400  1.00  0.00    -0.002 C 
ATOM     74  C   UNL A   1      33.127  24.823  23.971  1.00  0.00    -0.020 C 
ATOM     75  Cl  UNL A   1      33.628  26.962  22.447  1.00  0.00    -0.115 Cl
ATOM     76  C   UNL A   1      32.089  23.999  23.726  1.00  0.00     0.006 C 
BRANCH  74  77
ATOM     77  C   UNL A   1      34.489  24.271  24.139  1.00  0.00    -0.021 A 
ATOM     78  C   UNL A   1      35.157  24.446  25.364  1.00  0.00     0.008 A 
ATOM     79  C   UNL A   1      35.113  23.513  23.141  1.00  0.00     0.008 A 
ATOM     80  C   UNL A   1      36.415  23.883  25.582  1.00  0.00     0.001 A 
ATOM     81  C   UNL A   1      36.373  22.947  23.362  1.00  0.00     0.001 A 
ATOM     82  C   UNL A   1      37.022  23.132  24.581  1.00  0.00     0.000 A 
ENDBRANCH  74  77
ENDBRANCH  66  69
ENDBRANCH  64  65
ENDBRANCH  63  64
ENDBRANCH   1  63
TORSDOF 12
ENDMDL
