MODEL 1
REMARK VINA RESULT:     -12.2      0.000      0.000
REMARK SMILES COc1cccc(CC2(CO)CCN(c3nc(C)ccc3C(=O)NCCCCNC(=O)c3ccc(-c4c5nc(c(-c6c(F)cccc6F)c6ccc([nH]6)c(-c6c(F)cccc6F)c6nc(c(-c7c(F)cccc7F)c7ccc4[nH]7)C=C6)C=C5)cc3)CC2)c1
REMARK SMILES IDX 25 1 24 2 22 3 23 4 21 6 15 7 16 8 17 9 20 10 18 11 19 12
REMARK SMILES IDX 14 13 9 14 12 15 87 16 13 17 86 18 8 19 7 20 3 21 4 22 88 23
REMARK SMILES IDX 5 24 6 25 2 26 1 27 10 28 11 29 26 31 27 32 28 33 29 34
REMARK SMILES IDX 30 35 31 37 32 38 33 39 85 40 34 41 84 42 35 43 36 44 37 45
REMARK SMILES IDX 78 46 38 47 83 48 77 49 79 50 39 51 82 52 76 53 75 54 40 56
REMARK SMILES IDX 66 57 49 58 65 59 50 60 53 61 64 62 80 63 51 64 52 65 63 67
REMARK SMILES IDX 81 68 54 69 41 70 42 71 47 72 43 73 44 74 46 75 48 76 45 77
REMARK SMILES IDX 67 78 68 79 73 80 69 81 70 82 72 83 74 84 71 85 55 86 56 87
REMARK SMILES IDX 61 88 57 89 58 90 60 91 62 92 59 93
REMARK H PARENT 24 5 11 30 29 36 79 55 53 66
REMARK Flexibility Score: inf
ROOT
ATOM      1  C   UNL A   1      33.473  29.529  26.274  1.00  0.00     0.116 C 
ENDROOT
BRANCH   1   2
ATOM      2  N   UNL A   1      33.650  29.316  24.855  1.00  0.00    -0.352 N 
ATOM      3  C   UNL A   1      32.836  29.052  23.780  1.00  0.00     0.255 C 
ATOM      4  O   UNL A   1      33.482  28.952  22.742  1.00  0.00    -0.269 OA
ATOM      5  H   UNL A   1      34.596  29.373  24.592  1.00  0.00     0.163 HD
BRANCH   3   6
ATOM      6  C   UNL A   1      31.334  28.950  23.811  1.00  0.00     0.082 A 
ATOM      7  C   UNL A   1      30.651  27.750  24.120  1.00  0.00     0.141 A 
ATOM      8  N   UNL A   1      29.319  27.619  23.842  1.00  0.00    -0.235 NA
ATOM      9  C   UNL A   1      28.609  28.657  23.359  1.00  0.00     0.040 A 
ATOM     10  C   UNL A   1      30.537  30.041  23.433  1.00  0.00     0.019 A 
ATOM     11  C   UNL A   1      27.163  28.406  23.057  1.00  0.00     0.067 C 
ATOM     12  C   UNL A   1      29.173  29.901  23.192  1.00  0.00     0.024 A 
BRANCH   7  13
ATOM     13  N   UNL A   1      31.154  26.635  24.756  1.00  0.00    -0.356 N 
ATOM     14  C   UNL A   1      31.789  24.009  25.914  1.00  0.00     0.001 C 
ATOM     15  C   UNL A   1      31.779  24.279  24.386  1.00  0.00     0.031 C 
ATOM     16  C   UNL A   1      30.932  25.081  26.634  1.00  0.00     0.031 C 
ATOM     17  C   UNL A   1      31.959  25.735  23.949  1.00  0.00     0.119 C 
ATOM     18  C   UNL A   1      31.217  26.515  26.201  1.00  0.00     0.119 C 
BRANCH  14  19
ATOM     19  C   UNL A   1      33.236  23.846  26.505  1.00  0.00     0.045 C 
BRANCH  19  20
ATOM     20  C   UNL A   1      34.317  23.147  25.715  1.00  0.00    -0.044 A 
ATOM     21  C   UNL A   1      35.432  21.107  25.000  1.00  0.00     0.119 A 
ATOM     22  C   UNL A   1      36.427  21.859  24.383  1.00  0.00     0.046 A 
ATOM     23  C   UNL A   1      34.385  21.744  25.673  1.00  0.00     0.050 A 
ATOM     24  C   UNL A   1      36.335  23.248  24.363  1.00  0.00     0.004 A 
ATOM     25  C   UNL A   1      35.270  23.886  25.002  1.00  0.00     0.004 A 
BRANCH  21  26
ATOM     26  O   UNL A   1      35.592  19.747  24.986  1.00  0.00    -0.497 OA
ATOM     27  C   UNL A   1      34.395  19.064  24.626  1.00  0.00     0.278 C 
ENDBRANCH  21  26
ENDBRANCH  19  20
ENDBRANCH  14  19
BRANCH  14  28
ATOM     28  C   UNL A   1      31.069  22.648  26.170  1.00  0.00     0.163 C 
BRANCH  28  29
ATOM     29  O   UNL A   1      30.492  22.578  27.469  1.00  0.00    -0.396 OA
ATOM     30  H   UNL A   1      31.121  22.926  28.121  1.00  0.00     0.210 HD
ENDBRANCH  28  29
ENDBRANCH  14  28
ENDBRANCH   7  13
ENDBRANCH   3   6
ENDBRANCH   1   2
BRANCH   1  31
ATOM     31  C   UNL A   1      32.034  29.951  26.575  1.00  0.00     0.023 C 
BRANCH  31  32
ATOM     32  C   UNL A   1      31.815  31.470  26.594  1.00  0.00     0.023 C 
BRANCH  32  33
ATOM     33  C   UNL A   1      32.864  32.275  27.357  1.00  0.00     0.116 C 
BRANCH  33  34
ATOM     34  N   UNL A   1      32.489  33.669  27.552  1.00  0.00    -0.352 N 
ATOM     35  C   UNL A   1      33.040  34.600  28.399  1.00  0.00     0.251 C 
ATOM     36  H   UNL A   1      31.737  33.987  27.002  1.00  0.00     0.163 HD
ATOM     37  O   UNL A   1      32.544  35.711  28.514  1.00  0.00    -0.269 OA
BRANCH  35  38
ATOM     38  C   UNL A   1      34.219  34.225  29.203  1.00  0.00     0.039 A 
ATOM     39  C   UNL A   1      34.025  33.503  30.382  1.00  0.00     0.014 A 
ATOM     40  C   UNL A   1      35.507  34.537  28.758  1.00  0.00     0.014 A 
ATOM     41  C   UNL A   1      35.133  33.012  31.075  1.00  0.00     0.010 A 
ATOM     42  C   UNL A   1      36.607  34.004  29.422  1.00  0.00     0.010 A 
ATOM     43  C   UNL A   1      36.427  33.217  30.572  1.00  0.00    -0.014 A 
BRANCH  43  44
ATOM     44  C   UNL A   1      37.607  32.571  31.191  1.00  0.00     0.031 A 
ATOM     45  C   UNL A   1      38.269  31.403  30.523  1.00  0.00     0.074 A 
ATOM     46  C   UNL A   1      38.015  32.978  32.408  1.00  0.00     0.049 A 
ATOM     47  N   UNL A   1      39.223  30.629  30.970  1.00  0.00    -0.248 NA
ATOM     48  C   UNL A   1      37.774  31.042  29.185  1.00  0.00     0.031 C 
ATOM     49  C   UNL A   1      37.423  34.076  33.177  1.00  0.00     0.029 A 
ATOM     50  N   UNL A   1      39.007  32.499  33.226  1.00  0.00    -0.354 N 
ATOM     51  C   UNL A   1      39.434  29.680  29.978  1.00  0.00     0.074 A 
ATOM     52  C   UNL A   1      38.484  29.954  28.922  1.00  0.00     0.031 C 
ATOM     53  C   UNL A   1      38.067  34.189  34.349  1.00  0.00     0.029 A 
ATOM     54  C   UNL A   1      39.086  33.148  34.434  1.00  0.00     0.049 A 
ATOM     55  H   UNL A   1      39.605  31.759  32.971  1.00  0.00     0.167 HD
ATOM     56  C   UNL A   1      40.348  28.682  29.948  1.00  0.00     0.037 A 
ATOM     57  C   UNL A   1      39.876  32.917  35.499  1.00  0.00     0.037 A 
ATOM     58  C   UNL A   1      41.306  28.428  30.992  1.00  0.00     0.049 A 
ATOM     59  C   UNL A   1      40.865  31.788  35.449  1.00  0.00     0.074 A 
ATOM     60  C   UNL A   1      42.322  27.489  31.019  1.00  0.00     0.029 A 
ATOM     61  N   UNL A   1      41.358  29.112  32.197  1.00  0.00    -0.354 N 
ATOM     62  N   UNL A   1      41.099  30.939  34.478  1.00  0.00    -0.248 NA
ATOM     63  C   UNL A   1      41.694  31.579  36.644  1.00  0.00     0.031 C 
ATOM     64  C   UNL A   1      42.966  27.578  32.259  1.00  0.00     0.029 A 
ATOM     65  C   UNL A   1      42.373  28.596  32.987  1.00  0.00     0.049 A 
ATOM     66  H   UNL A   1      40.764  29.853  32.453  1.00  0.00     0.167 HD
ATOM     67  C   UNL A   1      42.110  30.107  34.936  1.00  0.00     0.074 A 
ATOM     68  C   UNL A   1      42.457  30.562  36.268  1.00  0.00     0.031 C 
ATOM     69  C   UNL A   1      42.699  29.058  34.312  1.00  0.00     0.037 A 
BRANCH  56  70
ATOM     70  C   UNL A   1      40.356  27.791  28.743  1.00  0.00     0.057 A 
ATOM     71  C   UNL A   1      41.104  28.103  27.601  1.00  0.00     0.134 A 
ATOM     72  C   UNL A   1      39.636  26.589  28.737  1.00  0.00     0.134 A 
ATOM     73  F   UNL A   1      41.805  29.246  27.540  1.00  0.00    -0.206 F 
ATOM     74  C   UNL A   1      41.119  27.264  26.486  1.00  0.00     0.040 A 
ATOM     75  C   UNL A   1      39.662  25.731  27.637  1.00  0.00     0.040 A 
ATOM     76  F   UNL A   1      38.903  26.229  29.801  1.00  0.00    -0.206 F 
ATOM     77  C   UNL A   1      40.400  26.070  26.506  1.00  0.00     0.006 A 
ENDBRANCH  56  70
BRANCH  57  78
ATOM     78  C   UNL A   1      39.765  33.774  36.704  1.00  0.00     0.057 A 
ATOM     79  C   UNL A   1      40.543  34.928  36.841  1.00  0.00     0.134 A 
ATOM     80  C   UNL A   1      38.882  33.462  37.745  1.00  0.00     0.134 A 
ATOM     81  F   UNL A   1      41.420  35.267  35.885  1.00  0.00    -0.206 F 
ATOM     82  C   UNL A   1      40.458  35.736  37.976  1.00  0.00     0.040 A 
ATOM     83  C   UNL A   1      38.772  34.271  38.877  1.00  0.00     0.040 A 
ATOM     84  F   UNL A   1      38.105  32.370  37.671  1.00  0.00    -0.206 F 
ATOM     85  C   UNL A   1      39.566  35.410  38.996  1.00  0.00     0.006 A 
ENDBRANCH  57  78
BRANCH  69  86
ATOM     86  C   UNL A   1      43.784  28.340  35.057  1.00  0.00     0.057 A 
ATOM     87  C   UNL A   1      45.118  28.758  34.988  1.00  0.00     0.134 A 
ATOM     88  C   UNL A   1      43.484  27.252  35.885  1.00  0.00     0.134 A 
ATOM     89  F   UNL A   1      45.471  29.784  34.200  1.00  0.00    -0.206 F 
ATOM     90  C   UNL A   1      46.121  28.107  35.709  1.00  0.00     0.040 A 
ATOM     91  C   UNL A   1      44.474  26.608  36.627  1.00  0.00     0.040 A 
ATOM     92  F   UNL A   1      42.223  26.809  35.997  1.00  0.00    -0.206 F 
ATOM     93  C   UNL A   1      45.798  27.034  36.538  1.00  0.00     0.006 A 
ENDBRANCH  69  86
ENDBRANCH  43  44
ENDBRANCH  35  38
ENDBRANCH  33  34
ENDBRANCH  32  33
ENDBRANCH  31  32
ENDBRANCH   1  31
TORSDOF 17
ENDMDL
MODEL 2
REMARK VINA RESULT:     -12.1      4.669      9.816
REMARK SMILES COc1cccc(CC2(CO)CCN(c3nc(C)ccc3C(=O)NCCCCNC(=O)c3ccc(-c4c5nc(c(-c6c(F)cccc6F)c6ccc([nH]6)c(-c6c(F)cccc6F)c6nc(c(-c7c(F)cccc7F)c7ccc4[nH]7)C=C6)C=C5)cc3)CC2)c1
REMARK SMILES IDX 25 1 24 2 22 3 23 4 21 6 15 7 16 8 17 9 20 10 18 11 19 12
REMARK SMILES IDX 14 13 9 14 12 15 87 16 13 17 86 18 8 19 7 20 3 21 4 22 88 23
REMARK SMILES IDX 5 24 6 25 2 26 1 27 10 28 11 29 26 31 27 32 28 33 29 34
REMARK SMILES IDX 30 35 31 37 32 38 33 39 85 40 34 41 84 42 35 43 36 44 37 45
REMARK SMILES IDX 78 46 38 47 83 48 77 49 79 50 39 51 82 52 76 53 75 54 40 56
REMARK SMILES IDX 66 57 49 58 65 59 50 60 53 61 64 62 80 63 51 64 52 65 63 67
REMARK SMILES IDX 81 68 54 69 41 70 42 71 47 72 43 73 44 74 46 75 48 76 45 77
REMARK SMILES IDX 67 78 68 79 73 80 69 81 70 82 72 83 74 84 71 85 55 86 56 87
REMARK SMILES IDX 61 88 57 89 58 90 60 91 62 92 59 93
REMARK H PARENT 24 5 11 30 29 36 79 55 53 66
REMARK Flexibility Score: inf
ROOT
ATOM      1  C   UNL A   1      36.740  23.559  25.421  1.00  0.00     0.116 C 
ENDROOT
BRANCH   1   2
ATOM      2  N   UNL A   1      35.823  23.111  26.446  1.00  0.00    -0.352 N 
ATOM      3  C   UNL A   1      34.776  22.224  26.525  1.00  0.00     0.255 C 
ATOM      4  O   UNL A   1      34.299  22.194  27.656  1.00  0.00    -0.269 OA
ATOM      5  H   UNL A   1      35.993  23.555  27.307  1.00  0.00     0.163 HD
BRANCH   3   6
ATOM      6  C   UNL A   1      34.280  21.338  25.415  1.00  0.00     0.082 A 
ATOM      7  C   UNL A   1      33.499  21.819  24.338  1.00  0.00     0.141 A 
ATOM      8  N   UNL A   1      32.821  20.949  23.529  1.00  0.00    -0.235 NA
ATOM      9  C   UNL A   1      32.959  19.617  23.679  1.00  0.00     0.040 A 
ATOM     10  C   UNL A   1      34.500  19.953  25.455  1.00  0.00     0.019 A 
ATOM     11  C   UNL A   1      32.153  18.747  22.765  1.00  0.00     0.067 C 
ATOM     12  C   UNL A   1      33.833  19.082  24.598  1.00  0.00     0.024 A 
BRANCH   7  13
ATOM     13  N   UNL A   1      33.353  23.125  23.920  1.00  0.00    -0.356 N 
ATOM     14  C   UNL A   1      32.555  25.750  22.867  1.00  0.00     0.001 C 
ATOM     15  C   UNL A   1      31.872  25.087  24.092  1.00  0.00     0.031 C 
ATOM     16  C   UNL A   1      33.262  24.662  22.018  1.00  0.00     0.031 C 
ATOM     17  C   UNL A   1      32.689  24.030  24.840  1.00  0.00     0.119 C 
ATOM     18  C   UNL A   1      34.116  23.689  22.822  1.00  0.00     0.119 C 
BRANCH  14  19
ATOM     19  C   UNL A   1      33.481  26.960  23.252  1.00  0.00     0.045 C 
BRANCH  19  20
ATOM     20  C   UNL A   1      33.166  27.819  24.454  1.00  0.00    -0.044 A 
ATOM     21  C   UNL A   1      32.022  29.716  25.459  1.00  0.00     0.119 A 
ATOM     22  C   UNL A   1      32.714  29.511  26.649  1.00  0.00     0.046 A 
ATOM     23  C   UNL A   1      32.251  28.882  24.361  1.00  0.00     0.050 A 
ATOM     24  C   UNL A   1      33.574  28.424  26.773  1.00  0.00     0.004 A 
ATOM     25  C   UNL A   1      33.777  27.567  25.689  1.00  0.00     0.004 A 
BRANCH  21  26
ATOM     26  O   UNL A   1      31.199  30.808  25.407  1.00  0.00    -0.497 OA
ATOM     27  C   UNL A   1      31.403  31.694  26.504  1.00  0.00     0.278 C 
ENDBRANCH  21  26
ENDBRANCH  19  20
ENDBRANCH  14  19
BRANCH  14  28
ATOM     28  C   UNL A   1      31.438  26.343  21.951  1.00  0.00     0.163 C 
BRANCH  28  29
ATOM     29  O   UNL A   1      31.589  25.951  20.591  1.00  0.00    -0.396 OA
ATOM     30  H   UNL A   1      32.420  26.310  20.243  1.00  0.00     0.210 HD
ENDBRANCH  28  29
ENDBRANCH  14  28
ENDBRANCH   7  13
ENDBRANCH   3   6
ENDBRANCH   1   2
BRANCH   1  31
ATOM     31  C   UNL A   1      38.166  23.123  25.754  1.00  0.00     0.023 C 
BRANCH  31  32
ATOM     32  C   UNL A   1      38.485  21.669  25.379  1.00  0.00     0.023 C 
BRANCH  32  33
ATOM     33  C   UNL A   1      39.109  20.827  26.489  1.00  0.00     0.116 C 
BRANCH  33  34
ATOM     34  N   UNL A   1      40.085  19.864  25.999  1.00  0.00    -0.352 N 
ATOM     35  C   UNL A   1      41.450  19.990  25.904  1.00  0.00     0.251 C 
ATOM     36  H   UNL A   1      39.716  19.003  25.693  1.00  0.00     0.163 HD
ATOM     37  O   UNL A   1      42.124  19.117  25.378  1.00  0.00    -0.269 OA
BRANCH  35  38
ATOM     38  C   UNL A   1      42.090  21.220  26.411  1.00  0.00     0.039 A 
ATOM     39  C   UNL A   1      42.448  22.215  25.500  1.00  0.00     0.014 A 
ATOM     40  C   UNL A   1      42.277  21.405  27.784  1.00  0.00     0.014 A 
ATOM     41  C   UNL A   1      42.915  23.442  25.972  1.00  0.00     0.010 A 
ATOM     42  C   UNL A   1      42.694  22.646  28.255  1.00  0.00     0.010 A 
ATOM     43  C   UNL A   1      42.994  23.681  27.354  1.00  0.00    -0.014 A 
BRANCH  43  44
ATOM     44  C   UNL A   1      43.326  25.022  27.887  1.00  0.00     0.031 A 
ATOM     45  C   UNL A   1      42.238  26.006  28.195  1.00  0.00     0.074 A 
ATOM     46  C   UNL A   1      44.620  25.385  27.993  1.00  0.00     0.049 A 
ATOM     47  N   UNL A   1      42.335  27.263  28.542  1.00  0.00    -0.248 NA
ATOM     48  C   UNL A   1      40.855  25.518  28.075  1.00  0.00     0.031 C 
ATOM     49  C   UNL A   1      45.767  24.529  27.680  1.00  0.00     0.029 A 
ATOM     50  N   UNL A   1      45.187  26.576  28.366  1.00  0.00    -0.354 N 
ATOM     51  C   UNL A   1      41.031  27.722  28.666  1.00  0.00     0.074 A 
ATOM     52  C   UNL A   1      40.160  26.618  28.323  1.00  0.00     0.031 C 
ATOM     53  C   UNL A   1      46.899  25.221  27.882  1.00  0.00     0.029 A 
ATOM     54  C   UNL A   1      46.559  26.579  28.295  1.00  0.00     0.049 A 
ATOM     55  H   UNL A   1      44.660  27.356  28.659  1.00  0.00     0.167 HD
ATOM     56  C   UNL A   1      40.602  28.949  29.046  1.00  0.00     0.037 A 
ATOM     57  C   UNL A   1      47.442  27.570  28.517  1.00  0.00     0.037 A 
ATOM     58  C   UNL A   1      41.473  30.036  29.407  1.00  0.00     0.049 A 
ATOM     59  C   UNL A   1      46.939  28.928  28.914  1.00  0.00     0.074 A 
ATOM     60  C   UNL A   1      41.133  31.292  29.879  1.00  0.00     0.029 A 
ATOM     61  N   UNL A   1      42.857  29.998  29.328  1.00  0.00    -0.354 N 
ATOM     62  N   UNL A   1      45.704  29.331  29.091  1.00  0.00    -0.248 NA
ATOM     63  C   UNL A   1      47.949  29.972  29.134  1.00  0.00     0.031 C 
ATOM     64  C   UNL A   1      42.311  32.028  30.049  1.00  0.00     0.029 A 
ATOM     65  C   UNL A   1      43.385  31.218  29.717  1.00  0.00     0.049 A 
ATOM     66  H   UNL A   1      43.385  29.219  29.039  1.00  0.00     0.167 HD
ATOM     67  C   UNL A   1      45.789  30.666  29.458  1.00  0.00     0.074 A 
ATOM     68  C   UNL A   1      47.197  31.003  29.493  1.00  0.00     0.031 C 
ATOM     69  C   UNL A   1      44.789  31.537  29.740  1.00  0.00     0.037 A 
BRANCH  56  70
ATOM     70  C   UNL A   1      39.122  29.178  29.092  1.00  0.00     0.057 A 
ATOM     71  C   UNL A   1      38.394  29.522  27.946  1.00  0.00     0.134 A 
ATOM     72  C   UNL A   1      38.409  29.019  30.288  1.00  0.00     0.134 A 
ATOM     73  F   UNL A   1      39.020  29.701  26.772  1.00  0.00    -0.206 F 
ATOM     74  C   UNL A   1      37.013  29.721  27.990  1.00  0.00     0.040 A 
ATOM     75  C   UNL A   1      37.026  29.193  30.340  1.00  0.00     0.040 A 
ATOM     76  F   UNL A   1      39.046  28.686  31.421  1.00  0.00    -0.206 F 
ATOM     77  C   UNL A   1      36.325  29.550  29.191  1.00  0.00     0.006 A 
ENDBRANCH  56  70
BRANCH  57  78
ATOM     78  C   UNL A   1      48.895  27.314  28.369  1.00  0.00     0.057 A 
ATOM     79  C   UNL A   1      49.665  26.886  29.456  1.00  0.00     0.134 A 
ATOM     80  C   UNL A   1      49.549  27.491  27.143  1.00  0.00     0.134 A 
ATOM     81  F   UNL A   1      49.097  26.718  30.659  1.00  0.00    -0.206 F 
ATOM     82  C   UNL A   1      51.036  26.654  29.334  1.00  0.00     0.040 A 
ATOM     83  C   UNL A   1      50.915  27.243  27.001  1.00  0.00     0.040 A 
ATOM     84  F   UNL A   1      48.864  27.895  26.062  1.00  0.00    -0.206 F 
ATOM     85  C   UNL A   1      51.664  26.829  28.102  1.00  0.00     0.006 A 
ENDBRANCH  57  78
BRANCH  69  86
ATOM     86  C   UNL A   1      45.185  32.931  30.120  1.00  0.00     0.057 A 
ATOM     87  C   UNL A   1      45.269  33.954  29.167  1.00  0.00     0.134 A 
ATOM     88  C   UNL A   1      45.439  33.264  31.456  1.00  0.00     0.134 A 
ATOM     89  F   UNL A   1      45.051  33.694  27.869  1.00  0.00    -0.206 F 
ATOM     90  C   UNL A   1      45.606  35.259  29.530  1.00  0.00     0.040 A 
ATOM     91  C   UNL A   1      45.756  34.569  31.833  1.00  0.00     0.040 A 
ATOM     92  F   UNL A   1      45.369  32.329  32.416  1.00  0.00    -0.206 F 
ATOM     93  C   UNL A   1      45.842  35.571  30.868  1.00  0.00     0.006 A 
ENDBRANCH  69  86
ENDBRANCH  43  44
ENDBRANCH  35  38
ENDBRANCH  33  34
ENDBRANCH  32  33
ENDBRANCH  31  32
ENDBRANCH   1  31
TORSDOF 17
ENDMDL
MODEL 3
REMARK VINA RESULT:     -12.1      4.505      9.823
REMARK SMILES COc1cccc(CC2(CO)CCN(c3nc(C)ccc3C(=O)NCCCCNC(=O)c3ccc(-c4c5nc(c(-c6c(F)cccc6F)c6ccc([nH]6)c(-c6c(F)cccc6F)c6nc(c(-c7c(F)cccc7F)c7ccc4[nH]7)C=C6)C=C5)cc3)CC2)c1
REMARK SMILES IDX 25 1 24 2 22 3 23 4 21 6 15 7 16 8 17 9 20 10 18 11 19 12
REMARK SMILES IDX 14 13 9 14 12 15 87 16 13 17 86 18 8 19 7 20 3 21 4 22 88 23
REMARK SMILES IDX 5 24 6 25 2 26 1 27 10 28 11 29 26 31 27 32 28 33 29 34
REMARK SMILES IDX 30 35 31 37 32 38 33 39 85 40 34 41 84 42 35 43 36 44 37 45
REMARK SMILES IDX 78 46 38 47 83 48 77 49 79 50 39 51 82 52 76 53 75 54 40 56
REMARK SMILES IDX 66 57 49 58 65 59 50 60 53 61 64 62 80 63 51 64 52 65 63 67
REMARK SMILES IDX 81 68 54 69 41 70 42 71 47 72 43 73 44 74 46 75 48 76 45 77
REMARK SMILES IDX 67 78 68 79 73 80 69 81 70 82 72 83 74 84 71 85 55 86 56 87
REMARK SMILES IDX 61 88 57 89 58 90 60 91 62 92 59 93
REMARK H PARENT 24 5 11 30 29 36 79 55 53 66
REMARK Flexibility Score: inf
ROOT
ATOM      1  C   UNL A   1      37.426  22.694  25.268  1.00  0.00     0.116 C 
ENDROOT
BRANCH   1   2
ATOM      2  N   UNL A   1      36.303  22.729  26.178  1.00  0.00    -0.352 N 
ATOM      3  C   UNL A   1      35.049  22.169  26.233  1.00  0.00     0.255 C 
ATOM      4  O   UNL A   1      34.448  22.514  27.246  1.00  0.00    -0.269 OA
ATOM      5  H   UNL A   1      36.483  23.300  26.959  1.00  0.00     0.163 HD
BRANCH   3   6
ATOM      6  C   UNL A   1      34.465  21.205  25.235  1.00  0.00     0.082 A 
ATOM      7  C   UNL A   1      33.413  21.552  24.356  1.00  0.00     0.141 A 
ATOM      8  N   UNL A   1      32.715  20.581  23.692  1.00  0.00    -0.235 NA
ATOM      9  C   UNL A   1      33.075  19.286  23.784  1.00  0.00     0.040 A 
ATOM     10  C   UNL A   1      34.889  19.869  25.202  1.00  0.00     0.019 A 
ATOM     11  C   UNL A   1      32.231  18.295  23.045  1.00  0.00     0.067 C 
ATOM     12  C   UNL A   1      34.192  18.898  24.489  1.00  0.00     0.024 A 
BRANCH   7  13
ATOM     13  N   UNL A   1      32.992  22.817  24.002  1.00  0.00    -0.356 N 
ATOM     14  C   UNL A   1      32.087  25.315  22.747  1.00  0.00     0.001 C 
ATOM     15  C   UNL A   1      31.219  24.030  22.794  1.00  0.00     0.031 C 
ATOM     16  C   UNL A   1      33.578  24.939  22.934  1.00  0.00     0.031 C 
ATOM     17  C   UNL A   1      31.559  23.017  23.890  1.00  0.00     0.119 C 
ATOM     18  C   UNL A   1      33.851  23.984  24.091  1.00  0.00     0.119 C 
BRANCH  14  19
ATOM     19  C   UNL A   1      31.584  26.438  23.726  1.00  0.00     0.045 C 
BRANCH  19  20
ATOM     20  C   UNL A   1      30.253  27.114  23.504  1.00  0.00    -0.044 A 
ATOM     21  C   UNL A   1      28.950  29.042  22.794  1.00  0.00     0.119 A 
ATOM     22  C   UNL A   1      27.785  28.431  23.249  1.00  0.00     0.046 A 
ATOM     23  C   UNL A   1      30.181  28.394  22.927  1.00  0.00     0.050 A 
ATOM     24  C   UNL A   1      27.836  27.138  23.763  1.00  0.00     0.004 A 
ATOM     25  C   UNL A   1      29.059  26.474  23.863  1.00  0.00     0.004 A 
BRANCH  21  26
ATOM     26  O   UNL A   1      28.826  30.316  22.308  1.00  0.00    -0.497 OA
ATOM     27  C   UNL A   1      27.774  31.039  22.942  1.00  0.00     0.278 C 
ENDBRANCH  21  26
ENDBRANCH  19  20
ENDBRANCH  14  19
BRANCH  14  28
ATOM     28  C   UNL A   1      31.978  25.922  21.313  1.00  0.00     0.163 C 
BRANCH  28  29
ATOM     29  O   UNL A   1      33.111  25.614  20.509  1.00  0.00    -0.396 OA
ATOM     30  H   UNL A   1      33.584  26.432  20.291  1.00  0.00     0.210 HD
ENDBRANCH  28  29
ENDBRANCH  14  28
ENDBRANCH   7  13
ENDBRANCH   3   6
ENDBRANCH   1   2
BRANCH   1  31
ATOM     31  C   UNL A   1      38.577  21.889  25.872  1.00  0.00     0.023 C 
BRANCH  31  32
ATOM     32  C   UNL A   1      38.814  20.529  25.202  1.00  0.00     0.023 C 
BRANCH  32  33
ATOM     33  C   UNL A   1      39.316  19.422  26.126  1.00  0.00     0.116 C 
BRANCH  33  34
ATOM     34  N   UNL A   1      40.639  18.931  25.767  1.00  0.00    -0.352 N 
ATOM     35  C   UNL A   1      41.850  19.576  25.845  1.00  0.00     0.251 C 
ATOM     36  H   UNL A   1      40.671  18.010  25.420  1.00  0.00     0.163 HD
ATOM     37  O   UNL A   1      42.866  19.053  25.411  1.00  0.00    -0.269 OA
BRANCH  35  38
ATOM     38  C   UNL A   1      41.900  20.932  26.425  1.00  0.00     0.039 A 
ATOM     39  C   UNL A   1      41.714  21.080  27.801  1.00  0.00     0.014 A 
ATOM     40  C   UNL A   1      42.187  22.036  25.619  1.00  0.00     0.014 A 
ATOM     41  C   UNL A   1      41.905  22.332  28.388  1.00  0.00     0.010 A 
ATOM     42  C   UNL A   1      42.427  23.272  26.212  1.00  0.00     0.010 A 
ATOM     43  C   UNL A   1      42.311  23.423  27.603  1.00  0.00    -0.014 A 
BRANCH  43  44
ATOM     44  C   UNL A   1      42.682  24.719  28.217  1.00  0.00     0.031 A 
ATOM     45  C   UNL A   1      41.646  25.783  28.426  1.00  0.00     0.074 A 
ATOM     46  C   UNL A   1      43.977  24.970  28.489  1.00  0.00     0.049 A 
ATOM     47  N   UNL A   1      41.800  27.019  28.824  1.00  0.00    -0.248 NA
ATOM     48  C   UNL A   1      40.253  25.413  28.125  1.00  0.00     0.031 C 
ATOM     49  C   UNL A   1      45.082  24.031  28.288  1.00  0.00     0.029 A 
ATOM     50  N   UNL A   1      44.587  26.102  28.968  1.00  0.00    -0.354 N 
ATOM     51  C   UNL A   1      40.530  27.581  28.806  1.00  0.00     0.074 A 
ATOM     52  C   UNL A   1      39.623  26.562  28.324  1.00  0.00     0.031 C 
ATOM     53  C   UNL A   1      46.233  24.621  28.647  1.00  0.00     0.029 A 
ATOM     54  C   UNL A   1      45.954  25.992  29.062  1.00  0.00     0.049 A 
ATOM     55  H   UNL A   1      44.093  26.915  29.221  1.00  0.00     0.167 HD
ATOM     56  C   UNL A   1      40.157  28.830  29.173  1.00  0.00     0.037 A 
ATOM     57  C   UNL A   1      46.879  26.901  29.421  1.00  0.00     0.037 A 
ATOM     58  C   UNL A   1      41.061  29.832  29.673  1.00  0.00     0.049 A 
ATOM     59  C   UNL A   1      46.441  28.286  29.800  1.00  0.00     0.074 A 
ATOM     60  C   UNL A   1      40.767  31.101  30.142  1.00  0.00     0.029 A 
ATOM     61  N   UNL A   1      42.437  29.681  29.758  1.00  0.00    -0.354 N 
ATOM     62  N   UNL A   1      45.229  28.786  29.841  1.00  0.00    -0.248 NA
ATOM     63  C   UNL A   1      47.497  29.237  30.175  1.00  0.00     0.031 C 
ATOM     64  C   UNL A   1      41.970  31.732  30.476  1.00  0.00     0.029 A 
ATOM     65  C   UNL A   1      43.009  30.844  30.248  1.00  0.00     0.049 A 
ATOM     66  H   UNL A   1      42.933  28.869  29.509  1.00  0.00     0.167 HD
ATOM     67  C   UNL A   1      45.375  30.100  30.261  1.00  0.00     0.074 A 
ATOM     68  C   UNL A   1      46.791  30.318  30.476  1.00  0.00     0.031 C 
ATOM     69  C   UNL A   1      44.420  31.044  30.450  1.00  0.00     0.037 A 
BRANCH  56  70
ATOM     70  C   UNL A   1      38.705  29.180  29.049  1.00  0.00     0.057 A 
ATOM     71  C   UNL A   1      37.838  29.126  30.147  1.00  0.00     0.134 A 
ATOM     72  C   UNL A   1      38.174  29.609  27.826  1.00  0.00     0.134 A 
ATOM     73  F   UNL A   1      38.283  28.712  31.344  1.00  0.00    -0.206 F 
ATOM     74  C   UNL A   1      36.489  29.466  30.031  1.00  0.00     0.040 A 
ATOM     75  C   UNL A   1      36.833  29.972  27.701  1.00  0.00     0.040 A 
ATOM     76  F   UNL A   1      38.952  29.686  26.735  1.00  0.00    -0.206 F 
ATOM     77  C   UNL A   1      35.985  29.896  28.804  1.00  0.00     0.006 A 
ENDBRANCH  56  70
BRANCH  57  78
ATOM     78  C   UNL A   1      48.315  26.529  29.440  1.00  0.00     0.057 A 
ATOM     79  C   UNL A   1      49.137  26.778  28.336  1.00  0.00     0.134 A 
ATOM     80  C   UNL A   1      48.897  25.916  30.556  1.00  0.00     0.134 A 
ATOM     81  F   UNL A   1      48.630  27.345  27.233  1.00  0.00    -0.206 F 
ATOM     82  C   UNL A   1      50.486  26.422  28.336  1.00  0.00     0.040 A 
ATOM     83  C   UNL A   1      50.250  25.572  30.577  1.00  0.00     0.040 A 
ATOM     84  F   UNL A   1      48.162  25.655  31.647  1.00  0.00    -0.206 F 
ATOM     85  C   UNL A   1      51.048  25.821  29.461  1.00  0.00     0.006 A 
ENDBRANCH  57  78
BRANCH  69  86
ATOM     86  C   UNL A   1      44.876  32.392  30.922  1.00  0.00     0.057 A 
ATOM     87  C   UNL A   1      45.028  32.677  32.284  1.00  0.00     0.134 A 
ATOM     88  C   UNL A   1      45.211  33.396  30.005  1.00  0.00     0.134 A 
ATOM     89  F   UNL A   1      44.710  31.762  33.211  1.00  0.00    -0.206 F 
ATOM     90  C   UNL A   1      45.485  33.923  32.718  1.00  0.00     0.040 A 
ATOM     91  C   UNL A   1      45.688  34.637  30.427  1.00  0.00     0.040 A 
ATOM     92  F   UNL A   1      45.092  33.180  28.686  1.00  0.00    -0.206 F 
ATOM     93  C   UNL A   1      45.824  34.904  31.787  1.00  0.00     0.006 A 
ENDBRANCH  69  86
ENDBRANCH  43  44
ENDBRANCH  35  38
ENDBRANCH  33  34
ENDBRANCH  32  33
ENDBRANCH  31  32
ENDBRANCH   1  31
TORSDOF 17
ENDMDL
