MODEL 1
REMARK VINA RESULT:      -9.6      0.000      0.000
REMARK SMILES Cn1cc(C[C@H](C(=O)NCCCCNC(=O)c2ccc(-c3c4nc(c(-c5c(F)cccc5F)c5ccc([nH]5)c(-c5c(F)cccc5F)c5nc(c(-c6c(F)cccc6F)c6ccc3[nH]6)C=C5)C=C4)cc2)c2ccc(F)cc2)cn1
REMARK SMILES IDX 11 1 10 2 9 3 7 4 8 5 6 7 5 8 4 9 1 10 2 11 3 12 79 13 78 14
REMARK SMILES IDX 71 15 72 16 77 17 73 18 76 19 74 20 75 21 12 22 13 23 14 24
REMARK SMILES IDX 15 25 16 27 17 28 18 29 70 30 19 31 69 32 20 33 21 34 22 35
REMARK SMILES IDX 63 36 23 37 68 38 62 39 64 40 24 41 67 42 61 43 60 44 25 46
REMARK SMILES IDX 51 47 34 48 50 49 35 50 38 51 49 52 65 53 36 54 37 55 48 57
REMARK SMILES IDX 66 58 39 59 26 60 27 61 32 62 28 63 29 64 31 65 33 66 30 67
REMARK SMILES IDX 52 68 53 69 58 70 54 71 55 72 57 73 59 74 56 75 40 76 41 77
REMARK SMILES IDX 46 78 42 79 43 80 45 81 47 82 44 83
REMARK H PARENT 9 6 14 26 64 45 38 56
REMARK Flexibility Score: inf
ROOT
ATOM      1  C   UNL A   1      44.982  22.451  24.165  1.00  0.00     0.023 C 
ENDROOT
BRANCH   1   2
ATOM      2  C   UNL A   1      45.979  23.086  25.137  1.00  0.00     0.116 C 
BRANCH   2   3
ATOM      3  N   UNL A   1      46.643  24.213  24.521  1.00  0.00    -0.356 N 
ATOM      4  C   UNL A   1      46.592  25.535  24.859  1.00  0.00     0.227 C 
ATOM      5  O   UNL A   1      47.067  26.328  24.041  1.00  0.00    -0.274 OA
ATOM      6  H   UNL A   1      47.213  23.997  23.749  1.00  0.00     0.163 HD
BRANCH   4   7
ATOM      7  C   UNL A   1      46.014  25.997  26.215  1.00  0.00     0.113 C 
BRANCH   7   8
ATOM      8  C   UNL A   1      47.161  26.719  26.959  1.00  0.00     0.057 C 
BRANCH   8   9
ATOM      9  C   UNL A   1      48.452  25.994  27.156  1.00  0.00    -0.009 A 
ATOM     10  C   UNL A   1      52.003  25.498  26.759  1.00  0.00     0.173 C 
ATOM     11  N   UNL A   1      50.591  25.488  27.051  1.00  0.00    -0.276 N 
ATOM     12  C   UNL A   1      49.683  26.442  26.714  1.00  0.00     0.112 A 
ATOM     13  N   UNL A   1      50.046  24.442  27.695  1.00  0.00    -0.182 NA
ATOM     14  C   UNL A   1      48.748  24.755  27.765  1.00  0.00     0.138 A 
ENDBRANCH   8   9
ENDBRANCH   7   8
BRANCH   7  15
ATOM     15  C   UNL A   1      44.760  26.854  26.045  1.00  0.00    -0.035 A 
ATOM     16  C   UNL A   1      44.615  28.048  26.781  1.00  0.00     0.007 A 
ATOM     17  C   UNL A   1      43.703  26.452  25.211  1.00  0.00     0.007 A 
ATOM     18  C   UNL A   1      43.426  28.779  26.735  1.00  0.00     0.039 A 
ATOM     19  C   UNL A   1      42.526  27.203  25.144  1.00  0.00     0.039 A 
ATOM     20  C   UNL A   1      42.390  28.347  25.919  1.00  0.00     0.123 A 
ATOM     21  F   UNL A   1      41.243  29.037  25.888  1.00  0.00    -0.207 F 
ENDBRANCH   7  15
ENDBRANCH   4   7
ENDBRANCH   2   3
ENDBRANCH   1   2
BRANCH   1  22
ATOM     22  C   UNL A   1      45.059  20.926  24.086  1.00  0.00     0.023 C 
BRANCH  22  23
ATOM     23  C   UNL A   1      44.704  20.206  25.380  1.00  0.00     0.116 C 
BRANCH  23  24
ATOM     24  N   UNL A   1      43.418  19.529  25.330  1.00  0.00    -0.352 N 
ATOM     25  C   UNL A   1      42.216  19.940  25.855  1.00  0.00     0.251 C 
ATOM     26  H   UNL A   1      43.406  18.665  24.859  1.00  0.00     0.163 HD
ATOM     27  O   UNL A   1      41.231  19.215  25.806  1.00  0.00    -0.269 OA
BRANCH  25  28
ATOM     28  C   UNL A   1      42.142  21.253  26.528  1.00  0.00     0.039 A 
ATOM     29  C   UNL A   1      42.181  21.294  27.924  1.00  0.00     0.014 A 
ATOM     30  C   UNL A   1      42.095  22.433  25.783  1.00  0.00     0.014 A 
ATOM     31  C   UNL A   1      42.245  22.527  28.572  1.00  0.00     0.010 A 
ATOM     32  C   UNL A   1      42.231  23.658  26.427  1.00  0.00     0.010 A 
ATOM     33  C   UNL A   1      42.312  23.715  27.827  1.00  0.00    -0.014 A 
BRANCH  33  34
ATOM     34  C   UNL A   1      42.475  25.030  28.492  1.00  0.00     0.031 A 
ATOM     35  C   UNL A   1      43.765  25.365  29.184  1.00  0.00     0.074 A 
ATOM     36  C   UNL A   1      41.438  25.887  28.536  1.00  0.00     0.049 A 
ATOM     37  N   UNL A   1      44.074  26.424  29.888  1.00  0.00    -0.248 NA
ATOM     38  C   UNL A   1      44.841  24.364  29.099  1.00  0.00     0.031 C 
ATOM     39  C   UNL A   1      40.116  25.650  27.950  1.00  0.00     0.029 A 
ATOM     40  N   UNL A   1      41.328  27.127  29.113  1.00  0.00    -0.354 N 
ATOM     41  C   UNL A   1      45.367  26.209  30.343  1.00  0.00     0.074 A 
ATOM     42  C   UNL A   1      45.768  24.899  29.879  1.00  0.00     0.031 C 
ATOM     43  C   UNL A   1      39.337  26.719  28.180  1.00  0.00     0.029 A 
ATOM     44  C   UNL A   1      40.090  27.701  28.953  1.00  0.00     0.049 A 
ATOM     45  H   UNL A   1      42.066  27.564  29.596  1.00  0.00     0.167 HD
ATOM     46  C   UNL A   1      46.159  27.038  31.064  1.00  0.00     0.037 A 
ATOM     47  C   UNL A   1      39.617  28.884  29.386  1.00  0.00     0.037 A 
ATOM     48  C   UNL A   1      45.770  28.355  31.493  1.00  0.00     0.049 A 
ATOM     49  C   UNL A   1      40.521  29.794  30.169  1.00  0.00     0.074 A 
ATOM     50  C   UNL A   1      46.524  29.299  32.167  1.00  0.00     0.029 A 
ATOM     51  N   UNL A   1      44.518  28.914  31.287  1.00  0.00    -0.354 N 
ATOM     52  N   UNL A   1      41.766  29.606  30.536  1.00  0.00    -0.248 NA
ATOM     53  C   UNL A   1      39.956  31.082  30.597  1.00  0.00     0.031 C 
ATOM     54  C   UNL A   1      45.717  30.419  32.396  1.00  0.00     0.029 A 
ATOM     55  C   UNL A   1      44.472  30.184  31.834  1.00  0.00     0.049 A 
ATOM     56  H   UNL A   1      43.772  28.471  30.821  1.00  0.00     0.167 HD
ATOM     57  C   UNL A   1      42.141  30.758  31.215  1.00  0.00     0.074 A 
ATOM     58  C   UNL A   1      40.995  31.645  31.198  1.00  0.00     0.031 C 
ATOM     59  C   UNL A   1      43.325  31.053  31.801  1.00  0.00     0.037 A 
BRANCH  46  60
ATOM     60  C   UNL A   1      47.528  26.545  31.421  1.00  0.00     0.057 A 
ATOM     61  C   UNL A   1      47.735  25.633  32.464  1.00  0.00     0.134 A 
ATOM     62  C   UNL A   1      48.652  26.964  30.697  1.00  0.00     0.134 A 
ATOM     63  F   UNL A   1      46.701  25.204  33.205  1.00  0.00    -0.206 F 
ATOM     64  C   UNL A   1      49.012  25.175  32.792  1.00  0.00     0.040 A 
ATOM     65  C   UNL A   1      49.930  26.494  31.000  1.00  0.00     0.040 A 
ATOM     66  F   UNL A   1      48.523  27.834  29.683  1.00  0.00    -0.206 F 
ATOM     67  C   UNL A   1      50.113  25.601  32.054  1.00  0.00     0.006 A 
ENDBRANCH  46  60
BRANCH  47  68
ATOM     68  C   UNL A   1      38.228  29.293  29.065  1.00  0.00     0.057 A 
ATOM     69  C   UNL A   1      37.221  29.240  30.036  1.00  0.00     0.134 A 
ATOM     70  C   UNL A   1      37.871  29.738  27.787  1.00  0.00     0.134 A 
ATOM     71  F   UNL A   1      37.499  28.805  31.273  1.00  0.00    -0.206 F 
ATOM     72  C   UNL A   1      35.904  29.596  29.742  1.00  0.00     0.040 A 
ATOM     73  C   UNL A   1      36.563  30.118  27.486  1.00  0.00     0.040 A 
ATOM     74  F   UNL A   1      38.793  29.819  26.816  1.00  0.00    -0.206 F 
ATOM     75  C   UNL A   1      35.572  30.041  28.464  1.00  0.00     0.006 A 
ENDBRANCH  47  68
BRANCH  59  76
ATOM     76  C   UNL A   1      43.449  32.400  32.448  1.00  0.00     0.057 A 
ATOM     77  C   UNL A   1      43.812  33.537  31.716  1.00  0.00     0.134 A 
ATOM     78  C   UNL A   1      43.163  32.567  33.809  1.00  0.00     0.134 A 
ATOM     79  F   UNL A   1      44.112  33.439  30.412  1.00  0.00    -0.206 F 
ATOM     80  C   UNL A   1      43.904  34.791  32.320  1.00  0.00     0.040 A 
ATOM     81  C   UNL A   1      43.230  33.820  34.418  1.00  0.00     0.040 A 
ATOM     82  F   UNL A   1      42.803  31.518  34.563  1.00  0.00    -0.206 F 
ATOM     83  C   UNL A   1      43.605  34.936  33.674  1.00  0.00     0.006 A 
ENDBRANCH  59  76
ENDBRANCH  33  34
ENDBRANCH  25  28
ENDBRANCH  23  24
ENDBRANCH  22  23
ENDBRANCH   1  22
TORSDOF 14
ENDMDL
MODEL 2
REMARK VINA RESULT:      -9.3      0.379      6.309
REMARK SMILES Cn1cc(C[C@H](C(=O)NCCCCNC(=O)c2ccc(-c3c4nc(c(-c5c(F)cccc5F)c5ccc([nH]5)c(-c5c(F)cccc5F)c5nc(c(-c6c(F)cccc6F)c6ccc3[nH]6)C=C5)C=C4)cc2)c2ccc(F)cc2)cn1
REMARK SMILES IDX 11 1 10 2 9 3 7 4 8 5 6 7 5 8 4 9 1 10 2 11 3 12 79 13 78 14
REMARK SMILES IDX 71 15 72 16 77 17 73 18 76 19 74 20 75 21 12 22 13 23 14 24
REMARK SMILES IDX 15 25 16 27 17 28 18 29 70 30 19 31 69 32 20 33 21 34 22 35
REMARK SMILES IDX 63 36 23 37 68 38 62 39 64 40 24 41 67 42 61 43 60 44 25 46
REMARK SMILES IDX 51 47 34 48 50 49 35 50 38 51 49 52 65 53 36 54 37 55 48 57
REMARK SMILES IDX 66 58 39 59 26 60 27 61 32 62 28 63 29 64 31 65 33 66 30 67
REMARK SMILES IDX 52 68 53 69 58 70 54 71 55 72 57 73 59 74 56 75 40 76 41 77
REMARK SMILES IDX 46 78 42 79 43 80 45 81 47 82 44 83
REMARK H PARENT 9 6 14 26 64 45 38 56
REMARK Flexibility Score: inf
ROOT
ATOM      1  C   UNL A   1      44.919  22.441  24.232  1.00  0.00     0.023 C 
ENDROOT
BRANCH   1   2
ATOM      2  C   UNL A   1      46.028  23.008  25.120  1.00  0.00     0.116 C 
BRANCH   2   3
ATOM      3  N   UNL A   1      46.728  24.076  24.442  1.00  0.00    -0.356 N 
ATOM      4  C   UNL A   1      46.777  25.407  24.747  1.00  0.00     0.227 C 
ATOM      5  O   UNL A   1      47.257  26.148  23.885  1.00  0.00    -0.274 OA
ATOM      6  H   UNL A   1      47.242  23.807  23.647  1.00  0.00     0.163 HD
BRANCH   4   7
ATOM      7  C   UNL A   1      46.301  25.936  26.119  1.00  0.00     0.113 C 
BRANCH   7   8
ATOM      8  C   UNL A   1      47.493  26.707  26.729  1.00  0.00     0.057 C 
BRANCH   8   9
ATOM      9  C   UNL A   1      48.777  25.979  26.952  1.00  0.00    -0.009 A 
ATOM     10  C   UNL A   1      52.289  25.332  26.431  1.00  0.00     0.173 C 
ATOM     11  N   UNL A   1      50.896  25.401  26.799  1.00  0.00    -0.276 N 
ATOM     12  C   UNL A   1      49.990  26.328  26.387  1.00  0.00     0.112 A 
ATOM     13  N   UNL A   1      50.367  24.467  27.607  1.00  0.00    -0.182 NA
ATOM     14  C   UNL A   1      49.082  24.823  27.705  1.00  0.00     0.138 A 
ENDBRANCH   8   9
ENDBRANCH   7   8
BRANCH   7  15
ATOM     15  C   UNL A   1      45.026  26.770  26.003  1.00  0.00    -0.035 A 
ATOM     16  C   UNL A   1      44.898  27.970  26.733  1.00  0.00     0.007 A 
ATOM     17  C   UNL A   1      43.935  26.342  25.227  1.00  0.00     0.007 A 
ATOM     18  C   UNL A   1      43.697  28.681  26.740  1.00  0.00     0.039 A 
ATOM     19  C   UNL A   1      42.743  27.073  25.212  1.00  0.00     0.039 A 
ATOM     20  C   UNL A   1      42.628  28.223  25.981  1.00  0.00     0.123 A 
ATOM     21  F   UNL A   1      41.470  28.893  26.001  1.00  0.00    -0.207 F 
ENDBRANCH   7  15
ENDBRANCH   4   7
ENDBRANCH   2   3
ENDBRANCH   1   2
BRANCH   1  22
ATOM     22  C   UNL A   1      44.921  20.917  24.114  1.00  0.00     0.023 C 
BRANCH  22  23
ATOM     23  C   UNL A   1      44.513  20.182  25.383  1.00  0.00     0.116 C 
BRANCH  23  24
ATOM     24  N   UNL A   1      43.187  19.590  25.307  1.00  0.00    -0.352 N 
ATOM     25  C   UNL A   1      42.011  20.056  25.844  1.00  0.00     0.251 C 
ATOM     26  H   UNL A   1      43.123  18.746  24.804  1.00  0.00     0.163 HD
ATOM     27  O   UNL A   1      40.983  19.397  25.767  1.00  0.00    -0.269 OA
BRANCH  25  28
ATOM     28  C   UNL A   1      42.017  21.346  26.563  1.00  0.00     0.039 A 
ATOM     29  C   UNL A   1      42.084  21.334  27.959  1.00  0.00     0.014 A 
ATOM     30  C   UNL A   1      42.016  22.553  25.861  1.00  0.00     0.014 A 
ATOM     31  C   UNL A   1      42.224  22.538  28.648  1.00  0.00     0.010 A 
ATOM     32  C   UNL A   1      42.226  23.745  26.545  1.00  0.00     0.010 A 
ATOM     33  C   UNL A   1      42.336  23.748  27.944  1.00  0.00    -0.014 A 
BRANCH  33  34
ATOM     34  C   UNL A   1      42.579  25.028  28.651  1.00  0.00     0.031 A 
ATOM     35  C   UNL A   1      41.482  26.048  28.753  1.00  0.00     0.074 A 
ATOM     36  C   UNL A   1      43.806  25.301  29.132  1.00  0.00     0.049 A 
ATOM     37  N   UNL A   1      41.520  27.255  29.257  1.00  0.00    -0.248 NA
ATOM     38  C   UNL A   1      40.176  25.674  28.185  1.00  0.00     0.031 C 
ATOM     39  C   UNL A   1      44.969  24.413  29.044  1.00  0.00     0.029 A 
ATOM     40  N   UNL A   1      44.285  26.411  29.782  1.00  0.00    -0.354 N 
ATOM     41  C   UNL A   1      40.255  27.789  29.052  1.00  0.00     0.074 A 
ATOM     42  C   UNL A   1      39.487  26.795  28.334  1.00  0.00     0.031 C 
ATOM     43  C   UNL A   1      46.019  25.005  29.636  1.00  0.00     0.029 A 
ATOM     44  C   UNL A   1      45.614  26.322  30.117  1.00  0.00     0.049 A 
ATOM     45  H   UNL A   1      43.729  27.196  29.987  1.00  0.00     0.167 HD
ATOM     46  C   UNL A   1      39.769  28.990  29.447  1.00  0.00     0.037 A 
ATOM     47  C   UNL A   1      46.415  27.207  30.739  1.00  0.00     0.037 A 
ATOM     48  C   UNL A   1      40.525  29.960  30.193  1.00  0.00     0.049 A 
ATOM     49  C   UNL A   1      45.848  28.526  31.183  1.00  0.00     0.074 A 
ATOM     50  C   UNL A   1      40.102  31.176  30.701  1.00  0.00     0.029 A 
ATOM     51  N   UNL A   1      41.860  29.823  30.540  1.00  0.00    -0.354 N 
ATOM     52  N   UNL A   1      44.630  28.991  31.041  1.00  0.00    -0.248 NA
ATOM     53  C   UNL A   1      46.765  29.442  31.875  1.00  0.00     0.031 C 
ATOM     54  C   UNL A   1      41.192  31.789  31.329  1.00  0.00     0.029 A 
ATOM     55  C   UNL A   1      42.283  30.938  31.242  1.00  0.00     0.049 A 
ATOM     56  H   UNL A   1      42.424  29.046  30.319  1.00  0.00     0.167 HD
ATOM     57  C   UNL A   1      44.627  30.240  31.646  1.00  0.00     0.074 A 
ATOM     58  C   UNL A   1      45.962  30.455  32.168  1.00  0.00     0.031 C 
ATOM     59  C   UNL A   1      43.613  31.131  31.758  1.00  0.00     0.037 A 
BRANCH  46  60
ATOM     60  C   UNL A   1      38.350  29.310  29.088  1.00  0.00     0.057 A 
ATOM     61  C   UNL A   1      37.983  29.668  27.784  1.00  0.00     0.134 A 
ATOM     62  C   UNL A   1      37.333  29.235  30.048  1.00  0.00     0.134 A 
ATOM     63  F   UNL A   1      38.912  29.771  26.821  1.00  0.00    -0.206 F 
ATOM     64  C   UNL A   1      36.659  29.964  27.454  1.00  0.00     0.040 A 
ATOM     65  C   UNL A   1      36.003  29.505  29.724  1.00  0.00     0.040 A 
ATOM     66  F   UNL A   1      37.617  28.895  31.315  1.00  0.00    -0.206 F 
ATOM     67  C   UNL A   1      35.664  29.876  28.424  1.00  0.00     0.006 A 
ENDBRANCH  46  60
BRANCH  47  68
ATOM     68  C   UNL A   1      47.834  26.866  31.006  1.00  0.00     0.057 A 
ATOM     69  C   UNL A   1      48.865  27.439  30.252  1.00  0.00     0.134 A 
ATOM     70  C   UNL A   1      48.194  25.962  32.011  1.00  0.00     0.134 A 
ATOM     71  F   UNL A   1      48.580  28.299  29.263  1.00  0.00    -0.206 F 
ATOM     72  C   UNL A   1      50.203  27.109  30.474  1.00  0.00     0.040 A 
ATOM     73  C   UNL A   1      49.529  25.639  32.258  1.00  0.00     0.040 A 
ATOM     74  F   UNL A   1      47.252  25.386  32.773  1.00  0.00    -0.206 F 
ATOM     75  C   UNL A   1      50.538  26.209  31.483  1.00  0.00     0.006 A 
ENDBRANCH  47  68
BRANCH  59  76
ATOM     76  C   UNL A   1      43.900  32.405  32.494  1.00  0.00     0.057 A 
ATOM     77  C   UNL A   1      44.346  33.553  31.829  1.00  0.00     0.134 A 
ATOM     78  C   UNL A   1      43.687  32.494  33.875  1.00  0.00     0.134 A 
ATOM     79  F   UNL A   1      44.582  33.526  30.508  1.00  0.00    -0.206 F 
ATOM     80  C   UNL A   1      44.590  34.742  32.516  1.00  0.00     0.040 A 
ATOM     81  C   UNL A   1      43.906  33.684  34.568  1.00  0.00     0.040 A 
ATOM     82  F   UNL A   1      43.253  31.431  34.567  1.00  0.00    -0.206 F 
ATOM     83  C   UNL A   1      44.363  34.812  33.889  1.00  0.00     0.006 A 
ENDBRANCH  59  76
ENDBRANCH  33  34
ENDBRANCH  25  28
ENDBRANCH  23  24
ENDBRANCH  22  23
ENDBRANCH   1  22
TORSDOF 14
ENDMDL
MODEL 3
REMARK VINA RESULT:      -9.2      4.449     11.083
REMARK SMILES Cn1cc(C[C@H](C(=O)NCCCCNC(=O)c2ccc(-c3c4nc(c(-c5c(F)cccc5F)c5ccc([nH]5)c(-c5c(F)cccc5F)c5nc(c(-c6c(F)cccc6F)c6ccc3[nH]6)C=C5)C=C4)cc2)c2ccc(F)cc2)cn1
REMARK SMILES IDX 11 1 10 2 9 3 7 4 8 5 6 7 5 8 4 9 1 10 2 11 3 12 79 13 78 14
REMARK SMILES IDX 71 15 72 16 77 17 73 18 76 19 74 20 75 21 12 22 13 23 14 24
REMARK SMILES IDX 15 25 16 27 17 28 18 29 70 30 19 31 69 32 20 33 21 34 22 35
REMARK SMILES IDX 63 36 23 37 68 38 62 39 64 40 24 41 67 42 61 43 60 44 25 46
REMARK SMILES IDX 51 47 34 48 50 49 35 50 38 51 49 52 65 53 36 54 37 55 48 57
REMARK SMILES IDX 66 58 39 59 26 60 27 61 32 62 28 63 29 64 31 65 33 66 30 67
REMARK SMILES IDX 52 68 53 69 58 70 54 71 55 72 57 73 59 74 56 75 40 76 41 77
REMARK SMILES IDX 46 78 42 79 43 80 45 81 47 82 44 83
REMARK H PARENT 9 6 14 26 64 45 38 56
REMARK Flexibility Score: inf
ROOT
ATOM      1  C   UNL A   1      34.736  35.128  33.771  1.00  0.00     0.023 C 
ENDROOT
BRANCH   1   2
ATOM      2  C   UNL A   1      36.024  34.315  33.619  1.00  0.00     0.116 C 
BRANCH   2   3
ATOM      3  N   UNL A   1      36.318  33.595  34.838  1.00  0.00    -0.356 N 
ATOM      4  C   UNL A   1      37.326  32.710  35.096  1.00  0.00     0.227 C 
ATOM      5  O   UNL A   1      37.229  32.059  36.140  1.00  0.00    -0.274 OA
ATOM      6  H   UNL A   1      35.705  33.766  35.588  1.00  0.00     0.163 HD
BRANCH   4   7
ATOM      7  C   UNL A   1      38.541  32.576  34.151  1.00  0.00     0.113 C 
BRANCH   7   8
ATOM      8  C   UNL A   1      39.789  32.945  34.984  1.00  0.00     0.057 C 
BRANCH   8   9
ATOM      9  C   UNL A   1      39.852  34.297  35.617  1.00  0.00    -0.009 A 
ATOM     10  C   UNL A   1      40.078  36.586  38.397  1.00  0.00     0.173 C 
ATOM     11  N   UNL A   1      39.984  35.875  37.145  1.00  0.00    -0.276 N 
ATOM     12  C   UNL A   1      40.021  34.527  36.970  1.00  0.00     0.112 A 
ATOM     13  N   UNL A   1      39.811  36.554  35.998  1.00  0.00    -0.182 NA
ATOM     14  C   UNL A   1      39.739  35.594  35.070  1.00  0.00     0.138 A 
ENDBRANCH   8   9
ENDBRANCH   7   8
BRANCH   7  15
ATOM     15  C   UNL A   1      38.621  31.192  33.507  1.00  0.00    -0.035 A 
ATOM     16  C   UNL A   1      37.454  30.579  33.006  1.00  0.00     0.007 A 
ATOM     17  C   UNL A   1      39.828  30.475  33.453  1.00  0.00     0.007 A 
ATOM     18  C   UNL A   1      37.483  29.267  32.529  1.00  0.00     0.039 A 
ATOM     19  C   UNL A   1      39.858  29.173  32.946  1.00  0.00     0.039 A 
ATOM     20  C   UNL A   1      38.685  28.574  32.507  1.00  0.00     0.123 A 
ATOM     21  F   UNL A   1      38.710  27.310  32.067  1.00  0.00    -0.207 F 
ENDBRANCH   7  15
ENDBRANCH   4   7
ENDBRANCH   2   3
ENDBRANCH   1   2
BRANCH   1  22
ATOM     22  C   UNL A   1      33.695  34.873  32.680  1.00  0.00     0.023 C 
BRANCH  22  23
ATOM     23  C   UNL A   1      33.892  35.694  31.413  1.00  0.00     0.116 C 
BRANCH  23  24
ATOM     24  N   UNL A   1      33.062  35.250  30.305  1.00  0.00    -0.352 N 
ATOM     25  C   UNL A   1      33.370  34.349  29.314  1.00  0.00     0.251 C 
ATOM     26  H   UNL A   1      32.162  35.646  30.257  1.00  0.00     0.163 HD
ATOM     27  O   UNL A   1      32.593  34.140  28.393  1.00  0.00    -0.269 OA
BRANCH  25  28
ATOM     28  C   UNL A   1      34.682  33.670  29.350  1.00  0.00     0.039 A 
ATOM     29  C   UNL A   1      35.692  34.119  28.496  1.00  0.00     0.014 A 
ATOM     30  C   UNL A   1      34.926  32.640  30.261  1.00  0.00     0.014 A 
ATOM     31  C   UNL A   1      36.974  33.580  28.607  1.00  0.00     0.010 A 
ATOM     32  C   UNL A   1      36.219  32.155  30.419  1.00  0.00     0.010 A 
ATOM     33  C   UNL A   1      37.255  32.624  29.597  1.00  0.00    -0.014 A 
BRANCH  33  34
ATOM     34  C   UNL A   1      38.630  32.106  29.795  1.00  0.00     0.031 A 
ATOM     35  C   UNL A   1      38.999  30.743  29.285  1.00  0.00     0.074 A 
ATOM     36  C   UNL A   1      39.520  32.832  30.498  1.00  0.00     0.049 A 
ATOM     37  N   UNL A   1      40.119  30.082  29.428  1.00  0.00    -0.248 NA
ATOM     38  C   UNL A   1      37.960  30.012  28.541  1.00  0.00     0.031 C 
ATOM     39  C   UNL A   1      39.262  34.146  31.092  1.00  0.00     0.029 A 
ATOM     40  N   UNL A   1      40.820  32.560  30.843  1.00  0.00    -0.354 N 
ATOM     41  C   UNL A   1      39.915  28.856  28.811  1.00  0.00     0.074 A 
ATOM     42  C   UNL A   1      38.549  28.843  28.335  1.00  0.00     0.031 C 
ATOM     43  C   UNL A   1      40.375  34.573  31.710  1.00  0.00     0.029 A 
ATOM     44  C   UNL A   1      41.412  33.555  31.583  1.00  0.00     0.049 A 
ATOM     45  H   UNL A   1      41.284  31.731  30.586  1.00  0.00     0.167 HD
ATOM     46  C   UNL A   1      40.793  27.840  28.636  1.00  0.00     0.037 A 
ATOM     47  C   UNL A   1      42.651  33.632  32.103  1.00  0.00     0.037 A 
ATOM     48  C   UNL A   1      42.161  27.871  29.078  1.00  0.00     0.049 A 
ATOM     49  C   UNL A   1      43.613  32.499  31.879  1.00  0.00     0.074 A 
ATOM     50  C   UNL A   1      43.151  26.922  28.887  1.00  0.00     0.029 A 
ATOM     51  N   UNL A   1      42.734  28.908  29.798  1.00  0.00    -0.354 N 
ATOM     52  N   UNL A   1      43.426  31.372  31.235  1.00  0.00    -0.248 NA
ATOM     53  C   UNL A   1      44.958  32.650  32.453  1.00  0.00     0.031 C 
ATOM     54  C   UNL A   1      44.315  27.372  29.520  1.00  0.00     0.029 A 
ATOM     55  C   UNL A   1      44.059  28.616  30.074  1.00  0.00     0.049 A 
ATOM     56  H   UNL A   1      42.267  29.730  30.074  1.00  0.00     0.167 HD
ATOM     57  C   UNL A   1      44.634  30.691  31.304  1.00  0.00     0.074 A 
ATOM     58  C   UNL A   1      45.550  31.537  32.042  1.00  0.00     0.031 C 
ATOM     59  C   UNL A   1      44.955  29.474  30.804  1.00  0.00     0.037 A 
BRANCH  46  60
ATOM     60  C   UNL A   1      40.299  26.617  27.924  1.00  0.00     0.057 A 
ATOM     61  C   UNL A   1      39.440  25.701  28.544  1.00  0.00     0.134 A 
ATOM     62  C   UNL A   1      40.663  26.365  26.595  1.00  0.00     0.134 A 
ATOM     63  F   UNL A   1      39.064  25.878  29.820  1.00  0.00    -0.206 F 
ATOM     64  C   UNL A   1      38.980  24.564  27.877  1.00  0.00     0.040 A 
ATOM     65  C   UNL A   1      40.191  25.245  25.910  1.00  0.00     0.040 A 
ATOM     66  F   UNL A   1      41.481  27.205  25.942  1.00  0.00    -0.206 F 
ATOM     67  C   UNL A   1      39.351  24.338  26.554  1.00  0.00     0.006 A 
ENDBRANCH  46  60
BRANCH  47  68
ATOM     68  C   UNL A   1      43.066  34.837  32.861  1.00  0.00     0.057 A 
ATOM     69  C   UNL A   1      43.361  36.036  32.201  1.00  0.00     0.134 A 
ATOM     70  C   UNL A   1      43.184  34.821  34.255  1.00  0.00     0.134 A 
ATOM     71  F   UNL A   1      43.283  36.106  30.864  1.00  0.00    -0.206 F 
ATOM     72  C   UNL A   1      43.778  37.170  32.899  1.00  0.00     0.040 A 
ATOM     73  C   UNL A   1      43.578  35.954  34.967  1.00  0.00     0.040 A 
ATOM     74  F   UNL A   1      42.907  33.705  34.946  1.00  0.00    -0.206 F 
ATOM     75  C   UNL A   1      43.884  37.133  34.287  1.00  0.00     0.006 A 
ENDBRANCH  47  68
BRANCH  59  76
ATOM     76  C   UNL A   1      46.361  28.998  31.016  1.00  0.00     0.057 A 
ATOM     77  C   UNL A   1      47.382  29.292  30.104  1.00  0.00     0.134 A 
ATOM     78  C   UNL A   1      46.704  28.273  32.164  1.00  0.00     0.134 A 
ATOM     79  F   UNL A   1      47.114  29.971  28.978  1.00  0.00    -0.206 F 
ATOM     80  C   UNL A   1      48.693  28.865  30.318  1.00  0.00     0.040 A 
ATOM     81  C   UNL A   1      48.015  27.860  32.399  1.00  0.00     0.040 A 
ATOM     82  F   UNL A   1      45.773  27.966  33.079  1.00  0.00    -0.206 F 
ATOM     83  C   UNL A   1      49.013  28.153  31.472  1.00  0.00     0.006 A 
ENDBRANCH  59  76
ENDBRANCH  33  34
ENDBRANCH  25  28
ENDBRANCH  23  24
ENDBRANCH  22  23
ENDBRANCH   1  22
TORSDOF 14
ENDMDL
