MODEL 1
REMARK VINA RESULT:     -12.7      0.000      0.000
REMARK SMILES COc1ccc(NC2=[NH+]C(=O)/C(=C\c3ccccc3C(=O)NCCCCNC(=O)c3ccc(-c4c5nc(c(-c6c(F)cccc6F)c6ccc([nH]6)c(-c6c(F)cccc6F)c6nc(c(-c7c(F)cccc7F)c7ccc4[nH]7)C=C6)C=C5)cc3)S2)cc1
REMARK SMILES IDX 24 1 23 2 22 3 20 4 21 5 19 7 14 8 15 9 16 10 18 11 17 12
REMARK SMILES IDX 13 13 7 14 8 15 9 17 84 18 10 19 12 21 11 22 6 23 3 24 4 25
REMARK SMILES IDX 86 26 5 27 85 28 2 29 1 30 25 31 26 32 27 33 28 34 29 36
REMARK SMILES IDX 30 37 31 38 83 39 32 40 82 41 33 42 34 43 35 44 76 45 36 46
REMARK SMILES IDX 81 47 75 48 77 49 37 50 80 51 74 52 73 53 38 55 64 56 47 57
REMARK SMILES IDX 63 58 48 59 51 60 62 61 78 62 49 63 50 64 61 66 79 67 52 68
REMARK SMILES IDX 39 69 40 70 45 71 41 72 42 73 44 74 46 75 43 76 65 77 66 78
REMARK SMILES IDX 71 79 67 80 68 81 70 82 72 83 69 84 53 85 54 86 59 87 55 88
REMARK SMILES IDX 56 89 58 90 60 91 57 92
REMARK H PARENT 22 6 7 16 9 20 27 35 77 54 51 65
REMARK Flexibility Score: inf
ROOT
ATOM      1  C   UNL A   1      31.378  27.302  26.594  1.00  0.00     0.023 C 
ENDROOT
BRANCH   1   2
ATOM      2  C   UNL A   1      31.950  25.891  26.721  1.00  0.00     0.116 C 
BRANCH   2   3
ATOM      3  N   UNL A   1      31.023  24.812  26.442  1.00  0.00    -0.352 N 
ATOM      4  C   UNL A   1      31.240  23.467  26.226  1.00  0.00     0.251 C 
ATOM      5  O   UNL A   1      30.249  22.777  25.977  1.00  0.00    -0.269 OA
ATOM      6  H   UNL A   1      30.077  25.086  26.401  1.00  0.00     0.163 HD
BRANCH   4   7
ATOM      7  C   UNL A   1      32.598  22.833  26.179  1.00  0.00     0.047 A 
ATOM      8  C   UNL A   1      33.377  22.570  25.031  1.00  0.00    -0.011 A 
ATOM      9  C   UNL A   1      34.578  21.845  25.175  1.00  0.00     0.009 A 
ATOM     10  C   UNL A   1      35.067  21.494  26.434  1.00  0.00     0.001 A 
ATOM     11  C   UNL A   1      33.144  22.529  27.445  1.00  0.00     0.014 A 
ATOM     12  C   UNL A   1      34.371  21.875  27.573  1.00  0.00     0.001 A 
BRANCH   8  13
ATOM     13  C   UNL A   1      33.076  23.007  23.658  1.00  0.00     0.032 C 
ATOM     14  N   UNL A   1      31.751  27.322  21.717  1.00  0.00    -0.235 N 
ATOM     15  C   UNL A   1      32.532  26.419  22.374  1.00  0.00     0.322 C 
ATOM     16  H   UNL A   1      31.942  27.484  20.765  1.00  0.00     0.313 HD
ATOM     17  N   UNL A   1      33.164  26.582  23.488  1.00  0.00    -0.199 N 
ATOM     18  S   UNL A   1      32.626  24.807  21.672  1.00  0.00     0.006 SA
ATOM     19  C   UNL A   1      33.785  25.432  23.915  1.00  0.00     0.346 C 
ATOM     20  H   UNL A   1      33.198  27.436  23.977  1.00  0.00     0.316 HD
ATOM     21  C   UNL A   1      33.244  24.250  23.185  1.00  0.00     0.110 C 
ATOM     22  O   UNL A   1      34.672  25.368  24.752  1.00  0.00    -0.240 OA
BRANCH  14  23
ATOM     23  C   UNL A   1      30.688  28.037  22.303  1.00  0.00     0.125 A 
ATOM     24  C   UNL A   1      28.398  29.456  23.092  1.00  0.00     0.119 A 
ATOM     25  C   UNL A   1      28.515  28.108  23.403  1.00  0.00     0.051 A 
ATOM     26  C   UNL A   1      29.488  30.136  22.561  1.00  0.00     0.051 A 
ATOM     27  C   UNL A   1      29.670  27.411  23.038  1.00  0.00     0.055 A 
ATOM     28  C   UNL A   1      30.616  29.424  22.134  1.00  0.00     0.055 A 
BRANCH  24  29
ATOM     29  O   UNL A   1      27.249  30.157  23.327  1.00  0.00    -0.497 OA
ATOM     30  C   UNL A   1      27.507  31.547  23.553  1.00  0.00     0.278 C 
ENDBRANCH  24  29
ENDBRANCH  14  23
ENDBRANCH   8  13
ENDBRANCH   4   7
ENDBRANCH   2   3
ENDBRANCH   1   2
BRANCH   1  31
ATOM     31  C   UNL A   1      31.909  28.372  27.558  1.00  0.00     0.023 C 
BRANCH  31  32
ATOM     32  C   UNL A   1      33.217  29.090  27.202  1.00  0.00     0.116 C 
BRANCH  32  33
ATOM     33  N   UNL A   1      33.382  30.418  27.770  1.00  0.00    -0.352 N 
ATOM     34  C   UNL A   1      34.497  31.018  28.326  1.00  0.00     0.251 C 
ATOM     35  H   UNL A   1      32.574  30.979  27.758  1.00  0.00     0.163 HD
ATOM     36  O   UNL A   1      34.417  32.176  28.730  1.00  0.00    -0.269 OA
BRANCH  34  37
ATOM     37  C   UNL A   1      35.784  30.288  28.490  1.00  0.00     0.039 A 
ATOM     38  C   UNL A   1      36.666  30.199  27.406  1.00  0.00     0.014 A 
ATOM     39  C   UNL A   1      36.133  29.668  29.682  1.00  0.00     0.014 A 
ATOM     40  C   UNL A   1      37.940  29.615  27.561  1.00  0.00     0.010 A 
ATOM     41  C   UNL A   1      37.421  29.139  29.842  1.00  0.00     0.010 A 
ATOM     42  C   UNL A   1      38.372  29.146  28.812  1.00  0.00    -0.014 A 
BRANCH  42  43
ATOM     43  C   UNL A   1      39.810  28.791  29.100  1.00  0.00     0.031 A 
ATOM     44  C   UNL A   1      40.797  29.780  29.693  1.00  0.00     0.074 A 
ATOM     45  C   UNL A   1      40.308  27.610  28.665  1.00  0.00     0.049 A 
ATOM     46  N   UNL A   1      42.081  29.628  29.938  1.00  0.00    -0.248 NA
ATOM     47  C   UNL A   1      40.299  31.128  30.005  1.00  0.00     0.031 C 
ATOM     48  C   UNL A   1      39.565  26.586  27.928  1.00  0.00     0.029 A 
ATOM     49  N   UNL A   1      41.582  27.085  28.746  1.00  0.00    -0.354 N 
ATOM     50  C   UNL A   1      42.535  30.853  30.413  1.00  0.00     0.074 A 
ATOM     51  C   UNL A   1      41.415  31.766  30.326  1.00  0.00     0.031 C 
ATOM     52  C   UNL A   1      40.385  25.565  27.632  1.00  0.00     0.029 A 
ATOM     53  C   UNL A   1      41.718  25.856  28.146  1.00  0.00     0.049 A 
ATOM     54  H   UNL A   1      42.325  27.550  29.194  1.00  0.00     0.167 HD
ATOM     55  C   UNL A   1      43.746  31.188  30.931  1.00  0.00     0.037 A 
ATOM     56  C   UNL A   1      42.780  25.035  28.023  1.00  0.00     0.037 A 
ATOM     57  C   UNL A   1      44.861  30.285  31.080  1.00  0.00     0.049 A 
ATOM     58  C   UNL A   1      44.093  25.385  28.665  1.00  0.00     0.074 A 
ATOM     59  C   UNL A   1      46.061  30.495  31.740  1.00  0.00     0.029 A 
ATOM     60  N   UNL A   1      44.918  29.005  30.556  1.00  0.00    -0.354 N 
ATOM     61  N   UNL A   1      44.443  26.483  29.286  1.00  0.00    -0.248 NA
ATOM     62  C   UNL A   1      45.145  24.357  28.627  1.00  0.00     0.031 C 
ATOM     63  C   UNL A   1      46.857  29.352  31.592  1.00  0.00     0.029 A 
ATOM     64  C   UNL A   1      46.133  28.416  30.875  1.00  0.00     0.049 A 
ATOM     65  H   UNL A   1      44.202  28.575  30.034  1.00  0.00     0.167 HD
ATOM     66  C   UNL A   1      45.727  26.253  29.767  1.00  0.00     0.074 A 
ATOM     67  C   UNL A   1      46.098  24.917  29.357  1.00  0.00     0.031 C 
ATOM     68  C   UNL A   1      46.511  27.077  30.502  1.00  0.00     0.037 A 
BRANCH  55  69
ATOM     69  C   UNL A   1      43.914  32.590  31.457  1.00  0.00     0.057 A 
ATOM     70  C   UNL A   1      43.598  32.914  32.785  1.00  0.00     0.134 A 
ATOM     71  C   UNL A   1      44.455  33.608  30.661  1.00  0.00     0.134 A 
ATOM     72  F   UNL A   1      43.084  31.986  33.606  1.00  0.00    -0.206 F 
ATOM     73  C   UNL A   1      43.768  34.205  33.287  1.00  0.00     0.040 A 
ATOM     74  C   UNL A   1      44.661  34.897  31.163  1.00  0.00     0.040 A 
ATOM     75  F   UNL A   1      44.806  33.368  29.388  1.00  0.00    -0.206 F 
ATOM     76  C   UNL A   1      44.307  35.199  32.476  1.00  0.00     0.006 A 
ENDBRANCH  55  69
BRANCH  56  77
ATOM     77  C   UNL A   1      42.627  23.732  27.329  1.00  0.00     0.057 A 
ATOM     78  C   UNL A   1      42.273  22.579  28.039  1.00  0.00     0.134 A 
ATOM     79  C   UNL A   1      42.849  23.605  25.954  1.00  0.00     0.134 A 
ATOM     80  F   UNL A   1      42.067  22.640  29.363  1.00  0.00    -0.206 F 
ATOM     81  C   UNL A   1      42.173  21.337  27.413  1.00  0.00     0.040 A 
ATOM     82  C   UNL A   1      42.733  22.371  25.310  1.00  0.00     0.040 A 
ATOM     83  F   UNL A   1      43.179  24.676  25.218  1.00  0.00    -0.206 F 
ATOM     84  C   UNL A   1      42.401  21.232  26.043  1.00  0.00     0.006 A 
ENDBRANCH  56  77
BRANCH  68  85
ATOM     85  C   UNL A   1      47.821  26.533  30.997  1.00  0.00     0.057 A 
ATOM     86  C   UNL A   1      47.943  25.857  32.218  1.00  0.00     0.134 A 
ATOM     87  C   UNL A   1      48.983  26.687  30.228  1.00  0.00     0.134 A 
ATOM     88  F   UNL A   1      46.875  25.689  33.011  1.00  0.00    -0.206 F 
ATOM     89  C   UNL A   1      49.177  25.383  32.670  1.00  0.00     0.040 A 
ATOM     90  C   UNL A   1      50.216  26.193  30.656  1.00  0.00     0.040 A 
ATOM     91  F   UNL A   1      48.939  27.319  29.046  1.00  0.00    -0.206 F 
ATOM     92  C   UNL A   1      50.318  25.546  31.886  1.00  0.00     0.006 A 
ENDBRANCH  68  85
ENDBRANCH  42  43
ENDBRANCH  34  37
ENDBRANCH  32  33
ENDBRANCH  31  32
ENDBRANCH   1  31
TORSDOF 14
ENDMDL
MODEL 2
REMARK VINA RESULT:     -12.7      2.807      3.729
REMARK SMILES COc1ccc(NC2=[NH+]C(=O)/C(=C\c3ccccc3C(=O)NCCCCNC(=O)c3ccc(-c4c5nc(c(-c6c(F)cccc6F)c6ccc([nH]6)c(-c6c(F)cccc6F)c6nc(c(-c7c(F)cccc7F)c7ccc4[nH]7)C=C6)C=C5)cc3)S2)cc1
REMARK SMILES IDX 24 1 23 2 22 3 20 4 21 5 19 7 14 8 15 9 16 10 18 11 17 12
REMARK SMILES IDX 13 13 7 14 8 15 9 17 84 18 10 19 12 21 11 22 6 23 3 24 4 25
REMARK SMILES IDX 86 26 5 27 85 28 2 29 1 30 25 31 26 32 27 33 28 34 29 36
REMARK SMILES IDX 30 37 31 38 83 39 32 40 82 41 33 42 34 43 35 44 76 45 36 46
REMARK SMILES IDX 81 47 75 48 77 49 37 50 80 51 74 52 73 53 38 55 64 56 47 57
REMARK SMILES IDX 63 58 48 59 51 60 62 61 78 62 49 63 50 64 61 66 79 67 52 68
REMARK SMILES IDX 39 69 40 70 45 71 41 72 42 73 44 74 46 75 43 76 65 77 66 78
REMARK SMILES IDX 71 79 67 80 68 81 70 82 72 83 69 84 53 85 54 86 59 87 55 88
REMARK SMILES IDX 56 89 58 90 60 91 57 92
REMARK H PARENT 22 6 7 16 9 20 27 35 77 54 51 65
REMARK Flexibility Score: inf
ROOT
ATOM      1  C   UNL A   1      31.031  27.040  26.283  1.00  0.00     0.023 C 
ENDROOT
BRANCH   1   2
ATOM      2  C   UNL A   1      31.687  25.698  26.608  1.00  0.00     0.116 C 
BRANCH   2   3
ATOM      3  N   UNL A   1      30.851  24.530  26.412  1.00  0.00    -0.352 N 
ATOM      4  C   UNL A   1      31.180  23.198  26.267  1.00  0.00     0.251 C 
ATOM      5  O   UNL A   1      30.249  22.412  26.081  1.00  0.00    -0.269 OA
ATOM      6  H   UNL A   1      29.885  24.719  26.378  1.00  0.00     0.163 HD
BRANCH   4   7
ATOM      7  C   UNL A   1      32.588  22.681  26.224  1.00  0.00     0.047 A 
ATOM      8  C   UNL A   1      33.394  22.497  25.080  1.00  0.00    -0.011 A 
ATOM      9  C   UNL A   1      34.651  21.875  25.226  1.00  0.00     0.009 A 
ATOM     10  C   UNL A   1      35.159  21.552  26.486  1.00  0.00     0.001 A 
ATOM     11  C   UNL A   1      33.148  22.410  27.491  1.00  0.00     0.014 A 
ATOM     12  C   UNL A   1      34.425  21.860  27.622  1.00  0.00     0.001 A 
BRANCH   8  13
ATOM     13  C   UNL A   1      33.067  22.923  23.709  1.00  0.00     0.032 C 
ATOM     14  N   UNL A   1      31.719  27.225  21.755  1.00  0.00    -0.235 N 
ATOM     15  C   UNL A   1      32.510  26.325  22.405  1.00  0.00     0.322 C 
ATOM     16  H   UNL A   1      31.891  27.378  20.798  1.00  0.00     0.313 HD
ATOM     17  N   UNL A   1      33.165  26.496  23.504  1.00  0.00    -0.199 N 
ATOM     18  S   UNL A   1      32.584  24.706  21.716  1.00  0.00     0.006 SA
ATOM     19  C   UNL A   1      33.790  25.348  23.930  1.00  0.00     0.346 C 
ATOM     20  H   UNL A   1      33.212  27.354  23.984  1.00  0.00     0.316 HD
ATOM     21  C   UNL A   1      33.230  24.161  23.222  1.00  0.00     0.110 C 
ATOM     22  O   UNL A   1      34.693  25.287  24.750  1.00  0.00    -0.240 OA
BRANCH  14  23
ATOM     23  C   UNL A   1      30.670  27.949  22.357  1.00  0.00     0.125 A 
ATOM     24  C   UNL A   1      28.418  29.413  23.171  1.00  0.00     0.119 A 
ATOM     25  C   UNL A   1      28.477  28.048  23.413  1.00  0.00     0.051 A 
ATOM     26  C   UNL A   1      29.545  30.077  22.699  1.00  0.00     0.051 A 
ATOM     27  C   UNL A   1      29.613  27.326  23.036  1.00  0.00     0.055 A 
ATOM     28  C   UNL A   1      30.654  29.345  22.259  1.00  0.00     0.055 A 
BRANCH  24  29
ATOM     29  O   UNL A   1      27.292  30.146  23.419  1.00  0.00    -0.497 OA
ATOM     30  C   UNL A   1      27.566  31.550  23.470  1.00  0.00     0.278 C 
ENDBRANCH  24  29
ENDBRANCH  14  23
ENDBRANCH   8  13
ENDBRANCH   4   7
ENDBRANCH   2   3
ENDBRANCH   1   2
BRANCH   1  31
ATOM     31  C   UNL A   1      31.596  28.291  26.969  1.00  0.00     0.023 C 
BRANCH  31  32
ATOM     32  C   UNL A   1      32.266  29.361  26.097  1.00  0.00     0.116 C 
BRANCH  32  33
ATOM     33  N   UNL A   1      32.061  30.737  26.519  1.00  0.00    -0.352 N 
ATOM     34  C   UNL A   1      32.919  31.611  27.160  1.00  0.00     0.251 C 
ATOM     35  H   UNL A   1      31.170  31.104  26.316  1.00  0.00     0.163 HD
ATOM     36  O   UNL A   1      32.538  32.754  27.404  1.00  0.00    -0.269 OA
BRANCH  34  37
ATOM     37  C   UNL A   1      34.277  31.196  27.604  1.00  0.00     0.039 A 
ATOM     38  C   UNL A   1      35.219  32.175  27.942  1.00  0.00     0.014 A 
ATOM     39  C   UNL A   1      34.653  29.862  27.675  1.00  0.00     0.014 A 
ATOM     40  C   UNL A   1      36.473  31.814  28.474  1.00  0.00     0.010 A 
ATOM     41  C   UNL A   1      35.880  29.513  28.255  1.00  0.00     0.010 A 
ATOM     42  C   UNL A   1      36.794  30.469  28.718  1.00  0.00    -0.014 A 
BRANCH  42  43
ATOM     43  C   UNL A   1      37.982  30.050  29.549  1.00  0.00     0.031 A 
ATOM     44  C   UNL A   1      38.232  30.579  30.950  1.00  0.00     0.074 A 
ATOM     45  C   UNL A   1      38.966  29.309  28.985  1.00  0.00     0.049 A 
ATOM     46  N   UNL A   1      39.246  30.349  31.756  1.00  0.00    -0.248 NA
ATOM     47  C   UNL A   1      37.251  31.526  31.499  1.00  0.00     0.031 C 
ATOM     48  C   UNL A   1      38.994  28.835  27.600  1.00  0.00     0.029 A 
ATOM     49  N   UNL A   1      40.161  28.856  29.505  1.00  0.00    -0.354 N 
ATOM     50  C   UNL A   1      39.029  31.128  32.887  1.00  0.00     0.074 A 
ATOM     51  C   UNL A   1      37.841  31.913  32.621  1.00  0.00     0.031 C 
ATOM     52  C   UNL A   1      40.135  28.161  27.383  1.00  0.00     0.029 A 
ATOM     53  C   UNL A   1      40.930  28.156  28.605  1.00  0.00     0.049 A 
ATOM     54  H   UNL A   1      40.437  29.019  30.436  1.00  0.00     0.167 HD
ATOM     55  C   UNL A   1      39.706  31.155  34.065  1.00  0.00     0.037 A 
ATOM     56  C   UNL A   1      42.133  27.562  28.732  1.00  0.00     0.037 A 
ATOM     57  C   UNL A   1      40.857  30.345  34.376  1.00  0.00     0.049 A 
ATOM     58  C   UNL A   1      42.835  27.537  30.060  1.00  0.00     0.074 A 
ATOM     59  C   UNL A   1      41.501  30.190  35.594  1.00  0.00     0.029 A 
ATOM     60  N   UNL A   1      41.542  29.559  33.466  1.00  0.00    -0.354 N 
ATOM     61  N   UNL A   1      42.505  28.127  31.181  1.00  0.00    -0.248 NA
ATOM     62  C   UNL A   1      44.058  26.722  30.149  1.00  0.00     0.031 C 
ATOM     63  C   UNL A   1      42.594  29.333  35.414  1.00  0.00     0.029 A 
ATOM     64  C   UNL A   1      42.603  28.921  34.093  1.00  0.00     0.049 A 
ATOM     65  H   UNL A   1      41.311  29.467  32.513  1.00  0.00     0.167 HD
ATOM     66  C   UNL A   1      43.439  27.703  32.121  1.00  0.00     0.074 A 
ATOM     67  C   UNL A   1      44.354  26.816  31.437  1.00  0.00     0.031 C 
ATOM     68  C   UNL A   1      43.507  28.013  33.437  1.00  0.00     0.037 A 
BRANCH  55  69
ATOM     69  C   UNL A   1      39.170  32.048  35.155  1.00  0.00     0.057 A 
ATOM     70  C   UNL A   1      38.337  31.545  36.165  1.00  0.00     0.134 A 
ATOM     71  C   UNL A   1      39.537  33.397  35.239  1.00  0.00     0.134 A 
ATOM     72  F   UNL A   1      37.952  30.260  36.152  1.00  0.00    -0.206 F 
ATOM     73  C   UNL A   1      37.850  32.359  37.189  1.00  0.00     0.040 A 
ATOM     74  C   UNL A   1      39.084  34.214  36.280  1.00  0.00     0.040 A 
ATOM     75  F   UNL A   1      40.352  33.943  34.324  1.00  0.00    -0.206 F 
ATOM     76  C   UNL A   1      38.230  33.696  37.252  1.00  0.00     0.006 A 
ENDBRANCH  55  69
BRANCH  56  77
ATOM     77  C   UNL A   1      42.726  26.845  27.575  1.00  0.00     0.057 A 
ATOM     78  C   UNL A   1      43.575  27.506  26.681  1.00  0.00     0.134 A 
ATOM     79  C   UNL A   1      42.443  25.498  27.326  1.00  0.00     0.134 A 
ATOM     80  F   UNL A   1      43.865  28.804  26.862  1.00  0.00    -0.206 F 
ATOM     81  C   UNL A   1      44.101  26.863  25.561  1.00  0.00     0.040 A 
ATOM     82  C   UNL A   1      42.979  24.836  26.220  1.00  0.00     0.040 A 
ATOM     83  F   UNL A   1      41.645  24.808  28.154  1.00  0.00    -0.206 F 
ATOM     84  C   UNL A   1      43.805  25.522  25.330  1.00  0.00     0.006 A 
ENDBRANCH  56  77
BRANCH  68  85
ATOM     85  C   UNL A   1      44.555  27.319  34.261  1.00  0.00     0.057 A 
ATOM     86  C   UNL A   1      45.822  27.871  34.489  1.00  0.00     0.134 A 
ATOM     87  C   UNL A   1      44.283  26.073  34.843  1.00  0.00     0.134 A 
ATOM     88  F   UNL A   1      46.156  29.053  33.949  1.00  0.00    -0.206 F 
ATOM     89  C   UNL A   1      46.790  27.195  35.237  1.00  0.00     0.040 A 
ATOM     90  C   UNL A   1      45.232  25.401  35.616  1.00  0.00     0.040 A 
ATOM     91  F   UNL A   1      43.088  25.487  34.671  1.00  0.00    -0.206 F 
ATOM     92  C   UNL A   1      46.494  25.958  35.807  1.00  0.00     0.006 A 
ENDBRANCH  68  85
ENDBRANCH  42  43
ENDBRANCH  34  37
ENDBRANCH  32  33
ENDBRANCH  31  32
ENDBRANCH   1  31
TORSDOF 14
ENDMDL
MODEL 3
REMARK VINA RESULT:     -12.4      3.277      8.239
REMARK SMILES COc1ccc(NC2=[NH+]C(=O)/C(=C\c3ccccc3C(=O)NCCCCNC(=O)c3ccc(-c4c5nc(c(-c6c(F)cccc6F)c6ccc([nH]6)c(-c6c(F)cccc6F)c6nc(c(-c7c(F)cccc7F)c7ccc4[nH]7)C=C6)C=C5)cc3)S2)cc1
REMARK SMILES IDX 24 1 23 2 22 3 20 4 21 5 19 7 14 8 15 9 16 10 18 11 17 12
REMARK SMILES IDX 13 13 7 14 8 15 9 17 84 18 10 19 12 21 11 22 6 23 3 24 4 25
REMARK SMILES IDX 86 26 5 27 85 28 2 29 1 30 25 31 26 32 27 33 28 34 29 36
REMARK SMILES IDX 30 37 31 38 83 39 32 40 82 41 33 42 34 43 35 44 76 45 36 46
REMARK SMILES IDX 81 47 75 48 77 49 37 50 80 51 74 52 73 53 38 55 64 56 47 57
REMARK SMILES IDX 63 58 48 59 51 60 62 61 78 62 49 63 50 64 61 66 79 67 52 68
REMARK SMILES IDX 39 69 40 70 45 71 41 72 42 73 44 74 46 75 43 76 65 77 66 78
REMARK SMILES IDX 71 79 67 80 68 81 70 82 72 83 69 84 53 85 54 86 59 87 55 88
REMARK SMILES IDX 56 89 58 90 60 91 57 92
REMARK H PARENT 22 6 7 16 9 20 27 35 77 54 51 65
REMARK Flexibility Score: inf
ROOT
ATOM      1  C   UNL A   1      34.930  22.826  23.116  1.00  0.00     0.023 C 
ENDROOT
BRANCH   1   2
ATOM      2  C   UNL A   1      34.486  24.288  23.077  1.00  0.00     0.116 C 
BRANCH   2   3
ATOM      3  N   UNL A   1      33.415  24.592  22.149  1.00  0.00    -0.352 N 
ATOM      4  C   UNL A   1      32.623  25.714  22.019  1.00  0.00     0.251 C 
ATOM      5  O   UNL A   1      31.755  25.684  21.145  1.00  0.00    -0.269 OA
ATOM      6  H   UNL A   1      33.220  23.876  21.500  1.00  0.00     0.163 HD
BRANCH   4   7
ATOM      7  C   UNL A   1      32.696  26.903  22.932  1.00  0.00     0.047 A 
ATOM      8  C   UNL A   1      31.965  27.109  24.122  1.00  0.00    -0.011 A 
ATOM      9  C   UNL A   1      32.073  28.352  24.779  1.00  0.00     0.009 A 
ATOM     10  C   UNL A   1      32.973  29.327  24.345  1.00  0.00     0.001 A 
ATOM     11  C   UNL A   1      33.648  27.873  22.551  1.00  0.00     0.014 A 
ATOM     12  C   UNL A   1      33.792  29.070  23.255  1.00  0.00     0.001 A 
BRANCH   8  13
ATOM     13  C   UNL A   1      31.096  26.126  24.789  1.00  0.00     0.032 C 
ATOM     14  N   UNL A   1      31.741  21.454  26.165  1.00  0.00    -0.235 N 
ATOM     15  C   UNL A   1      31.952  22.800  26.125  1.00  0.00     0.322 C 
ATOM     16  H   UNL A   1      31.182  21.099  26.894  1.00  0.00     0.313 HD
ATOM     17  N   UNL A   1      33.080  23.421  26.041  1.00  0.00    -0.199 N 
ATOM     18  S   UNL A   1      30.515  23.817  26.100  1.00  0.00     0.006 SA
ATOM     19  C   UNL A   1      32.925  24.783  25.931  1.00  0.00     0.346 C 
ATOM     20  H   UNL A   1      33.955  22.970  26.054  1.00  0.00     0.316 HD
ATOM     21  C   UNL A   1      31.519  25.115  25.562  1.00  0.00     0.110 C 
ATOM     22  O   UNL A   1      33.793  25.619  26.128  1.00  0.00    -0.240 OA
BRANCH  14  23
ATOM     23  C   UNL A   1      32.265  20.534  25.234  1.00  0.00     0.125 A 
ATOM     24  C   UNL A   1      32.963  18.480  23.453  1.00  0.00     0.119 A 
ATOM     25  C   UNL A   1      32.470  19.680  22.961  1.00  0.00     0.051 A 
ATOM     26  C   UNL A   1      33.284  18.369  24.801  1.00  0.00     0.051 A 
ATOM     27  C   UNL A   1      32.153  20.714  23.848  1.00  0.00     0.055 A 
ATOM     28  C   UNL A   1      32.903  19.377  25.695  1.00  0.00     0.055 A 
BRANCH  24  29
ATOM     29  O   UNL A   1      33.185  17.402  22.644  1.00  0.00    -0.497 OA
ATOM     30  C   UNL A   1      34.251  16.578  23.129  1.00  0.00     0.278 C 
ENDBRANCH  24  29
ENDBRANCH  14  23
ENDBRANCH   8  13
ENDBRANCH   4   7
ENDBRANCH   2   3
ENDBRANCH   1   2
BRANCH   1  31
ATOM     31  C   UNL A   1      36.352  22.529  23.610  1.00  0.00     0.023 C 
BRANCH  31  32
ATOM     32  C   UNL A   1      36.526  21.915  25.005  1.00  0.00     0.116 C 
BRANCH  32  33
ATOM     33  N   UNL A   1      37.598  20.942  25.136  1.00  0.00    -0.352 N 
ATOM     34  C   UNL A   1      38.832  21.051  25.751  1.00  0.00     0.251 C 
ATOM     35  H   UNL A   1      37.418  20.067  24.722  1.00  0.00     0.163 HD
ATOM     36  O   UNL A   1      39.585  20.079  25.762  1.00  0.00    -0.269 OA
BRANCH  34  37
ATOM     37  C   UNL A   1      39.295  22.326  26.364  1.00  0.00     0.039 A 
ATOM     38  C   UNL A   1      40.403  22.314  27.220  1.00  0.00     0.014 A 
ATOM     39  C   UNL A   1      38.648  23.532  26.132  1.00  0.00     0.014 A 
ATOM     40  C   UNL A   1      40.935  23.518  27.724  1.00  0.00     0.010 A 
ATOM     41  C   UNL A   1      39.216  24.728  26.593  1.00  0.00     0.010 A 
ATOM     42  C   UNL A   1      40.396  24.759  27.349  1.00  0.00    -0.014 A 
BRANCH  42  43
ATOM     43  C   UNL A   1      41.096  26.069  27.614  1.00  0.00     0.031 A 
ATOM     44  C   UNL A   1      42.528  26.335  27.185  1.00  0.00     0.074 A 
ATOM     45  C   UNL A   1      40.510  26.993  28.411  1.00  0.00     0.049 A 
ATOM     46  N   UNL A   1      43.276  27.396  27.400  1.00  0.00    -0.248 NA
ATOM     47  C   UNL A   1      43.230  25.260  26.470  1.00  0.00     0.031 C 
ATOM     48  C   UNL A   1      39.203  26.861  29.058  1.00  0.00     0.029 A 
ATOM     49  N   UNL A   1      40.962  28.221  28.848  1.00  0.00    -0.354 N 
ATOM     50  C   UNL A   1      44.526  27.107  26.863  1.00  0.00     0.074 A 
ATOM     51  C   UNL A   1      44.466  25.735  26.403  1.00  0.00     0.031 C 
ATOM     52  C   UNL A   1      38.959  27.955  29.798  1.00  0.00     0.029 A 
ATOM     53  C   UNL A   1      40.090  28.869  29.692  1.00  0.00     0.049 A 
ATOM     54  H   UNL A   1      41.830  28.600  28.580  1.00  0.00     0.167 HD
ATOM     55  C   UNL A   1      45.610  27.912  26.705  1.00  0.00     0.037 A 
ATOM     56  C   UNL A   1      40.167  30.065  30.308  1.00  0.00     0.037 A 
ATOM     57  C   UNL A   1      45.677  29.296  27.104  1.00  0.00     0.049 A 
ATOM     58  C   UNL A   1      41.337  30.974  30.066  1.00  0.00     0.074 A 
ATOM     59  C   UNL A   1      46.671  30.225  26.835  1.00  0.00     0.029 A 
ATOM     60  N   UNL A   1      44.721  29.950  27.861  1.00  0.00    -0.354 N 
ATOM     61  N   UNL A   1      42.432  30.749  29.385  1.00  0.00    -0.248 NA
ATOM     62  C   UNL A   1      41.258  32.326  30.642  1.00  0.00     0.031 C 
ATOM     63  C   UNL A   1      46.329  31.433  27.455  1.00  0.00     0.029 A 
ATOM     64  C   UNL A   1      45.102  31.267  28.072  1.00  0.00     0.049 A 
ATOM     65  H   UNL A   1      43.892  29.540  28.200  1.00  0.00     0.167 HD
ATOM     66  C   UNL A   1      43.139  31.947  29.397  1.00  0.00     0.074 A 
ATOM     67  C   UNL A   1      42.355  32.892  30.161  1.00  0.00     0.031 C 
ATOM     68  C   UNL A   1      44.323  32.231  28.804  1.00  0.00     0.037 A 
BRANCH  55  69
ATOM     69  C   UNL A   1      46.806  27.334  25.994  1.00  0.00     0.057 A 
ATOM     70  C   UNL A   1      46.970  27.477  24.608  1.00  0.00     0.134 A 
ATOM     71  C   UNL A   1      47.834  26.693  26.697  1.00  0.00     0.134 A 
ATOM     72  F   UNL A   1      46.029  28.089  23.872  1.00  0.00    -0.206 F 
ATOM     73  C   UNL A   1      48.084  26.963  23.942  1.00  0.00     0.040 A 
ATOM     74  C   UNL A   1      48.970  26.204  26.046  1.00  0.00     0.040 A 
ATOM     75  F   UNL A   1      47.761  26.542  28.028  1.00  0.00    -0.206 F 
ATOM     76  C   UNL A   1      49.091  26.330  24.664  1.00  0.00     0.006 A 
ENDBRANCH  55  69
BRANCH  56  77
ATOM     77  C   UNL A   1      39.042  30.527  31.161  1.00  0.00     0.057 A 
ATOM     78  C   UNL A   1      37.989  31.270  30.617  1.00  0.00     0.134 A 
ATOM     79  C   UNL A   1      39.005  30.256  32.533  1.00  0.00     0.134 A 
ATOM     80  F   UNL A   1      37.984  31.574  29.310  1.00  0.00    -0.206 F 
ATOM     81  C   UNL A   1      36.950  31.755  31.411  1.00  0.00     0.040 A 
ATOM     82  C   UNL A   1      37.960  30.717  33.336  1.00  0.00     0.040 A 
ATOM     83  F   UNL A   1      39.980  29.538  33.109  1.00  0.00    -0.206 F 
ATOM     84  C   UNL A   1      36.933  31.476  32.775  1.00  0.00     0.006 A 
ENDBRANCH  56  77
BRANCH  68  85
ATOM     85  C   UNL A   1      44.812  33.650  28.874  1.00  0.00     0.057 A 
ATOM     86  C   UNL A   1      45.653  34.108  29.896  1.00  0.00     0.134 A 
ATOM     87  C   UNL A   1      44.435  34.575  27.890  1.00  0.00     0.134 A 
ATOM     88  F   UNL A   1      46.040  33.281  30.879  1.00  0.00    -0.206 F 
ATOM     89  C   UNL A   1      46.075  35.440  29.955  1.00  0.00     0.040 A 
ATOM     90  C   UNL A   1      44.872  35.900  27.922  1.00  0.00     0.040 A 
ATOM     91  F   UNL A   1      43.635  34.204  26.878  1.00  0.00    -0.206 F 
ATOM     92  C   UNL A   1      45.688  36.338  28.963  1.00  0.00     0.006 A 
ENDBRANCH  68  85
ENDBRANCH  42  43
ENDBRANCH  34  37
ENDBRANCH  32  33
ENDBRANCH  31  32
ENDBRANCH   1  31
TORSDOF 14
ENDMDL
