MODEL 1
REMARK VINA RESULT:     -13.5      0.000      0.000
REMARK SMILES Cc1c(NC(=O)c2ccccc2NC(=O)[C@@H]2CCCO2)cccc1C(=O)NCCCCNC(=O)c1ccc(-c2c3nc(c(-c4c(F)cccc4F)c4ccc([nH]4)c(-c4c(F)cccc4F)c4nc(c(-c5c(F)cccc5F)c5ccc2[nH]5)C=C4)C=C3)cc1
REMARK SMILES IDX 28 1 27 2 25 3 26 4 24 6 1 7 2 8 3 9 21 10 23 11 22 12 4 13
REMARK SMILES IDX 5 14 6 16 7 17 8 18 12 19 9 20 11 21 10 22 13 23 14 24 15 26
REMARK SMILES IDX 16 27 17 28 20 29 18 30 19 31 29 32 30 33 31 34 32 35 33 36
REMARK SMILES IDX 34 38 35 39 36 40 88 41 37 42 87 43 38 44 39 45 40 46 81 47
REMARK SMILES IDX 41 48 86 49 80 50 82 51 42 52 85 53 79 54 78 55 43 57 69 58
REMARK SMILES IDX 52 59 68 60 53 61 56 62 67 63 83 64 54 65 55 66 66 68 84 69
REMARK SMILES IDX 57 70 44 71 45 72 50 73 46 74 47 75 49 76 51 77 48 78 70 79
REMARK SMILES IDX 71 80 76 81 72 82 73 83 75 84 77 85 74 86 58 87 59 88 64 89
REMARK SMILES IDX 60 90 61 91 63 92 65 93 62 94
REMARK H PARENT 27 5 4 15 13 25 32 37 82 56 56 67
REMARK Flexibility Score: inf
ROOT
ATOM      1  C   UNL A   1      33.664  29.218  25.160  1.00  0.00     0.116 C 
ENDROOT
BRANCH   1   2
ATOM      2  N   UNL A   1      32.323  29.528  24.707  1.00  0.00    -0.352 N 
ATOM      3  C   UNL A   1      31.288  28.846  24.121  1.00  0.00     0.251 C 
ATOM      4  O   UNL A   1      30.280  29.540  23.930  1.00  0.00    -0.269 OA
ATOM      5  H   UNL A   1      32.097  30.475  24.856  1.00  0.00     0.163 HD
BRANCH   3   6
ATOM      6  C   UNL A   1      31.208  27.381  23.761  1.00  0.00     0.044 A 
ATOM      7  C   UNL A   1      30.706  26.357  26.053  1.00  0.00     0.047 C 
ATOM      8  C   UNL A   1      30.892  26.265  24.568  1.00  0.00    -0.015 A 
ATOM      9  C   UNL A   1      30.963  24.950  24.021  1.00  0.00     0.045 A 
ATOM     10  C   UNL A   1      31.431  24.725  22.730  1.00  0.00     0.026 A 
ATOM     11  C   UNL A   1      31.665  27.109  22.448  1.00  0.00     0.014 A 
ATOM     12  C   UNL A   1      31.793  25.810  21.946  1.00  0.00     0.003 A 
BRANCH   9  13
ATOM     13  N   UNL A   1      30.586  23.887  24.857  1.00  0.00    -0.322 N 
ATOM     14  C   UNL A   1      31.292  22.866  25.441  1.00  0.00     0.257 C 
ATOM     15  H   UNL A   1      29.624  23.870  25.067  1.00  0.00     0.170 HD
ATOM     16  O   UNL A   1      30.659  22.015  26.072  1.00  0.00    -0.269 OA
BRANCH  14  17
ATOM     17  C   UNL A   1      32.777  22.771  25.421  1.00  0.00     0.063 A 
ATOM     18  C   UNL A   1      33.414  23.835  26.090  1.00  0.00     0.016 A 
ATOM     19  C   UNL A   1      33.546  21.800  24.730  1.00  0.00     0.054 A 
ATOM     20  C   UNL A   1      34.798  23.906  26.158  1.00  0.00     0.001 A 
ATOM     21  C   UNL A   1      34.933  21.845  24.901  1.00  0.00     0.027 A 
ATOM     22  C   UNL A   1      35.554  22.891  25.594  1.00  0.00     0.002 A 
BRANCH  19  23
ATOM     23  N   UNL A   1      32.900  20.887  23.867  1.00  0.00    -0.323 N 
ATOM     24  C   UNL A   1      32.639  19.547  23.823  1.00  0.00     0.253 C 
ATOM     25  H   UNL A   1      32.535  21.346  23.076  1.00  0.00     0.170 HD
ATOM     26  O   UNL A   1      31.988  19.154  22.846  1.00  0.00    -0.272 OA
BRANCH  24  27
ATOM     27  C   UNL A   1      33.158  18.561  24.870  1.00  0.00     0.207 C 
ATOM     28  C   UNL A   1      34.219  17.660  24.251  1.00  0.00     0.044 C 
ATOM     29  O   UNL A   1      32.152  17.666  25.383  1.00  0.00    -0.368 OA
ATOM     30  C   UNL A   1      34.151  16.439  25.128  1.00  0.00     0.032 C 
ATOM     31  C   UNL A   1      32.666  16.329  25.376  1.00  0.00     0.161 C 
ENDBRANCH  24  27
ENDBRANCH  19  23
ENDBRANCH  14  17
ENDBRANCH   9  13
ENDBRANCH   3   6
ENDBRANCH   1   2
BRANCH   1  32
ATOM     32  C   UNL A   1      33.667  28.813  26.649  1.00  0.00     0.023 C 
BRANCH  32  33
ATOM     33  C   UNL A   1      33.617  29.965  27.645  1.00  0.00     0.023 C 
BRANCH  33  34
ATOM     34  C   UNL A   1      34.595  31.073  27.312  1.00  0.00     0.116 C 
BRANCH  34  35
ATOM     35  N   UNL A   1      35.237  31.701  28.464  1.00  0.00    -0.352 N 
ATOM     36  C   UNL A   1      36.224  31.200  29.298  1.00  0.00     0.251 C 
ATOM     37  H   UNL A   1      34.924  32.610  28.678  1.00  0.00     0.163 HD
ATOM     38  O   UNL A   1      36.599  31.855  30.269  1.00  0.00    -0.269 OA
BRANCH  36  39
ATOM     39  C   UNL A   1      36.951  29.959  28.921  1.00  0.00     0.039 A 
ATOM     40  C   UNL A   1      37.050  28.956  29.891  1.00  0.00     0.014 A 
ATOM     41  C   UNL A   1      37.785  29.933  27.810  1.00  0.00     0.014 A 
ATOM     42  C   UNL A   1      38.186  28.155  29.921  1.00  0.00     0.010 A 
ATOM     43  C   UNL A   1      38.980  29.255  27.919  1.00  0.00     0.010 A 
ATOM     44  C   UNL A   1      39.214  28.431  29.024  1.00  0.00    -0.014 A 
BRANCH  44  45
ATOM     45  C   UNL A   1      40.601  28.046  29.262  1.00  0.00     0.031 A 
ATOM     46  C   UNL A   1      41.138  26.797  28.689  1.00  0.00     0.074 A 
ATOM     47  C   UNL A   1      41.420  28.905  29.911  1.00  0.00     0.049 A 
ATOM     48  N   UNL A   1      42.199  26.196  29.110  1.00  0.00    -0.248 NA
ATOM     49  C   UNL A   1      40.467  26.081  27.613  1.00  0.00     0.031 C 
ATOM     50  C   UNL A   1      42.877  28.866  29.979  1.00  0.00     0.029 A 
ATOM     51  N   UNL A   1      41.057  29.905  30.826  1.00  0.00    -0.354 N 
ATOM     52  C   UNL A   1      42.515  25.210  28.201  1.00  0.00     0.074 A 
ATOM     53  C   UNL A   1      41.354  25.120  27.350  1.00  0.00     0.031 C 
ATOM     54  C   UNL A   1      43.281  29.566  31.050  1.00  0.00     0.029 A 
ATOM     55  C   UNL A   1      42.090  29.953  31.786  1.00  0.00     0.049 A 
ATOM     56  H   UNL A   1      40.245  30.461  30.804  1.00  0.00     0.167 HD
ATOM     57  C   UNL A   1      43.780  24.696  28.200  1.00  0.00     0.037 A 
ATOM     58  C   UNL A   1      41.852  29.644  33.095  1.00  0.00     0.037 A 
ATOM     59  C   UNL A   1      44.535  25.183  29.361  1.00  0.00     0.049 A 
ATOM     60  C   UNL A   1      42.631  28.449  33.597  1.00  0.00     0.074 A 
ATOM     61  C   UNL A   1      45.491  26.174  29.515  1.00  0.00     0.029 A 
ATOM     62  N   UNL A   1      44.119  24.839  30.644  1.00  0.00    -0.354 N 
ATOM     63  N   UNL A   1      43.233  27.593  32.818  1.00  0.00    -0.248 NA
ATOM     64  C   UNL A   1      42.767  28.102  35.010  1.00  0.00     0.031 C 
ATOM     65  C   UNL A   1      45.591  26.478  30.898  1.00  0.00     0.029 A 
ATOM     66  C   UNL A   1      44.716  25.656  31.585  1.00  0.00     0.049 A 
ATOM     67  H   UNL A   1      43.487  24.113  30.852  1.00  0.00     0.167 HD
ATOM     68  C   UNL A   1      43.776  26.588  33.572  1.00  0.00     0.074 A 
ATOM     69  C   UNL A   1      43.484  26.967  34.941  1.00  0.00     0.031 C 
ATOM     70  C   UNL A   1      44.403  25.516  33.001  1.00  0.00     0.037 A 
BRANCH  57  71
ATOM     71  C   UNL A   1      44.437  24.019  27.002  1.00  0.00     0.057 A 
ATOM     72  C   UNL A   1      44.153  22.671  26.699  1.00  0.00     0.134 A 
ATOM     73  C   UNL A   1      45.416  24.584  26.165  1.00  0.00     0.134 A 
ATOM     74  F   UNL A   1      43.162  22.004  27.305  1.00  0.00    -0.206 F 
ATOM     75  C   UNL A   1      44.871  21.924  25.751  1.00  0.00     0.040 A 
ATOM     76  C   UNL A   1      46.169  23.843  25.241  1.00  0.00     0.040 A 
ATOM     77  F   UNL A   1      45.661  25.896  26.137  1.00  0.00    -0.206 F 
ATOM     78  C   UNL A   1      45.912  22.500  25.044  1.00  0.00     0.006 A 
ENDBRANCH  57  71
BRANCH  58  79
ATOM     79  C   UNL A   1      40.492  30.033  33.550  1.00  0.00     0.057 A 
ATOM     80  C   UNL A   1      40.266  31.372  33.916  1.00  0.00     0.134 A 
ATOM     81  C   UNL A   1      39.368  29.252  33.271  1.00  0.00     0.134 A 
ATOM     82  F   UNL A   1      41.304  32.177  34.197  1.00  0.00    -0.206 F 
ATOM     83  C   UNL A   1      38.990  31.940  33.892  1.00  0.00     0.040 A 
ATOM     84  C   UNL A   1      38.083  29.809  33.253  1.00  0.00     0.040 A 
ATOM     85  F   UNL A   1      39.503  27.974  32.888  1.00  0.00    -0.206 F 
ATOM     86  C   UNL A   1      37.897  31.164  33.524  1.00  0.00     0.006 A 
ENDBRANCH  58  79
BRANCH  70  87
ATOM     87  C   UNL A   1      44.839  24.267  33.723  1.00  0.00     0.057 A 
ATOM     88  C   UNL A   1      43.973  23.232  34.104  1.00  0.00     0.134 A 
ATOM     89  C   UNL A   1      46.213  24.005  33.922  1.00  0.00     0.134 A 
ATOM     90  F   UNL A   1      42.653  23.306  33.879  1.00  0.00    -0.206 F 
ATOM     91  C   UNL A   1      44.433  22.043  34.685  1.00  0.00     0.040 A 
ATOM     92  C   UNL A   1      46.687  22.801  34.452  1.00  0.00     0.040 A 
ATOM     93  F   UNL A   1      47.155  24.899  33.588  1.00  0.00    -0.206 F 
ATOM     94  C   UNL A   1      45.795  21.818  34.848  1.00  0.00     0.006 A 
ENDBRANCH  70  87
ENDBRANCH  44  45
ENDBRANCH  36  39
ENDBRANCH  34  35
ENDBRANCH  33  34
ENDBRANCH  32  33
ENDBRANCH   1  32
TORSDOF 15
ENDMDL
MODEL 2
REMARK VINA RESULT:     -13.2      1.942      3.111
REMARK SMILES Cc1c(NC(=O)c2ccccc2NC(=O)[C@@H]2CCCO2)cccc1C(=O)NCCCCNC(=O)c1ccc(-c2c3nc(c(-c4c(F)cccc4F)c4ccc([nH]4)c(-c4c(F)cccc4F)c4nc(c(-c5c(F)cccc5F)c5ccc2[nH]5)C=C4)C=C3)cc1
REMARK SMILES IDX 28 1 27 2 25 3 26 4 24 6 1 7 2 8 3 9 21 10 23 11 22 12 4 13
REMARK SMILES IDX 5 14 6 16 7 17 8 18 12 19 9 20 11 21 10 22 13 23 14 24 15 26
REMARK SMILES IDX 16 27 17 28 20 29 18 30 19 31 29 32 30 33 31 34 32 35 33 36
REMARK SMILES IDX 34 38 35 39 36 40 88 41 37 42 87 43 38 44 39 45 40 46 81 47
REMARK SMILES IDX 41 48 86 49 80 50 82 51 42 52 85 53 79 54 78 55 43 57 69 58
REMARK SMILES IDX 52 59 68 60 53 61 56 62 67 63 83 64 54 65 55 66 66 68 84 69
REMARK SMILES IDX 57 70 44 71 45 72 50 73 46 74 47 75 49 76 51 77 48 78 70 79
REMARK SMILES IDX 71 80 76 81 72 82 73 83 75 84 77 85 74 86 58 87 59 88 64 89
REMARK SMILES IDX 60 90 61 91 63 92 65 93 62 94
REMARK H PARENT 27 5 4 15 13 25 32 37 82 56 56 67
REMARK Flexibility Score: inf
ROOT
ATOM      1  C   UNL A   1      33.443  29.303  25.371  1.00  0.00     0.116 C 
ENDROOT
BRANCH   1   2
ATOM      2  N   UNL A   1      32.144  29.612  24.809  1.00  0.00    -0.352 N 
ATOM      3  C   UNL A   1      31.162  28.929  24.139  1.00  0.00     0.251 C 
ATOM      4  O   UNL A   1      30.172  29.621  23.866  1.00  0.00    -0.269 OA
ATOM      5  H   UNL A   1      31.905  30.558  24.941  1.00  0.00     0.163 HD
BRANCH   3   6
ATOM      6  C   UNL A   1      31.116  27.465  23.771  1.00  0.00     0.044 A 
ATOM      7  C   UNL A   1      30.639  26.417  26.058  1.00  0.00     0.047 C 
ATOM      8  C   UNL A   1      30.826  26.337  24.572  1.00  0.00    -0.015 A 
ATOM      9  C   UNL A   1      30.926  25.027  24.018  1.00  0.00     0.045 A 
ATOM     10  C   UNL A   1      31.398  24.820  22.725  1.00  0.00     0.026 A 
ATOM     11  C   UNL A   1      31.578  27.210  22.456  1.00  0.00     0.014 A 
ATOM     12  C   UNL A   1      31.735  25.917  21.946  1.00  0.00     0.003 A 
BRANCH   9  13
ATOM     13  N   UNL A   1      30.575  23.951  24.849  1.00  0.00    -0.322 N 
ATOM     14  C   UNL A   1      31.301  22.933  25.412  1.00  0.00     0.257 C 
ATOM     15  H   UNL A   1      29.616  23.921  25.072  1.00  0.00     0.170 HD
ATOM     16  O   UNL A   1      30.688  22.069  26.043  1.00  0.00    -0.269 OA
BRANCH  14  17
ATOM     17  C   UNL A   1      32.787  22.858  25.371  1.00  0.00     0.063 A 
ATOM     18  C   UNL A   1      33.420  23.923  26.042  1.00  0.00     0.016 A 
ATOM     19  C   UNL A   1      33.558  21.903  24.659  1.00  0.00     0.054 A 
ATOM     20  C   UNL A   1      34.804  24.010  26.091  1.00  0.00     0.001 A 
ATOM     21  C   UNL A   1      34.946  21.964  24.811  1.00  0.00     0.027 A 
ATOM     22  C   UNL A   1      35.564  23.010  25.506  1.00  0.00     0.002 A 
BRANCH  19  23
ATOM     23  N   UNL A   1      32.911  20.991  23.795  1.00  0.00    -0.323 N 
ATOM     24  C   UNL A   1      32.649  19.652  23.751  1.00  0.00     0.253 C 
ATOM     25  H   UNL A   1      32.547  21.451  23.004  1.00  0.00     0.170 HD
ATOM     26  O   UNL A   1      31.997  19.259  22.774  1.00  0.00    -0.272 OA
BRANCH  24  27
ATOM     27  C   UNL A   1      33.166  18.664  24.798  1.00  0.00     0.207 C 
ATOM     28  C   UNL A   1      34.199  17.737  24.170  1.00  0.00     0.044 C 
ATOM     29  O   UNL A   1      32.152  17.795  25.336  1.00  0.00    -0.368 OA
ATOM     30  C   UNL A   1      34.122  16.526  25.058  1.00  0.00     0.032 C 
ATOM     31  C   UNL A   1      32.639  16.447  25.332  1.00  0.00     0.161 C 
ENDBRANCH  24  27
ENDBRANCH  19  23
ENDBRANCH  14  17
ENDBRANCH   9  13
ENDBRANCH   3   6
ENDBRANCH   1   2
BRANCH   1  32
ATOM     32  C   UNL A   1      33.417  29.387  26.911  1.00  0.00     0.023 C 
BRANCH  32  33
ATOM     33  C   UNL A   1      34.779  29.460  27.591  1.00  0.00     0.023 C 
BRANCH  33  34
ATOM     34  C   UNL A   1      35.337  30.868  27.638  1.00  0.00     0.116 C 
BRANCH  34  35
ATOM     35  N   UNL A   1      34.352  31.918  27.880  1.00  0.00    -0.352 N 
ATOM     36  C   UNL A   1      34.305  32.859  28.897  1.00  0.00     0.251 C 
ATOM     37  H   UNL A   1      33.615  31.965  27.227  1.00  0.00     0.163 HD
ATOM     38  O   UNL A   1      33.351  33.630  28.977  1.00  0.00    -0.269 OA
BRANCH  36  39
ATOM     39  C   UNL A   1      35.486  33.051  29.780  1.00  0.00     0.039 A 
ATOM     40  C   UNL A   1      36.529  33.843  29.289  1.00  0.00     0.014 A 
ATOM     41  C   UNL A   1      35.702  32.216  30.869  1.00  0.00     0.014 A 
ATOM     42  C   UNL A   1      37.836  33.541  29.656  1.00  0.00     0.010 A 
ATOM     43  C   UNL A   1      36.995  31.809  31.119  1.00  0.00     0.010 A 
ATOM     44  C   UNL A   1      38.059  32.416  30.444  1.00  0.00    -0.014 A 
BRANCH  44  45
ATOM     45  C   UNL A   1      39.334  31.707  30.475  1.00  0.00     0.031 A 
ATOM     46  C   UNL A   1      39.499  30.433  29.750  1.00  0.00     0.074 A 
ATOM     47  C   UNL A   1      40.396  32.291  31.077  1.00  0.00     0.049 A 
ATOM     48  N   UNL A   1      40.427  29.570  29.989  1.00  0.00    -0.248 NA
ATOM     49  C   UNL A   1      38.569  29.998  28.718  1.00  0.00     0.031 C 
ATOM     50  C   UNL A   1      41.802  31.918  30.958  1.00  0.00     0.029 A 
ATOM     51  N   UNL A   1      40.377  33.249  32.101  1.00  0.00    -0.354 N 
ATOM     52  C   UNL A   1      40.404  28.635  28.977  1.00  0.00     0.074 A 
ATOM     53  C   UNL A   1      39.172  28.894  28.276  1.00  0.00     0.031 C 
ATOM     54  C   UNL A   1      42.470  32.399  32.017  1.00  0.00     0.029 A 
ATOM     55  C   UNL A   1      41.488  32.968  32.924  1.00  0.00     0.049 A 
ATOM     56  H   UNL A   1      39.721  33.973  32.222  1.00  0.00     0.167 HD
ATOM     57  C   UNL A   1      41.506  27.852  28.779  1.00  0.00     0.037 A 
ATOM     58  C   UNL A   1      41.324  32.591  34.227  1.00  0.00     0.037 A 
ATOM     59  C   UNL A   1      42.473  28.038  29.868  1.00  0.00     0.049 A 
ATOM     60  C   UNL A   1      41.850  31.207  34.538  1.00  0.00     0.074 A 
ATOM     61  C   UNL A   1      43.646  28.768  29.973  1.00  0.00     0.029 A 
ATOM     62  N   UNL A   1      42.126  27.669  31.165  1.00  0.00    -0.354 N 
ATOM     63  N   UNL A   1      42.147  30.320  33.629  1.00  0.00    -0.248 NA
ATOM     64  C   UNL A   1      42.049  30.699  35.893  1.00  0.00     0.031 C 
ATOM     65  C   UNL A   1      43.960  28.902  31.350  1.00  0.00     0.029 A 
ATOM     66  C   UNL A   1      42.994  28.234  32.081  1.00  0.00     0.049 A 
ATOM     67  H   UNL A   1      41.367  27.087  31.398  1.00  0.00     0.167 HD
ATOM     68  C   UNL A   1      42.516  29.148  34.233  1.00  0.00     0.074 A 
ATOM     69  C   UNL A   1      42.467  29.444  35.652  1.00  0.00     0.031 C 
ATOM     70  C   UNL A   1      42.809  28.026  33.510  1.00  0.00     0.037 A 
BRANCH  57  71
ATOM     71  C   UNL A   1      41.855  27.169  27.462  1.00  0.00     0.057 A 
ATOM     72  C   UNL A   1      41.866  25.761  27.369  1.00  0.00     0.134 A 
ATOM     73  C   UNL A   1      42.277  27.808  26.283  1.00  0.00     0.134 A 
ATOM     74  F   UNL A   1      41.378  24.984  28.346  1.00  0.00    -0.206 F 
ATOM     75  C   UNL A   1      42.377  25.063  26.262  1.00  0.00     0.040 A 
ATOM     76  C   UNL A   1      42.827  27.129  25.185  1.00  0.00     0.040 A 
ATOM     77  F   UNL A   1      42.124  29.120  26.088  1.00  0.00    -0.206 F 
ATOM     78  C   UNL A   1      42.897  25.748  25.178  1.00  0.00     0.006 A 
ENDBRANCH  57  71
BRANCH  58  79
ATOM     79  C   UNL A   1      40.150  33.228  34.877  1.00  0.00     0.057 A 
ATOM     80  C   UNL A   1      38.944  32.506  34.938  1.00  0.00     0.134 A 
ATOM     81  C   UNL A   1      40.285  34.313  35.746  1.00  0.00     0.134 A 
ATOM     82  F   UNL A   1      38.750  31.450  34.131  1.00  0.00    -0.206 F 
ATOM     83  C   UNL A   1      37.967  32.777  35.899  1.00  0.00     0.040 A 
ATOM     84  C   UNL A   1      39.308  34.601  36.707  1.00  0.00     0.040 A 
ATOM     85  F   UNL A   1      41.416  35.033  35.767  1.00  0.00    -0.206 F 
ATOM     86  C   UNL A   1      38.165  33.808  36.811  1.00  0.00     0.006 A 
ENDBRANCH  58  79
BRANCH  70  87
ATOM     87  C   UNL A   1      43.013  26.645  34.079  1.00  0.00     0.057 A 
ATOM     88  C   UNL A   1      42.043  25.938  34.802  1.00  0.00     0.134 A 
ATOM     89  C   UNL A   1      44.182  25.914  33.767  1.00  0.00     0.134 A 
ATOM     90  F   UNL A   1      40.846  26.475  35.079  1.00  0.00    -0.206 F 
ATOM     91  C   UNL A   1      42.237  24.617  35.228  1.00  0.00     0.040 A 
ATOM     92  C   UNL A   1      44.365  24.580  34.141  1.00  0.00     0.040 A 
ATOM     93  F   UNL A   1      45.185  26.461  33.065  1.00  0.00    -0.206 F 
ATOM     94  C   UNL A   1      43.395  23.929  34.885  1.00  0.00     0.006 A 
ENDBRANCH  70  87
ENDBRANCH  44  45
ENDBRANCH  36  39
ENDBRANCH  34  35
ENDBRANCH  33  34
ENDBRANCH  32  33
ENDBRANCH   1  32
TORSDOF 15
ENDMDL
MODEL 3
REMARK VINA RESULT:     -13.1      3.123      8.915
REMARK SMILES Cc1c(NC(=O)c2ccccc2NC(=O)[C@@H]2CCCO2)cccc1C(=O)NCCCCNC(=O)c1ccc(-c2c3nc(c(-c4c(F)cccc4F)c4ccc([nH]4)c(-c4c(F)cccc4F)c4nc(c(-c5c(F)cccc5F)c5ccc2[nH]5)C=C4)C=C3)cc1
REMARK SMILES IDX 28 1 27 2 25 3 26 4 24 6 1 7 2 8 3 9 21 10 23 11 22 12 4 13
REMARK SMILES IDX 5 14 6 16 7 17 8 18 12 19 9 20 11 21 10 22 13 23 14 24 15 26
REMARK SMILES IDX 16 27 17 28 20 29 18 30 19 31 29 32 30 33 31 34 32 35 33 36
REMARK SMILES IDX 34 38 35 39 36 40 88 41 37 42 87 43 38 44 39 45 40 46 81 47
REMARK SMILES IDX 41 48 86 49 80 50 82 51 42 52 85 53 79 54 78 55 43 57 69 58
REMARK SMILES IDX 52 59 68 60 53 61 56 62 67 63 83 64 54 65 55 66 66 68 84 69
REMARK SMILES IDX 57 70 44 71 45 72 50 73 46 74 47 75 49 76 51 77 48 78 70 79
REMARK SMILES IDX 71 80 76 81 72 82 73 83 75 84 77 85 74 86 58 87 59 88 64 89
REMARK SMILES IDX 60 90 61 91 63 92 65 93 62 94
REMARK H PARENT 27 5 4 15 13 25 32 37 82 56 56 67
REMARK Flexibility Score: inf
ROOT
ATOM      1  C   UNL A   1      36.246  21.785  25.846  1.00  0.00     0.116 C 
ENDROOT
BRANCH   1   2
ATOM      2  N   UNL A   1      35.474  20.664  25.347  1.00  0.00    -0.352 N 
ATOM      3  C   UNL A   1      34.222  20.473  24.824  1.00  0.00     0.251 C 
ATOM      4  O   UNL A   1      33.993  19.301  24.496  1.00  0.00    -0.269 OA
ATOM      5  H   UNL A   1      35.980  19.821  25.398  1.00  0.00     0.163 HD
BRANCH   3   6
ATOM      6  C   UNL A   1      33.151  21.501  24.542  1.00  0.00     0.044 A 
ATOM      7  C   UNL A   1      34.338  22.955  22.802  1.00  0.00     0.047 C 
ATOM      8  C   UNL A   1      33.139  22.568  23.616  1.00  0.00    -0.015 A 
ATOM      9  C   UNL A   1      32.037  23.471  23.586  1.00  0.00     0.045 A 
ATOM     10  C   UNL A   1      31.005  23.389  24.516  1.00  0.00     0.026 A 
ATOM     11  C   UNL A   1      32.074  21.444  25.461  1.00  0.00     0.014 A 
ATOM     12  C   UNL A   1      31.032  22.376  25.464  1.00  0.00     0.003 A 
BRANCH   9  13
ATOM     13  N   UNL A   1      32.060  24.479  22.609  1.00  0.00    -0.322 N 
ATOM     14  C   UNL A   1      32.081  25.849  22.683  1.00  0.00     0.257 C 
ATOM     15  H   UNL A   1      32.062  24.135  21.686  1.00  0.00     0.170 HD
ATOM     16  O   UNL A   1      32.014  26.484  21.627  1.00  0.00    -0.269 OA
BRANCH  14  17
ATOM     17  C   UNL A   1      32.259  26.604  23.952  1.00  0.00     0.063 A 
ATOM     18  C   UNL A   1      33.553  26.486  24.497  1.00  0.00     0.016 A 
ATOM     19  C   UNL A   1      31.248  27.306  24.658  1.00  0.00     0.054 A 
ATOM     20  C   UNL A   1      33.886  27.122  25.685  1.00  0.00     0.001 A 
ATOM     21  C   UNL A   1      31.641  28.014  25.798  1.00  0.00     0.027 A 
ATOM     22  C   UNL A   1      32.939  27.914  26.313  1.00  0.00     0.002 A 
BRANCH  19  23
ATOM     23  N   UNL A   1      29.906  27.212  24.228  1.00  0.00    -0.323 N 
ATOM     24  C   UNL A   1      29.069  27.871  23.374  1.00  0.00     0.253 C 
ATOM     25  H   UNL A   1      29.446  26.459  24.666  1.00  0.00     0.170 HD
ATOM     26  O   UNL A   1      27.922  27.411  23.278  1.00  0.00    -0.272 OA
BRANCH  24  27
ATOM     27  C   UNL A   1      29.474  29.136  22.618  1.00  0.00     0.207 C 
ATOM     28  C   UNL A   1      29.396  30.342  23.545  1.00  0.00     0.044 C 
ATOM     29  O   UNL A   1      28.614  29.456  21.507  1.00  0.00    -0.368 OA
ATOM     30  C   UNL A   1      29.196  31.476  22.578  1.00  0.00     0.032 C 
ATOM     31  C   UNL A   1      28.273  30.846  21.562  1.00  0.00     0.161 C 
ENDBRANCH  24  27
ENDBRANCH  19  23
ENDBRANCH  14  17
ENDBRANCH   9  13
ENDBRANCH   3   6
ENDBRANCH   1   2
BRANCH   1  32
ATOM     32  C   UNL A   1      37.692  21.746  25.311  1.00  0.00     0.023 C 
BRANCH  32  33
ATOM     33  C   UNL A   1      38.646  22.769  25.916  1.00  0.00     0.023 C 
BRANCH  33  34
ATOM     34  C   UNL A   1      39.705  22.137  26.796  1.00  0.00     0.116 C 
BRANCH  34  35
ATOM     35  N   UNL A   1      40.441  21.034  26.186  1.00  0.00    -0.352 N 
ATOM     36  C   UNL A   1      41.811  20.851  26.072  1.00  0.00     0.251 C 
ATOM     37  H   UNL A   1      39.886  20.317  25.802  1.00  0.00     0.163 HD
ATOM     38  O   UNL A   1      42.252  19.881  25.459  1.00  0.00    -0.269 OA
BRANCH  36  39
ATOM     39  C   UNL A   1      42.739  21.727  26.835  1.00  0.00     0.039 A 
ATOM     40  C   UNL A   1      42.673  21.665  28.231  1.00  0.00     0.014 A 
ATOM     41  C   UNL A   1      43.378  22.794  26.218  1.00  0.00     0.014 A 
ATOM     42  C   UNL A   1      42.929  22.815  28.970  1.00  0.00     0.010 A 
ATOM     43  C   UNL A   1      43.484  23.974  26.922  1.00  0.00     0.010 A 
ATOM     44  C   UNL A   1      43.174  24.001  28.285  1.00  0.00    -0.014 A 
BRANCH  44  45
ATOM     45  C   UNL A   1      42.953  25.319  28.872  1.00  0.00     0.031 A 
ATOM     46  C   UNL A   1      41.779  26.123  28.485  1.00  0.00     0.074 A 
ATOM     47  C   UNL A   1      43.772  25.742  29.863  1.00  0.00     0.049 A 
ATOM     48  N   UNL A   1      41.674  27.396  28.658  1.00  0.00    -0.248 NA
ATOM     49  C   UNL A   1      40.632  25.545  27.799  1.00  0.00     0.031 C 
ATOM     50  C   UNL A   1      43.554  26.854  30.783  1.00  0.00     0.029 A 
ATOM     51  N   UNL A   1      45.096  25.347  30.104  1.00  0.00    -0.354 N 
ATOM     52  C   UNL A   1      40.370  27.753  28.393  1.00  0.00     0.074 A 
ATOM     53  C   UNL A   1      39.797  26.585  27.771  1.00  0.00     0.031 C 
ATOM     54  C   UNL A   1      44.737  27.243  31.282  1.00  0.00     0.029 A 
ATOM     55  C   UNL A   1      45.767  26.492  30.586  1.00  0.00     0.049 A 
ATOM     56  H   UNL A   1      45.481  24.451  29.966  1.00  0.00     0.167 HD
ATOM     57  C   UNL A   1      39.905  28.947  28.867  1.00  0.00     0.037 A 
ATOM     58  C   UNL A   1      46.799  27.051  29.887  1.00  0.00     0.037 A 
ATOM     59  C   UNL A   1      41.004  29.743  29.426  1.00  0.00     0.049 A 
ATOM     60  C   UNL A   1      46.536  28.470  29.434  1.00  0.00     0.074 A 
ATOM     61  C   UNL A   1      41.431  29.982  30.722  1.00  0.00     0.029 A 
ATOM     62  N   UNL A   1      42.028  30.180  28.590  1.00  0.00    -0.354 N 
ATOM     63  N   UNL A   1      45.355  29.022  29.418  1.00  0.00    -0.248 NA
ATOM     64  C   UNL A   1      47.574  29.366  28.930  1.00  0.00     0.031 C 
ATOM     65  C   UNL A   1      42.752  30.495  30.663  1.00  0.00     0.029 A 
ATOM     66  C   UNL A   1      43.119  30.591  29.332  1.00  0.00     0.049 A 
ATOM     67  H   UNL A   1      41.981  30.195  27.607  1.00  0.00     0.167 HD
ATOM     68  C   UNL A   1      45.442  30.279  28.880  1.00  0.00     0.074 A 
ATOM     69  C   UNL A   1      46.857  30.460  28.617  1.00  0.00     0.031 C 
ATOM     70  C   UNL A   1      44.335  31.053  28.677  1.00  0.00     0.037 A 
BRANCH  57  71
ATOM     71  C   UNL A   1      38.434  29.262  29.118  1.00  0.00     0.057 A 
ATOM     72  C   UNL A   1      37.628  29.781  28.082  1.00  0.00     0.134 A 
ATOM     73  C   UNL A   1      37.767  29.176  30.353  1.00  0.00     0.134 A 
ATOM     74  F   UNL A   1      38.050  29.820  26.811  1.00  0.00    -0.206 F 
ATOM     75  C   UNL A   1      36.336  30.290  28.290  1.00  0.00     0.040 A 
ATOM     76  C   UNL A   1      36.493  29.715  30.587  1.00  0.00     0.040 A 
ATOM     77  F   UNL A   1      38.273  28.509  31.393  1.00  0.00    -0.206 F 
ATOM     78  C   UNL A   1      35.777  30.295  29.556  1.00  0.00     0.006 A 
ENDBRANCH  57  71
BRANCH  58  79
ATOM     79  C   UNL A   1      47.616  26.052  29.150  1.00  0.00     0.057 A 
ATOM     80  C   UNL A   1      47.341  25.836  27.788  1.00  0.00     0.134 A 
ATOM     81  C   UNL A   1      48.855  25.617  29.626  1.00  0.00     0.134 A 
ATOM     82  F   UNL A   1      46.168  26.233  27.267  1.00  0.00    -0.206 F 
ATOM     83  C   UNL A   1      48.299  25.318  26.913  1.00  0.00     0.040 A 
ATOM     84  C   UNL A   1      49.820  25.086  28.760  1.00  0.00     0.040 A 
ATOM     85  F   UNL A   1      49.201  25.812  30.906  1.00  0.00    -0.206 F 
ATOM     86  C   UNL A   1      49.557  24.973  27.395  1.00  0.00     0.006 A 
ENDBRANCH  58  79
BRANCH  70  87
ATOM     87  C   UNL A   1      44.300  32.347  27.904  1.00  0.00     0.057 A 
ATOM     88  C   UNL A   1      44.021  33.598  28.472  1.00  0.00     0.134 A 
ATOM     89  C   UNL A   1      44.711  32.378  26.552  1.00  0.00     0.134 A 
ATOM     90  F   UNL A   1      43.718  33.726  29.771  1.00  0.00    -0.206 F 
ATOM     91  C   UNL A   1      44.096  34.789  27.738  1.00  0.00     0.040 A 
ATOM     92  C   UNL A   1      44.840  33.565  25.826  1.00  0.00     0.040 A 
ATOM     93  F   UNL A   1      45.026  31.256  25.888  1.00  0.00    -0.206 F 
ATOM     94  C   UNL A   1      44.520  34.777  26.414  1.00  0.00     0.006 A 
ENDBRANCH  70  87
ENDBRANCH  44  45
ENDBRANCH  36  39
ENDBRANCH  34  35
ENDBRANCH  33  34
ENDBRANCH  32  33
ENDBRANCH   1  32
TORSDOF 15
ENDMDL
