MODEL 1
REMARK VINA RESULT:     -11.0      0.000      0.000
REMARK SMILES CCOc1cc(OCC)cc(-c2ccc([C@@H](C)C(=O)NCCCCNC(=O)c3ccc(-c4c5nc(c(-c6c(F)cccc6F)c6ccc([nH]6)c(-c6c(F)cccc6F)c6nc(c(-c7c(F)cccc7F)c7ccc4[nH]7)C=C6)C=C5)cc3)cc2)c1
REMARK SMILES IDX 21 1 20 2 18 3 19 4 16 6 17 7 15 8 12 9 13 10 83 11 14 12
REMARK SMILES IDX 82 13 11 14 4 15 5 16 84 17 6 18 10 19 3 20 2 21 1 22 7 23
REMARK SMILES IDX 8 24 9 25 22 26 23 27 24 28 25 29 26 30 27 32 28 33 29 34
REMARK SMILES IDX 81 35 30 36 80 37 31 38 32 39 33 40 74 41 34 42 79 43 73 44
REMARK SMILES IDX 75 45 35 46 78 47 72 48 71 49 36 51 62 52 45 53 61 54 46 55
REMARK SMILES IDX 49 56 60 57 76 58 47 59 48 60 59 62 77 63 50 64 37 65 38 66
REMARK SMILES IDX 43 67 39 68 40 69 42 70 44 71 41 72 63 73 64 74 69 75 65 76
REMARK SMILES IDX 66 77 68 78 70 79 67 80 51 81 52 82 57 83 53 84 54 85 56 86
REMARK SMILES IDX 58 87 55 88
REMARK H PARENT 20 5 25 31 75 50 49 61
REMARK Flexibility Score: inf
ROOT
ATOM      1  C   UNL A   1      30.942  29.807  24.943  1.00  0.00     0.116 C 
ENDROOT
BRANCH   1   2
ATOM      2  N   UNL A   1      30.679  30.048  23.539  1.00  0.00    -0.356 N 
ATOM      3  C   UNL A   1      30.117  29.267  22.575  1.00  0.00     0.227 C 
ATOM      4  O   UNL A   1      30.081  29.747  21.435  1.00  0.00    -0.274 OA
ATOM      5  H   UNL A   1      30.955  30.940  23.225  1.00  0.00     0.163 HD
BRANCH   3   6
ATOM      6  C   UNL A   1      29.539  27.865  22.832  1.00  0.00     0.105 C 
ATOM      7  C   UNL A   1      28.154  27.870  23.478  1.00  0.00     0.023 C 
BRANCH   6   8
ATOM      8  C   UNL A   1      30.549  26.906  23.435  1.00  0.00    -0.036 A 
ATOM      9  C   UNL A   1      32.305  24.913  24.493  1.00  0.00    -0.018 A 
ATOM     10  C   UNL A   1      32.645  25.683  23.368  1.00  0.00     0.009 A 
ATOM     11  C   UNL A   1      31.076  25.201  25.104  1.00  0.00     0.009 A 
ATOM     12  C   UNL A   1      31.807  26.686  22.876  1.00  0.00     0.005 A 
ATOM     13  C   UNL A   1      30.203  26.161  24.573  1.00  0.00     0.005 A 
BRANCH   9  14
ATOM     14  C   UNL A   1      33.202  23.834  24.973  1.00  0.00    -0.011 A 
ATOM     15  C   UNL A   1      33.664  21.485  25.433  1.00  0.00     0.123 A 
ATOM     16  C   UNL A   1      34.986  21.785  25.751  1.00  0.00     0.092 A 
ATOM     17  C   UNL A   1      32.780  22.498  25.059  1.00  0.00     0.055 A 
ATOM     18  C   UNL A   1      35.433  23.104  25.698  1.00  0.00     0.123 A 
ATOM     19  C   UNL A   1      34.536  24.109  25.330  1.00  0.00     0.055 A 
BRANCH  15  20
ATOM     20  O   UNL A   1      33.228  20.201  25.617  1.00  0.00    -0.494 OA
BRANCH  20  21
ATOM     21  C   UNL A   1      33.197  19.425  24.414  1.00  0.00     0.226 C 
ATOM     22  C   UNL A   1      34.224  18.302  24.442  1.00  0.00     0.049 C 
ENDBRANCH  20  21
ENDBRANCH  15  20
BRANCH  18  23
ATOM     23  O   UNL A   1      36.755  23.296  25.995  1.00  0.00    -0.494 OA
BRANCH  23  24
ATOM     24  C   UNL A   1      37.703  22.333  25.522  1.00  0.00     0.226 C 
ATOM     25  C   UNL A   1      39.012  22.401  26.295  1.00  0.00     0.049 C 
ENDBRANCH  23  24
ENDBRANCH  18  23
ENDBRANCH   9  14
ENDBRANCH   6   8
ENDBRANCH   3   6
ENDBRANCH   1   2
BRANCH   1  26
ATOM     26  C   UNL A   1      32.420  29.520  25.216  1.00  0.00     0.023 C 
BRANCH  26  27
ATOM     27  C   UNL A   1      32.689  28.439  26.262  1.00  0.00     0.023 C 
BRANCH  27  28
ATOM     28  C   UNL A   1      33.849  28.722  27.209  1.00  0.00     0.116 C 
BRANCH  28  29
ATOM     29  N   UNL A   1      33.830  30.053  27.798  1.00  0.00    -0.352 N 
ATOM     30  C   UNL A   1      34.862  30.714  28.433  1.00  0.00     0.251 C 
ATOM     31  H   UNL A   1      32.977  30.540  27.738  1.00  0.00     0.163 HD
ATOM     32  O   UNL A   1      34.690  31.806  28.942  1.00  0.00    -0.269 OA
BRANCH  30  33
ATOM     33  C   UNL A   1      36.175  30.038  28.530  1.00  0.00     0.039 A 
ATOM     34  C   UNL A   1      37.063  30.133  27.456  1.00  0.00     0.014 A 
ATOM     35  C   UNL A   1      36.553  29.393  29.710  1.00  0.00     0.014 A 
ATOM     36  C   UNL A   1      38.369  29.659  27.600  1.00  0.00     0.010 A 
ATOM     37  C   UNL A   1      37.872  28.989  29.876  1.00  0.00     0.010 A 
ATOM     38  C   UNL A   1      38.795  29.128  28.827  1.00  0.00    -0.014 A 
BRANCH  38  39
ATOM     39  C   UNL A   1      40.205  28.723  29.052  1.00  0.00     0.031 A 
ATOM     40  C   UNL A   1      41.182  29.705  29.633  1.00  0.00     0.074 A 
ATOM     41  C   UNL A   1      40.627  27.511  28.640  1.00  0.00     0.049 A 
ATOM     42  N   UNL A   1      42.476  29.592  29.787  1.00  0.00    -0.248 NA
ATOM     43  C   UNL A   1      40.634  31.000  30.067  1.00  0.00     0.031 C 
ATOM     44  C   UNL A   1      39.790  26.489  28.010  1.00  0.00     0.029 A 
ATOM     45  N   UNL A   1      41.875  26.942  28.675  1.00  0.00    -0.354 N 
ATOM     46  C   UNL A   1      42.899  30.807  30.309  1.00  0.00     0.074 A 
ATOM     47  C   UNL A   1      41.732  31.659  30.403  1.00  0.00     0.031 C 
ATOM     48  C   UNL A   1      40.543  25.412  27.735  1.00  0.00     0.029 A 
ATOM     49  C   UNL A   1      41.922  25.679  28.134  1.00  0.00     0.049 A 
ATOM     50  H   UNL A   1      42.664  27.395  29.052  1.00  0.00     0.167 HD
ATOM     51  C   UNL A   1      44.144  31.174  30.694  1.00  0.00     0.037 A 
ATOM     52  C   UNL A   1      42.959  24.837  27.974  1.00  0.00     0.037 A 
ATOM     53  C   UNL A   1      45.294  30.313  30.640  1.00  0.00     0.049 A 
ATOM     54  C   UNL A   1      44.326  25.258  28.435  1.00  0.00     0.074 A 
ATOM     55  C   UNL A   1      46.586  30.569  31.068  1.00  0.00     0.029 A 
ATOM     56  N   UNL A   1      45.289  29.024  30.129  1.00  0.00    -0.354 N 
ATOM     57  N   UNL A   1      44.702  26.389  28.979  1.00  0.00    -0.248 NA
ATOM     58  C   UNL A   1      45.413  24.282  28.263  1.00  0.00     0.031 C 
ATOM     59  C   UNL A   1      47.368  29.443  30.792  1.00  0.00     0.029 A 
ATOM     60  C   UNL A   1      46.557  28.475  30.223  1.00  0.00     0.049 A 
ATOM     61  H   UNL A   1      44.502  28.567  29.755  1.00  0.00     0.167 HD
ATOM     62  C   UNL A   1      46.058  26.252  29.242  1.00  0.00     0.074 A 
ATOM     63  C   UNL A   1      46.439  24.925  28.804  1.00  0.00     0.031 C 
ATOM     64  C   UNL A   1      46.912  27.145  29.797  1.00  0.00     0.037 A 
BRANCH  51  65
ATOM     65  C   UNL A   1      44.319  32.568  31.219  1.00  0.00     0.057 A 
ATOM     66  C   UNL A   1      44.181  32.865  32.582  1.00  0.00     0.134 A 
ATOM     67  C   UNL A   1      44.648  33.621  30.357  1.00  0.00     0.134 A 
ATOM     68  F   UNL A   1      43.851  31.903  33.456  1.00  0.00    -0.206 F 
ATOM     69  C   UNL A   1      44.337  34.165  33.063  1.00  0.00     0.040 A 
ATOM     70  C   UNL A   1      44.832  34.921  30.832  1.00  0.00     0.040 A 
ATOM     71  F   UNL A   1      44.798  33.405  29.042  1.00  0.00    -0.206 F 
ATOM     72  C   UNL A   1      44.670  35.197  32.188  1.00  0.00     0.006 A 
ENDBRANCH  51  65
BRANCH  52  73
ATOM     73  C   UNL A   1      42.742  23.496  27.375  1.00  0.00     0.057 A 
ATOM     74  C   UNL A   1      42.382  22.405  28.174  1.00  0.00     0.134 A 
ATOM     75  C   UNL A   1      42.892  23.273  26.002  1.00  0.00     0.134 A 
ATOM     76  F   UNL A   1      42.243  22.556  29.498  1.00  0.00    -0.206 F 
ATOM     77  C   UNL A   1      42.197  21.132  27.631  1.00  0.00     0.040 A 
ATOM     78  C   UNL A   1      42.688  22.010  25.443  1.00  0.00     0.040 A 
ATOM     79  F   UNL A   1      43.227  24.280  25.184  1.00  0.00    -0.206 F 
ATOM     80  C   UNL A   1      42.345  20.934  26.260  1.00  0.00     0.006 A 
ENDBRANCH  52  73
BRANCH  64  81
ATOM     81  C   UNL A   1      48.329  26.705  30.001  1.00  0.00     0.057 A 
ATOM     82  C   UNL A   1      48.725  25.999  31.144  1.00  0.00     0.134 A 
ATOM     83  C   UNL A   1      49.298  26.948  29.018  1.00  0.00     0.134 A 
ATOM     84  F   UNL A   1      47.847  25.747  32.126  1.00  0.00    -0.206 F 
ATOM     85  C   UNL A   1      50.041  25.565  31.309  1.00  0.00     0.040 A 
ATOM     86  C   UNL A   1      50.610  26.501  29.163  1.00  0.00     0.040 A 
ATOM     87  F   UNL A   1      48.978  27.613  27.898  1.00  0.00    -0.206 F 
ATOM     88  C   UNL A   1      50.986  25.809  30.314  1.00  0.00     0.006 A 
ENDBRANCH  64  81
ENDBRANCH  38  39
ENDBRANCH  30  33
ENDBRANCH  28  29
ENDBRANCH  27  28
ENDBRANCH  26  27
ENDBRANCH   1  26
TORSDOF 17
ENDMDL
MODEL 2
REMARK VINA RESULT:     -10.9      0.648      2.038
REMARK SMILES CCOc1cc(OCC)cc(-c2ccc([C@@H](C)C(=O)NCCCCNC(=O)c3ccc(-c4c5nc(c(-c6c(F)cccc6F)c6ccc([nH]6)c(-c6c(F)cccc6F)c6nc(c(-c7c(F)cccc7F)c7ccc4[nH]7)C=C6)C=C5)cc3)cc2)c1
REMARK SMILES IDX 21 1 20 2 18 3 19 4 16 6 17 7 15 8 12 9 13 10 83 11 14 12
REMARK SMILES IDX 82 13 11 14 4 15 5 16 84 17 6 18 10 19 3 20 2 21 1 22 7 23
REMARK SMILES IDX 8 24 9 25 22 26 23 27 24 28 25 29 26 30 27 32 28 33 29 34
REMARK SMILES IDX 81 35 30 36 80 37 31 38 32 39 33 40 74 41 34 42 79 43 73 44
REMARK SMILES IDX 75 45 35 46 78 47 72 48 71 49 36 51 62 52 45 53 61 54 46 55
REMARK SMILES IDX 49 56 60 57 76 58 47 59 48 60 59 62 77 63 50 64 37 65 38 66
REMARK SMILES IDX 43 67 39 68 40 69 42 70 44 71 41 72 63 73 64 74 69 75 65 76
REMARK SMILES IDX 66 77 68 78 70 79 67 80 51 81 52 82 57 83 53 84 54 85 56 86
REMARK SMILES IDX 58 87 55 88
REMARK H PARENT 20 5 25 31 75 50 49 61
REMARK Flexibility Score: inf
ROOT
ATOM      1  C   UNL A   1      31.552  28.796  25.022  1.00  0.00     0.116 C 
ENDROOT
BRANCH   1   2
ATOM      2  N   UNL A   1      31.291  29.367  23.717  1.00  0.00    -0.356 N 
ATOM      3  C   UNL A   1      30.553  28.920  22.663  1.00  0.00     0.227 C 
ATOM      4  O   UNL A   1      30.571  29.625  21.645  1.00  0.00    -0.274 OA
ATOM      5  H   UNL A   1      31.725  30.238  23.565  1.00  0.00     0.163 HD
BRANCH   3   6
ATOM      6  C   UNL A   1      29.721  27.627  22.682  1.00  0.00     0.105 C 
ATOM      7  C   UNL A   1      28.424  27.731  23.484  1.00  0.00     0.023 C 
BRANCH   6   8
ATOM      8  C   UNL A   1      30.557  26.384  22.930  1.00  0.00    -0.036 A 
ATOM      9  C   UNL A   1      32.309  24.194  23.480  1.00  0.00    -0.018 A 
ATOM     10  C   UNL A   1      31.153  24.431  24.242  1.00  0.00     0.009 A 
ATOM     11  C   UNL A   1      32.541  25.060  22.402  1.00  0.00     0.009 A 
ATOM     12  C   UNL A   1      30.273  25.475  23.948  1.00  0.00     0.005 A 
ATOM     13  C   UNL A   1      31.696  26.149  22.145  1.00  0.00     0.005 A 
BRANCH   9  14
ATOM     14  C   UNL A   1      33.241  23.097  23.838  1.00  0.00    -0.011 A 
ATOM     15  C   UNL A   1      35.478  22.270  24.341  1.00  0.00     0.123 A 
ATOM     16  C   UNL A   1      34.966  21.017  24.666  1.00  0.00     0.092 A 
ATOM     17  C   UNL A   1      34.627  23.295  23.922  1.00  0.00     0.055 A 
ATOM     18  C   UNL A   1      33.596  20.779  24.571  1.00  0.00     0.123 A 
ATOM     19  C   UNL A   1      32.757  21.810  24.142  1.00  0.00     0.055 A 
BRANCH  15  20
ATOM     20  O   UNL A   1      36.837  22.431  24.324  1.00  0.00    -0.494 OA
BRANCH  20  21
ATOM     21  C   UNL A   1      37.548  21.402  25.022  1.00  0.00     0.226 C 
ATOM     22  C   UNL A   1      38.651  21.976  25.899  1.00  0.00     0.049 C 
ENDBRANCH  20  21
ENDBRANCH  15  20
BRANCH  18  23
ATOM     23  O   UNL A   1      33.183  19.528  24.942  1.00  0.00    -0.494 OA
BRANCH  23  24
ATOM     24  C   UNL A   1      33.648  18.407  24.182  1.00  0.00     0.226 C 
ATOM     25  C   UNL A   1      32.673  18.031  23.075  1.00  0.00     0.049 C 
ENDBRANCH  23  24
ENDBRANCH  18  23
ENDBRANCH   9  14
ENDBRANCH   6   8
ENDBRANCH   3   6
ENDBRANCH   1   2
BRANCH   1  26
ATOM     26  C   UNL A   1      32.892  28.061  25.078  1.00  0.00     0.023 C 
BRANCH  26  27
ATOM     27  C   UNL A   1      33.992  28.774  25.862  1.00  0.00     0.023 C 
BRANCH  27  28
ATOM     28  C   UNL A   1      33.794  28.816  27.372  1.00  0.00     0.116 C 
BRANCH  28  29
ATOM     29  N   UNL A   1      33.806  30.157  27.941  1.00  0.00    -0.352 N 
ATOM     30  C   UNL A   1      34.861  30.812  28.546  1.00  0.00     0.251 C 
ATOM     31  H   UNL A   1      32.960  30.657  27.887  1.00  0.00     0.163 HD
ATOM     32  O   UNL A   1      34.714  31.915  29.040  1.00  0.00    -0.269 OA
BRANCH  30  33
ATOM     33  C   UNL A   1      36.164  30.118  28.630  1.00  0.00     0.039 A 
ATOM     34  C   UNL A   1      37.036  30.187  27.542  1.00  0.00     0.014 A 
ATOM     35  C   UNL A   1      36.551  29.480  29.812  1.00  0.00     0.014 A 
ATOM     36  C   UNL A   1      38.337  29.695  27.671  1.00  0.00     0.010 A 
ATOM     37  C   UNL A   1      37.866  29.057  29.962  1.00  0.00     0.010 A 
ATOM     38  C   UNL A   1      38.774  29.170  28.898  1.00  0.00    -0.014 A 
BRANCH  38  39
ATOM     39  C   UNL A   1      40.181  28.747  29.105  1.00  0.00     0.031 A 
ATOM     40  C   UNL A   1      41.177  29.713  29.680  1.00  0.00     0.074 A 
ATOM     41  C   UNL A   1      40.583  27.531  28.684  1.00  0.00     0.049 A 
ATOM     42  N   UNL A   1      42.471  29.584  29.820  1.00  0.00    -0.248 NA
ATOM     43  C   UNL A   1      40.650  31.013  30.125  1.00  0.00     0.031 C 
ATOM     44  C   UNL A   1      39.726  26.522  28.059  1.00  0.00     0.029 A 
ATOM     45  N   UNL A   1      41.824  26.946  28.704  1.00  0.00    -0.354 N 
ATOM     46  C   UNL A   1      42.915  30.791  30.341  1.00  0.00     0.074 A 
ATOM     47  C   UNL A   1      41.761  31.657  30.451  1.00  0.00     0.031 C 
ATOM     48  C   UNL A   1      40.463  25.437  27.772  1.00  0.00     0.029 A 
ATOM     49  C   UNL A   1      41.849  25.685  28.158  1.00  0.00     0.049 A 
ATOM     50  H   UNL A   1      42.623  27.388  29.074  1.00  0.00     0.167 HD
ATOM     51  C   UNL A   1      44.169  31.140  30.714  1.00  0.00     0.037 A 
ATOM     52  C   UNL A   1      42.874  24.830  27.982  1.00  0.00     0.037 A 
ATOM     53  C   UNL A   1      45.308  30.265  30.644  1.00  0.00     0.049 A 
ATOM     54  C   UNL A   1      44.251  25.231  28.430  1.00  0.00     0.074 A 
ATOM     55  C   UNL A   1      46.607  30.502  31.059  1.00  0.00     0.029 A 
ATOM     56  N   UNL A   1      45.280  28.978  30.129  1.00  0.00    -0.354 N 
ATOM     57  N   UNL A   1      44.647  26.355  28.975  1.00  0.00    -0.248 NA
ATOM     58  C   UNL A   1      45.323  24.243  28.243  1.00  0.00     0.031 C 
ATOM     59  C   UNL A   1      47.372  29.367  30.770  1.00  0.00     0.029 A 
ATOM     60  C   UNL A   1      46.542  28.412  30.207  1.00  0.00     0.049 A 
ATOM     61  H   UNL A   1      44.483  28.533  29.761  1.00  0.00     0.167 HD
ATOM     62  C   UNL A   1      46.004  26.200  29.222  1.00  0.00     0.074 A 
ATOM     63  C   UNL A   1      46.363  24.870  28.775  1.00  0.00     0.031 C 
ATOM     64  C   UNL A   1      46.875  27.080  29.772  1.00  0.00     0.037 A 
BRANCH  51  65
ATOM     65  C   UNL A   1      44.368  32.529  31.243  1.00  0.00     0.057 A 
ATOM     66  C   UNL A   1      44.701  33.598  30.399  1.00  0.00     0.134 A 
ATOM     67  C   UNL A   1      44.205  32.807  32.606  1.00  0.00     0.134 A 
ATOM     68  F   UNL A   1      44.886  33.395  29.087  1.00  0.00    -0.206 F 
ATOM     69  C   UNL A   1      44.891  34.887  30.897  1.00  0.00     0.040 A 
ATOM     70  C   UNL A   1      44.367  34.099  33.111  1.00  0.00     0.040 A 
ATOM     71  F   UNL A   1      43.882  31.831  33.466  1.00  0.00    -0.206 F 
ATOM     72  C   UNL A   1      44.718  35.142  32.256  1.00  0.00     0.006 A 
ENDBRANCH  51  65
BRANCH  52  73
ATOM     73  C   UNL A   1      42.632  23.495  27.381  1.00  0.00     0.057 A 
ATOM     74  C   UNL A   1      42.302  22.396  28.183  1.00  0.00     0.134 A 
ATOM     75  C   UNL A   1      42.730  23.283  26.001  1.00  0.00     0.134 A 
ATOM     76  F   UNL A   1      42.212  22.536  29.513  1.00  0.00    -0.206 F 
ATOM     77  C   UNL A   1      42.095  21.129  27.637  1.00  0.00     0.040 A 
ATOM     78  C   UNL A   1      42.505  22.025  25.439  1.00  0.00     0.040 A 
ATOM     79  F   UNL A   1      43.036  24.297  25.180  1.00  0.00    -0.206 F 
ATOM     80  C   UNL A   1      42.191  20.942  26.260  1.00  0.00     0.006 A 
ENDBRANCH  52  73
BRANCH  64  81
ATOM     81  C   UNL A   1      48.289  26.620  29.958  1.00  0.00     0.057 A 
ATOM     82  C   UNL A   1      48.690  25.912  31.098  1.00  0.00     0.134 A 
ATOM     83  C   UNL A   1      49.248  26.848  28.962  1.00  0.00     0.134 A 
ATOM     84  F   UNL A   1      47.821  25.674  32.092  1.00  0.00    -0.206 F 
ATOM     85  C   UNL A   1      50.002  25.460  31.247  1.00  0.00     0.040 A 
ATOM     86  C   UNL A   1      50.555  26.383  29.092  1.00  0.00     0.040 A 
ATOM     87  F   UNL A   1      48.922  27.515  27.845  1.00  0.00    -0.206 F 
ATOM     88  C   UNL A   1      50.937  25.689  30.239  1.00  0.00     0.006 A 
ENDBRANCH  64  81
ENDBRANCH  38  39
ENDBRANCH  30  33
ENDBRANCH  28  29
ENDBRANCH  27  28
ENDBRANCH  26  27
ENDBRANCH   1  26
TORSDOF 17
ENDMDL
MODEL 3
REMARK VINA RESULT:     -10.9      3.092      4.865
REMARK SMILES CCOc1cc(OCC)cc(-c2ccc([C@@H](C)C(=O)NCCCCNC(=O)c3ccc(-c4c5nc(c(-c6c(F)cccc6F)c6ccc([nH]6)c(-c6c(F)cccc6F)c6nc(c(-c7c(F)cccc7F)c7ccc4[nH]7)C=C6)C=C5)cc3)cc2)c1
REMARK SMILES IDX 21 1 20 2 18 3 19 4 16 6 17 7 15 8 12 9 13 10 83 11 14 12
REMARK SMILES IDX 82 13 11 14 4 15 5 16 84 17 6 18 10 19 3 20 2 21 1 22 7 23
REMARK SMILES IDX 8 24 9 25 22 26 23 27 24 28 25 29 26 30 27 32 28 33 29 34
REMARK SMILES IDX 81 35 30 36 80 37 31 38 32 39 33 40 74 41 34 42 79 43 73 44
REMARK SMILES IDX 75 45 35 46 78 47 72 48 71 49 36 51 62 52 45 53 61 54 46 55
REMARK SMILES IDX 49 56 60 57 76 58 47 59 48 60 59 62 77 63 50 64 37 65 38 66
REMARK SMILES IDX 43 67 39 68 40 69 42 70 44 71 41 72 63 73 64 74 69 75 65 76
REMARK SMILES IDX 66 77 68 78 70 79 67 80 51 81 52 82 57 83 53 84 54 85 56 86
REMARK SMILES IDX 58 87 55 88
REMARK H PARENT 20 5 25 31 75 50 49 61
REMARK Flexibility Score: inf
ROOT
ATOM      1  C   UNL A   1      34.225  29.475  26.974  1.00  0.00     0.116 C 
ENDROOT
BRANCH   1   2
ATOM      2  N   UNL A   1      33.048  28.942  27.629  1.00  0.00    -0.356 N 
ATOM      3  C   UNL A   1      32.068  28.106  27.190  1.00  0.00     0.227 C 
ATOM      4  O   UNL A   1      31.148  27.876  27.986  1.00  0.00    -0.274 OA
ATOM      5  H   UNL A   1      32.938  29.239  28.562  1.00  0.00     0.163 HD
BRANCH   3   6
ATOM      6  C   UNL A   1      32.056  27.449  25.799  1.00  0.00     0.105 C 
ATOM      7  C   UNL A   1      30.689  27.456  25.117  1.00  0.00     0.023 C 
BRANCH   6   8
ATOM      8  C   UNL A   1      32.813  26.134  25.755  1.00  0.00    -0.036 A 
ATOM      9  C   UNL A   1      34.091  23.591  25.483  1.00  0.00    -0.018 A 
ATOM     10  C   UNL A   1      34.733  24.789  25.125  1.00  0.00     0.009 A 
ATOM     11  C   UNL A   1      32.803  23.706  26.026  1.00  0.00     0.009 A 
ATOM     12  C   UNL A   1      34.126  26.035  25.298  1.00  0.00     0.005 A 
ATOM     13  C   UNL A   1      32.165  24.950  26.138  1.00  0.00     0.005 A 
BRANCH   9  14
ATOM     14  C   UNL A   1      34.749  22.282  25.258  1.00  0.00    -0.011 A 
ATOM     15  C   UNL A   1      36.734  20.867  25.204  1.00  0.00     0.123 A 
ATOM     16  C   UNL A   1      35.950  19.740  24.968  1.00  0.00     0.092 A 
ATOM     17  C   UNL A   1      36.141  22.124  25.337  1.00  0.00     0.055 A 
ATOM     18  C   UNL A   1      34.567  19.864  24.860  1.00  0.00     0.123 A 
ATOM     19  C   UNL A   1      33.988  21.129  24.987  1.00  0.00     0.055 A 
BRANCH  15  20
ATOM     20  O   UNL A   1      38.094  20.728  25.179  1.00  0.00    -0.494 OA
BRANCH  20  21
ATOM     21  C   UNL A   1      38.798  21.832  25.759  1.00  0.00     0.226 C 
ATOM     22  C   UNL A   1      40.045  21.378  26.502  1.00  0.00     0.049 C 
ENDBRANCH  20  21
ENDBRANCH  15  20
BRANCH  18  23
ATOM     23  O   UNL A   1      33.879  18.697  24.660  1.00  0.00    -0.494 OA
BRANCH  23  24
ATOM     24  C   UNL A   1      34.627  17.512  24.369  1.00  0.00     0.226 C 
ATOM     25  C   UNL A   1      34.098  16.799  23.133  1.00  0.00     0.049 C 
ENDBRANCH  23  24
ENDBRANCH  18  23
ENDBRANCH   9  14
ENDBRANCH   6   8
ENDBRANCH   3   6
ENDBRANCH   1   2
BRANCH   1  26
ATOM     26  C   UNL A   1      34.620  30.851  27.515  1.00  0.00     0.023 C 
BRANCH  26  27
ATOM     27  C   UNL A   1      33.453  31.786  27.825  1.00  0.00     0.023 C 
BRANCH  27  28
ATOM     28  C   UNL A   1      33.575  33.193  27.251  1.00  0.00     0.116 C 
BRANCH  28  29
ATOM     29  N   UNL A   1      32.904  34.220  28.037  1.00  0.00    -0.352 N 
ATOM     30  C   UNL A   1      33.277  34.724  29.267  1.00  0.00     0.251 C 
ATOM     31  H   UNL A   1      32.086  34.600  27.644  1.00  0.00     0.163 HD
ATOM     32  O   UNL A   1      32.585  35.541  29.847  1.00  0.00    -0.269 OA
BRANCH  30  33
ATOM     33  C   UNL A   1      34.514  34.208  29.893  1.00  0.00     0.039 A 
ATOM     34  C   UNL A   1      34.406  33.308  30.955  1.00  0.00     0.014 A 
ATOM     35  C   UNL A   1      35.765  34.547  29.373  1.00  0.00     0.014 A 
ATOM     36  C   UNL A   1      35.554  32.673  31.437  1.00  0.00     0.010 A 
ATOM     37  C   UNL A   1      36.894  33.862  29.804  1.00  0.00     0.010 A 
ATOM     38  C   UNL A   1      36.798  32.911  30.832  1.00  0.00    -0.014 A 
BRANCH  38  39
ATOM     39  C   UNL A   1      38.016  32.168  31.241  1.00  0.00     0.031 A 
ATOM     40  C   UNL A   1      38.879  32.698  32.349  1.00  0.00     0.074 A 
ATOM     41  C   UNL A   1      38.397  31.076  30.549  1.00  0.00     0.049 A 
ATOM     42  N   UNL A   1      40.043  32.272  32.768  1.00  0.00    -0.248 NA
ATOM     43  C   UNL A   1      38.382  33.888  33.059  1.00  0.00     0.031 C 
ATOM     44  C   UNL A   1      37.675  30.493  29.416  1.00  0.00     0.029 A 
ATOM     45  N   UNL A   1      39.499  30.271  30.689  1.00  0.00    -0.354 N 
ATOM     46  C   UNL A   1      40.429  33.155  33.767  1.00  0.00     0.074 A 
ATOM     47  C   UNL A   1      39.397  34.166  33.863  1.00  0.00     0.031 C 
ATOM     48  C   UNL A   1      38.344  29.414  28.977  1.00  0.00     0.029 A 
ATOM     49  C   UNL A   1      39.558  29.250  29.771  1.00  0.00     0.049 A 
ATOM     50  H   UNL A   1      40.185  30.412  31.382  1.00  0.00     0.167 HD
ATOM     51  C   UNL A   1      41.533  33.115  34.550  1.00  0.00     0.037 A 
ATOM     52  C   UNL A   1      40.489  28.295  29.587  1.00  0.00     0.037 A 
ATOM     53  C   UNL A   1      42.536  32.088  34.483  1.00  0.00     0.049 A 
ATOM     54  C   UNL A   1      41.692  28.257  30.486  1.00  0.00     0.074 A 
ATOM     55  C   UNL A   1      43.658  31.923  35.277  1.00  0.00     0.029 A 
ATOM     56  N   UNL A   1      42.533  31.044  33.570  1.00  0.00    -0.354 N 
ATOM     57  N   UNL A   1      42.016  29.065  31.466  1.00  0.00    -0.248 NA
ATOM     58  C   UNL A   1      42.657  27.172  30.258  1.00  0.00     0.031 C 
ATOM     59  C   UNL A   1      44.349  30.793  34.827  1.00  0.00     0.029 A 
ATOM     60  C   UNL A   1      43.639  30.236  33.775  1.00  0.00     0.049 A 
ATOM     61  H   UNL A   1      41.848  30.900  32.879  1.00  0.00     0.167 HD
ATOM     62  C   UNL A   1      43.203  28.571  31.989  1.00  0.00     0.074 A 
ATOM     63  C   UNL A   1      43.539  27.389  31.224  1.00  0.00     0.031 C 
ATOM     64  C   UNL A   1      43.948  29.053  33.013  1.00  0.00     0.037 A 
BRANCH  51  65
ATOM     65  C   UNL A   1      41.703  34.216  35.554  1.00  0.00     0.057 A 
ATOM     66  C   UNL A   1      42.496  35.341  35.287  1.00  0.00     0.134 A 
ATOM     67  C   UNL A   1      41.053  34.162  36.793  1.00  0.00     0.134 A 
ATOM     68  F   UNL A   1      43.157  35.445  34.125  1.00  0.00    -0.206 F 
ATOM     69  C   UNL A   1      42.656  36.359  36.227  1.00  0.00     0.040 A 
ATOM     70  C   UNL A   1      41.186  35.187  37.732  1.00  0.00     0.040 A 
ATOM     71  F   UNL A   1      40.277  33.116  37.111  1.00  0.00    -0.206 F 
ATOM     72  C   UNL A   1      41.996  36.286  37.452  1.00  0.00     0.006 A 
ENDBRANCH  51  65
BRANCH  52  73
ATOM     73  C   UNL A   1      40.307  27.275  28.524  1.00  0.00     0.057 A 
ATOM     74  C   UNL A   1      39.513  26.144  28.744  1.00  0.00     0.134 A 
ATOM     75  C   UNL A   1      40.920  27.401  27.272  1.00  0.00     0.134 A 
ATOM     76  F   UNL A   1      38.916  25.961  29.931  1.00  0.00    -0.206 F 
ATOM     77  C   UNL A   1      39.349  25.164  27.765  1.00  0.00     0.040 A 
ATOM     78  C   UNL A   1      40.748  26.439  26.276  1.00  0.00     0.040 A 
ATOM     79  F   UNL A   1      41.687  28.466  26.998  1.00  0.00    -0.206 F 
ATOM     80  C   UNL A   1      39.964  25.313  26.524  1.00  0.00     0.006 A 
ENDBRANCH  52  73
BRANCH  64  81
ATOM     81  C   UNL A   1      45.174  28.281  33.392  1.00  0.00     0.057 A 
ATOM     82  C   UNL A   1      45.127  27.225  34.311  1.00  0.00     0.134 A 
ATOM     83  C   UNL A   1      46.408  28.568  32.794  1.00  0.00     0.134 A 
ATOM     84  F   UNL A   1      43.978  26.911  34.927  1.00  0.00    -0.206 F 
ATOM     85  C   UNL A   1      46.270  26.491  34.633  1.00  0.00     0.040 A 
ATOM     86  C   UNL A   1      47.551  27.828  33.092  1.00  0.00     0.040 A 
ATOM     87  F   UNL A   1      46.516  29.564  31.901  1.00  0.00    -0.206 F 
ATOM     88  C   UNL A   1      47.485  26.788  34.017  1.00  0.00     0.006 A 
ENDBRANCH  64  81
ENDBRANCH  38  39
ENDBRANCH  30  33
ENDBRANCH  28  29
ENDBRANCH  27  28
ENDBRANCH  26  27
ENDBRANCH   1  26
TORSDOF 17
ENDMDL
