MODEL 1
REMARK VINA RESULT:     -13.1      0.000      0.000
REMARK SMILES C[C@H]1CCc2sc3ncn4nc(/C=C\C(=O)NCCCCNC(=O)c5ccc(-c6c7nc(c(-c8c(F)cccc8F)c8ccc([nH]8)c(-c8c(F)cccc8F)c8nc(c(-c9c(F)cccc9F)c9ccc6[nH]9)C=C8)C=C7)cc5)nc4c3c2C1
REMARK SMILES IDX 20 1 19 2 18 3 17 4 15 5 16 6 14 8 13 9 12 10 1 11 2 12 3 13
REMARK SMILES IDX 83 14 4 15 82 16 5 17 81 18 6 19 7 20 80 21 8 22 10 23 79 24
REMARK SMILES IDX 9 25 11 26 21 27 22 28 23 29 24 31 25 32 26 33 78 34 27 35
REMARK SMILES IDX 77 36 28 37 29 38 30 39 71 40 31 41 76 42 70 43 72 44 32 45
REMARK SMILES IDX 75 46 69 47 68 48 33 50 59 51 42 52 58 53 43 54 46 55 57 56
REMARK SMILES IDX 73 57 44 58 45 59 56 61 74 62 47 63 34 64 35 65 40 66 36 67
REMARK SMILES IDX 37 68 39 69 41 70 38 71 60 72 61 73 66 74 62 75 63 76 65 77
REMARK SMILES IDX 67 78 64 79 48 80 49 81 54 82 50 83 51 84 53 85 55 86 52 87
REMARK H PARENT 17 7 22 30 72 49 46 60
REMARK Flexibility Score: inf
ROOT
ATOM      1  C   UNL A   1      33.285  29.248  26.580  1.00  0.00     0.023 C 
ENDROOT
BRANCH   1   2
ATOM      2  C   UNL A   1      34.060  28.586  25.362  1.00  0.00     0.023 C 
BRANCH   2   3
ATOM      3  C   UNL A   1      33.572  28.914  23.937  1.00  0.00     0.116 C 
BRANCH   3   4
ATOM      4  N   UNL A   1      32.245  29.526  23.795  1.00  0.00    -0.353 N 
ATOM      5  C   UNL A   1      31.009  28.964  23.564  1.00  0.00     0.244 C 
ATOM      6  O   UNL A   1      30.002  29.570  23.915  1.00  0.00    -0.270 OA
ATOM      7  H   UNL A   1      32.237  30.506  23.879  1.00  0.00     0.163 HD
BRANCH   5   8
ATOM      8  C   UNL A   1      30.837  27.739  22.737  1.00  0.00     0.075 C 
ATOM      9  C   UNL A   1      30.943  26.460  23.122  1.00  0.00     0.057 C 
BRANCH   9  10
ATOM     10  C   UNL A   1      31.327  26.024  24.413  1.00  0.00     0.175 A 
ATOM     11  C   UNL A   1      37.453  23.645  26.247  1.00  0.00     0.008 C 
ATOM     12  C   UNL A   1      37.060  23.378  24.782  1.00  0.00    -0.009 C 
ATOM     13  C   UNL A   1      37.100  21.861  24.456  1.00  0.00     0.009 C 
ATOM     14  C   UNL A   1      35.656  23.966  24.470  1.00  0.00     0.041 C 
ATOM     15  C   UNL A   1      35.986  21.037  25.104  1.00  0.00     0.047 C 
ATOM     16  C   UNL A   1      34.663  23.248  25.302  1.00  0.00    -0.020 A 
ATOM     17  C   UNL A   1      34.870  21.910  25.570  1.00  0.00     0.011 A 
ATOM     18  C   UNL A   1      33.444  23.697  25.883  1.00  0.00     0.060 A 
ATOM     19  S   UNL A   1      33.736  21.316  26.622  1.00  0.00    -0.120 S 
ATOM     20  C   UNL A   1      32.822  22.748  26.661  1.00  0.00     0.129 A 
ATOM     21  C   UNL A   1      32.564  24.849  25.599  1.00  0.00     0.168 A 
ATOM     22  N   UNL A   1      31.566  22.802  27.217  1.00  0.00    -0.225 NA
ATOM     23  N   UNL A   1      31.274  24.805  26.066  1.00  0.00    -0.201 N 
ATOM     24  N   UNL A   1      32.647  25.705  24.620  1.00  0.00    -0.207 NA
ATOM     25  C   UNL A   1      30.793  23.790  26.873  1.00  0.00     0.227 A 
ATOM     26  N   UNL A   1      30.468  25.611  25.355  1.00  0.00    -0.145 NA
ENDBRANCH   9  10
ENDBRANCH   5   8
ENDBRANCH   3   4
ENDBRANCH   2   3
ENDBRANCH   1   2
BRANCH   1  27
ATOM     27  C   UNL A   1      33.728  30.640  27.171  1.00  0.00     0.116 C 
BRANCH  27  28
ATOM     28  N   UNL A   1      34.560  30.592  28.459  1.00  0.00    -0.352 N 
ATOM     29  C   UNL A   1      35.926  30.820  28.798  1.00  0.00     0.251 C 
ATOM     30  H   UNL A   1      34.019  30.343  29.243  1.00  0.00     0.163 HD
ATOM     31  O   UNL A   1      36.146  31.735  29.599  1.00  0.00    -0.269 OA
BRANCH  29  32
ATOM     32  C   UNL A   1      37.101  29.868  28.574  1.00  0.00     0.039 A 
ATOM     33  C   UNL A   1      37.820  29.840  27.369  1.00  0.00     0.014 A 
ATOM     34  C   UNL A   1      37.511  28.918  29.507  1.00  0.00     0.014 A 
ATOM     35  C   UNL A   1      39.078  29.156  27.261  1.00  0.00     0.010 A 
ATOM     36  C   UNL A   1      38.816  28.323  29.439  1.00  0.00     0.010 A 
ATOM     37  C   UNL A   1      39.696  28.519  28.363  1.00  0.00    -0.014 A 
BRANCH  37  38
ATOM     38  C   UNL A   1      41.206  28.197  28.355  1.00  0.00     0.031 A 
ATOM     39  C   UNL A   1      41.640  26.910  27.634  1.00  0.00     0.074 A 
ATOM     40  C   UNL A   1      42.287  28.989  28.655  1.00  0.00     0.049 A 
ATOM     41  N   UNL A   1      42.306  25.880  28.074  1.00  0.00    -0.248 NA
ATOM     42  C   UNL A   1      41.292  26.776  26.212  1.00  0.00     0.031 C 
ATOM     43  C   UNL A   1      42.350  30.406  29.041  1.00  0.00     0.029 A 
ATOM     44  N   UNL A   1      43.642  28.674  28.603  1.00  0.00    -0.354 N 
ATOM     45  C   UNL A   1      42.552  25.034  26.974  1.00  0.00     0.074 A 
ATOM     46  C   UNL A   1      41.850  25.615  25.863  1.00  0.00     0.031 C 
ATOM     47  C   UNL A   1      43.623  30.865  28.998  1.00  0.00     0.029 A 
ATOM     48  C   UNL A   1      44.517  29.757  28.747  1.00  0.00     0.049 A 
ATOM     49  H   UNL A   1      43.963  27.753  28.473  1.00  0.00     0.167 HD
ATOM     50  C   UNL A   1      43.396  23.957  27.012  1.00  0.00     0.037 A 
ATOM     51  C   UNL A   1      45.879  29.782  28.722  1.00  0.00     0.037 A 
ATOM     52  C   UNL A   1      43.698  23.573  28.358  1.00  0.00     0.049 A 
ATOM     53  C   UNL A   1      46.361  28.416  28.986  1.00  0.00     0.074 A 
ATOM     54  C   UNL A   1      42.965  23.132  29.441  1.00  0.00     0.029 A 
ATOM     55  N   UNL A   1      44.933  23.888  28.862  1.00  0.00    -0.354 N 
ATOM     56  N   UNL A   1      46.250  27.799  30.124  1.00  0.00    -0.248 NA
ATOM     57  C   UNL A   1      46.716  27.593  27.847  1.00  0.00     0.031 C 
ATOM     58  C   UNL A   1      43.595  23.742  30.564  1.00  0.00     0.029 A 
ATOM     59  C   UNL A   1      44.699  24.449  30.086  1.00  0.00     0.049 A 
ATOM     60  H   UNL A   1      45.806  23.741  28.430  1.00  0.00     0.167 HD
ATOM     61  C   UNL A   1      46.087  26.471  29.777  1.00  0.00     0.074 A 
ATOM     62  C   UNL A   1      46.494  26.390  28.377  1.00  0.00     0.031 C 
ATOM     63  C   UNL A   1      45.384  25.619  30.576  1.00  0.00     0.037 A 
BRANCH  50  64
ATOM     64  C   UNL A   1      44.181  23.363  25.855  1.00  0.00     0.057 A 
ATOM     65  C   UNL A   1      44.129  21.972  25.608  1.00  0.00     0.134 A 
ATOM     66  C   UNL A   1      45.210  24.043  25.181  1.00  0.00     0.134 A 
ATOM     67  F   UNL A   1      43.198  21.200  26.190  1.00  0.00    -0.206 F 
ATOM     68  C   UNL A   1      45.078  21.302  24.822  1.00  0.00     0.040 A 
ATOM     69  C   UNL A   1      46.139  23.388  24.358  1.00  0.00     0.040 A 
ATOM     70  F   UNL A   1      45.425  25.353  25.357  1.00  0.00    -0.206 F 
ATOM     71  C   UNL A   1      46.096  22.009  24.202  1.00  0.00     0.006 A 
ENDBRANCH  50  64
BRANCH  51  72
ATOM     72  C   UNL A   1      46.842  30.841  28.308  1.00  0.00     0.057 A 
ATOM     73  C   UNL A   1      46.821  31.401  27.015  1.00  0.00     0.134 A 
ATOM     74  C   UNL A   1      47.579  31.555  29.266  1.00  0.00     0.134 A 
ATOM     75  F   UNL A   1      46.123  30.817  26.029  1.00  0.00    -0.206 F 
ATOM     76  C   UNL A   1      47.453  32.618  26.709  1.00  0.00     0.040 A 
ATOM     77  C   UNL A   1      48.216  32.770  28.973  1.00  0.00     0.040 A 
ATOM     78  F   UNL A   1      47.622  31.143  30.541  1.00  0.00    -0.206 F 
ATOM     79  C   UNL A   1      48.138  33.316  27.696  1.00  0.00     0.006 A 
ENDBRANCH  51  72
BRANCH  63  80
ATOM     80  C   UNL A   1      45.031  26.048  31.971  1.00  0.00     0.057 A 
ATOM     81  C   UNL A   1      43.879  26.775  32.304  1.00  0.00     0.134 A 
ATOM     82  C   UNL A   1      45.766  25.503  33.030  1.00  0.00     0.134 A 
ATOM     83  F   UNL A   1      43.067  27.269  31.361  1.00  0.00    -0.206 F 
ATOM     84  C   UNL A   1      43.482  26.952  33.633  1.00  0.00     0.040 A 
ATOM     85  C   UNL A   1      45.361  25.643  34.358  1.00  0.00     0.040 A 
ATOM     86  F   UNL A   1      46.856  24.756  32.782  1.00  0.00    -0.206 F 
ATOM     87  C   UNL A   1      44.214  26.369  34.663  1.00  0.00     0.006 A 
ENDBRANCH  63  80
ENDBRANCH  37  38
ENDBRANCH  29  32
ENDBRANCH  27  28
ENDBRANCH   1  27
TORSDOF 12
ENDMDL
MODEL 2
REMARK VINA RESULT:     -13.1      3.114      7.869
REMARK SMILES C[C@H]1CCc2sc3ncn4nc(/C=C\C(=O)NCCCCNC(=O)c5ccc(-c6c7nc(c(-c8c(F)cccc8F)c8ccc([nH]8)c(-c8c(F)cccc8F)c8nc(c(-c9c(F)cccc9F)c9ccc6[nH]9)C=C8)C=C7)cc5)nc4c3c2C1
REMARK SMILES IDX 20 1 19 2 18 3 17 4 15 5 16 6 14 8 13 9 12 10 1 11 2 12 3 13
REMARK SMILES IDX 83 14 4 15 82 16 5 17 81 18 6 19 7 20 80 21 8 22 10 23 79 24
REMARK SMILES IDX 9 25 11 26 21 27 22 28 23 29 24 31 25 32 26 33 78 34 27 35
REMARK SMILES IDX 77 36 28 37 29 38 30 39 71 40 31 41 76 42 70 43 72 44 32 45
REMARK SMILES IDX 75 46 69 47 68 48 33 50 59 51 42 52 58 53 43 54 46 55 57 56
REMARK SMILES IDX 73 57 44 58 45 59 56 61 74 62 47 63 34 64 35 65 40 66 36 67
REMARK SMILES IDX 37 68 39 69 41 70 38 71 60 72 61 73 66 74 62 75 63 76 65 77
REMARK SMILES IDX 67 78 64 79 48 80 49 81 54 82 50 83 51 84 53 85 55 86 52 87
REMARK H PARENT 17 7 22 30 72 49 46 60
REMARK Flexibility Score: inf
ROOT
ATOM      1  C   UNL A   1      42.265  19.384  27.411  1.00  0.00     0.023 C 
ENDROOT
BRANCH   1   2
ATOM      2  C   UNL A   1      41.082  20.440  27.509  1.00  0.00     0.023 C 
BRANCH   2   3
ATOM      3  C   UNL A   1      40.617  21.121  26.207  1.00  0.00     0.116 C 
BRANCH   3   4
ATOM      4  N   UNL A   1      39.217  20.937  25.805  1.00  0.00    -0.353 N 
ATOM      5  C   UNL A   1      38.253  21.849  25.438  1.00  0.00     0.244 C 
ATOM      6  O   UNL A   1      37.321  21.483  24.731  1.00  0.00    -0.270 OA
ATOM      7  H   UNL A   1      38.915  20.000  25.796  1.00  0.00     0.163 HD
BRANCH   5   8
ATOM      8  C   UNL A   1      38.195  23.218  26.020  1.00  0.00     0.075 C 
ATOM      9  C   UNL A   1      37.108  23.944  26.316  1.00  0.00     0.057 C 
BRANCH   9  10
ATOM     10  C   UNL A   1      35.772  23.563  26.048  1.00  0.00     0.175 A 
ATOM     11  C   UNL A   1      31.406  26.711  21.855  1.00  0.00     0.008 C 
ATOM     12  C   UNL A   1      32.452  27.627  22.516  1.00  0.00    -0.009 C 
ATOM     13  C   UNL A   1      31.774  28.776  23.308  1.00  0.00     0.009 C 
ATOM     14  C   UNL A   1      33.397  26.810  23.441  1.00  0.00     0.041 C 
ATOM     15  C   UNL A   1      31.067  28.339  24.593  1.00  0.00     0.047 C 
ATOM     16  C   UNL A   1      32.584  26.247  24.544  1.00  0.00    -0.020 A 
ATOM     17  C   UNL A   1      31.522  26.986  25.025  1.00  0.00     0.011 A 
ATOM     18  C   UNL A   1      32.722  25.029  25.268  1.00  0.00     0.060 A 
ATOM     19  S   UNL A   1      30.654  26.140  26.155  1.00  0.00    -0.120 S 
ATOM     20  C   UNL A   1      31.718  24.816  26.183  1.00  0.00     0.129 A 
ATOM     21  C   UNL A   1      33.853  24.098  25.455  1.00  0.00     0.168 A 
ATOM     22  N   UNL A   1      31.646  23.836  27.146  1.00  0.00    -0.225 NA
ATOM     23  N   UNL A   1      33.799  23.220  26.508  1.00  0.00    -0.201 N 
ATOM     24  N   UNL A   1      35.090  24.244  25.069  1.00  0.00    -0.207 NA
ATOM     25  C   UNL A   1      32.697  23.094  27.335  1.00  0.00     0.227 A 
ATOM     26  N   UNL A   1      35.026  22.807  26.865  1.00  0.00    -0.145 NA
ENDBRANCH   9  10
ENDBRANCH   5   8
ENDBRANCH   3   4
ENDBRANCH   2   3
ENDBRANCH   1   2
BRANCH   1  27
ATOM     27  C   UNL A   1      42.475  18.511  26.117  1.00  0.00     0.116 C 
BRANCH  27  28
ATOM     28  N   UNL A   1      43.326  19.144  25.007  1.00  0.00    -0.352 N 
ATOM     29  C   UNL A   1      44.494  19.959  24.958  1.00  0.00     0.251 C 
ATOM     30  H   UNL A   1      42.980  18.935  24.109  1.00  0.00     0.163 HD
ATOM     31  O   UNL A   1      45.474  19.477  24.379  1.00  0.00    -0.269 OA
BRANCH  29  32
ATOM     32  C   UNL A   1      44.577  21.464  25.217  1.00  0.00     0.039 A 
ATOM     33  C   UNL A   1      43.690  22.374  24.623  1.00  0.00     0.014 A 
ATOM     34  C   UNL A   1      45.564  22.055  26.003  1.00  0.00     0.014 A 
ATOM     35  C   UNL A   1      43.593  23.732  25.079  1.00  0.00     0.010 A 
ATOM     36  C   UNL A   1      45.397  23.378  26.535  1.00  0.00     0.010 A 
ATOM     37  C   UNL A   1      44.334  24.222  26.179  1.00  0.00    -0.014 A 
BRANCH  37  38
ATOM     38  C   UNL A   1      43.901  25.501  26.928  1.00  0.00     0.031 A 
ATOM     39  C   UNL A   1      44.760  26.759  26.714  1.00  0.00     0.074 A 
ATOM     40  C   UNL A   1      42.722  25.806  27.562  1.00  0.00     0.049 A 
ATOM     41  N   UNL A   1      45.386  27.509  27.575  1.00  0.00    -0.248 NA
ATOM     42  C   UNL A   1      44.917  27.249  25.337  1.00  0.00     0.031 C 
ATOM     43  C   UNL A   1      41.484  25.024  27.695  1.00  0.00     0.029 A 
ATOM     44  N   UNL A   1      42.351  26.988  28.199  1.00  0.00    -0.354 N 
ATOM     45  C   UNL A   1      45.914  28.611  26.871  1.00  0.00     0.074 A 
ATOM     46  C   UNL A   1      45.639  28.362  25.482  1.00  0.00     0.031 C 
ATOM     47  C   UNL A   1      40.475  25.789  28.174  1.00  0.00     0.029 A 
ATOM     48  C   UNL A   1      41.001  27.082  28.554  1.00  0.00     0.049 A 
ATOM     49  H   UNL A   1      42.996  27.707  28.387  1.00  0.00     0.167 HD
ATOM     50  C   UNL A   1      46.462  29.711  27.473  1.00  0.00     0.037 A 
ATOM     51  C   UNL A   1      40.332  28.101  29.162  1.00  0.00     0.037 A 
ATOM     52  C   UNL A   1      46.774  29.458  28.848  1.00  0.00     0.049 A 
ATOM     53  C   UNL A   1      41.325  28.952  29.840  1.00  0.00     0.074 A 
ATOM     54  C   UNL A   1      47.603  28.583  29.521  1.00  0.00     0.029 A 
ATOM     55  N   UNL A   1      45.958  29.994  29.809  1.00  0.00    -0.354 N 
ATOM     56  N   UNL A   1      42.019  28.596  30.880  1.00  0.00    -0.248 NA
ATOM     57  C   UNL A   1      41.778  30.143  29.150  1.00  0.00     0.031 C 
ATOM     58  C   UNL A   1      46.870  28.233  30.691  1.00  0.00     0.029 A 
ATOM     59  C   UNL A   1      45.685  28.971  30.673  1.00  0.00     0.049 A 
ATOM     60  H   UNL A   1      45.636  30.923  29.864  1.00  0.00     0.167 HD
ATOM     61  C   UNL A   1      43.229  29.243  30.719  1.00  0.00     0.074 A 
ATOM     62  C   UNL A   1      42.984  30.264  29.704  1.00  0.00     0.031 C 
ATOM     63  C   UNL A   1      44.379  28.716  31.226  1.00  0.00     0.037 A 
BRANCH  50  64
ATOM     64  C   UNL A   1      46.509  31.129  26.930  1.00  0.00     0.057 A 
ATOM     65  C   UNL A   1      47.732  31.839  26.919  1.00  0.00     0.134 A 
ATOM     66  C   UNL A   1      45.366  31.917  26.710  1.00  0.00     0.134 A 
ATOM     67  F   UNL A   1      48.900  31.210  27.119  1.00  0.00    -0.206 F 
ATOM     68  C   UNL A   1      47.800  33.234  26.787  1.00  0.00     0.040 A 
ATOM     69  C   UNL A   1      45.428  33.308  26.534  1.00  0.00     0.040 A 
ATOM     70  F   UNL A   1      44.133  31.399  26.748  1.00  0.00    -0.206 F 
ATOM     71  C   UNL A   1      46.643  33.976  26.604  1.00  0.00     0.006 A 
ENDBRANCH  50  64
BRANCH  51  72
ATOM     72  C   UNL A   1      38.912  28.543  29.076  1.00  0.00     0.057 A 
ATOM     73  C   UNL A   1      38.058  28.522  30.196  1.00  0.00     0.134 A 
ATOM     74  C   UNL A   1      38.461  29.302  27.984  1.00  0.00     0.134 A 
ATOM     75  F   UNL A   1      38.403  27.852  31.306  1.00  0.00    -0.206 F 
ATOM     76  C   UNL A   1      36.857  29.249  30.244  1.00  0.00     0.040 A 
ATOM     77  C   UNL A   1      37.263  30.030  28.018  1.00  0.00     0.040 A 
ATOM     78  F   UNL A   1      39.219  29.436  26.887  1.00  0.00    -0.206 F 
ATOM     79  C   UNL A   1      36.465  30.022  29.157  1.00  0.00     0.006 A 
ENDBRANCH  51  72
BRANCH  63  80
ATOM     80  C   UNL A   1      44.293  27.580  32.205  1.00  0.00     0.057 A 
ATOM     81  C   UNL A   1      44.283  26.226  31.842  1.00  0.00     0.134 A 
ATOM     82  C   UNL A   1      44.461  27.872  33.564  1.00  0.00     0.134 A 
ATOM     83  F   UNL A   1      44.208  25.846  30.561  1.00  0.00    -0.206 F 
ATOM     84  C   UNL A   1      44.431  25.210  32.792  1.00  0.00     0.040 A 
ATOM     85  C   UNL A   1      44.644  26.869  34.517  1.00  0.00     0.040 A 
ATOM     86  F   UNL A   1      44.525  29.149  33.977  1.00  0.00    -0.206 F 
ATOM     87  C   UNL A   1      44.631  25.532  34.131  1.00  0.00     0.006 A 
ENDBRANCH  63  80
ENDBRANCH  37  38
ENDBRANCH  29  32
ENDBRANCH  27  28
ENDBRANCH   1  27
TORSDOF 12
ENDMDL
MODEL 3
REMARK VINA RESULT:     -13.1      1.789      6.041
REMARK SMILES C[C@H]1CCc2sc3ncn4nc(/C=C\C(=O)NCCCCNC(=O)c5ccc(-c6c7nc(c(-c8c(F)cccc8F)c8ccc([nH]8)c(-c8c(F)cccc8F)c8nc(c(-c9c(F)cccc9F)c9ccc6[nH]9)C=C8)C=C7)cc5)nc4c3c2C1
REMARK SMILES IDX 20 1 19 2 18 3 17 4 15 5 16 6 14 8 13 9 12 10 1 11 2 12 3 13
REMARK SMILES IDX 83 14 4 15 82 16 5 17 81 18 6 19 7 20 80 21 8 22 10 23 79 24
REMARK SMILES IDX 9 25 11 26 21 27 22 28 23 29 24 31 25 32 26 33 78 34 27 35
REMARK SMILES IDX 77 36 28 37 29 38 30 39 71 40 31 41 76 42 70 43 72 44 32 45
REMARK SMILES IDX 75 46 69 47 68 48 33 50 59 51 42 52 58 53 43 54 46 55 57 56
REMARK SMILES IDX 73 57 44 58 45 59 56 61 74 62 47 63 34 64 35 65 40 66 36 67
REMARK SMILES IDX 37 68 39 69 41 70 38 71 60 72 61 73 66 74 62 75 63 76 65 77
REMARK SMILES IDX 67 78 64 79 48 80 49 81 54 82 50 83 51 84 53 85 55 86 52 87
REMARK H PARENT 17 7 22 30 72 49 46 60
REMARK Flexibility Score: inf
ROOT
ATOM      1  C   UNL A   1      32.705  29.779  26.766  1.00  0.00     0.023 C 
ENDROOT
BRANCH   1   2
ATOM      2  C   UNL A   1      33.480  28.978  25.634  1.00  0.00     0.023 C 
BRANCH   2   3
ATOM      3  C   UNL A   1      33.097  29.255  24.167  1.00  0.00     0.116 C 
BRANCH   3   4
ATOM      4  N   UNL A   1      31.726  29.703  23.894  1.00  0.00    -0.353 N 
ATOM      5  C   UNL A   1      30.601  29.000  23.525  1.00  0.00     0.244 C 
ATOM      6  O   UNL A   1      29.494  29.467  23.775  1.00  0.00    -0.270 OA
ATOM      7  H   UNL A   1      31.587  30.672  23.991  1.00  0.00     0.163 HD
BRANCH   5   8
ATOM      8  C   UNL A   1      30.670  27.786  22.666  1.00  0.00     0.075 C 
ATOM      9  C   UNL A   1      30.972  26.533  23.030  1.00  0.00     0.057 C 
BRANCH   9  10
ATOM     10  C   UNL A   1      31.369  26.131  24.328  1.00  0.00     0.175 A 
ATOM     11  C   UNL A   1      37.459  23.636  26.127  1.00  0.00     0.008 C 
ATOM     12  C   UNL A   1      37.029  23.329  24.681  1.00  0.00    -0.009 C 
ATOM     13  C   UNL A   1      37.017  21.801  24.408  1.00  0.00     0.009 C 
ATOM     14  C   UNL A   1      35.636  23.947  24.375  1.00  0.00     0.041 C 
ATOM     15  C   UNL A   1      35.893  21.034  25.106  1.00  0.00     0.047 C 
ATOM     16  C   UNL A   1      34.639  23.289  25.251  1.00  0.00    -0.020 A 
ATOM     17  C   UNL A   1      34.813  21.956  25.562  1.00  0.00     0.011 A 
ATOM     18  C   UNL A   1      33.446  23.794  25.839  1.00  0.00     0.060 A 
ATOM     19  S   UNL A   1      33.683  21.434  26.657  1.00  0.00    -0.120 S 
ATOM     20  C   UNL A   1      32.813  22.893  26.662  1.00  0.00     0.129 A 
ATOM     21  C   UNL A   1      32.594  24.961  25.531  1.00  0.00     0.168 A 
ATOM     22  N   UNL A   1      31.570  23.004  27.240  1.00  0.00    -0.225 NA
ATOM     23  N   UNL A   1      31.314  24.973  26.024  1.00  0.00    -0.201 N 
ATOM     24  N   UNL A   1      32.683  25.780  24.521  1.00  0.00    -0.207 NA
ATOM     25  C   UNL A   1      30.819  24.001  26.876  1.00  0.00     0.227 A 
ATOM     26  N   UNL A   1      30.518  25.777  25.301  1.00  0.00    -0.145 NA
ENDBRANCH   9  10
ENDBRANCH   5   8
ENDBRANCH   3   4
ENDBRANCH   2   3
ENDBRANCH   1   2
BRANCH   1  27
ATOM     27  C   UNL A   1      33.201  31.193  27.251  1.00  0.00     0.116 C 
BRANCH  27  28
ATOM     28  N   UNL A   1      34.028  31.211  28.542  1.00  0.00    -0.352 N 
ATOM     29  C   UNL A   1      35.333  31.654  28.911  1.00  0.00     0.251 C 
ATOM     30  H   UNL A   1      33.539  30.823  29.303  1.00  0.00     0.163 HD
ATOM     31  O   UNL A   1      35.387  32.541  29.769  1.00  0.00    -0.269 OA
BRANCH  29  32
ATOM     32  C   UNL A   1      36.657  30.939  28.641  1.00  0.00     0.039 A 
ATOM     33  C   UNL A   1      37.878  31.414  29.144  1.00  0.00     0.014 A 
ATOM     34  C   UNL A   1      36.770  29.809  27.834  1.00  0.00     0.014 A 
ATOM     35  C   UNL A   1      39.063  30.603  29.126  1.00  0.00     0.010 A 
ATOM     36  C   UNL A   1      37.921  28.954  27.909  1.00  0.00     0.010 A 
ATOM     37  C   UNL A   1      39.066  29.268  28.658  1.00  0.00    -0.014 A 
BRANCH  37  38
ATOM     38  C   UNL A   1      40.188  28.285  29.055  1.00  0.00     0.031 A 
ATOM     39  C   UNL A   1      40.551  28.206  30.548  1.00  0.00     0.074 A 
ATOM     40  C   UNL A   1      40.763  27.257  28.349  1.00  0.00     0.049 A 
ATOM     41  N   UNL A   1      41.691  28.395  31.150  1.00  0.00    -0.248 NA
ATOM     42  C   UNL A   1      39.482  27.845  31.490  1.00  0.00     0.031 C 
ATOM     43  C   UNL A   1      40.463  26.744  27.004  1.00  0.00     0.029 A 
ATOM     44  N   UNL A   1      41.753  26.365  28.752  1.00  0.00    -0.354 N 
ATOM     45  C   UNL A   1      41.509  28.071  32.510  1.00  0.00     0.074 A 
ATOM     46  C   UNL A   1      40.107  27.795  32.667  1.00  0.00     0.031 C 
ATOM     47  C   UNL A   1      41.085  25.561  26.786  1.00  0.00     0.029 A 
ATOM     48  C   UNL A   1      41.974  25.283  27.893  1.00  0.00     0.049 A 
ATOM     49  H   UNL A   1      42.262  26.487  29.585  1.00  0.00     0.167 HD
ATOM     50  C   UNL A   1      42.533  27.955  33.411  1.00  0.00     0.037 A 
ATOM     51  C   UNL A   1      42.844  24.242  28.013  1.00  0.00     0.037 A 
ATOM     52  C   UNL A   1      43.737  28.552  32.918  1.00  0.00     0.049 A 
ATOM     53  C   UNL A   1      43.891  24.638  28.970  1.00  0.00     0.074 A 
ATOM     54  C   UNL A   1      44.118  29.823  32.536  1.00  0.00     0.029 A 
ATOM     55  N   UNL A   1      44.738  27.728  32.476  1.00  0.00    -0.354 N 
ATOM     56  N   UNL A   1      44.789  25.552  28.750  1.00  0.00    -0.248 NA
ATOM     57  C   UNL A   1      43.748  24.204  30.346  1.00  0.00     0.031 C 
ATOM     58  C   UNL A   1      44.988  29.612  31.429  1.00  0.00     0.029 A 
ATOM     59  C   UNL A   1      45.124  28.232  31.265  1.00  0.00     0.049 A 
ATOM     60  H   UNL A   1      45.102  26.936  32.935  1.00  0.00     0.167 HD
ATOM     61  C   UNL A   1      45.010  26.117  29.991  1.00  0.00     0.074 A 
ATOM     62  C   UNL A   1      44.431  25.178  30.948  1.00  0.00     0.031 C 
ATOM     63  C   UNL A   1      45.401  27.418  30.109  1.00  0.00     0.037 A 
BRANCH  50  64
ATOM     64  C   UNL A   1      42.567  27.087  34.656  1.00  0.00     0.057 A 
ATOM     65  C   UNL A   1      42.876  25.711  34.549  1.00  0.00     0.134 A 
ATOM     66  C   UNL A   1      42.015  27.473  35.891  1.00  0.00     0.134 A 
ATOM     67  F   UNL A   1      43.406  25.207  33.424  1.00  0.00    -0.206 F 
ATOM     68  C   UNL A   1      42.579  24.783  35.558  1.00  0.00     0.040 A 
ATOM     69  C   UNL A   1      41.753  26.559  36.922  1.00  0.00     0.040 A 
ATOM     70  F   UNL A   1      41.617  28.729  36.124  1.00  0.00    -0.206 F 
ATOM     71  C   UNL A   1      42.004  25.204  36.747  1.00  0.00     0.006 A 
ENDBRANCH  50  64
BRANCH  51  72
ATOM     72  C   UNL A   1      42.782  22.837  27.522  1.00  0.00     0.057 A 
ATOM     73  C   UNL A   1      41.687  21.998  27.806  1.00  0.00     0.134 A 
ATOM     74  C   UNL A   1      43.631  22.398  26.493  1.00  0.00     0.134 A 
ATOM     75  F   UNL A   1      40.795  22.335  28.750  1.00  0.00    -0.206 F 
ATOM     76  C   UNL A   1      41.428  20.823  27.081  1.00  0.00     0.040 A 
ATOM     77  C   UNL A   1      43.385  21.227  25.763  1.00  0.00     0.040 A 
ATOM     78  F   UNL A   1      44.673  23.145  26.102  1.00  0.00    -0.206 F 
ATOM     79  C   UNL A   1      42.269  20.444  26.041  1.00  0.00     0.006 A 
ENDBRANCH  51  72
BRANCH  63  80
ATOM     80  C   UNL A   1      45.869  28.154  28.887  1.00  0.00     0.057 A 
ATOM     81  C   UNL A   1      45.024  28.864  28.023  1.00  0.00     0.134 A 
ATOM     82  C   UNL A   1      47.248  28.337  28.721  1.00  0.00     0.134 A 
ATOM     83  F   UNL A   1      43.693  28.818  28.153  1.00  0.00    -0.206 F 
ATOM     84  C   UNL A   1      45.531  29.715  27.036  1.00  0.00     0.040 A 
ATOM     85  C   UNL A   1      47.765  29.210  27.763  1.00  0.00     0.040 A 
ATOM     86  F   UNL A   1      48.115  27.723  29.543  1.00  0.00    -0.206 F 
ATOM     87  C   UNL A   1      46.906  29.904  26.916  1.00  0.00     0.006 A 
ENDBRANCH  63  80
ENDBRANCH  37  38
ENDBRANCH  29  32
ENDBRANCH  27  28
ENDBRANCH   1  27
TORSDOF 12
ENDMDL
