MODEL 1
REMARK VINA RESULT:     -12.5      0.000      0.000
REMARK SMILES CN1C(=O)C[C@H](C(=O)NCCCCNC(=O)c2ccc(-c3c4nc(c(-c5c(F)cccc5F)c5ccc([nH]5)c(-c5c(F)cccc5F)c5nc(c(-c6c(F)cccc6F)c6ccc3[nH]6)C=C5)C=C4)cc2)C12CC[NH+](Cc1ccc(Cl)c(F)c1)CC2
REMARK SMILES IDX 11 1 10 2 9 3 7 4 8 5 6 7 1 8 2 9 3 10 71 11 4 12 5 13 72 14
REMARK SMILES IDX 85 15 73 16 84 17 74 18 75 20 76 21 77 22 83 23 78 24 81 25
REMARK SMILES IDX 79 26 82 27 80 28 12 29 13 30 14 31 15 32 16 34 17 35 18 36
REMARK SMILES IDX 70 37 19 38 69 39 20 40 21 41 22 42 63 43 23 44 68 45 62 46
REMARK SMILES IDX 64 47 24 48 67 49 61 50 60 51 25 53 51 54 34 55 50 56 35 57
REMARK SMILES IDX 38 58 49 59 65 60 36 61 37 62 48 64 66 65 39 66 26 67 27 68
REMARK SMILES IDX 32 69 28 70 29 71 31 72 33 73 30 74 52 75 53 76 58 77 54 78
REMARK SMILES IDX 55 79 57 80 59 81 56 82 40 83 41 84 46 85 42 86 43 87 45 88
REMARK SMILES IDX 47 89 44 90
REMARK H PARENT 9 6 74 19 14 33 64 52 38 63
REMARK Flexibility Score: inf
ROOT
ATOM      1  C   UNL A   1      32.952  29.372  24.805  1.00  0.00     0.023 C 
ENDROOT
BRANCH   1   2
ATOM      2  C   UNL A   1      32.255  28.465  23.798  1.00  0.00     0.116 C 
BRANCH   2   3
ATOM      3  N   UNL A   1      30.941  27.967  24.157  1.00  0.00    -0.356 N 
ATOM      4  C   UNL A   1      30.379  26.726  24.054  1.00  0.00     0.226 C 
ATOM      5  O   UNL A   1      29.308  26.578  24.658  1.00  0.00    -0.275 OA
ATOM      6  H   UNL A   1      30.346  28.647  24.545  1.00  0.00     0.163 HD
BRANCH   4   7
ATOM      7  C   UNL A   1      30.911  25.551  23.215  1.00  0.00     0.114 C 
ATOM      8  C   UNL A   1      34.073  23.581  22.519  1.00  0.00     0.147 C 
ATOM      9  N   UNL A   1      32.832  24.342  22.520  1.00  0.00    -0.339 N 
ATOM     10  C   UNL A   1      32.586  25.248  21.507  1.00  0.00     0.223 C 
ATOM     11  C   UNL A   1      31.954  24.501  23.709  1.00  0.00     0.065 C 
ATOM     12  O   UNL A   1      33.244  25.389  20.485  1.00  0.00    -0.275 OA
ATOM     13  C   UNL A   1      31.409  26.089  21.868  1.00  0.00     0.116 C 
ATOM     14  C   UNL A   1      31.336  23.121  24.111  1.00  0.00     0.091 C 
ATOM     15  C   UNL A   1      32.810  24.904  24.890  1.00  0.00     0.091 C 
ATOM     16  C   UNL A   1      30.790  23.018  25.554  1.00  0.00     0.265 C 
ATOM     17  C   UNL A   1      32.015  25.008  26.192  1.00  0.00     0.265 C 
ATOM     18  N   UNL A   1      31.535  23.706  26.607  1.00  0.00    -0.331 N 
ATOM     19  H   UNL A   1      30.797  23.852  27.296  1.00  0.00     0.348 HD
BRANCH  18  20
ATOM     20  C   UNL A   1      32.433  22.948  27.495  1.00  0.00     0.299 C 
BRANCH  20  21
ATOM     21  C   UNL A   1      33.740  22.473  26.881  1.00  0.00     0.009 A 
ATOM     22  C   UNL A   1      33.774  21.300  26.117  1.00  0.00     0.011 A 
ATOM     23  C   UNL A   1      34.895  23.282  26.929  1.00  0.00     0.050 A 
ATOM     24  C   UNL A   1      34.890  21.001  25.328  1.00  0.00     0.024 A 
ATOM     25  C   UNL A   1      35.975  23.013  26.090  1.00  0.00     0.142 A 
ATOM     26  C   UNL A   1      35.969  21.884  25.278  1.00  0.00     0.076 A 
ATOM     27  F   UNL A   1      36.962  23.916  26.006  1.00  0.00    -0.205 F 
ATOM     28  Cl  UNL A   1      37.244  21.601  24.157  1.00  0.00    -0.081 Cl
ENDBRANCH  20  21
ENDBRANCH  18  20
ENDBRANCH   4   7
ENDBRANCH   2   3
ENDBRANCH   1   2
BRANCH   1  29
ATOM     29  C   UNL A   1      33.873  28.661  25.808  1.00  0.00     0.023 C 
BRANCH  29  30
ATOM     30  C   UNL A   1      33.574  28.823  27.304  1.00  0.00     0.116 C 
BRANCH  30  31
ATOM     31  N   UNL A   1      33.680  30.187  27.808  1.00  0.00    -0.352 N 
ATOM     32  C   UNL A   1      34.762  30.834  28.371  1.00  0.00     0.251 C 
ATOM     33  H   UNL A   1      32.860  30.726  27.737  1.00  0.00     0.163 HD
ATOM     34  O   UNL A   1      34.646  31.982  28.789  1.00  0.00    -0.269 OA
BRANCH  32  35
ATOM     35  C   UNL A   1      36.057  30.134  28.520  1.00  0.00     0.039 A 
ATOM     36  C   UNL A   1      36.958  30.149  27.450  1.00  0.00     0.014 A 
ATOM     37  C   UNL A   1      36.400  29.495  29.713  1.00  0.00     0.014 A 
ATOM     38  C   UNL A   1      38.244  29.626  27.618  1.00  0.00     0.010 A 
ATOM     39  C   UNL A   1      37.705  29.040  29.901  1.00  0.00     0.010 A 
ATOM     40  C   UNL A   1      38.649  29.123  28.865  1.00  0.00    -0.014 A 
BRANCH  40  41
ATOM     41  C   UNL A   1      40.061  28.727  29.124  1.00  0.00     0.031 A 
ATOM     42  C   UNL A   1      41.035  29.711  29.711  1.00  0.00     0.074 A 
ATOM     43  C   UNL A   1      40.494  27.507  28.744  1.00  0.00     0.049 A 
ATOM     44  N   UNL A   1      42.326  29.590  29.893  1.00  0.00    -0.248 NA
ATOM     45  C   UNL A   1      40.489  31.013  30.125  1.00  0.00     0.031 C 
ATOM     46  C   UNL A   1      39.665  26.468  28.128  1.00  0.00     0.029 A 
ATOM     47  N   UNL A   1      41.744  26.940  28.797  1.00  0.00    -0.354 N 
ATOM     48  C   UNL A   1      42.750  30.803  30.421  1.00  0.00     0.074 A 
ATOM     49  C   UNL A   1      41.585  31.660  30.492  1.00  0.00     0.031 C 
ATOM     50  C   UNL A   1      40.426  25.392  27.869  1.00  0.00     0.029 A 
ATOM     51  C   UNL A   1      41.804  25.678  28.254  1.00  0.00     0.049 A 
ATOM     52  H   UNL A   1      42.526  27.396  29.188  1.00  0.00     0.167 HD
ATOM     53  C   UNL A   1      43.992  31.163  30.825  1.00  0.00     0.037 A 
ATOM     54  C   UNL A   1      42.851  24.851  28.064  1.00  0.00     0.037 A 
ATOM     55  C   UNL A   1      45.144  30.303  30.775  1.00  0.00     0.049 A 
ATOM     56  C   UNL A   1      44.224  25.285  28.500  1.00  0.00     0.074 A 
ATOM     57  C   UNL A   1      46.429  30.559  31.224  1.00  0.00     0.029 A 
ATOM     58  N   UNL A   1      45.157  29.025  30.236  1.00  0.00    -0.354 N 
ATOM     59  N   UNL A   1      44.595  26.409  29.064  1.00  0.00    -0.248 NA
ATOM     60  C   UNL A   1      45.326  24.336  28.275  1.00  0.00     0.031 C 
ATOM     61  C   UNL A   1      47.231  29.460  30.905  1.00  0.00     0.029 A 
ATOM     62  C   UNL A   1      46.435  28.493  30.314  1.00  0.00     0.049 A 
ATOM     63  H   UNL A   1      44.376  28.565  29.855  1.00  0.00     0.167 HD
ATOM     64  C   UNL A   1      45.961  26.289  29.290  1.00  0.00     0.074 A 
ATOM     65  C   UNL A   1      46.353  24.981  28.812  1.00  0.00     0.031 C 
ATOM     66  C   UNL A   1      46.812  27.184  29.848  1.00  0.00     0.037 A 
BRANCH  53  67
ATOM     67  C   UNL A   1      44.175  32.556  31.355  1.00  0.00     0.057 A 
ATOM     68  C   UNL A   1      44.459  33.640  30.513  1.00  0.00     0.134 A 
ATOM     69  C   UNL A   1      44.014  32.827  32.721  1.00  0.00     0.134 A 
ATOM     70  F   UNL A   1      44.634  33.449  29.196  1.00  0.00    -0.206 F 
ATOM     71  C   UNL A   1      44.599  34.936  31.011  1.00  0.00     0.040 A 
ATOM     72  C   UNL A   1      44.123  34.123  33.227  1.00  0.00     0.040 A 
ATOM     73  F   UNL A   1      43.731  31.838  33.583  1.00  0.00    -0.206 F 
ATOM     74  C   UNL A   1      44.423  35.181  32.372  1.00  0.00     0.006 A 
ENDBRANCH  53  67
BRANCH  54  75
ATOM     75  C   UNL A   1      42.648  23.525  27.426  1.00  0.00     0.057 A 
ATOM     76  C   UNL A   1      42.788  23.357  26.042  1.00  0.00     0.134 A 
ATOM     77  C   UNL A   1      42.291  22.398  28.176  1.00  0.00     0.134 A 
ATOM     78  F   UNL A   1      43.108  24.402  25.266  1.00  0.00    -0.206 F 
ATOM     79  C   UNL A   1      42.557  22.126  25.426  1.00  0.00     0.040 A 
ATOM     80  C   UNL A   1      42.085  21.154  27.577  1.00  0.00     0.040 A 
ATOM     81  F   UNL A   1      42.148  22.487  29.507  1.00  0.00    -0.206 F 
ATOM     82  C   UNL A   1      42.209  21.018  26.196  1.00  0.00     0.006 A 
ENDBRANCH  54  75
BRANCH  66  83
ATOM     83  C   UNL A   1      48.246  26.769  30.017  1.00  0.00     0.057 A 
ATOM     84  C   UNL A   1      48.696  26.091  31.156  1.00  0.00     0.134 A 
ATOM     85  C   UNL A   1      49.176  27.001  28.993  1.00  0.00     0.134 A 
ATOM     86  F   UNL A   1      47.860  25.850  32.177  1.00  0.00    -0.206 F 
ATOM     87  C   UNL A   1      50.022  25.670  31.277  1.00  0.00     0.040 A 
ATOM     88  C   UNL A   1      50.495  26.559  29.091  1.00  0.00     0.040 A 
ATOM     89  F   UNL A   1      48.809  27.638  27.871  1.00  0.00    -0.206 F 
ATOM     90  C   UNL A   1      50.922  25.894  30.238  1.00  0.00     0.006 A 
ENDBRANCH  66  83
ENDBRANCH  40  41
ENDBRANCH  32  35
ENDBRANCH  30  31
ENDBRANCH  29  30
ENDBRANCH   1  29
TORSDOF 13
ENDMDL
MODEL 2
REMARK VINA RESULT:     -12.4      2.510      7.149
REMARK SMILES CN1C(=O)C[C@H](C(=O)NCCCCNC(=O)c2ccc(-c3c4nc(c(-c5c(F)cccc5F)c5ccc([nH]5)c(-c5c(F)cccc5F)c5nc(c(-c6c(F)cccc6F)c6ccc3[nH]6)C=C5)C=C4)cc2)C12CC[NH+](Cc1ccc(Cl)c(F)c1)CC2
REMARK SMILES IDX 11 1 10 2 9 3 7 4 8 5 6 7 1 8 2 9 3 10 71 11 4 12 5 13 72 14
REMARK SMILES IDX 85 15 73 16 84 17 74 18 75 20 76 21 77 22 83 23 78 24 81 25
REMARK SMILES IDX 79 26 82 27 80 28 12 29 13 30 14 31 15 32 16 34 17 35 18 36
REMARK SMILES IDX 70 37 19 38 69 39 20 40 21 41 22 42 63 43 23 44 68 45 62 46
REMARK SMILES IDX 64 47 24 48 67 49 61 50 60 51 25 53 51 54 34 55 50 56 35 57
REMARK SMILES IDX 38 58 49 59 65 60 36 61 37 62 48 64 66 65 39 66 26 67 27 68
REMARK SMILES IDX 32 69 28 70 29 71 31 72 33 73 30 74 52 75 53 76 58 77 54 78
REMARK SMILES IDX 55 79 57 80 59 81 56 82 40 83 41 84 46 85 42 86 43 87 45 88
REMARK SMILES IDX 47 89 44 90
REMARK H PARENT 9 6 74 19 14 33 64 52 38 63
REMARK Flexibility Score: inf
ROOT
ATOM      1  C   UNL A   1      35.833  22.079  25.059  1.00  0.00     0.023 C 
ENDROOT
BRANCH   1   2
ATOM      2  C   UNL A   1      34.366  21.678  25.166  1.00  0.00     0.116 C 
BRANCH   2   3
ATOM      3  N   UNL A   1      33.662  21.410  23.927  1.00  0.00    -0.356 N 
ATOM      4  C   UNL A   1      32.546  21.971  23.375  1.00  0.00     0.226 C 
ATOM      5  O   UNL A   1      32.329  21.666  22.195  1.00  0.00    -0.275 OA
ATOM      6  H   UNL A   1      34.062  20.692  23.386  1.00  0.00     0.163 HD
BRANCH   4   7
ATOM      7  C   UNL A   1      31.523  22.867  24.097  1.00  0.00     0.114 C 
ATOM      8  C   UNL A   1      31.298  25.763  26.532  1.00  0.00     0.147 C 
ATOM      9  N   UNL A   1      31.195  24.539  25.750  1.00  0.00    -0.339 N 
ATOM     10  C   UNL A   1      30.934  23.342  26.386  1.00  0.00     0.223 C 
ATOM     11  C   UNL A   1      31.704  24.395  24.360  1.00  0.00     0.065 C 
ATOM     12  O   UNL A   1      30.617  23.199  27.559  1.00  0.00    -0.275 OA
ATOM     13  C   UNL A   1      31.150  22.215  25.433  1.00  0.00     0.116 C 
ATOM     14  C   UNL A   1      30.891  25.314  23.391  1.00  0.00     0.091 C 
ATOM     15  C   UNL A   1      33.120  24.926  24.307  1.00  0.00     0.091 C 
ATOM     16  C   UNL A   1      31.564  25.633  22.036  1.00  0.00     0.265 C 
ATOM     17  C   UNL A   1      33.709  24.908  22.896  1.00  0.00     0.265 C 
ATOM     18  N   UNL A   1      33.011  25.839  22.035  1.00  0.00    -0.331 N 
ATOM     19  H   UNL A   1      33.236  25.598  21.069  1.00  0.00     0.348 HD
BRANCH  18  20
ATOM     20  C   UNL A   1      33.565  27.203  21.990  1.00  0.00     0.299 C 
BRANCH  20  21
ATOM     21  C   UNL A   1      33.241  28.099  23.174  1.00  0.00     0.009 A 
ATOM     22  C   UNL A   1      32.014  28.770  23.235  1.00  0.00     0.011 A 
ATOM     23  C   UNL A   1      34.090  28.140  24.301  1.00  0.00     0.050 A 
ATOM     24  C   UNL A   1      31.591  29.367  24.428  1.00  0.00     0.024 A 
ATOM     25  C   UNL A   1      33.635  28.679  25.502  1.00  0.00     0.142 A 
ATOM     26  C   UNL A   1      32.383  29.278  25.574  1.00  0.00     0.076 A 
ATOM     27  F   UNL A   1      34.382  28.512  26.604  1.00  0.00    -0.205 F 
ATOM     28  Cl  UNL A   1      31.764  29.846  27.076  1.00  0.00    -0.081 Cl
ENDBRANCH  20  21
ENDBRANCH  18  20
ENDBRANCH   4   7
ENDBRANCH   2   3
ENDBRANCH   1   2
BRANCH   1  29
ATOM     29  C   UNL A   1      36.833  20.915  24.995  1.00  0.00     0.023 C 
BRANCH  29  30
ATOM     30  C   UNL A   1      38.253  21.153  25.525  1.00  0.00     0.116 C 
BRANCH  30  31
ATOM     31  N   UNL A   1      39.130  19.990  25.478  1.00  0.00    -0.352 N 
ATOM     32  C   UNL A   1      40.435  19.855  25.904  1.00  0.00     0.251 C 
ATOM     33  H   UNL A   1      38.733  19.181  25.082  1.00  0.00     0.163 HD
ATOM     34  O   UNL A   1      41.036  18.798  25.732  1.00  0.00    -0.269 OA
BRANCH  32  35
ATOM     35  C   UNL A   1      41.139  20.996  26.530  1.00  0.00     0.039 A 
ATOM     36  C   UNL A   1      41.811  21.906  25.708  1.00  0.00     0.014 A 
ATOM     37  C   UNL A   1      41.112  21.192  27.913  1.00  0.00     0.014 A 
ATOM     38  C   UNL A   1      42.354  23.071  26.260  1.00  0.00     0.010 A 
ATOM     39  C   UNL A   1      41.590  22.386  28.449  1.00  0.00     0.010 A 
ATOM     40  C   UNL A   1      42.194  23.351  27.626  1.00  0.00    -0.014 A 
BRANCH  40  41
ATOM     41  C   UNL A   1      42.603  24.660  28.207  1.00  0.00     0.031 A 
ATOM     42  C   UNL A   1      41.584  25.742  28.443  1.00  0.00     0.074 A 
ATOM     43  C   UNL A   1      43.908  24.913  28.435  1.00  0.00     0.049 A 
ATOM     44  N   UNL A   1      41.766  26.982  28.821  1.00  0.00    -0.248 NA
ATOM     45  C   UNL A   1      40.177  25.388  28.196  1.00  0.00     0.031 C 
ATOM     46  C   UNL A   1      45.004  23.968  28.215  1.00  0.00     0.029 A 
ATOM     47  N   UNL A   1      44.539  26.049  28.882  1.00  0.00    -0.354 N 
ATOM     48  C   UNL A   1      40.504  27.562  28.839  1.00  0.00     0.074 A 
ATOM     49  C   UNL A   1      39.570  26.550  28.392  1.00  0.00     0.031 C 
ATOM     50  C   UNL A   1      46.168  24.559  28.534  1.00  0.00     0.029 A 
ATOM     51  C   UNL A   1      45.908  25.938  28.934  1.00  0.00     0.049 A 
ATOM     52  H   UNL A   1      44.054  26.867  29.141  1.00  0.00     0.167 HD
ATOM     53  C   UNL A   1      40.154  28.817  29.208  1.00  0.00     0.037 A 
ATOM     54  C   UNL A   1      46.853  26.847  29.247  1.00  0.00     0.037 A 
ATOM     55  C   UNL A   1      41.079  29.816  29.672  1.00  0.00     0.049 A 
ATOM     56  C   UNL A   1      46.439  28.242  29.630  1.00  0.00     0.074 A 
ATOM     57  C   UNL A   1      40.808  31.094  30.132  1.00  0.00     0.029 A 
ATOM     58  N   UNL A   1      42.456  29.656  29.729  1.00  0.00    -0.354 N 
ATOM     59  N   UNL A   1      45.234  28.753  29.709  1.00  0.00    -0.248 NA
ATOM     60  C   UNL A   1      47.514  29.187  29.969  1.00  0.00     0.031 C 
ATOM     61  C   UNL A   1      42.023  31.726  30.412  1.00  0.00     0.029 A 
ATOM     62  C   UNL A   1      43.048  30.823  30.187  1.00  0.00     0.049 A 
ATOM     63  H   UNL A   1      42.940  28.836  29.482  1.00  0.00     0.167 HD
ATOM     64  C   UNL A   1      45.405  30.064  30.138  1.00  0.00     0.074 A 
ATOM     65  C   UNL A   1      46.827  30.268  30.310  1.00  0.00     0.031 C 
ATOM     66  C   UNL A   1      44.464  31.012  30.369  1.00  0.00     0.037 A 
BRANCH  53  67
ATOM     67  C   UNL A   1      38.701  29.190  29.119  1.00  0.00     0.057 A 
ATOM     68  C   UNL A   1      37.851  29.132  30.231  1.00  0.00     0.134 A 
ATOM     69  C   UNL A   1      38.159  29.665  27.917  1.00  0.00     0.134 A 
ATOM     70  F   UNL A   1      38.304  28.680  31.411  1.00  0.00    -0.206 F 
ATOM     71  C   UNL A   1      36.510  29.508  30.146  1.00  0.00     0.040 A 
ATOM     72  C   UNL A   1      36.827  30.071  27.827  1.00  0.00     0.040 A 
ATOM     73  F   UNL A   1      38.919  29.756  26.816  1.00  0.00    -0.206 F 
ATOM     74  C   UNL A   1      35.997  29.988  28.942  1.00  0.00     0.006 A 
ENDBRANCH  53  67
BRANCH  54  75
ATOM     75  C   UNL A   1      48.291  26.473  29.207  1.00  0.00     0.057 A 
ATOM     76  C   UNL A   1      49.065  26.692  28.061  1.00  0.00     0.134 A 
ATOM     77  C   UNL A   1      48.921  25.871  30.303  1.00  0.00     0.134 A 
ATOM     78  F   UNL A   1      48.515  27.246  26.971  1.00  0.00    -0.206 F 
ATOM     79  C   UNL A   1      50.405  26.305  27.997  1.00  0.00     0.040 A 
ATOM     80  C   UNL A   1      50.268  25.505  30.263  1.00  0.00     0.040 A 
ATOM     81  F   UNL A   1      48.239  25.640  31.434  1.00  0.00    -0.206 F 
ATOM     82  C   UNL A   1      51.011  25.713  29.104  1.00  0.00     0.006 A 
ENDBRANCH  54  75
BRANCH  66  83
ATOM     83  C   UNL A   1      44.930  32.346  30.879  1.00  0.00     0.057 A 
ATOM     84  C   UNL A   1      45.103  32.602  32.245  1.00  0.00     0.134 A 
ATOM     85  C   UNL A   1      45.269  33.368  29.982  1.00  0.00     0.134 A 
ATOM     86  F   UNL A   1      44.785  31.671  33.156  1.00  0.00    -0.206 F 
ATOM     87  C   UNL A   1      45.583  33.832  32.700  1.00  0.00     0.040 A 
ATOM     88  C   UNL A   1      45.777  34.590  30.424  1.00  0.00     0.040 A 
ATOM     89  F   UNL A   1      45.135  33.186  28.659  1.00  0.00    -0.206 F 
ATOM     90  C   UNL A   1      45.931  34.825  31.788  1.00  0.00     0.006 A 
ENDBRANCH  66  83
ENDBRANCH  40  41
ENDBRANCH  32  35
ENDBRANCH  30  31
ENDBRANCH  29  30
ENDBRANCH   1  29
TORSDOF 13
ENDMDL
MODEL 3
REMARK VINA RESULT:     -12.3      2.756      7.014
REMARK SMILES CN1C(=O)C[C@H](C(=O)NCCCCNC(=O)c2ccc(-c3c4nc(c(-c5c(F)cccc5F)c5ccc([nH]5)c(-c5c(F)cccc5F)c5nc(c(-c6c(F)cccc6F)c6ccc3[nH]6)C=C5)C=C4)cc2)C12CC[NH+](Cc1ccc(Cl)c(F)c1)CC2
REMARK SMILES IDX 11 1 10 2 9 3 7 4 8 5 6 7 1 8 2 9 3 10 71 11 4 12 5 13 72 14
REMARK SMILES IDX 85 15 73 16 84 17 74 18 75 20 76 21 77 22 83 23 78 24 81 25
REMARK SMILES IDX 79 26 82 27 80 28 12 29 13 30 14 31 15 32 16 34 17 35 18 36
REMARK SMILES IDX 70 37 19 38 69 39 20 40 21 41 22 42 63 43 23 44 68 45 62 46
REMARK SMILES IDX 64 47 24 48 67 49 61 50 60 51 25 53 51 54 34 55 50 56 35 57
REMARK SMILES IDX 38 58 49 59 65 60 36 61 37 62 48 64 66 65 39 66 26 67 27 68
REMARK SMILES IDX 32 69 28 70 29 71 31 72 33 73 30 74 52 75 53 76 58 77 54 78
REMARK SMILES IDX 55 79 57 80 59 81 56 82 40 83 41 84 46 85 42 86 43 87 45 88
REMARK SMILES IDX 47 89 44 90
REMARK H PARENT 9 6 74 19 14 33 64 52 38 63
REMARK Flexibility Score: inf
ROOT
ATOM      1  C   UNL A   1      36.810  22.302  23.844  1.00  0.00     0.023 C 
ENDROOT
BRANCH   1   2
ATOM      2  C   UNL A   1      36.327  23.503  24.648  1.00  0.00     0.116 C 
BRANCH   2   3
ATOM      3  N   UNL A   1      35.511  24.479  23.952  1.00  0.00    -0.356 N 
ATOM      4  C   UNL A   1      34.423  25.203  24.348  1.00  0.00     0.226 C 
ATOM      5  O   UNL A   1      34.090  26.119  23.583  1.00  0.00    -0.275 OA
ATOM      6  H   UNL A   1      35.792  24.649  23.024  1.00  0.00     0.163 HD
BRANCH   4   7
ATOM      7  C   UNL A   1      33.555  24.941  25.591  1.00  0.00     0.114 C 
ATOM      8  C   UNL A   1      30.021  24.033  26.618  1.00  0.00     0.147 C 
ATOM      9  N   UNL A   1      31.360  24.569  26.414  1.00  0.00    -0.339 N 
ATOM     10  C   UNL A   1      31.586  25.921  26.579  1.00  0.00     0.223 C 
ATOM     11  C   UNL A   1      32.442  23.852  25.689  1.00  0.00     0.065 C 
ATOM     12  O   UNL A   1      30.799  26.736  27.040  1.00  0.00    -0.275 OA
ATOM     13  C   UNL A   1      32.938  26.266  26.054  1.00  0.00     0.116 C 
ATOM     14  C   UNL A   1      32.864  22.571  26.482  1.00  0.00     0.091 C 
ATOM     15  C   UNL A   1      31.885  23.336  24.380  1.00  0.00     0.091 C 
ATOM     16  C   UNL A   1      33.621  21.493  25.672  1.00  0.00     0.265 C 
ATOM     17  C   UNL A   1      32.897  22.501  23.593  1.00  0.00     0.265 C 
ATOM     18  N   UNL A   1      33.201  21.269  24.290  1.00  0.00    -0.331 N 
ATOM     19  H   UNL A   1      34.060  20.890  23.890  1.00  0.00     0.348 HD
BRANCH  18  20
ATOM     20  C   UNL A   1      32.348  20.117  23.952  1.00  0.00     0.299 C 
BRANCH  20  21
ATOM     21  C   UNL A   1      32.837  18.758  24.422  1.00  0.00     0.009 A 
ATOM     22  C   UNL A   1      32.379  18.223  25.632  1.00  0.00     0.011 A 
ATOM     23  C   UNL A   1      33.624  17.944  23.579  1.00  0.00     0.050 A 
ATOM     24  C   UNL A   1      32.599  16.876  25.940  1.00  0.00     0.024 A 
ATOM     25  C   UNL A   1      33.783  16.589  23.861  1.00  0.00     0.142 A 
ATOM     26  C   UNL A   1      33.260  16.049  25.030  1.00  0.00     0.076 A 
ATOM     27  F   UNL A   1      34.353  15.803  22.936  1.00  0.00    -0.205 F 
ATOM     28  Cl  UNL A   1      33.350  14.357  25.336  1.00  0.00    -0.081 Cl
ENDBRANCH  20  21
ENDBRANCH  18  20
ENDBRANCH   4   7
ENDBRANCH   2   3
ENDBRANCH   1   2
BRANCH   1  29
ATOM     29  C   UNL A   1      37.164  21.054  24.667  1.00  0.00     0.023 C 
BRANCH  29  30
ATOM     30  C   UNL A   1      38.372  21.128  25.609  1.00  0.00     0.116 C 
BRANCH  30  31
ATOM     31  N   UNL A   1      39.284  19.994  25.531  1.00  0.00    -0.352 N 
ATOM     32  C   UNL A   1      40.600  19.895  25.935  1.00  0.00     0.251 C 
ATOM     33  H   UNL A   1      38.906  19.179  25.130  1.00  0.00     0.163 HD
ATOM     34  O   UNL A   1      41.231  18.860  25.738  1.00  0.00    -0.269 OA
BRANCH  32  35
ATOM     35  C   UNL A   1      41.277  21.049  26.566  1.00  0.00     0.039 A 
ATOM     36  C   UNL A   1      41.915  21.986  25.747  1.00  0.00     0.014 A 
ATOM     37  C   UNL A   1      41.259  21.229  27.951  1.00  0.00     0.014 A 
ATOM     38  C   UNL A   1      42.431  23.160  26.307  1.00  0.00     0.010 A 
ATOM     39  C   UNL A   1      41.709  22.430  28.496  1.00  0.00     0.010 A 
ATOM     40  C   UNL A   1      42.278  23.421  27.677  1.00  0.00    -0.014 A 
BRANCH  40  41
ATOM     41  C   UNL A   1      42.655  24.734  28.268  1.00  0.00     0.031 A 
ATOM     42  C   UNL A   1      41.617  25.802  28.480  1.00  0.00     0.074 A 
ATOM     43  C   UNL A   1      43.951  25.004  28.528  1.00  0.00     0.049 A 
ATOM     44  N   UNL A   1      41.774  27.044  28.863  1.00  0.00    -0.248 NA
ATOM     45  C   UNL A   1      40.221  25.431  28.199  1.00  0.00     0.031 C 
ATOM     46  C   UNL A   1      45.065  24.072  28.334  1.00  0.00     0.029 A 
ATOM     47  N   UNL A   1      44.556  26.147  28.990  1.00  0.00    -0.354 N 
ATOM     48  C   UNL A   1      40.505  27.608  28.850  1.00  0.00     0.074 A 
ATOM     49  C   UNL A   1      39.595  26.585  28.381  1.00  0.00     0.031 C 
ATOM     50  C   UNL A   1      46.212  24.678  28.681  1.00  0.00     0.029 A 
ATOM     51  C   UNL A   1      45.925  26.053  29.076  1.00  0.00     0.049 A 
ATOM     52  H   UNL A   1      44.055  26.959  29.238  1.00  0.00     0.167 HD
ATOM     53  C   UNL A   1      40.129  28.859  29.211  1.00  0.00     0.037 A 
ATOM     54  C   UNL A   1      46.851  26.974  29.411  1.00  0.00     0.037 A 
ATOM     55  C   UNL A   1      41.031  29.869  29.698  1.00  0.00     0.049 A 
ATOM     56  C   UNL A   1      46.409  28.363  29.785  1.00  0.00     0.074 A 
ATOM     57  C   UNL A   1      40.732  31.143  30.152  1.00  0.00     0.029 A 
ATOM     58  N   UNL A   1      42.407  29.726  29.789  1.00  0.00    -0.354 N 
ATOM     59  N   UNL A   1      45.197  28.860  29.835  1.00  0.00    -0.248 NA
ATOM     60  C   UNL A   1      47.464  29.322  30.150  1.00  0.00     0.031 C 
ATOM     61  C   UNL A   1      41.931  31.791  30.461  1.00  0.00     0.029 A 
ATOM     62  C   UNL A   1      42.973  30.901  30.261  1.00  0.00     0.049 A 
ATOM     63  H   UNL A   1      42.908  28.913  29.552  1.00  0.00     0.167 HD
ATOM     64  C   UNL A   1      45.340  30.173  30.268  1.00  0.00     0.074 A 
ATOM     65  C   UNL A   1      46.755  30.395  30.475  1.00  0.00     0.031 C 
ATOM     66  C   UNL A   1      44.382  31.108  30.478  1.00  0.00     0.037 A 
BRANCH  53  67
ATOM     67  C   UNL A   1      38.675  29.213  29.088  1.00  0.00     0.057 A 
ATOM     68  C   UNL A   1      37.806  29.174  30.186  1.00  0.00     0.134 A 
ATOM     69  C   UNL A   1      38.149  29.651  27.865  1.00  0.00     0.134 A 
ATOM     70  F   UNL A   1      38.243  28.757  31.384  1.00  0.00    -0.206 F 
ATOM     71  C   UNL A   1      36.462  29.533  30.067  1.00  0.00     0.040 A 
ATOM     72  C   UNL A   1      36.815  30.040  27.740  1.00  0.00     0.040 A 
ATOM     73  F   UNL A   1      38.928  29.722  26.774  1.00  0.00    -0.206 F 
ATOM     74  C   UNL A   1      35.966  29.976  28.842  1.00  0.00     0.006 A 
ENDBRANCH  53  67
BRANCH  54  75
ATOM     75  C   UNL A   1      48.293  26.619  29.406  1.00  0.00     0.057 A 
ATOM     76  C   UNL A   1      49.096  26.862  28.284  1.00  0.00     0.134 A 
ATOM     77  C   UNL A   1      48.901  26.012  30.511  1.00  0.00     0.134 A 
ATOM     78  F   UNL A   1      48.568  27.421  27.186  1.00  0.00    -0.206 F 
ATOM     79  C   UNL A   1      50.441  26.492  28.252  1.00  0.00     0.040 A 
ATOM     80  C   UNL A   1      50.253  25.663  30.504  1.00  0.00     0.040 A 
ATOM     81  F   UNL A   1      48.192  25.758  31.621  1.00  0.00    -0.206 F 
ATOM     82  C   UNL A   1      51.025  25.894  29.368  1.00  0.00     0.006 A 
ENDBRANCH  54  75
BRANCH  66  83
ATOM     83  C   UNL A   1      44.819  32.447  30.999  1.00  0.00     0.057 A 
ATOM     84  C   UNL A   1      44.934  32.711  32.369  1.00  0.00     0.134 A 
ATOM     85  C   UNL A   1      45.188  33.467  30.111  1.00  0.00     0.134 A 
ATOM     86  F   UNL A   1      44.584  31.783  33.272  1.00  0.00    -0.206 F 
ATOM     87  C   UNL A   1      45.387  33.946  32.837  1.00  0.00     0.040 A 
ATOM     88  C   UNL A   1      45.670  34.694  30.567  1.00  0.00     0.040 A 
ATOM     89  F   UNL A   1      45.110  33.277  28.785  1.00  0.00    -0.206 F 
ATOM     90  C   UNL A   1      45.766  34.938  31.934  1.00  0.00     0.006 A 
ENDBRANCH  66  83
ENDBRANCH  40  41
ENDBRANCH  32  35
ENDBRANCH  30  31
ENDBRANCH  29  30
ENDBRANCH   1  29
TORSDOF 13
ENDMDL
