MODEL 1
REMARK VINA RESULT:     -12.5      0.000      0.000
REMARK SMILES Cc1ccc([C@@H]2[C@H](C(=O)NCCCCNC(=O)c3ccc(-c4c5nc(c(-c6c(F)cccc6F)c6ccc([nH]6)c(-c6c(F)cccc6F)c6nc(c(-c7c(F)cccc7F)c7ccc4[nH]7)C=C6)C=C5)cc3)c3ccccc3C(=O)N2c2ccccc2)cc1
REMARK SMILES IDX 13 1 12 2 11 3 10 4 8 5 9 6 7 8 6 9 80 10 72 11 78 12 73 13
REMARK SMILES IDX 77 14 79 15 74 16 76 17 75 18 5 19 1 20 2 21 3 22 88 23 4 24
REMARK SMILES IDX 87 25 81 26 82 27 86 28 83 29 85 30 84 31 14 32 15 33 16 34
REMARK SMILES IDX 17 36 18 37 19 38 71 39 20 40 70 41 21 42 22 43 23 44 64 45
REMARK SMILES IDX 24 46 69 47 63 48 65 49 25 50 68 51 62 52 61 53 26 55 52 56
REMARK SMILES IDX 35 57 51 58 36 59 39 60 50 61 66 62 37 63 38 64 49 66 67 67
REMARK SMILES IDX 40 68 27 69 28 70 33 71 29 72 30 73 32 74 34 75 31 76 53 77
REMARK SMILES IDX 54 78 59 79 55 80 56 81 58 82 60 83 57 84 41 85 42 86 47 87
REMARK SMILES IDX 43 88 44 89 46 90 48 91 45 92
REMARK H PARENT 10 7 15 35 65 54 39 65
REMARK Flexibility Score: inf
ROOT
ATOM      1  C   UNL A   1      37.827  23.633  25.048  1.00  0.00     0.023 C 
ENDROOT
BRANCH   1   2
ATOM      2  C   UNL A   1      36.347  24.005  25.166  1.00  0.00     0.023 C 
BRANCH   2   3
ATOM      3  C   UNL A   1      35.609  24.129  23.828  1.00  0.00     0.116 C 
BRANCH   3   4
ATOM      4  N   UNL A   1      34.270  24.674  23.990  1.00  0.00    -0.355 N 
ATOM      5  C   UNL A   1      34.059  25.780  24.786  1.00  0.00     0.230 C 
ATOM      6  O   UNL A   1      34.334  26.899  24.354  1.00  0.00    -0.274 OA
ATOM      7  H   UNL A   1      33.511  24.251  23.528  1.00  0.00     0.163 HD
BRANCH   5   8
ATOM      8  C   UNL A   1      33.395  25.572  26.153  1.00  0.00     0.137 C 
ATOM      9  C   UNL A   1      32.445  26.756  26.531  1.00  0.00     0.138 C 
ATOM     10  N   UNL A   1      31.171  26.606  25.806  1.00  0.00    -0.300 N 
ATOM     11  C   UNL A   1      32.619  24.259  26.306  1.00  0.00    -0.020 A 
ATOM     12  C   UNL A   1      30.423  25.536  26.327  1.00  0.00     0.259 C 
ATOM     13  C   UNL A   1      33.298  23.033  26.328  1.00  0.00     0.005 A 
ATOM     14  C   UNL A   1      31.209  24.258  26.421  1.00  0.00     0.044 A 
ATOM     15  O   UNL A   1      29.223  25.566  26.572  1.00  0.00    -0.269 OA
ATOM     16  C   UNL A   1      32.588  21.833  26.393  1.00  0.00     0.000 A 
ATOM     17  C   UNL A   1      30.507  23.052  26.523  1.00  0.00     0.014 A 
ATOM     18  C   UNL A   1      31.197  21.841  26.488  1.00  0.00     0.001 A 
BRANCH   9  19
ATOM     19  C   UNL A   1      33.051  28.125  26.837  1.00  0.00    -0.024 A 
ATOM     20  C   UNL A   1      34.434  32.048  28.064  1.00  0.00     0.044 C 
ATOM     21  C   UNL A   1      33.985  30.722  27.525  1.00  0.00    -0.051 A 
ATOM     22  C   UNL A   1      34.871  29.650  27.397  1.00  0.00     0.004 A 
ATOM     23  C   UNL A   1      32.644  30.519  27.207  1.00  0.00     0.004 A 
ATOM     24  C   UNL A   1      34.416  28.383  27.003  1.00  0.00     0.006 A 
ATOM     25  C   UNL A   1      32.187  29.242  26.871  1.00  0.00     0.006 A 
ENDBRANCH   9  19
BRANCH  10  26
ATOM     26  C   UNL A   1      31.003  26.873  24.390  1.00  0.00     0.045 A 
ATOM     27  C   UNL A   1      31.012  25.800  23.472  1.00  0.00     0.026 A 
ATOM     28  C   UNL A   1      30.955  28.160  23.843  1.00  0.00     0.026 A 
ATOM     29  C   UNL A   1      31.050  26.005  22.090  1.00  0.00     0.002 A 
ATOM     30  C   UNL A   1      30.952  28.370  22.456  1.00  0.00     0.002 A 
ATOM     31  C   UNL A   1      31.024  27.294  21.580  1.00  0.00     0.000 A 
ENDBRANCH  10  26
ENDBRANCH   5   8
ENDBRANCH   3   4
ENDBRANCH   2   3
ENDBRANCH   1   2
BRANCH   1  32
ATOM     32  C   UNL A   1      38.346  22.806  26.220  1.00  0.00     0.116 C 
BRANCH  32  33
ATOM     33  N   UNL A   1      39.794  22.853  26.405  1.00  0.00    -0.352 N 
ATOM     34  C   UNL A   1      40.598  23.916  26.803  1.00  0.00     0.251 C 
ATOM     35  H   UNL A   1      40.270  22.011  26.222  1.00  0.00     0.163 HD
ATOM     36  O   UNL A   1      41.800  23.779  26.910  1.00  0.00    -0.269 OA
BRANCH  34  37
ATOM     37  C   UNL A   1      39.949  25.184  27.234  1.00  0.00     0.039 A 
ATOM     38  C   UNL A   1      40.186  26.328  26.464  1.00  0.00     0.014 A 
ATOM     39  C   UNL A   1      39.353  25.289  28.486  1.00  0.00     0.014 A 
ATOM     40  C   UNL A   1      40.104  27.579  27.069  1.00  0.00     0.010 A 
ATOM     41  C   UNL A   1      39.371  26.516  29.120  1.00  0.00     0.010 A 
ATOM     42  C   UNL A   1      39.831  27.644  28.435  1.00  0.00    -0.014 A 
BRANCH  42  43
ATOM     43  C   UNL A   1      40.201  28.795  29.253  1.00  0.00     0.031 A 
ATOM     44  C   UNL A   1      39.217  29.834  29.609  1.00  0.00     0.074 A 
ATOM     45  C   UNL A   1      41.451  28.849  29.767  1.00  0.00     0.049 A 
ATOM     46  N   UNL A   1      39.522  31.051  29.912  1.00  0.00    -0.248 NA
ATOM     47  C   UNL A   1      37.783  29.578  29.623  1.00  0.00     0.031 C 
ATOM     48  C   UNL A   1      41.947  29.738  30.812  1.00  0.00     0.029 A 
ATOM     49  N   UNL A   1      42.600  28.206  29.281  1.00  0.00    -0.354 N 
ATOM     50  C   UNL A   1      38.394  31.649  30.426  1.00  0.00     0.074 A 
ATOM     51  C   UNL A   1      37.325  30.711  30.164  1.00  0.00     0.031 C 
ATOM     52  C   UNL A   1      43.284  29.814  30.716  1.00  0.00     0.029 A 
ATOM     53  C   UNL A   1      43.671  29.094  29.516  1.00  0.00     0.049 A 
ATOM     54  H   UNL A   1      42.648  27.317  28.863  1.00  0.00     0.167 HD
ATOM     55  C   UNL A   1      38.508  32.804  31.146  1.00  0.00     0.037 A 
ATOM     56  C   UNL A   1      44.390  29.624  28.485  1.00  0.00     0.037 A 
ATOM     57  C   UNL A   1      39.895  33.267  31.190  1.00  0.00     0.049 A 
ATOM     58  C   UNL A   1      44.341  31.131  28.415  1.00  0.00     0.074 A 
ATOM     59  C   UNL A   1      40.893  33.129  32.141  1.00  0.00     0.029 A 
ATOM     60  N   UNL A   1      40.522  33.704  30.026  1.00  0.00    -0.354 N 
ATOM     61  N   UNL A   1      43.444  31.860  29.020  1.00  0.00    -0.248 NA
ATOM     62  C   UNL A   1      45.272  31.934  27.626  1.00  0.00     0.031 C 
ATOM     63  C   UNL A   1      42.133  33.426  31.528  1.00  0.00     0.029 A 
ATOM     64  C   UNL A   1      41.890  33.762  30.208  1.00  0.00     0.049 A 
ATOM     65  H   UNL A   1      40.055  33.937  29.191  1.00  0.00     0.167 HD
ATOM     66  C   UNL A   1      43.625  33.177  28.686  1.00  0.00     0.074 A 
ATOM     67  C   UNL A   1      44.800  33.176  27.836  1.00  0.00     0.031 C 
ATOM     68  C   UNL A   1      42.778  34.155  29.124  1.00  0.00     0.037 A 
BRANCH  55  69
ATOM     69  C   UNL A   1      37.423  33.308  32.074  1.00  0.00     0.057 A 
ATOM     70  C   UNL A   1      36.333  34.058  31.585  1.00  0.00     0.134 A 
ATOM     71  C   UNL A   1      37.429  33.149  33.470  1.00  0.00     0.134 A 
ATOM     72  F   UNL A   1      36.096  34.189  30.274  1.00  0.00    -0.206 F 
ATOM     73  C   UNL A   1      35.423  34.717  32.421  1.00  0.00     0.040 A 
ATOM     74  C   UNL A   1      36.560  33.846  34.322  1.00  0.00     0.040 A 
ATOM     75  F   UNL A   1      38.245  32.269  34.066  1.00  0.00    -0.206 F 
ATOM     76  C   UNL A   1      35.562  34.654  33.797  1.00  0.00     0.006 A 
ENDBRANCH  55  69
BRANCH  56  77
ATOM     77  C   UNL A   1      44.491  28.726  27.305  1.00  0.00     0.057 A 
ATOM     78  C   UNL A   1      45.428  27.678  27.330  1.00  0.00     0.134 A 
ATOM     79  C   UNL A   1      43.480  28.651  26.344  1.00  0.00     0.134 A 
ATOM     80  F   UNL A   1      46.425  27.685  28.230  1.00  0.00    -0.206 F 
ATOM     81  C   UNL A   1      45.304  26.555  26.509  1.00  0.00     0.040 A 
ATOM     82  C   UNL A   1      43.351  27.535  25.508  1.00  0.00     0.040 A 
ATOM     83  F   UNL A   1      42.534  29.599  26.273  1.00  0.00    -0.206 F 
ATOM     84  C   UNL A   1      44.242  26.467  25.615  1.00  0.00     0.006 A 
ENDBRANCH  56  77
BRANCH  68  85
ATOM     85  C   UNL A   1      42.767  35.583  28.645  1.00  0.00     0.057 A 
ATOM     86  C   UNL A   1      43.147  36.680  29.433  1.00  0.00     0.134 A 
ATOM     87  C   UNL A   1      42.497  35.882  27.291  1.00  0.00     0.134 A 
ATOM     88  F   UNL A   1      43.541  36.525  30.705  1.00  0.00    -0.206 F 
ATOM     89  C   UNL A   1      43.195  37.986  28.929  1.00  0.00     0.040 A 
ATOM     90  C   UNL A   1      42.591  37.174  26.765  1.00  0.00     0.040 A 
ATOM     91  F   UNL A   1      42.151  34.927  26.416  1.00  0.00    -0.206 F 
ATOM     92  C   UNL A   1      42.926  38.236  27.589  1.00  0.00     0.006 A 
ENDBRANCH  68  85
ENDBRANCH  42  43
ENDBRANCH  34  37
ENDBRANCH  32  33
ENDBRANCH   1  32
TORSDOF 13
ENDMDL
MODEL 2
REMARK VINA RESULT:     -12.5      3.657      9.029
REMARK SMILES Cc1ccc([C@@H]2[C@H](C(=O)NCCCCNC(=O)c3ccc(-c4c5nc(c(-c6c(F)cccc6F)c6ccc([nH]6)c(-c6c(F)cccc6F)c6nc(c(-c7c(F)cccc7F)c7ccc4[nH]7)C=C6)C=C5)cc3)c3ccccc3C(=O)N2c2ccccc2)cc1
REMARK SMILES IDX 13 1 12 2 11 3 10 4 8 5 9 6 7 8 6 9 80 10 72 11 78 12 73 13
REMARK SMILES IDX 77 14 79 15 74 16 76 17 75 18 5 19 1 20 2 21 3 22 88 23 4 24
REMARK SMILES IDX 87 25 81 26 82 27 86 28 83 29 85 30 84 31 14 32 15 33 16 34
REMARK SMILES IDX 17 36 18 37 19 38 71 39 20 40 70 41 21 42 22 43 23 44 64 45
REMARK SMILES IDX 24 46 69 47 63 48 65 49 25 50 68 51 62 52 61 53 26 55 52 56
REMARK SMILES IDX 35 57 51 58 36 59 39 60 50 61 66 62 37 63 38 64 49 66 67 67
REMARK SMILES IDX 40 68 27 69 28 70 33 71 29 72 30 73 32 74 34 75 31 76 53 77
REMARK SMILES IDX 54 78 59 79 55 80 56 81 58 82 60 83 57 84 41 85 42 86 47 87
REMARK SMILES IDX 43 88 44 89 46 90 48 91 45 92
REMARK H PARENT 10 7 15 35 65 54 39 65
REMARK Flexibility Score: inf
ROOT
ATOM      1  C   UNL A   1      33.409  31.167  27.676  1.00  0.00     0.023 C 
ENDROOT
BRANCH   1   2
ATOM      2  C   UNL A   1      32.641  29.897  27.302  1.00  0.00     0.023 C 
BRANCH   2   3
ATOM      3  C   UNL A   1      33.487  28.619  27.284  1.00  0.00     0.116 C 
BRANCH   3   4
ATOM      4  N   UNL A   1      32.833  27.541  26.558  1.00  0.00    -0.355 N 
ATOM      5  C   UNL A   1      33.565  26.470  26.091  1.00  0.00     0.230 C 
ATOM      6  O   UNL A   1      33.905  25.581  26.870  1.00  0.00    -0.274 OA
ATOM      7  H   UNL A   1      31.862  27.576  26.401  1.00  0.00     0.163 HD
BRANCH   5   8
ATOM      8  C   UNL A   1      33.846  26.387  24.584  1.00  0.00     0.137 C 
ATOM      9  C   UNL A   1      33.888  24.909  24.075  1.00  0.00     0.138 C 
ATOM     10  N   UNL A   1      32.510  24.410  23.921  1.00  0.00    -0.300 N 
ATOM     11  C   UNL A   1      32.878  27.179  23.699  1.00  0.00    -0.020 A 
ATOM     12  C   UNL A   1      31.880  25.016  22.819  1.00  0.00     0.259 C 
ATOM     13  C   UNL A   1      32.874  28.581  23.731  1.00  0.00     0.005 A 
ATOM     14  C   UNL A   1      31.971  26.516  22.839  1.00  0.00     0.044 A 
ATOM     15  O   UNL A   1      31.209  24.429  21.980  1.00  0.00    -0.269 OA
ATOM     16  C   UNL A   1      31.944  29.302  22.980  1.00  0.00     0.000 A 
ATOM     17  C   UNL A   1      31.067  27.248  22.062  1.00  0.00     0.014 A 
ATOM     18  C   UNL A   1      31.042  28.639  22.150  1.00  0.00     0.001 A 
BRANCH   9  19
ATOM     19  C   UNL A   1      35.036  24.004  24.517  1.00  0.00    -0.024 A 
ATOM     20  C   UNL A   1      38.350  21.318  25.296  1.00  0.00     0.044 C 
ATOM     21  C   UNL A   1      37.158  22.212  25.134  1.00  0.00    -0.051 A 
ATOM     22  C   UNL A   1      37.157  23.521  25.623  1.00  0.00     0.004 A 
ATOM     23  C   UNL A   1      36.046  21.766  24.422  1.00  0.00     0.004 A 
ATOM     24  C   UNL A   1      36.082  24.385  25.364  1.00  0.00     0.006 A 
ATOM     25  C   UNL A   1      35.006  22.649  24.118  1.00  0.00     0.006 A 
ENDBRANCH   9  19
BRANCH  10  26
ATOM     26  C   UNL A   1      31.647  24.044  25.028  1.00  0.00     0.045 A 
ATOM     27  C   UNL A   1      31.726  22.745  25.575  1.00  0.00     0.026 A 
ATOM     28  C   UNL A   1      30.629  24.868  25.524  1.00  0.00     0.026 A 
ATOM     29  C   UNL A   1      30.796  22.271  26.504  1.00  0.00     0.002 A 
ATOM     30  C   UNL A   1      29.718  24.410  26.487  1.00  0.00     0.002 A 
ATOM     31  C   UNL A   1      29.786  23.106  26.959  1.00  0.00     0.000 A 
ENDBRANCH  10  26
ENDBRANCH   5   8
ENDBRANCH   3   4
ENDBRANCH   2   3
ENDBRANCH   1   2
BRANCH   1  32
ATOM     32  C   UNL A   1      34.919  31.045  27.495  1.00  0.00     0.116 C 
BRANCH  32  33
ATOM     33  N   UNL A   1      35.712  31.727  28.515  1.00  0.00    -0.352 N 
ATOM     34  C   UNL A   1      36.770  31.243  29.278  1.00  0.00     0.251 C 
ATOM     35  H   UNL A   1      35.462  32.662  28.687  1.00  0.00     0.163 HD
ATOM     36  O   UNL A   1      37.326  31.955  30.089  1.00  0.00    -0.269 OA
BRANCH  34  37
ATOM     37  C   UNL A   1      37.303  29.885  28.986  1.00  0.00     0.039 A 
ATOM     38  C   UNL A   1      37.458  29.004  30.061  1.00  0.00     0.014 A 
ATOM     39  C   UNL A   1      37.871  29.593  27.750  1.00  0.00     0.014 A 
ATOM     40  C   UNL A   1      38.418  27.999  29.980  1.00  0.00     0.010 A 
ATOM     41  C   UNL A   1      38.895  28.670  27.700  1.00  0.00     0.010 A 
ATOM     42  C   UNL A   1      39.224  27.936  28.843  1.00  0.00    -0.014 A 
BRANCH  42  43
ATOM     43  C   UNL A   1      40.535  27.292  28.848  1.00  0.00     0.031 A 
ATOM     44  C   UNL A   1      40.690  25.863  28.521  1.00  0.00     0.074 A 
ATOM     45  C   UNL A   1      41.630  28.055  29.065  1.00  0.00     0.049 A 
ATOM     46  N   UNL A   1      41.673  25.128  28.923  1.00  0.00    -0.248 NA
ATOM     47  C   UNL A   1      39.714  25.135  27.723  1.00  0.00     0.031 C 
ATOM     48  C   UNL A   1      43.026  27.693  28.846  1.00  0.00     0.029 A 
ATOM     49  N   UNL A   1      41.690  29.290  29.732  1.00  0.00    -0.354 N 
ATOM     50  C   UNL A   1      41.620  23.943  28.226  1.00  0.00     0.074 A 
ATOM     51  C   UNL A   1      40.347  23.971  27.541  1.00  0.00     0.031 C 
ATOM     52  C   UNL A   1      43.803  28.497  29.590  1.00  0.00     0.029 A 
ATOM     53  C   UNL A   1      42.922  29.301  30.419  1.00  0.00     0.049 A 
ATOM     54  H   UNL A   1      41.011  30.001  29.721  1.00  0.00     0.167 HD
ATOM     55  C   UNL A   1      42.718  23.132  28.187  1.00  0.00     0.037 A 
ATOM     56  C   UNL A   1      42.972  29.362  31.781  1.00  0.00     0.037 A 
ATOM     57  C   UNL A   1      43.807  23.671  29.002  1.00  0.00     0.049 A 
ATOM     58  C   UNL A   1      43.655  28.177  32.423  1.00  0.00     0.074 A 
ATOM     59  C   UNL A   1      44.929  24.418  28.680  1.00  0.00     0.029 A 
ATOM     60  N   UNL A   1      43.672  23.745  30.385  1.00  0.00    -0.354 N 
ATOM     61  N   UNL A   1      43.864  27.041  31.818  1.00  0.00    -0.248 NA
ATOM     62  C   UNL A   1      44.121  28.166  33.807  1.00  0.00     0.031 C 
ATOM     63  C   UNL A   1      45.435  24.992  29.870  1.00  0.00     0.029 A 
ATOM     64  C   UNL A   1      44.633  24.582  30.920  1.00  0.00     0.049 A 
ATOM     65  H   UNL A   1      42.988  23.268  30.908  1.00  0.00     0.167 HD
ATOM     66  C   UNL A   1      44.423  26.151  32.697  1.00  0.00     0.074 A 
ATOM     67  C   UNL A   1      44.593  26.912  33.920  1.00  0.00     0.031 C 
ATOM     68  C   UNL A   1      44.682  24.857  32.348  1.00  0.00     0.037 A 
BRANCH  55  69
ATOM     69  C   UNL A   1      42.903  22.044  27.150  1.00  0.00     0.057 A 
ATOM     70  C   UNL A   1      42.156  20.850  27.201  1.00  0.00     0.134 A 
ATOM     71  C   UNL A   1      43.853  22.081  26.114  1.00  0.00     0.134 A 
ATOM     72  F   UNL A   1      41.118  20.700  28.034  1.00  0.00    -0.206 F 
ATOM     73  C   UNL A   1      42.435  19.738  26.395  1.00  0.00     0.040 A 
ATOM     74  C   UNL A   1      44.181  20.961  25.338  1.00  0.00     0.040 A 
ATOM     75  F   UNL A   1      44.467  23.223  25.775  1.00  0.00    -0.206 F 
ATOM     76  C   UNL A   1      43.483  19.772  25.492  1.00  0.00     0.006 A 
ENDBRANCH  55  69
BRANCH  56  77
ATOM     77  C   UNL A   1      41.844  30.116  32.386  1.00  0.00     0.057 A 
ATOM     78  C   UNL A   1      41.891  31.521  32.384  1.00  0.00     0.134 A 
ATOM     79  C   UNL A   1      40.602  29.522  32.628  1.00  0.00     0.134 A 
ATOM     80  F   UNL A   1      43.051  32.158  32.155  1.00  0.00    -0.206 F 
ATOM     81  C   UNL A   1      40.738  32.300  32.510  1.00  0.00     0.040 A 
ATOM     82  C   UNL A   1      39.442  30.293  32.766  1.00  0.00     0.040 A 
ATOM     83  F   UNL A   1      40.471  28.188  32.621  1.00  0.00    -0.206 F 
ATOM     84  C   UNL A   1      39.502  31.683  32.670  1.00  0.00     0.006 A 
ENDBRANCH  56  77
BRANCH  68  85
ATOM     85  C   UNL A   1      45.092  23.759  33.295  1.00  0.00     0.057 A 
ATOM     86  C   UNL A   1      46.376  23.634  33.846  1.00  0.00     0.134 A 
ATOM     87  C   UNL A   1      44.132  22.853  33.798  1.00  0.00     0.134 A 
ATOM     88  F   UNL A   1      47.354  24.499  33.544  1.00  0.00    -0.206 F 
ATOM     89  C   UNL A   1      46.699  22.642  34.781  1.00  0.00     0.040 A 
ATOM     90  C   UNL A   1      44.430  21.893  34.770  1.00  0.00     0.040 A 
ATOM     91  F   UNL A   1      42.857  22.877  33.383  1.00  0.00    -0.206 F 
ATOM     92  C   UNL A   1      45.723  21.773  35.254  1.00  0.00     0.006 A 
ENDBRANCH  68  85
ENDBRANCH  42  43
ENDBRANCH  34  37
ENDBRANCH  32  33
ENDBRANCH   1  32
TORSDOF 13
ENDMDL
MODEL 3
REMARK VINA RESULT:     -12.3      3.311      8.394
REMARK SMILES Cc1ccc([C@@H]2[C@H](C(=O)NCCCCNC(=O)c3ccc(-c4c5nc(c(-c6c(F)cccc6F)c6ccc([nH]6)c(-c6c(F)cccc6F)c6nc(c(-c7c(F)cccc7F)c7ccc4[nH]7)C=C6)C=C5)cc3)c3ccccc3C(=O)N2c2ccccc2)cc1
REMARK SMILES IDX 13 1 12 2 11 3 10 4 8 5 9 6 7 8 6 9 80 10 72 11 78 12 73 13
REMARK SMILES IDX 77 14 79 15 74 16 76 17 75 18 5 19 1 20 2 21 3 22 88 23 4 24
REMARK SMILES IDX 87 25 81 26 82 27 86 28 83 29 85 30 84 31 14 32 15 33 16 34
REMARK SMILES IDX 17 36 18 37 19 38 71 39 20 40 70 41 21 42 22 43 23 44 64 45
REMARK SMILES IDX 24 46 69 47 63 48 65 49 25 50 68 51 62 52 61 53 26 55 52 56
REMARK SMILES IDX 35 57 51 58 36 59 39 60 50 61 66 62 37 63 38 64 49 66 67 67
REMARK SMILES IDX 40 68 27 69 28 70 33 71 29 72 30 73 32 74 34 75 31 76 53 77
REMARK SMILES IDX 54 78 59 79 55 80 56 81 58 82 60 83 57 84 41 85 42 86 47 87
REMARK SMILES IDX 43 88 44 89 46 90 48 91 45 92
REMARK H PARENT 10 7 15 35 65 54 39 65
REMARK Flexibility Score: inf
ROOT
ATOM      1  C   UNL A   1      32.009  29.963  27.381  1.00  0.00     0.023 C 
ENDROOT
BRANCH   1   2
ATOM      2  C   UNL A   1      31.773  28.451  27.347  1.00  0.00     0.023 C 
BRANCH   2   3
ATOM      3  C   UNL A   1      31.219  27.919  26.020  1.00  0.00     0.116 C 
BRANCH   3   4
ATOM      4  N   UNL A   1      30.433  26.709  26.202  1.00  0.00    -0.355 N 
ATOM      5  C   UNL A   1      31.003  25.469  26.003  1.00  0.00     0.230 C 
ATOM      6  O   UNL A   1      31.727  24.988  26.874  1.00  0.00    -0.274 OA
ATOM      7  H   UNL A   1      29.488  26.776  26.469  1.00  0.00     0.163 HD
BRANCH   5   8
ATOM      8  C   UNL A   1      30.630  24.696  24.731  1.00  0.00     0.137 C 
ATOM      9  C   UNL A   1      30.847  25.551  23.440  1.00  0.00     0.138 C 
ATOM     10  N   UNL A   1      32.281  25.561  23.101  1.00  0.00    -0.300 N 
ATOM     11  C   UNL A   1      31.347  23.354  24.553  1.00  0.00    -0.020 A 
ATOM     12  C   UNL A   1      32.689  24.305  22.618  1.00  0.00     0.259 C 
ATOM     13  C   UNL A   1      31.072  22.283  25.415  1.00  0.00     0.005 A 
ATOM     14  C   UNL A   1      32.300  23.170  23.523  1.00  0.00     0.044 A 
ATOM     15  O   UNL A   1      33.398  24.123  21.636  1.00  0.00    -0.269 OA
ATOM     16  C   UNL A   1      31.777  21.084  25.300  1.00  0.00     0.000 A 
ATOM     17  C   UNL A   1      32.976  21.953  23.392  1.00  0.00     0.014 A 
ATOM     18  C   UNL A   1      32.727  20.919  24.293  1.00  0.00     0.001 A 
BRANCH   9  19
ATOM     19  C   UNL A   1      29.942  26.755  23.185  1.00  0.00    -0.024 A 
ATOM     20  C   UNL A   1      27.279  30.169  22.947  1.00  0.00     0.044 C 
ATOM     21  C   UNL A   1      28.160  28.957  22.919  1.00  0.00    -0.051 A 
ATOM     22  C   UNL A   1      29.446  29.002  22.375  1.00  0.00     0.004 A 
ATOM     23  C   UNL A   1      27.728  27.769  23.506  1.00  0.00     0.004 A 
ATOM     24  C   UNL A   1      30.303  27.895  22.459  1.00  0.00     0.006 A 
ATOM     25  C   UNL A   1      28.606  26.689  23.638  1.00  0.00     0.006 A 
ENDBRANCH   9  19
BRANCH  10  26
ATOM     26  C   UNL A   1      33.283  26.325  23.820  1.00  0.00     0.045 A 
ATOM     27  C   UNL A   1      33.962  25.735  24.908  1.00  0.00     0.026 A 
ATOM     28  C   UNL A   1      33.542  27.680  23.586  1.00  0.00     0.026 A 
ATOM     29  C   UNL A   1      34.790  26.474  25.758  1.00  0.00     0.002 A 
ATOM     30  C   UNL A   1      34.404  28.417  24.411  1.00  0.00     0.002 A 
ATOM     31  C   UNL A   1      35.009  27.821  25.511  1.00  0.00     0.000 A 
ENDBRANCH  10  26
ENDBRANCH   5   8
ENDBRANCH   3   4
ENDBRANCH   2   3
ENDBRANCH   1   2
BRANCH   1  32
ATOM     32  C   UNL A   1      33.456  30.363  27.109  1.00  0.00     0.116 C 
BRANCH  32  33
ATOM     33  N   UNL A   1      33.990  31.373  28.019  1.00  0.00    -0.352 N 
ATOM     34  C   UNL A   1      35.175  31.365  28.747  1.00  0.00     0.251 C 
ATOM     35  H   UNL A   1      33.432  32.175  28.133  1.00  0.00     0.163 HD
ATOM     36  O   UNL A   1      35.470  32.300  29.463  1.00  0.00    -0.269 OA
BRANCH  34  37
ATOM     37  C   UNL A   1      36.144  30.257  28.528  1.00  0.00     0.039 A 
ATOM     38  C   UNL A   1      36.312  29.328  29.561  1.00  0.00     0.014 A 
ATOM     39  C   UNL A   1      37.034  30.290  27.460  1.00  0.00     0.014 A 
ATOM     40  C   UNL A   1      37.523  28.651  29.671  1.00  0.00     0.010 A 
ATOM     41  C   UNL A   1      38.273  29.703  27.621  1.00  0.00     0.010 A 
ATOM     42  C   UNL A   1      38.543  28.955  28.771  1.00  0.00    -0.014 A 
BRANCH  42  43
ATOM     43  C   UNL A   1      39.951  28.708  29.070  1.00  0.00     0.031 A 
ATOM     44  C   UNL A   1      40.638  27.497  28.585  1.00  0.00     0.074 A 
ATOM     45  C   UNL A   1      40.651  29.663  29.724  1.00  0.00     0.049 A 
ATOM     46  N   UNL A   1      41.681  26.981  29.145  1.00  0.00    -0.248 NA
ATOM     47  C   UNL A   1      40.175  26.748  27.426  1.00  0.00     0.031 C 
ATOM     48  C   UNL A   1      42.099  29.755  29.883  1.00  0.00     0.029 A 
ATOM     49  N   UNL A   1      40.143  30.668  30.562  1.00  0.00    -0.354 N 
ATOM     50  C   UNL A   1      42.188  26.031  28.288  1.00  0.00     0.074 A 
ATOM     51  C   UNL A   1      41.178  25.879  27.264  1.00  0.00     0.031 C 
ATOM     52  C   UNL A   1      42.368  30.534  30.943  1.00  0.00     0.029 A 
ATOM     53  C   UNL A   1      41.101  30.845  31.582  1.00  0.00     0.049 A 
ATOM     54  H   UNL A   1      39.292  31.151  30.459  1.00  0.00     0.167 HD
ATOM     55  C   UNL A   1      43.466  25.581  28.456  1.00  0.00     0.037 A 
ATOM     56  C   UNL A   1      40.802  30.586  32.888  1.00  0.00     0.037 A 
ATOM     57  C   UNL A   1      44.090  26.181  29.636  1.00  0.00     0.049 A 
ATOM     58  C   UNL A   1      41.660  29.512  33.512  1.00  0.00     0.074 A 
ATOM     59  C   UNL A   1      44.948  27.257  29.788  1.00  0.00     0.029 A 
ATOM     60  N   UNL A   1      43.612  25.878  30.907  1.00  0.00    -0.354 N 
ATOM     61  N   UNL A   1      42.367  28.655  32.828  1.00  0.00    -0.248 NA
ATOM     62  C   UNL A   1      41.758  29.292  34.953  1.00  0.00     0.031 C 
ATOM     63  C   UNL A   1      44.939  27.641  31.150  1.00  0.00     0.029 A 
ATOM     64  C   UNL A   1      44.089  26.788  31.831  1.00  0.00     0.049 A 
ATOM     65  H   UNL A   1      43.017  25.122  31.118  1.00  0.00     0.167 HD
ATOM     66  C   UNL A   1      42.959  27.765  33.685  1.00  0.00     0.074 A 
ATOM     67  C   UNL A   1      42.573  28.223  35.006  1.00  0.00     0.031 C 
ATOM     68  C   UNL A   1      43.702  26.713  33.232  1.00  0.00     0.037 A 
BRANCH  55  69
ATOM     69  C   UNL A   1      44.239  24.868  27.366  1.00  0.00     0.057 A 
ATOM     70  C   UNL A   1      44.442  25.464  26.105  1.00  0.00     0.134 A 
ATOM     71  C   UNL A   1      44.749  23.563  27.472  1.00  0.00     0.134 A 
ATOM     72  F   UNL A   1      44.145  26.749  25.873  1.00  0.00    -0.206 F 
ATOM     73  C   UNL A   1      44.964  24.769  25.006  1.00  0.00     0.040 A 
ATOM     74  C   UNL A   1      45.222  22.836  26.370  1.00  0.00     0.040 A 
ATOM     75  F   UNL A   1      44.858  22.953  28.660  1.00  0.00    -0.206 F 
ATOM     76  C   UNL A   1      45.312  23.434  25.122  1.00  0.00     0.006 A 
ENDBRANCH  55  69
BRANCH  56  77
ATOM     77  C   UNL A   1      39.379  30.838  33.234  1.00  0.00     0.057 A 
ATOM     78  C   UNL A   1      38.957  32.163  33.440  1.00  0.00     0.134 A 
ATOM     79  C   UNL A   1      38.384  29.881  33.018  1.00  0.00     0.134 A 
ATOM     80  F   UNL A   1      39.860  33.135  33.651  1.00  0.00    -0.206 F 
ATOM     81  C   UNL A   1      37.615  32.538  33.330  1.00  0.00     0.040 A 
ATOM     82  C   UNL A   1      37.035  30.243  32.915  1.00  0.00     0.040 A 
ATOM     83  F   UNL A   1      38.708  28.600  32.789  1.00  0.00    -0.206 F 
ATOM     84  C   UNL A   1      36.653  31.579  33.035  1.00  0.00     0.006 A 
ENDBRANCH  56  77
BRANCH  68  85
ATOM     85  C   UNL A   1      44.210  25.571  34.074  1.00  0.00     0.057 A 
ATOM     86  C   UNL A   1      43.380  24.665  34.753  1.00  0.00     0.134 A 
ATOM     87  C   UNL A   1      45.588  25.263  34.107  1.00  0.00     0.134 A 
ATOM     88  F   UNL A   1      42.046  24.770  34.710  1.00  0.00    -0.206 F 
ATOM     89  C   UNL A   1      43.888  23.570  35.465  1.00  0.00     0.040 A 
ATOM     90  C   UNL A   1      46.101  24.145  34.771  1.00  0.00     0.040 A 
ATOM     91  F   UNL A   1      46.493  26.025  33.476  1.00  0.00    -0.206 F 
ATOM     92  C   UNL A   1      45.251  23.302  35.468  1.00  0.00     0.006 A 
ENDBRANCH  68  85
ENDBRANCH  42  43
ENDBRANCH  34  37
ENDBRANCH  32  33
ENDBRANCH   1  32
TORSDOF 13
ENDMDL
