MODEL 1
REMARK VINA RESULT:     -12.7      0.000      0.000
REMARK SMILES Cc1n[nH]c2c1[C@@]1(C(=O)N([C@@H](C)C(=O)NCCCCNC(=O)c3ccc(-c4c5nc(c(-c6c(F)cccc6F)c6ccc([nH]6)c(-c6c(F)cccc6F)c6nc(c(-c7c(F)cccc7F)c7ccc4[nH]7)C=C6)C=C5)cc3)c3ccccc31)C(C#N)=C(N)O2
REMARK SMILES IDX 17 1 16 2 15 3 13 4 14 5 11 7 12 8 10 9 1 10 2 11 3 12 6 13
REMARK SMILES IDX 4 14 5 15 7 16 88 18 8 19 82 20 83 21 86 22 9 23 77 24 81 25
REMARK SMILES IDX 78 26 80 27 79 28 84 29 85 30 87 31 18 34 19 35 20 36 21 37
REMARK SMILES IDX 22 39 23 40 24 41 76 42 25 43 75 44 26 45 27 46 28 47 69 48
REMARK SMILES IDX 29 49 74 50 68 51 70 52 30 53 73 54 67 55 66 56 31 58 57 59
REMARK SMILES IDX 40 60 56 61 41 62 44 63 55 64 71 65 42 66 43 67 54 69 72 70
REMARK SMILES IDX 45 71 32 72 33 73 38 74 34 75 35 76 37 77 39 78 36 79 58 80
REMARK SMILES IDX 59 81 64 82 60 83 61 84 63 85 65 86 62 87 46 88 47 89 52 90
REMARK SMILES IDX 48 91 49 92 51 93 53 94 50 95
REMARK H PARENT 15 6 4 17 87 32 87 33 20 38 70 57 44 68
REMARK Flexibility Score: inf
ROOT
ATOM      1  C   UNL A   1      39.210  23.375  26.830  1.00  0.00     0.023 C 
ENDROOT
BRANCH   1   2
ATOM      2  C   UNL A   1      37.912  23.864  26.177  1.00  0.00     0.116 C 
BRANCH   2   3
ATOM      3  N   UNL A   1      37.111  22.767  25.674  1.00  0.00    -0.354 N 
ATOM      4  C   UNL A   1      35.791  22.466  25.790  1.00  0.00     0.242 C 
ATOM      5  O   UNL A   1      35.413  21.459  25.173  1.00  0.00    -0.273 OA
ATOM      6  H   UNL A   1      37.622  22.112  25.145  1.00  0.00     0.163 HD
BRANCH   4   7
ATOM      7  C   UNL A   1      34.759  23.274  26.620  1.00  0.00     0.176 C 
ATOM      8  C   UNL A   1      34.005  22.462  27.669  1.00  0.00     0.042 C 
BRANCH   7   9
ATOM      9  N   UNL A   1      33.918  24.167  25.822  1.00  0.00    -0.298 N 
ATOM     10  C   UNL A   1      33.154  22.947  22.331  1.00  0.00     0.069 C 
ATOM     11  C   UNL A   1      32.968  24.370  21.943  1.00  0.00     0.068 A 
ATOM     12  N   UNL A   1      32.911  24.704  20.643  1.00  0.00    -0.177 NA
ATOM     13  C   UNL A   1      32.960  25.523  22.769  1.00  0.00     0.063 A 
ATOM     14  N   UNL A   1      32.970  26.052  20.642  1.00  0.00    -0.246 N 
ATOM     15  C   UNL A   1      33.012  26.576  21.892  1.00  0.00     0.222 A 
ATOM     16  C   UNL A   1      33.183  25.765  24.218  1.00  0.00     0.149 C 
ATOM     17  H   UNL A   1      32.981  26.596  19.822  1.00  0.00     0.193 HD
ATOM     18  O   UNL A   1      33.208  27.861  22.165  1.00  0.00    -0.422 OA
ATOM     19  C   UNL A   1      34.336  24.853  24.682  1.00  0.00     0.248 C 
ATOM     20  C   UNL A   1      32.030  25.218  25.014  1.00  0.00     0.002 A 
ATOM     21  C   UNL A   1      33.470  27.244  24.491  1.00  0.00     0.114 C 
ATOM     22  C   UNL A   1      33.467  28.186  23.509  1.00  0.00     0.208 C 
ATOM     23  O   UNL A   1      35.375  24.687  24.064  1.00  0.00    -0.273 OA
ATOM     24  C   UNL A   1      32.524  24.326  25.983  1.00  0.00     0.050 A 
ATOM     25  C   UNL A   1      30.679  25.524  24.936  1.00  0.00     0.008 A 
ATOM     26  C   UNL A   1      31.668  23.706  26.874  1.00  0.00     0.027 A 
ATOM     27  C   UNL A   1      29.811  24.891  25.823  1.00  0.00     0.001 A 
ATOM     28  C   UNL A   1      30.300  23.987  26.780  1.00  0.00     0.002 A 
BRANCH  21  29
ATOM     29  C   UNL A   1      33.726  27.638  25.844  1.00  0.00     0.102 C 
ATOM     30  N   UNL A   1      33.920  27.975  26.929  1.00  0.00    -0.193 NA
ENDBRANCH  21  29
BRANCH  22  31
ATOM     31  N   UNL A   1      33.702  29.518  23.693  1.00  0.00    -0.369 N 
ATOM     32  H   UNL A   1      34.452  29.811  24.259  1.00  0.00     0.159 HD
ATOM     33  H   UNL A   1      33.123  30.185  23.259  1.00  0.00     0.159 HD
ENDBRANCH  22  31
ENDBRANCH   7   9
ENDBRANCH   4   7
ENDBRANCH   2   3
ENDBRANCH   1   2
BRANCH   1  34
ATOM     34  C   UNL A   1      39.616  21.945  26.477  1.00  0.00     0.023 C 
BRANCH  34  35
ATOM     35  C   UNL A   1      41.108  21.681  26.671  1.00  0.00     0.116 C 
BRANCH  35  36
ATOM     36  N   UNL A   1      41.915  22.133  25.557  1.00  0.00    -0.352 N 
ATOM     37  C   UNL A   1      42.705  23.222  25.328  1.00  0.00     0.251 C 
ATOM     38  H   UNL A   1      41.889  21.515  24.791  1.00  0.00     0.163 HD
ATOM     39  O   UNL A   1      43.441  23.163  24.340  1.00  0.00    -0.269 OA
BRANCH  37  40
ATOM     40  C   UNL A   1      42.666  24.487  26.108  1.00  0.00     0.039 A 
ATOM     41  C   UNL A   1      43.247  24.694  27.356  1.00  0.00     0.014 A 
ATOM     42  C   UNL A   1      41.866  25.511  25.560  1.00  0.00     0.014 A 
ATOM     43  C   UNL A   1      42.908  25.818  28.099  1.00  0.00     0.010 A 
ATOM     44  C   UNL A   1      41.551  26.652  26.284  1.00  0.00     0.010 A 
ATOM     45  C   UNL A   1      42.011  26.767  27.586  1.00  0.00    -0.014 A 
BRANCH  45  46
ATOM     46  C   UNL A   1      41.786  27.995  28.351  1.00  0.00     0.031 A 
ATOM     47  C   UNL A   1      42.914  28.941  28.129  1.00  0.00     0.074 A 
ATOM     48  C   UNL A   1      40.685  28.255  29.099  1.00  0.00     0.049 A 
ATOM     49  N   UNL A   1      43.848  29.231  28.971  1.00  0.00    -0.248 NA
ATOM     50  C   UNL A   1      43.204  29.405  26.759  1.00  0.00     0.031 C 
ATOM     51  C   UNL A   1      39.452  27.465  29.177  1.00  0.00     0.029 A 
ATOM     52  N   UNL A   1      40.396  29.332  29.907  1.00  0.00    -0.354 N 
ATOM     53  C   UNL A   1      44.672  30.152  28.324  1.00  0.00     0.074 A 
ATOM     54  C   UNL A   1      44.365  30.042  26.928  1.00  0.00     0.031 C 
ATOM     55  C   UNL A   1      38.473  28.189  29.773  1.00  0.00     0.029 A 
ATOM     56  C   UNL A   1      39.038  29.432  30.266  1.00  0.00     0.049 A 
ATOM     57  H   UNL A   1      41.078  29.975  30.208  1.00  0.00     0.167 HD
ATOM     58  C   UNL A   1      45.240  31.152  29.054  1.00  0.00     0.037 A 
ATOM     59  C   UNL A   1      38.442  30.474  30.916  1.00  0.00     0.037 A 
ATOM     60  C   UNL A   1      45.215  30.792  30.453  1.00  0.00     0.049 A 
ATOM     61  C   UNL A   1      39.513  31.207  31.619  1.00  0.00     0.074 A 
ATOM     62  C   UNL A   1      45.888  29.928  31.289  1.00  0.00     0.029 A 
ATOM     63  N   UNL A   1      44.007  31.066  31.037  1.00  0.00    -0.354 N 
ATOM     64  N   UNL A   1      40.162  30.713  32.634  1.00  0.00    -0.248 NA
ATOM     65  C   UNL A   1      40.157  32.317  30.933  1.00  0.00     0.031 C 
ATOM     66  C   UNL A   1      44.973  29.596  32.336  1.00  0.00     0.029 A 
ATOM     67  C   UNL A   1      43.807  30.339  32.172  1.00  0.00     0.049 A 
ATOM     68  H   UNL A   1      43.358  31.713  30.677  1.00  0.00     0.167 HD
ATOM     69  C   UNL A   1      41.465  31.118  32.424  1.00  0.00     0.074 A 
ATOM     70  C   UNL A   1      41.378  32.219  31.465  1.00  0.00     0.031 C 
ATOM     71  C   UNL A   1      42.502  30.308  32.785  1.00  0.00     0.037 A 
BRANCH  58  72
ATOM     72  C   UNL A   1      45.196  32.623  28.646  1.00  0.00     0.057 A 
ATOM     73  C   UNL A   1      46.304  33.385  28.219  1.00  0.00     0.134 A 
ATOM     74  C   UNL A   1      43.943  33.190  28.331  1.00  0.00     0.134 A 
ATOM     75  F   UNL A   1      47.569  33.005  28.418  1.00  0.00    -0.206 F 
ATOM     76  C   UNL A   1      46.180  34.562  27.473  1.00  0.00     0.040 A 
ATOM     77  C   UNL A   1      43.809  34.352  27.557  1.00  0.00     0.040 A 
ATOM     78  F   UNL A   1      42.801  32.584  28.693  1.00  0.00    -0.206 F 
ATOM     79  C   UNL A   1      44.931  35.032  27.108  1.00  0.00     0.006 A 
ENDBRANCH  58  72
BRANCH  59  80
ATOM     80  C   UNL A   1      37.084  31.071  30.791  1.00  0.00     0.057 A 
ATOM     81  C   UNL A   1      36.696  31.697  29.597  1.00  0.00     0.134 A 
ATOM     82  C   UNL A   1      36.280  31.349  31.914  1.00  0.00     0.134 A 
ATOM     83  F   UNL A   1      37.435  31.565  28.487  1.00  0.00    -0.206 F 
ATOM     84  C   UNL A   1      35.598  32.567  29.526  1.00  0.00     0.040 A 
ATOM     85  C   UNL A   1      35.174  32.215  31.855  1.00  0.00     0.040 A 
ATOM     86  F   UNL A   1      36.590  30.845  33.118  1.00  0.00    -0.206 F 
ATOM     87  C   UNL A   1      34.839  32.840  30.659  1.00  0.00     0.006 A 
ENDBRANCH  59  80
BRANCH  71  88
ATOM     88  C   UNL A   1      42.234  29.262  33.820  1.00  0.00     0.057 A 
ATOM     89  C   UNL A   1      42.454  29.614  35.155  1.00  0.00     0.134 A 
ATOM     90  C   UNL A   1      41.835  27.943  33.561  1.00  0.00     0.134 A 
ATOM     91  F   UNL A   1      42.877  30.849  35.465  1.00  0.00    -0.206 F 
ATOM     92  C   UNL A   1      42.281  28.705  36.196  1.00  0.00     0.040 A 
ATOM     93  C   UNL A   1      41.624  27.030  34.600  1.00  0.00     0.040 A 
ATOM     94  F   UNL A   1      41.678  27.498  32.305  1.00  0.00    -0.206 F 
ATOM     95  C   UNL A   1      41.850  27.411  35.922  1.00  0.00     0.006 A 
ENDBRANCH  71  88
ENDBRANCH  45  46
ENDBRANCH  37  40
ENDBRANCH  35  36
ENDBRANCH  34  35
ENDBRANCH   1  34
TORSDOF 14
ENDMDL
MODEL 2
REMARK VINA RESULT:     -12.6      1.820      2.953
REMARK SMILES Cc1n[nH]c2c1[C@@]1(C(=O)N([C@@H](C)C(=O)NCCCCNC(=O)c3ccc(-c4c5nc(c(-c6c(F)cccc6F)c6ccc([nH]6)c(-c6c(F)cccc6F)c6nc(c(-c7c(F)cccc7F)c7ccc4[nH]7)C=C6)C=C5)cc3)c3ccccc31)C(C#N)=C(N)O2
REMARK SMILES IDX 17 1 16 2 15 3 13 4 14 5 11 7 12 8 10 9 1 10 2 11 3 12 6 13
REMARK SMILES IDX 4 14 5 15 7 16 88 18 8 19 82 20 83 21 86 22 9 23 77 24 81 25
REMARK SMILES IDX 78 26 80 27 79 28 84 29 85 30 87 31 18 34 19 35 20 36 21 37
REMARK SMILES IDX 22 39 23 40 24 41 76 42 25 43 75 44 26 45 27 46 28 47 69 48
REMARK SMILES IDX 29 49 74 50 68 51 70 52 30 53 73 54 67 55 66 56 31 58 57 59
REMARK SMILES IDX 40 60 56 61 41 62 44 63 55 64 71 65 42 66 43 67 54 69 72 70
REMARK SMILES IDX 45 71 32 72 33 73 38 74 34 75 35 76 37 77 39 78 36 79 58 80
REMARK SMILES IDX 59 81 64 82 60 83 61 84 63 85 65 86 62 87 46 88 47 89 52 90
REMARK SMILES IDX 48 91 49 92 51 93 53 94 50 95
REMARK H PARENT 15 6 4 17 87 32 87 33 20 38 70 57 44 68
REMARK Flexibility Score: inf
ROOT
ATOM      1  C   UNL A   1      35.210  22.512  26.270  1.00  0.00     0.023 C 
ENDROOT
BRANCH   1   2
ATOM      2  C   UNL A   1      33.803  22.530  25.659  1.00  0.00     0.116 C 
BRANCH   2   3
ATOM      3  N   UNL A   1      32.795  22.900  26.631  1.00  0.00    -0.354 N 
ATOM      4  C   UNL A   1      31.563  23.460  26.506  1.00  0.00     0.242 C 
ATOM      5  O   UNL A   1      30.924  23.592  27.560  1.00  0.00    -0.273 OA
ATOM      6  H   UNL A   1      33.052  22.710  27.562  1.00  0.00     0.163 HD
BRANCH   4   7
ATOM      7  C   UNL A   1      30.926  23.932  25.173  1.00  0.00     0.176 C 
ATOM      8  C   UNL A   1      31.162  23.002  23.986  1.00  0.00     0.042 C 
BRANCH   7   9
ATOM      9  N   UNL A   1      31.129  25.352  24.883  1.00  0.00    -0.298 N 
ATOM     10  C   UNL A   1      32.971  26.080  21.668  1.00  0.00     0.069 C 
ATOM     11  C   UNL A   1      33.397  27.366  22.278  1.00  0.00     0.068 A 
ATOM     12  N   UNL A   1      34.377  28.083  21.703  1.00  0.00    -0.177 NA
ATOM     13  C   UNL A   1      32.999  27.941  23.511  1.00  0.00     0.063 A 
ATOM     14  N   UNL A   1      34.666  29.041  22.609  1.00  0.00    -0.246 N 
ATOM     15  C   UNL A   1      33.871  28.981  23.707  1.00  0.00     0.222 A 
ATOM     16  C   UNL A   1      32.123  27.500  24.629  1.00  0.00     0.149 C 
ATOM     17  H   UNL A   1      35.377  29.710  22.486  1.00  0.00     0.193 HD
ATOM     18  O   UNL A   1      34.035  29.719  24.798  1.00  0.00    -0.422 OA
ATOM     19  C   UNL A   1      32.366  25.996  24.859  1.00  0.00     0.248 C 
ATOM     20  C   UNL A   1      30.685  27.507  24.188  1.00  0.00     0.002 A 
ATOM     21  C   UNL A   1      32.382  28.327  25.890  1.00  0.00     0.114 C 
ATOM     22  C   UNL A   1      33.276  29.353  25.925  1.00  0.00     0.208 C 
ATOM     23  O   UNL A   1      33.467  25.471  24.884  1.00  0.00    -0.273 OA
ATOM     24  C   UNL A   1      30.130  26.234  24.414  1.00  0.00     0.050 A 
ATOM     25  C   UNL A   1      29.917  28.553  23.695  1.00  0.00     0.008 A 
ATOM     26  C   UNL A   1      28.802  25.981  24.124  1.00  0.00     0.027 A 
ATOM     27  C   UNL A   1      28.582  28.298  23.389  1.00  0.00     0.001 A 
ATOM     28  C   UNL A   1      28.031  27.024  23.597  1.00  0.00     0.002 A 
BRANCH  21  29
ATOM     29  C   UNL A   1      31.628  28.011  27.066  1.00  0.00     0.102 C 
ATOM     30  N   UNL A   1      31.037  27.768  28.024  1.00  0.00    -0.193 NA
ENDBRANCH  21  29
BRANCH  22  31
ATOM     31  N   UNL A   1      33.541  30.133  27.013  1.00  0.00    -0.369 N 
ATOM     32  H   UNL A   1      32.984  30.054  27.822  1.00  0.00     0.159 HD
ATOM     33  H   UNL A   1      34.288  30.773  26.992  1.00  0.00     0.159 HD
ENDBRANCH  22  31
ENDBRANCH   7   9
ENDBRANCH   4   7
ENDBRANCH   2   3
ENDBRANCH   1   2
BRANCH   1  34
ATOM     34  C   UNL A   1      36.193  21.548  25.608  1.00  0.00     0.023 C 
BRANCH  34  35
ATOM     35  C   UNL A   1      37.436  22.246  25.057  1.00  0.00     0.116 C 
BRANCH  35  36
ATOM     36  N   UNL A   1      38.673  21.652  25.518  1.00  0.00    -0.352 N 
ATOM     37  C   UNL A   1      39.593  21.976  26.472  1.00  0.00     0.251 C 
ATOM     38  H   UNL A   1      38.903  20.826  25.034  1.00  0.00     0.163 HD
ATOM     39  O   UNL A   1      40.415  21.101  26.757  1.00  0.00    -0.269 OA
BRANCH  37  40
ATOM     40  C   UNL A   1      39.736  23.315  27.104  1.00  0.00     0.039 A 
ATOM     41  C   UNL A   1      38.921  24.419  26.868  1.00  0.00     0.014 A 
ATOM     42  C   UNL A   1      40.872  23.480  27.921  1.00  0.00     0.014 A 
ATOM     43  C   UNL A   1      39.319  25.678  27.302  1.00  0.00     0.010 A 
ATOM     44  C   UNL A   1      41.257  24.729  28.386  1.00  0.00     0.010 A 
ATOM     45  C   UNL A   1      40.520  25.840  28.009  1.00  0.00    -0.014 A 
BRANCH  45  46
ATOM     46  C   UNL A   1      40.831  27.163  28.554  1.00  0.00     0.031 A 
ATOM     47  C   UNL A   1      42.067  27.693  27.915  1.00  0.00     0.074 A 
ATOM     48  C   UNL A   1      40.071  27.831  29.456  1.00  0.00     0.049 A 
ATOM     49  N   UNL A   1      43.232  27.791  28.465  1.00  0.00    -0.248 NA
ATOM     50  C   UNL A   1      42.099  27.876  26.452  1.00  0.00     0.031 C 
ATOM     51  C   UNL A   1      38.739  27.463  29.948  1.00  0.00     0.029 A 
ATOM     52  N   UNL A   1      40.294  29.036  30.084  1.00  0.00    -0.354 N 
ATOM     53  C   UNL A   1      44.067  28.336  27.490  1.00  0.00     0.074 A 
ATOM     54  C   UNL A   1      43.389  28.152  26.241  1.00  0.00     0.031 C 
ATOM     55  C   UNL A   1      38.174  28.515  30.591  1.00  0.00     0.029 A 
ATOM     56  C   UNL A   1      39.151  29.582  30.701  1.00  0.00     0.049 A 
ATOM     57  H   UNL A   1      41.174  29.476  30.101  1.00  0.00     0.167 HD
ATOM     58  C   UNL A   1      45.047  29.202  27.874  1.00  0.00     0.037 A 
ATOM     59  C   UNL A   1      39.038  30.826  31.251  1.00  0.00     0.037 A 
ATOM     60  C   UNL A   1      45.295  29.041  29.289  1.00  0.00     0.049 A 
ATOM     61  C   UNL A   1      40.408  31.285  31.552  1.00  0.00     0.074 A 
ATOM     62  C   UNL A   1      45.914  28.125  30.110  1.00  0.00     0.029 A 
ATOM     63  N   UNL A   1      44.397  29.733  30.054  1.00  0.00    -0.354 N 
ATOM     64  N   UNL A   1      41.148  30.748  32.480  1.00  0.00    -0.248 NA
ATOM     65  C   UNL A   1      41.117  32.058  30.542  1.00  0.00     0.031 C 
ATOM     66  C   UNL A   1      45.251  28.214  31.373  1.00  0.00     0.029 A 
ATOM     67  C   UNL A   1      44.318  29.246  31.324  1.00  0.00     0.049 A 
ATOM     68  H   UNL A   1      43.867  30.496  29.725  1.00  0.00     0.167 HD
ATOM     69  C   UNL A   1      42.410  30.716  31.919  1.00  0.00     0.074 A 
ATOM     70  C   UNL A   1      42.365  31.665  30.808  1.00  0.00     0.031 C 
ATOM     71  C   UNL A   1      43.257  29.683  32.198  1.00  0.00     0.037 A 
BRANCH  58  72
ATOM     72  C   UNL A   1      45.282  30.557  27.210  1.00  0.00     0.057 A 
ATOM     73  C   UNL A   1      44.378  31.640  27.224  1.00  0.00     0.134 A 
ATOM     74  C   UNL A   1      46.602  30.904  26.852  1.00  0.00     0.134 A 
ATOM     75  F   UNL A   1      43.089  31.508  27.548  1.00  0.00    -0.206 F 
ATOM     76  C   UNL A   1      44.767  32.963  26.986  1.00  0.00     0.040 A 
ATOM     77  C   UNL A   1      47.008  32.230  26.643  1.00  0.00     0.040 A 
ATOM     78  F   UNL A   1      47.565  29.971  26.778  1.00  0.00    -0.206 F 
ATOM     79  C   UNL A   1      46.092  33.269  26.729  1.00  0.00     0.006 A 
ENDBRANCH  58  72
BRANCH  59  80
ATOM     80  C   UNL A   1      37.899  31.782  31.308  1.00  0.00     0.057 A 
ATOM     81  C   UNL A   1      37.035  31.785  32.414  1.00  0.00     0.134 A 
ATOM     82  C   UNL A   1      37.429  32.460  30.166  1.00  0.00     0.134 A 
ATOM     83  F   UNL A   1      37.348  31.105  33.525  1.00  0.00    -0.206 F 
ATOM     84  C   UNL A   1      35.772  32.394  32.380  1.00  0.00     0.040 A 
ATOM     85  C   UNL A   1      36.167  33.078  30.121  1.00  0.00     0.040 A 
ATOM     86  F   UNL A   1      38.151  32.475  29.036  1.00  0.00    -0.206 F 
ATOM     87  C   UNL A   1      35.326  33.032  31.228  1.00  0.00     0.006 A 
ENDBRANCH  59  80
BRANCH  71  88
ATOM     88  C   UNL A   1      43.006  28.901  33.448  1.00  0.00     0.057 A 
ATOM     89  C   UNL A   1      43.787  29.216  34.565  1.00  0.00     0.134 A 
ATOM     90  C   UNL A   1      42.096  27.843  33.578  1.00  0.00     0.134 A 
ATOM     91  F   UNL A   1      44.706  30.191  34.492  1.00  0.00    -0.206 F 
ATOM     92  C   UNL A   1      43.669  28.521  35.766  1.00  0.00     0.040 A 
ATOM     93  C   UNL A   1      41.944  27.159  34.790  1.00  0.00     0.040 A 
ATOM     94  F   UNL A   1      41.364  27.422  32.535  1.00  0.00    -0.206 F 
ATOM     95  C   UNL A   1      42.735  27.498  35.887  1.00  0.00     0.006 A 
ENDBRANCH  71  88
ENDBRANCH  45  46
ENDBRANCH  37  40
ENDBRANCH  35  36
ENDBRANCH  34  35
ENDBRANCH   1  34
TORSDOF 14
ENDMDL
MODEL 3
REMARK VINA RESULT:     -12.5      2.462      7.813
REMARK SMILES Cc1n[nH]c2c1[C@@]1(C(=O)N([C@@H](C)C(=O)NCCCCNC(=O)c3ccc(-c4c5nc(c(-c6c(F)cccc6F)c6ccc([nH]6)c(-c6c(F)cccc6F)c6nc(c(-c7c(F)cccc7F)c7ccc4[nH]7)C=C6)C=C5)cc3)c3ccccc31)C(C#N)=C(N)O2
REMARK SMILES IDX 17 1 16 2 15 3 13 4 14 5 11 7 12 8 10 9 1 10 2 11 3 12 6 13
REMARK SMILES IDX 4 14 5 15 7 16 88 18 8 19 82 20 83 21 86 22 9 23 77 24 81 25
REMARK SMILES IDX 78 26 80 27 79 28 84 29 85 30 87 31 18 34 19 35 20 36 21 37
REMARK SMILES IDX 22 39 23 40 24 41 76 42 25 43 75 44 26 45 27 46 28 47 69 48
REMARK SMILES IDX 29 49 74 50 68 51 70 52 30 53 73 54 67 55 66 56 31 58 57 59
REMARK SMILES IDX 40 60 56 61 41 62 44 63 55 64 71 65 42 66 43 67 54 69 72 70
REMARK SMILES IDX 45 71 32 72 33 73 38 74 34 75 35 76 37 77 39 78 36 79 58 80
REMARK SMILES IDX 59 81 64 82 60 83 61 84 63 85 65 86 62 87 46 88 47 89 52 90
REMARK SMILES IDX 48 91 49 92 51 93 53 94 50 95
REMARK H PARENT 15 6 4 17 87 32 87 33 20 38 70 57 44 68
REMARK Flexibility Score: inf
ROOT
ATOM      1  C   UNL A   1      33.705  31.210  27.576  1.00  0.00     0.023 C 
ENDROOT
BRANCH   1   2
ATOM      2  C   UNL A   1      33.746  29.842  26.884  1.00  0.00     0.116 C 
BRANCH   2   3
ATOM      3  N   UNL A   1      32.766  29.742  25.822  1.00  0.00    -0.354 N 
ATOM      4  C   UNL A   1      32.705  28.979  24.700  1.00  0.00     0.242 C 
ATOM      5  O   UNL A   1      31.675  29.102  24.021  1.00  0.00    -0.273 OA
ATOM      6  H   UNL A   1      31.994  30.342  25.936  1.00  0.00     0.163 HD
BRANCH   4   7
ATOM      7  C   UNL A   1      33.809  27.997  24.224  1.00  0.00     0.176 C 
ATOM      8  C   UNL A   1      34.418  28.328  22.865  1.00  0.00     0.042 C 
BRANCH   7   9
ATOM      9  N   UNL A   1      33.473  26.585  24.413  1.00  0.00    -0.298 N 
ATOM     10  C   UNL A   1      29.896  25.913  25.418  1.00  0.00     0.069 C 
ATOM     11  C   UNL A   1      30.375  24.653  26.044  1.00  0.00     0.068 A 
ATOM     12  N   UNL A   1      29.571  23.976  26.880  1.00  0.00    -0.177 NA
ATOM     13  C   UNL A   1      31.668  24.072  25.996  1.00  0.00     0.063 A 
ATOM     14  N   UNL A   1      30.373  23.041  27.432  1.00  0.00    -0.246 N 
ATOM     15  C   UNL A   1      31.635  23.075  26.937  1.00  0.00     0.222 A 
ATOM     16  C   UNL A   1      32.971  24.482  25.411  1.00  0.00     0.149 C 
ATOM     17  H   UNL A   1      30.073  22.404  28.119  1.00  0.00     0.193 HD
ATOM     18  O   UNL A   1      32.648  22.355  27.405  1.00  0.00    -0.422 OA
ATOM     19  C   UNL A   1      33.137  25.998  25.633  1.00  0.00     0.248 C 
ATOM     20  C   UNL A   1      32.907  24.406  23.910  1.00  0.00     0.002 A 
ATOM     21  C   UNL A   1      34.125  23.680  26.017  1.00  0.00     0.114 C 
ATOM     22  C   UNL A   1      33.930  22.696  26.938  1.00  0.00     0.208 C 
ATOM     23  O   UNL A   1      32.885  26.573  26.680  1.00  0.00    -0.273 OA
ATOM     24  C   UNL A   1      33.269  25.654  23.371  1.00  0.00     0.050 A 
ATOM     25  C   UNL A   1      32.621  23.322  23.092  1.00  0.00     0.008 A 
ATOM     26  C   UNL A   1      33.323  25.844  22.003  1.00  0.00     0.027 A 
ATOM     27  C   UNL A   1      32.662  23.512  21.712  1.00  0.00     0.001 A 
ATOM     28  C   UNL A   1      33.005  24.762  21.173  1.00  0.00     0.002 A 
BRANCH  21  29
ATOM     29  C   UNL A   1      35.453  23.972  25.569  1.00  0.00     0.102 C 
ATOM     30  N   UNL A   1      36.530  24.201  25.230  1.00  0.00    -0.193 NA
ENDBRANCH  21  29
BRANCH  22  31
ATOM     31  N   UNL A   1      34.915  21.940  27.504  1.00  0.00    -0.369 N 
ATOM     32  H   UNL A   1      35.439  22.297  28.257  1.00  0.00     0.159 HD
ATOM     33  H   UNL A   1      35.102  21.036  27.160  1.00  0.00     0.159 HD
ENDBRANCH  22  31
ENDBRANCH   7   9
ENDBRANCH   4   7
ENDBRANCH   2   3
ENDBRANCH   1   2
BRANCH   1  34
ATOM     34  C   UNL A   1      35.057  31.907  27.715  1.00  0.00     0.023 C 
BRANCH  34  35
ATOM     35  C   UNL A   1      35.007  33.133  28.627  1.00  0.00     0.116 C 
BRANCH  35  36
ATOM     36  N   UNL A   1      34.566  32.824  29.971  1.00  0.00    -0.352 N 
ATOM     37  C   UNL A   1      35.173  32.326  31.087  1.00  0.00     0.251 C 
ATOM     38  H   UNL A   1      33.611  33.018  30.113  1.00  0.00     0.163 HD
ATOM     39  O   UNL A   1      34.538  32.418  32.140  1.00  0.00    -0.269 OA
BRANCH  37  40
ATOM     40  C   UNL A   1      36.473  31.603  31.103  1.00  0.00     0.039 A 
ATOM     41  C   UNL A   1      37.733  32.192  31.167  1.00  0.00     0.014 A 
ATOM     42  C   UNL A   1      36.391  30.207  30.922  1.00  0.00     0.014 A 
ATOM     43  C   UNL A   1      38.866  31.434  30.896  1.00  0.00     0.010 A 
ATOM     44  C   UNL A   1      37.522  29.439  30.685  1.00  0.00     0.010 A 
ATOM     45  C   UNL A   1      38.753  30.068  30.595  1.00  0.00    -0.014 A 
BRANCH  45  46
ATOM     46  C   UNL A   1      39.982  29.287  30.445  1.00  0.00     0.031 A 
ATOM     47  C   UNL A   1      40.656  29.149  31.765  1.00  0.00     0.074 A 
ATOM     48  C   UNL A   1      40.408  28.721  29.289  1.00  0.00     0.049 A 
ATOM     49  N   UNL A   1      41.731  29.755  32.144  1.00  0.00    -0.248 NA
ATOM     50  C   UNL A   1      39.935  28.499  32.876  1.00  0.00     0.031 C 
ATOM     51  C   UNL A   1      39.682  28.632  28.017  1.00  0.00     0.029 A 
ATOM     52  N   UNL A   1      41.567  28.030  29.014  1.00  0.00    -0.354 N 
ATOM     53  C   UNL A   1      41.977  29.317  33.445  1.00  0.00     0.074 A 
ATOM     54  C   UNL A   1      40.747  28.745  33.908  1.00  0.00     0.031 C 
ATOM     55  C   UNL A   1      40.287  27.738  27.198  1.00  0.00     0.029 A 
ATOM     56  C   UNL A   1      41.529  27.302  27.808  1.00  0.00     0.049 A 
ATOM     57  H   UNL A   1      42.352  28.044  29.607  1.00  0.00     0.167 HD
ATOM     58  C   UNL A   1      43.268  29.146  33.848  1.00  0.00     0.037 A 
ATOM     59  C   UNL A   1      42.462  26.409  27.367  1.00  0.00     0.037 A 
ATOM     60  C   UNL A   1      44.142  29.880  32.963  1.00  0.00     0.049 A 
ATOM     61  C   UNL A   1      43.717  26.715  28.080  1.00  0.00     0.074 A 
ATOM     62  C   UNL A   1      44.485  31.196  32.740  1.00  0.00     0.029 A 
ATOM     63  N   UNL A   1      44.419  29.187  31.815  1.00  0.00    -0.354 N 
ATOM     64  N   UNL A   1      44.403  27.803  27.872  1.00  0.00    -0.248 NA
ATOM     65  C   UNL A   1      43.991  26.020  29.329  1.00  0.00     0.031 C 
ATOM     66  C   UNL A   1      44.858  31.280  31.362  1.00  0.00     0.029 A 
ATOM     67  C   UNL A   1      44.833  30.004  30.807  1.00  0.00     0.049 A 
ATOM     68  H   UNL A   1      44.329  28.210  31.729  1.00  0.00     0.167 HD
ATOM     69  C   UNL A   1      44.828  28.172  29.133  1.00  0.00     0.074 A 
ATOM     70  C   UNL A   1      44.684  26.972  29.957  1.00  0.00     0.031 C 
ATOM     71  C   UNL A   1      44.933  29.492  29.462  1.00  0.00     0.037 A 
BRANCH  58  72
ATOM     72  C   UNL A   1      43.773  27.884  34.543  1.00  0.00     0.057 A 
ATOM     73  C   UNL A   1      44.182  27.803  35.891  1.00  0.00     0.134 A 
ATOM     74  C   UNL A   1      43.503  26.637  33.940  1.00  0.00     0.134 A 
ATOM     75  F   UNL A   1      44.470  28.877  36.630  1.00  0.00    -0.206 F 
ATOM     76  C   UNL A   1      44.236  26.599  36.602  1.00  0.00     0.040 A 
ATOM     77  C   UNL A   1      43.525  25.429  34.652  1.00  0.00     0.040 A 
ATOM     78  F   UNL A   1      43.123  26.560  32.655  1.00  0.00    -0.206 F 
ATOM     79  C   UNL A   1      43.874  25.410  35.995  1.00  0.00     0.006 A 
ENDBRANCH  58  72
BRANCH  59  80
ATOM     80  C   UNL A   1      42.331  25.145  26.591  1.00  0.00     0.057 A 
ATOM     81  C   UNL A   1      41.672  24.040  27.149  1.00  0.00     0.134 A 
ATOM     82  C   UNL A   1      43.125  24.874  25.459  1.00  0.00     0.134 A 
ATOM     83  F   UNL A   1      40.953  24.171  28.273  1.00  0.00    -0.206 F 
ATOM     84  C   UNL A   1      41.813  22.742  26.637  1.00  0.00     0.040 A 
ATOM     85  C   UNL A   1      43.271  23.578  24.933  1.00  0.00     0.040 A 
ATOM     86  F   UNL A   1      43.841  25.847  24.878  1.00  0.00    -0.206 F 
ATOM     87  C   UNL A   1      42.624  22.503  25.533  1.00  0.00     0.006 A 
ENDBRANCH  59  80
BRANCH  71  88
ATOM     88  C   UNL A   1      45.069  30.474  28.342  1.00  0.00     0.057 A 
ATOM     89  C   UNL A   1      43.909  31.139  27.931  1.00  0.00     0.134 A 
ATOM     90  C   UNL A   1      46.249  30.743  27.633  1.00  0.00     0.134 A 
ATOM     91  F   UNL A   1      42.740  30.893  28.542  1.00  0.00    -0.206 F 
ATOM     92  C   UNL A   1      43.912  32.039  26.869  1.00  0.00     0.040 A 
ATOM     93  C   UNL A   1      46.272  31.671  26.586  1.00  0.00     0.040 A 
ATOM     94  F   UNL A   1      47.389  30.093  27.909  1.00  0.00    -0.206 F 
ATOM     95  C   UNL A   1      45.100  32.320  26.201  1.00  0.00     0.006 A 
ENDBRANCH  71  88
ENDBRANCH  45  46
ENDBRANCH  37  40
ENDBRANCH  35  36
ENDBRANCH  34  35
ENDBRANCH   1  34
TORSDOF 14
ENDMDL
