MODEL 1
REMARK VINA RESULT:     -11.7      0.000      0.000
REMARK SMILES CC1(C)CN(C(=O)NC[C@H]2CC[C@@H](C(=O)NCCCCNC(=O)c3ccc(-c4c5nc(c(-c6c(F)cccc6F)c6ccc([nH]6)c(-c6c(F)cccc6F)c6nc(c(-c7c(F)cccc7F)c7ccc4[nH]7)C=C6)C=C5)cc3)CC2)CCO1
REMARK SMILES IDX 18 1 17 2 16 3 14 4 15 5 13 7 10 8 11 9 79 10 12 11 78 12
REMARK SMILES IDX 9 13 8 14 6 15 7 16 5 18 1 19 2 20 3 21 4 22 82 23 81 24
REMARK SMILES IDX 80 25 19 26 20 27 21 28 22 29 23 31 24 32 25 33 77 34 26 35
REMARK SMILES IDX 76 36 27 37 28 38 29 39 70 40 30 41 75 42 69 43 71 44 31 45
REMARK SMILES IDX 74 46 68 47 67 48 32 50 58 51 41 52 57 53 42 54 45 55 56 56
REMARK SMILES IDX 72 57 43 58 44 59 55 61 73 62 46 63 33 64 34 65 39 66 35 67
REMARK SMILES IDX 36 68 38 69 40 70 37 71 59 72 60 73 65 74 61 75 62 76 64 77
REMARK SMILES IDX 66 78 63 79 47 80 48 81 53 82 49 83 50 84 52 85 54 86 51 87
REMARK H PARENT 16 6 8 17 21 30 71 49 45 60
REMARK Flexibility Score: inf
ROOT
ATOM      1  C   UNL A   1      31.535  29.818  25.902  1.00  0.00     0.023 C 
ENDROOT
BRANCH   1   2
ATOM      2  C   UNL A   1      31.400  29.229  24.498  1.00  0.00     0.116 C 
BRANCH   2   3
ATOM      3  N   UNL A   1      32.614  29.359  23.717  1.00  0.00    -0.356 N 
ATOM      4  C   UNL A   1      33.445  28.419  23.194  1.00  0.00     0.223 C 
ATOM      5  O   UNL A   1      34.383  28.830  22.501  1.00  0.00    -0.275 OA
ATOM      6  H   UNL A   1      32.883  30.288  23.536  1.00  0.00     0.163 HD
BRANCH   4   7
ATOM      7  C   UNL A   1      33.254  26.913  23.393  1.00  0.00     0.078 C 
ATOM      8  C   UNL A   1      33.871  23.987  23.582  1.00  0.00     0.008 C 
ATOM      9  C   UNL A   1      33.770  24.889  24.822  1.00  0.00     0.006 C 
ATOM     10  C   UNL A   1      33.136  24.597  22.372  1.00  0.00     0.006 C 
ATOM     11  C   UNL A   1      34.064  26.363  24.565  1.00  0.00     0.014 C 
ATOM     12  C   UNL A   1      33.427  26.080  22.123  1.00  0.00     0.014 C 
BRANCH   8  13
ATOM     13  C   UNL A   1      35.298  23.461  23.289  1.00  0.00     0.121 C 
BRANCH  13  14
ATOM     14  N   UNL A   1      35.927  22.703  24.350  1.00  0.00    -0.338 N 
ATOM     15  C   UNL A   1      35.666  21.695  25.188  1.00  0.00     0.317 C 
ATOM     16  O   UNL A   1      36.660  21.302  25.810  1.00  0.00    -0.249 OA
ATOM     17  H   UNL A   1      36.840  23.036  24.504  1.00  0.00     0.165 HD
BRANCH  15  18
ATOM     18  N   UNL A   1      34.437  21.162  25.417  1.00  0.00    -0.320 N 
ATOM     19  C   UNL A   1      32.406  20.379  22.964  1.00  0.00     0.044 C 
ATOM     20  C   UNL A   1      32.659  19.705  24.316  1.00  0.00     0.080 C 
ATOM     21  C   UNL A   1      32.359  18.206  24.180  1.00  0.00     0.044 C 
ATOM     22  C   UNL A   1      34.134  19.885  24.752  1.00  0.00     0.156 C 
ATOM     23  O   UNL A   1      31.730  20.179  25.310  1.00  0.00    -0.372 OA
ATOM     24  C   UNL A   1      32.035  21.489  25.797  1.00  0.00     0.182 C 
ATOM     25  C   UNL A   1      33.431  21.518  26.410  1.00  0.00     0.150 C 
ENDBRANCH  15  18
ENDBRANCH  13  14
ENDBRANCH   8  13
ENDBRANCH   4   7
ENDBRANCH   2   3
ENDBRANCH   1   2
BRANCH   1  26
ATOM     26  C   UNL A   1      32.274  28.933  26.912  1.00  0.00     0.023 C 
BRANCH  26  27
ATOM     27  C   UNL A   1      33.730  29.318  27.191  1.00  0.00     0.116 C 
BRANCH  27  28
ATOM     28  N   UNL A   1      33.899  30.524  27.984  1.00  0.00    -0.352 N 
ATOM     29  C   UNL A   1      34.988  30.970  28.702  1.00  0.00     0.251 C 
ATOM     30  H   UNL A   1      33.111  31.115  28.015  1.00  0.00     0.163 HD
ATOM     31  O   UNL A   1      34.915  32.031  29.311  1.00  0.00    -0.269 OA
BRANCH  29  32
ATOM     32  C   UNL A   1      36.245  30.176  28.790  1.00  0.00     0.039 A 
ATOM     33  C   UNL A   1      37.087  30.159  27.670  1.00  0.00     0.014 A 
ATOM     34  C   UNL A   1      36.610  29.459  29.931  1.00  0.00     0.014 A 
ATOM     35  C   UNL A   1      38.344  29.550  27.746  1.00  0.00     0.010 A 
ATOM     36  C   UNL A   1      37.881  28.897  30.029  1.00  0.00     0.010 A 
ATOM     37  C   UNL A   1      38.775  28.984  28.955  1.00  0.00    -0.014 A 
BRANCH  37  38
ATOM     38  C   UNL A   1      40.203  28.663  29.179  1.00  0.00     0.031 A 
ATOM     39  C   UNL A   1      41.157  29.666  29.750  1.00  0.00     0.074 A 
ATOM     40  C   UNL A   1      40.648  27.474  28.730  1.00  0.00     0.049 A 
ATOM     41  N   UNL A   1      42.443  29.548  29.959  1.00  0.00    -0.248 NA
ATOM     42  C   UNL A   1      40.603  30.979  30.108  1.00  0.00     0.031 C 
ATOM     43  C   UNL A   1      39.819  26.458  28.073  1.00  0.00     0.029 A 
ATOM     44  N   UNL A   1      41.904  26.923  28.732  1.00  0.00    -0.354 N 
ATOM     45  C   UNL A   1      42.856  30.768  30.476  1.00  0.00     0.074 A 
ATOM     46  C   UNL A   1      41.691  31.628  30.507  1.00  0.00     0.031 C 
ATOM     47  C   UNL A   1      40.583  25.407  27.745  1.00  0.00     0.029 A 
ATOM     48  C   UNL A   1      41.957  25.681  28.149  1.00  0.00     0.049 A 
ATOM     49  H   UNL A   1      42.689  27.374  29.115  1.00  0.00     0.167 HD
ATOM     50  C   UNL A   1      44.094  31.128  30.896  1.00  0.00     0.037 A 
ATOM     51  C   UNL A   1      42.998  24.852  27.959  1.00  0.00     0.037 A 
ATOM     52  C   UNL A   1      45.246  30.263  30.852  1.00  0.00     0.049 A 
ATOM     53  C   UNL A   1      44.350  25.261  28.461  1.00  0.00     0.074 A 
ATOM     54  C   UNL A   1      46.530  30.507  31.308  1.00  0.00     0.029 A 
ATOM     55  N   UNL A   1      45.254  28.987  30.304  1.00  0.00    -0.354 N 
ATOM     56  N   UNL A   1      44.707  26.381  29.043  1.00  0.00    -0.248 NA
ATOM     57  C   UNL A   1      45.439  24.289  28.300  1.00  0.00     0.031 C 
ATOM     58  C   UNL A   1      47.322  29.392  31.005  1.00  0.00     0.029 A 
ATOM     59  C   UNL A   1      46.524  28.438  30.397  1.00  0.00     0.049 A 
ATOM     60  H   UNL A   1      44.473  28.538  29.908  1.00  0.00     0.167 HD
ATOM     61  C   UNL A   1      46.054  26.240  29.341  1.00  0.00     0.074 A 
ATOM     62  C   UNL A   1      46.446  24.920  28.887  1.00  0.00     0.031 C 
ATOM     63  C   UNL A   1      46.891  27.123  29.937  1.00  0.00     0.037 A 
BRANCH  50  64
ATOM     64  C   UNL A   1      44.261  32.514  31.449  1.00  0.00     0.057 A 
ATOM     65  C   UNL A   1      44.538  33.608  30.619  1.00  0.00     0.134 A 
ATOM     66  C   UNL A   1      44.107  32.768  32.817  1.00  0.00     0.134 A 
ATOM     67  F   UNL A   1      44.705  33.434  29.298  1.00  0.00    -0.206 F 
ATOM     68  C   UNL A   1      44.681  34.899  31.131  1.00  0.00     0.040 A 
ATOM     69  C   UNL A   1      44.225  34.058  33.340  1.00  0.00     0.040 A 
ATOM     70  F   UNL A   1      43.833  31.769  33.669  1.00  0.00    -0.206 F 
ATOM     71  C   UNL A   1      44.518  35.128  32.496  1.00  0.00     0.006 A 
ENDBRANCH  50  64
BRANCH  51  72
ATOM     72  C   UNL A   1      42.782  23.536  27.311  1.00  0.00     0.057 A 
ATOM     73  C   UNL A   1      43.029  23.360  25.945  1.00  0.00     0.134 A 
ATOM     74  C   UNL A   1      42.360  22.419  28.041  1.00  0.00     0.134 A 
ATOM     75  F   UNL A   1      43.426  24.396  25.192  1.00  0.00    -0.206 F 
ATOM     76  C   UNL A   1      42.848  22.124  25.323  1.00  0.00     0.040 A 
ATOM     77  C   UNL A   1      42.196  21.172  27.436  1.00  0.00     0.040 A 
ATOM     78  F   UNL A   1      42.124  22.520  29.357  1.00  0.00    -0.206 F 
ATOM     79  C   UNL A   1      42.436  21.023  26.072  1.00  0.00     0.006 A 
ENDBRANCH  51  72
BRANCH  63  80
ATOM     80  C   UNL A   1      48.305  26.672  30.151  1.00  0.00     0.057 A 
ATOM     81  C   UNL A   1      49.318  26.959  29.227  1.00  0.00     0.134 A 
ATOM     82  C   UNL A   1      48.657  25.954  31.300  1.00  0.00     0.134 A 
ATOM     83  F   UNL A   1      49.039  27.628  28.098  1.00  0.00    -0.206 F 
ATOM     84  C   UNL A   1      50.630  26.528  29.429  1.00  0.00     0.040 A 
ATOM     85  C   UNL A   1      49.969  25.537  31.523  1.00  0.00     0.040 A 
ATOM     86  F   UNL A   1      47.734  25.652  32.223  1.00  0.00    -0.206 F 
ATOM     87  C   UNL A   1      50.958  25.818  30.582  1.00  0.00     0.006 A 
ENDBRANCH  63  80
ENDBRANCH  37  38
ENDBRANCH  29  32
ENDBRANCH  27  28
ENDBRANCH  26  27
ENDBRANCH   1  26
TORSDOF 14
ENDMDL
MODEL 2
REMARK VINA RESULT:     -11.7      1.333      2.087
REMARK SMILES CC1(C)CN(C(=O)NC[C@H]2CC[C@@H](C(=O)NCCCCNC(=O)c3ccc(-c4c5nc(c(-c6c(F)cccc6F)c6ccc([nH]6)c(-c6c(F)cccc6F)c6nc(c(-c7c(F)cccc7F)c7ccc4[nH]7)C=C6)C=C5)cc3)CC2)CCO1
REMARK SMILES IDX 18 1 17 2 16 3 14 4 15 5 13 7 10 8 11 9 79 10 12 11 78 12
REMARK SMILES IDX 9 13 8 14 6 15 7 16 5 18 1 19 2 20 3 21 4 22 82 23 81 24
REMARK SMILES IDX 80 25 19 26 20 27 21 28 22 29 23 31 24 32 25 33 77 34 26 35
REMARK SMILES IDX 76 36 27 37 28 38 29 39 70 40 30 41 75 42 69 43 71 44 31 45
REMARK SMILES IDX 74 46 68 47 67 48 32 50 58 51 41 52 57 53 42 54 45 55 56 56
REMARK SMILES IDX 72 57 43 58 44 59 55 61 73 62 46 63 33 64 34 65 39 66 35 67
REMARK SMILES IDX 36 68 38 69 40 70 37 71 59 72 60 73 65 74 61 75 62 76 64 77
REMARK SMILES IDX 66 78 63 79 47 80 48 81 53 82 49 83 50 84 52 85 54 86 51 87
REMARK H PARENT 16 6 8 17 21 30 71 49 45 60
REMARK Flexibility Score: inf
ROOT
ATOM      1  C   UNL A   1      33.040  29.329  24.862  1.00  0.00     0.023 C 
ENDROOT
BRANCH   1   2
ATOM      2  C   UNL A   1      31.570  29.398  25.278  1.00  0.00     0.116 C 
BRANCH   2   3
ATOM      3  N   UNL A   1      30.723  29.970  24.251  1.00  0.00    -0.356 N 
ATOM      4  C   UNL A   1      30.090  29.398  23.193  1.00  0.00     0.223 C 
ATOM      5  O   UNL A   1      29.366  30.133  22.513  1.00  0.00    -0.275 OA
ATOM      6  H   UNL A   1      30.583  30.940  24.333  1.00  0.00     0.163 HD
BRANCH   4   7
ATOM      7  C   UNL A   1      30.207  27.913  22.838  1.00  0.00     0.078 C 
ATOM      8  C   UNL A   1      31.128  25.061  22.881  1.00  0.00     0.008 C 
ATOM      9  C   UNL A   1      29.849  25.525  23.596  1.00  0.00     0.006 C 
ATOM     10  C   UNL A   1      31.550  26.045  21.773  1.00  0.00     0.006 C 
ATOM     11  C   UNL A   1      29.841  26.994  24.002  1.00  0.00     0.014 C 
ATOM     12  C   UNL A   1      31.532  27.522  22.182  1.00  0.00     0.014 C 
BRANCH   8  13
ATOM     13  C   UNL A   1      32.264  24.614  23.832  1.00  0.00     0.121 C 
BRANCH  13  14
ATOM     14  N   UNL A   1      31.864  24.246  25.175  1.00  0.00    -0.338 N 
ATOM     15  C   UNL A   1      32.357  23.663  26.271  1.00  0.00     0.317 C 
ATOM     16  O   UNL A   1      31.613  23.758  27.256  1.00  0.00    -0.249 OA
ATOM     17  H   UNL A   1      30.929  24.511  25.330  1.00  0.00     0.165 HD
BRANCH  15  18
ATOM     18  N   UNL A   1      33.522  22.968  26.335  1.00  0.00    -0.320 N 
ATOM     19  C   UNL A   1      35.877  23.329  24.081  1.00  0.00     0.044 C 
ATOM     20  C   UNL A   1      35.958  23.086  25.591  1.00  0.00     0.080 C 
ATOM     21  C   UNL A   1      37.266  23.693  26.116  1.00  0.00     0.044 C 
ATOM     22  C   UNL A   1      34.766  23.755  26.319  1.00  0.00     0.156 C 
ATOM     23  O   UNL A   1      36.061  21.679  25.882  1.00  0.00    -0.372 OA
ATOM     24  C   UNL A   1      34.824  20.975  25.738  1.00  0.00     0.182 C 
ATOM     25  C   UNL A   1      33.762  21.567  26.659  1.00  0.00     0.150 C 
ENDBRANCH  15  18
ENDBRANCH  13  14
ENDBRANCH   8  13
ENDBRANCH   4   7
ENDBRANCH   2   3
ENDBRANCH   1   2
BRANCH   1  26
ATOM     26  C   UNL A   1      34.013  28.917  25.970  1.00  0.00     0.023 C 
BRANCH  26  27
ATOM     27  C   UNL A   1      33.504  29.100  27.403  1.00  0.00     0.116 C 
BRANCH  27  28
ATOM     28  N   UNL A   1      33.750  30.416  27.972  1.00  0.00    -0.352 N 
ATOM     29  C   UNL A   1      34.902  30.948  28.511  1.00  0.00     0.251 C 
ATOM     30  H   UNL A   1      32.972  31.020  27.973  1.00  0.00     0.163 HD
ATOM     31  O   UNL A   1      34.889  32.096  28.943  1.00  0.00    -0.269 OA
BRANCH  29  32
ATOM     32  C   UNL A   1      36.156  30.153  28.618  1.00  0.00     0.039 A 
ATOM     33  C   UNL A   1      36.989  30.089  27.493  1.00  0.00     0.014 A 
ATOM     34  C   UNL A   1      36.528  29.480  29.783  1.00  0.00     0.014 A 
ATOM     35  C   UNL A   1      38.243  29.479  27.582  1.00  0.00     0.010 A 
ATOM     36  C   UNL A   1      37.798  28.916  29.893  1.00  0.00     0.010 A 
ATOM     37  C   UNL A   1      38.683  28.958  28.807  1.00  0.00    -0.014 A 
BRANCH  37  38
ATOM     38  C   UNL A   1      40.112  28.640  29.032  1.00  0.00     0.031 A 
ATOM     39  C   UNL A   1      41.074  29.659  29.557  1.00  0.00     0.074 A 
ATOM     40  C   UNL A   1      40.549  27.433  28.623  1.00  0.00     0.049 A 
ATOM     41  N   UNL A   1      42.361  29.544  29.760  1.00  0.00    -0.248 NA
ATOM     42  C   UNL A   1      40.528  30.987  29.871  1.00  0.00     0.031 C 
ATOM     43  C   UNL A   1      39.710  26.397  28.011  1.00  0.00     0.029 A 
ATOM     44  N   UNL A   1      41.802  26.878  28.636  1.00  0.00    -0.354 N 
ATOM     45  C   UNL A   1      42.783  30.781  30.228  1.00  0.00     0.074 A 
ATOM     46  C   UNL A   1      41.621  31.646  30.237  1.00  0.00     0.031 C 
ATOM     47  C   UNL A   1      40.468  25.331  27.716  1.00  0.00     0.029 A 
ATOM     48  C   UNL A   1      41.846  25.615  28.098  1.00  0.00     0.049 A 
ATOM     49  H   UNL A   1      42.592  27.339  28.996  1.00  0.00     0.167 HD
ATOM     50  C   UNL A   1      44.026  31.151  30.625  1.00  0.00     0.037 A 
ATOM     51  C   UNL A   1      42.882  24.775  27.931  1.00  0.00     0.037 A 
ATOM     52  C   UNL A   1      45.174  30.280  30.603  1.00  0.00     0.049 A 
ATOM     53  C   UNL A   1      44.240  25.197  28.406  1.00  0.00     0.074 A 
ATOM     54  C   UNL A   1      46.462  30.535  31.039  1.00  0.00     0.029 A 
ATOM     55  N   UNL A   1      45.173  28.985  30.102  1.00  0.00    -0.354 N 
ATOM     56  N   UNL A   1      44.606  26.336  28.944  1.00  0.00    -0.248 NA
ATOM     57  C   UNL A   1      45.323  24.216  28.272  1.00  0.00     0.031 C 
ATOM     58  C   UNL A   1      47.248  29.407  30.772  1.00  0.00     0.029 A 
ATOM     59  C   UNL A   1      46.441  28.434  30.205  1.00  0.00     0.049 A 
ATOM     60  H   UNL A   1      44.387  28.525  29.730  1.00  0.00     0.167 HD
ATOM     61  C   UNL A   1      45.955  26.201  29.235  1.00  0.00     0.074 A 
ATOM     62  C   UNL A   1      46.338  24.863  28.827  1.00  0.00     0.031 C 
ATOM     63  C   UNL A   1      46.800  27.102  29.791  1.00  0.00     0.037 A 
BRANCH  50  64
ATOM     64  C   UNL A   1      44.203  32.556  31.124  1.00  0.00     0.057 A 
ATOM     65  C   UNL A   1      44.530  33.608  30.259  1.00  0.00     0.134 A 
ATOM     66  C   UNL A   1      44.007  32.871  32.475  1.00  0.00     0.134 A 
ATOM     67  F   UNL A   1      44.738  33.375  28.954  1.00  0.00    -0.206 F 
ATOM     68  C   UNL A   1      44.682  34.917  30.722  1.00  0.00     0.040 A 
ATOM     69  C   UNL A   1      44.133  34.179  32.947  1.00  0.00     0.040 A 
ATOM     70  F   UNL A   1      43.683  31.914  33.358  1.00  0.00    -0.206 F 
ATOM     71  C   UNL A   1      44.478  35.206  32.069  1.00  0.00     0.006 A 
ENDBRANCH  50  64
BRANCH  51  72
ATOM     72  C   UNL A   1      42.656  23.437  27.334  1.00  0.00     0.057 A 
ATOM     73  C   UNL A   1      42.819  23.227  25.959  1.00  0.00     0.134 A 
ATOM     74  C   UNL A   1      42.307  22.332  28.119  1.00  0.00     0.134 A 
ATOM     75  F   UNL A   1      43.143  24.250  25.155  1.00  0.00    -0.206 F 
ATOM     76  C   UNL A   1      42.628  21.971  25.384  1.00  0.00     0.040 A 
ATOM     77  C   UNL A   1      42.134  21.065  27.560  1.00  0.00     0.040 A 
ATOM     78  F   UNL A   1      42.153  22.466  29.444  1.00  0.00    -0.206 F 
ATOM     79  C   UNL A   1      42.290  20.883  26.188  1.00  0.00     0.006 A 
ENDBRANCH  51  72
BRANCH  63  80
ATOM     80  C   UNL A   1      48.213  26.654  30.010  1.00  0.00     0.057 A 
ATOM     81  C   UNL A   1      49.218  26.893  29.063  1.00  0.00     0.134 A 
ATOM     82  C   UNL A   1      48.576  25.988  31.187  1.00  0.00     0.134 A 
ATOM     83  F   UNL A   1      48.929  27.510  27.907  1.00  0.00    -0.206 F 
ATOM     84  C   UNL A   1      50.529  26.463  29.270  1.00  0.00     0.040 A 
ATOM     85  C   UNL A   1      49.888  25.574  31.415  1.00  0.00     0.040 A 
ATOM     86  F   UNL A   1      47.661  25.733  32.134  1.00  0.00    -0.206 F 
ATOM     87  C   UNL A   1      50.868  25.806  30.451  1.00  0.00     0.006 A 
ENDBRANCH  63  80
ENDBRANCH  37  38
ENDBRANCH  29  32
ENDBRANCH  27  28
ENDBRANCH  26  27
ENDBRANCH   1  26
TORSDOF 14
ENDMDL
MODEL 3
REMARK VINA RESULT:     -11.7      1.830      7.687
REMARK SMILES CC1(C)CN(C(=O)NC[C@H]2CC[C@@H](C(=O)NCCCCNC(=O)c3ccc(-c4c5nc(c(-c6c(F)cccc6F)c6ccc([nH]6)c(-c6c(F)cccc6F)c6nc(c(-c7c(F)cccc7F)c7ccc4[nH]7)C=C6)C=C5)cc3)CC2)CCO1
REMARK SMILES IDX 18 1 17 2 16 3 14 4 15 5 13 7 10 8 11 9 79 10 12 11 78 12
REMARK SMILES IDX 9 13 8 14 6 15 7 16 5 18 1 19 2 20 3 21 4 22 82 23 81 24
REMARK SMILES IDX 80 25 19 26 20 27 21 28 22 29 23 31 24 32 25 33 77 34 26 35
REMARK SMILES IDX 76 36 27 37 28 38 29 39 70 40 30 41 75 42 69 43 71 44 31 45
REMARK SMILES IDX 74 46 68 47 67 48 32 50 58 51 41 52 57 53 42 54 45 55 56 56
REMARK SMILES IDX 72 57 43 58 44 59 55 61 73 62 46 63 33 64 34 65 39 66 35 67
REMARK SMILES IDX 36 68 38 69 40 70 37 71 59 72 60 73 65 74 61 75 62 76 64 77
REMARK SMILES IDX 66 78 63 79 47 80 48 81 53 82 49 83 50 84 52 85 54 86 51 87
REMARK H PARENT 16 6 8 17 21 30 71 49 45 60
REMARK Flexibility Score: inf
ROOT
ATOM      1  C   UNL A   1      35.869  21.832  24.516  1.00  0.00     0.023 C 
ENDROOT
BRANCH   1   2
ATOM      2  C   UNL A   1      35.249  20.923  25.578  1.00  0.00     0.116 C 
BRANCH   2   3
ATOM      3  N   UNL A   1      34.555  19.787  25.006  1.00  0.00    -0.356 N 
ATOM      4  C   UNL A   1      33.323  19.683  24.441  1.00  0.00     0.223 C 
ATOM      5  O   UNL A   1      33.019  18.583  23.968  1.00  0.00    -0.275 OA
ATOM      6  H   UNL A   1      35.063  18.945  25.033  1.00  0.00     0.163 HD
BRANCH   4   7
ATOM      7  C   UNL A   1      32.337  20.850  24.339  1.00  0.00     0.078 C 
ATOM      8  C   UNL A   1      31.267  23.649  24.292  1.00  0.00     0.008 C 
ATOM      9  C   UNL A   1      31.578  22.864  23.008  1.00  0.00     0.006 C 
ATOM     10  C   UNL A   1      31.065  22.711  25.498  1.00  0.00     0.006 C 
ATOM     11  C   UNL A   1      32.636  21.778  23.163  1.00  0.00     0.014 C 
ATOM     12  C   UNL A   1      32.127  21.616  25.646  1.00  0.00     0.014 C 
BRANCH   8  13
ATOM     13  C   UNL A   1      32.203  24.856  24.545  1.00  0.00     0.121 C 
BRANCH  13  14
ATOM     14  N   UNL A   1      32.750  25.495  23.366  1.00  0.00    -0.338 N 
ATOM     15  C   UNL A   1      32.986  26.715  22.874  1.00  0.00     0.317 C 
ATOM     16  O   UNL A   1      33.667  26.706  21.841  1.00  0.00    -0.249 OA
ATOM     17  H   UNL A   1      33.043  24.813  22.721  1.00  0.00     0.165 HD
BRANCH  15  18
ATOM     18  N   UNL A   1      32.496  27.876  23.383  1.00  0.00    -0.320 N 
ATOM     19  C   UNL A   1      31.636  28.155  26.536  1.00  0.00     0.044 C 
ATOM     20  C   UNL A   1      32.284  29.158  25.577  1.00  0.00     0.080 C 
ATOM     21  C   UNL A   1      33.137  30.138  26.393  1.00  0.00     0.044 C 
ATOM     22  C   UNL A   1      33.193  28.432  24.555  1.00  0.00     0.156 C 
ATOM     23  O   UNL A   1      31.286  29.979  24.939  1.00  0.00    -0.372 OA
ATOM     24  C   UNL A   1      30.569  29.303  23.902  1.00  0.00     0.182 C 
ATOM     25  C   UNL A   1      31.529  28.811  22.823  1.00  0.00     0.150 C 
ENDBRANCH  15  18
ENDBRANCH  13  14
ENDBRANCH   8  13
ENDBRANCH   4   7
ENDBRANCH   2   3
ENDBRANCH   1   2
BRANCH   1  26
ATOM     26  C   UNL A   1      37.388  21.709  24.358  1.00  0.00     0.023 C 
BRANCH  26  27
ATOM     27  C   UNL A   1      38.162  21.355  25.631  1.00  0.00     0.116 C 
BRANCH  27  28
ATOM     28  N   UNL A   1      39.020  20.187  25.516  1.00  0.00    -0.352 N 
ATOM     29  C   UNL A   1      40.321  19.998  25.930  1.00  0.00     0.251 C 
ATOM     30  H   UNL A   1      38.608  19.411  25.071  1.00  0.00     0.163 HD
ATOM     31  O   UNL A   1      40.866  18.918  25.728  1.00  0.00    -0.269 OA
BRANCH  29  32
ATOM     32  C   UNL A   1      41.100  21.085  26.585  1.00  0.00     0.039 A 
ATOM     33  C   UNL A   1      41.837  21.947  25.763  1.00  0.00     0.014 A 
ATOM     34  C   UNL A   1      41.120  21.275  27.968  1.00  0.00     0.014 A 
ATOM     35  C   UNL A   1      42.469  23.069  26.309  1.00  0.00     0.010 A 
ATOM     36  C   UNL A   1      41.703  22.418  28.510  1.00  0.00     0.010 A 
ATOM     37  C   UNL A   1      42.337  23.349  27.677  1.00  0.00    -0.014 A 
BRANCH  37  38
ATOM     38  C   UNL A   1      42.673  24.687  28.216  1.00  0.00     0.031 A 
ATOM     39  C   UNL A   1      41.633  25.749  28.395  1.00  0.00     0.074 A 
ATOM     40  C   UNL A   1      43.975  24.962  28.422  1.00  0.00     0.049 A 
ATOM     41  N   UNL A   1      41.783  26.981  28.809  1.00  0.00    -0.248 NA
ATOM     42  C   UNL A   1      40.253  25.393  28.038  1.00  0.00     0.031 C 
ATOM     43  C   UNL A   1      45.080  24.026  28.191  1.00  0.00     0.029 A 
ATOM     44  N   UNL A   1      44.597  26.107  28.848  1.00  0.00    -0.354 N 
ATOM     45  C   UNL A   1      40.517  27.551  28.768  1.00  0.00     0.074 A 
ATOM     46  C   UNL A   1      39.619  26.542  28.244  1.00  0.00     0.031 C 
ATOM     47  C   UNL A   1      46.241  24.629  28.485  1.00  0.00     0.029 A 
ATOM     48  C   UNL A   1      45.965  25.998  28.905  1.00  0.00     0.049 A 
ATOM     49  H   UNL A   1      44.111  26.927  29.088  1.00  0.00     0.167 HD
ATOM     50  C   UNL A   1      40.144  28.798  29.145  1.00  0.00     0.037 A 
ATOM     51  C   UNL A   1      46.897  26.900  29.258  1.00  0.00     0.037 A 
ATOM     52  C   UNL A   1      41.052  29.794  29.657  1.00  0.00     0.049 A 
ATOM     53  C   UNL A   1      46.454  28.262  29.700  1.00  0.00     0.074 A 
ATOM     54  C   UNL A   1      40.768  31.065  30.124  1.00  0.00     0.029 A 
ATOM     55  N   UNL A   1      42.427  29.632  29.754  1.00  0.00    -0.354 N 
ATOM     56  N   UNL A   1      45.240  28.756  29.753  1.00  0.00    -0.248 NA
ATOM     57  C   UNL A   1      47.503  29.186  30.149  1.00  0.00     0.031 C 
ATOM     58  C   UNL A   1      41.975  31.684  30.473  1.00  0.00     0.029 A 
ATOM     59  C   UNL A   1      43.007  30.785  30.261  1.00  0.00     0.049 A 
ATOM     60  H   UNL A   1      42.918  28.817  29.503  1.00  0.00     0.167 HD
ATOM     61  C   UNL A   1      45.375  30.038  30.264  1.00  0.00     0.074 A 
ATOM     62  C   UNL A   1      46.788  30.240  30.518  1.00  0.00     0.031 C 
ATOM     63  C   UNL A   1      44.415  30.964  30.503  1.00  0.00     0.037 A 
BRANCH  50  64
ATOM     64  C   UNL A   1      38.689  29.151  29.025  1.00  0.00     0.057 A 
ATOM     65  C   UNL A   1      37.820  29.071  30.121  1.00  0.00     0.134 A 
ATOM     66  C   UNL A   1      38.157  29.611  27.814  1.00  0.00     0.134 A 
ATOM     67  F   UNL A   1      38.264  28.632  31.309  1.00  0.00    -0.206 F 
ATOM     68  C   UNL A   1      36.471  29.412  30.012  1.00  0.00     0.040 A 
ATOM     69  C   UNL A   1      36.813  29.976  27.697  1.00  0.00     0.040 A 
ATOM     70  F   UNL A   1      38.933  29.720  26.725  1.00  0.00    -0.206 F 
ATOM     71  C   UNL A   1      35.965  29.871  28.798  1.00  0.00     0.006 A 
ENDBRANCH  50  64
BRANCH  51  72
ATOM     72  C   UNL A   1      48.329  26.518  29.255  1.00  0.00     0.057 A 
ATOM     73  C   UNL A   1      48.908  25.896  30.368  1.00  0.00     0.134 A 
ATOM     74  C   UNL A   1      49.144  26.730  28.137  1.00  0.00     0.134 A 
ATOM     75  F   UNL A   1      48.179  25.676  31.472  1.00  0.00    -0.206 F 
ATOM     76  C   UNL A   1      50.249  25.514  30.376  1.00  0.00     0.040 A 
ATOM     77  C   UNL A   1      50.482  26.333  28.124  1.00  0.00     0.040 A 
ATOM     78  F   UNL A   1      48.643  27.306  27.035  1.00  0.00    -0.206 F 
ATOM     79  C   UNL A   1      51.039  25.726  29.247  1.00  0.00     0.006 A 
ENDBRANCH  51  72
BRANCH  63  80
ATOM     80  C   UNL A   1      44.869  32.267  31.091  1.00  0.00     0.057 A 
ATOM     81  C   UNL A   1      45.245  33.348  30.284  1.00  0.00     0.134 A 
ATOM     82  C   UNL A   1      44.915  32.444  32.479  1.00  0.00     0.134 A 
ATOM     83  F   UNL A   1      45.238  33.234  28.947  1.00  0.00    -0.206 F 
ATOM     84  C   UNL A   1      45.675  34.554  30.839  1.00  0.00     0.040 A 
ATOM     85  C   UNL A   1      45.322  33.653  33.045  1.00  0.00     0.040 A 
ATOM     86  F   UNL A   1      44.564  31.448  33.305  1.00  0.00    -0.206 F 
ATOM     87  C   UNL A   1      45.709  34.710  32.223  1.00  0.00     0.006 A 
ENDBRANCH  63  80
ENDBRANCH  37  38
ENDBRANCH  29  32
ENDBRANCH  27  28
ENDBRANCH  26  27
ENDBRANCH   1  26
TORSDOF 14
ENDMDL
