MODEL 1
REMARK VINA RESULT:     -11.3      0.000      0.000
REMARK SMILES Cc1ccccc1OCC(=O)NCCC(=O)NCCCCNC(=O)c1ccc(-c2c3nc(c(-c4c(F)cccc4F)c4ccc([nH]4)c(-c4c(F)cccc4F)c4nc(c(-c5c(F)cccc5F)c5ccc2[nH]5)C=C4)C=C3)cc1
REMARK SMILES IDX 18 1 17 2 15 3 16 4 14 6 13 7 12 8 10 9 11 10 9 12 8 13 7 14
REMARK SMILES IDX 1 15 2 16 3 17 4 18 6 19 5 20 19 21 20 22 21 23 22 24 23 25
REMARK SMILES IDX 24 27 25 28 26 29 78 30 27 31 77 32 28 33 29 34 30 35 71 36
REMARK SMILES IDX 31 37 76 38 70 39 72 40 32 41 75 42 69 43 68 44 33 46 59 47
REMARK SMILES IDX 42 48 58 49 43 50 46 51 57 52 73 53 44 54 45 55 56 57 74 58
REMARK SMILES IDX 47 59 34 60 35 61 40 62 36 63 37 64 39 65 41 66 38 67 60 68
REMARK SMILES IDX 61 69 66 70 62 71 63 72 65 73 67 74 64 75 48 76 49 77 54 78
REMARK SMILES IDX 50 79 51 80 53 81 55 82 52 83
REMARK H PARENT 17 5 12 11 22 26 72 45 46 56
REMARK Flexibility Score: inf
ROOT
ATOM      1  C   UNL A   1      32.887  28.421  26.721  1.00  0.00     0.116 C 
ENDROOT
BRANCH   1   2
ATOM      2  N   UNL A   1      31.827  29.181  26.076  1.00  0.00    -0.356 N 
ATOM      3  C   UNL A   1      31.555  29.379  24.755  1.00  0.00     0.221 C 
ATOM      4  O   UNL A   1      30.616  30.121  24.458  1.00  0.00    -0.275 OA
ATOM      5  H   UNL A   1      31.204  29.626  26.695  1.00  0.00     0.163 HD
BRANCH   3   6
ATOM      6  C   UNL A   1      32.389  28.721  23.682  1.00  0.00     0.121 C 
BRANCH   6   7
ATOM      7  C   UNL A   1      31.819  27.371  23.263  1.00  0.00     0.126 C 
BRANCH   7   8
ATOM      8  N   UNL A   1      32.227  26.968  21.929  1.00  0.00    -0.353 N 
ATOM      9  C   UNL A   1      32.738  25.775  21.499  1.00  0.00     0.257 C 
ATOM     10  O   UNL A   1      33.149  25.692  20.339  1.00  0.00    -0.271 OA
ATOM     11  H   UNL A   1      32.121  27.655  21.232  1.00  0.00     0.163 HD
BRANCH   9  12
ATOM     12  C   UNL A   1      32.703  24.554  22.418  1.00  0.00     0.329 C 
BRANCH  12  13
ATOM     13  O   UNL A   1      33.825  24.310  23.226  1.00  0.00    -0.484 OA
BRANCH  13  14
ATOM     14  C   UNL A   1      34.176  23.084  23.703  1.00  0.00     0.122 A 
ATOM     15  C   UNL A   1      36.706  23.325  24.258  1.00  0.00     0.048 C 
ATOM     16  C   UNL A   1      35.398  22.591  24.176  1.00  0.00    -0.009 A 
ATOM     17  C   UNL A   1      35.416  21.280  24.704  1.00  0.00     0.007 A 
ATOM     18  C   UNL A   1      34.286  20.464  24.734  1.00  0.00     0.001 A 
ATOM     19  C   UNL A   1      33.044  22.243  23.732  1.00  0.00     0.047 A 
ATOM     20  C   UNL A   1      33.091  20.947  24.237  1.00  0.00     0.004 A 
ENDBRANCH  13  14
ENDBRANCH  12  13
ENDBRANCH   9  12
ENDBRANCH   7   8
ENDBRANCH   6   7
ENDBRANCH   3   6
ENDBRANCH   1   2
BRANCH   1  21
ATOM     21  C   UNL A   1      34.149  29.260  26.968  1.00  0.00     0.023 C 
BRANCH  21  22
ATOM     22  C   UNL A   1      33.940  30.553  27.747  1.00  0.00     0.023 C 
BRANCH  22  23
ATOM     23  C   UNL A   1      35.048  31.571  27.544  1.00  0.00     0.116 C 
BRANCH  23  24
ATOM     24  N   UNL A   1      35.692  32.023  28.772  1.00  0.00    -0.352 N 
ATOM     25  C   UNL A   1      36.575  31.348  29.607  1.00  0.00     0.251 C 
ATOM     26  H   UNL A   1      35.468  32.940  29.051  1.00  0.00     0.163 HD
ATOM     27  O   UNL A   1      36.995  31.879  30.617  1.00  0.00    -0.269 OA
BRANCH  25  28
ATOM     28  C   UNL A   1      37.132  30.040  29.164  1.00  0.00     0.039 A 
ATOM     29  C   UNL A   1      37.254  29.039  30.133  1.00  0.00     0.014 A 
ATOM     30  C   UNL A   1      37.795  29.918  27.950  1.00  0.00     0.014 A 
ATOM     31  C   UNL A   1      38.281  28.108  30.015  1.00  0.00     0.010 A 
ATOM     32  C   UNL A   1      38.900  29.095  27.896  1.00  0.00     0.010 A 
ATOM     33  C   UNL A   1      39.189  28.249  28.970  1.00  0.00    -0.014 A 
BRANCH  33  34
ATOM     34  C   UNL A   1      40.515  27.643  28.976  1.00  0.00     0.031 A 
ATOM     35  C   UNL A   1      40.678  26.217  28.633  1.00  0.00     0.074 A 
ATOM     36  C   UNL A   1      41.610  28.405  29.200  1.00  0.00     0.049 A 
ATOM     37  N   UNL A   1      41.696  25.506  28.976  1.00  0.00    -0.248 NA
ATOM     38  C   UNL A   1      39.671  25.465  27.898  1.00  0.00     0.031 C 
ATOM     39  C   UNL A   1      43.004  28.038  28.957  1.00  0.00     0.029 A 
ATOM     40  N   UNL A   1      41.690  29.618  29.904  1.00  0.00    -0.354 N 
ATOM     41  C   UNL A   1      41.631  24.319  28.286  1.00  0.00     0.074 A 
ATOM     42  C   UNL A   1      40.318  24.317  27.681  1.00  0.00     0.031 C 
ATOM     43  C   UNL A   1      43.792  28.802  29.728  1.00  0.00     0.029 A 
ATOM     44  C   UNL A   1      42.926  29.582  30.592  1.00  0.00     0.049 A 
ATOM     45  H   UNL A   1      41.024  30.344  29.915  1.00  0.00     0.167 HD
ATOM     46  C   UNL A   1      42.746  23.536  28.204  1.00  0.00     0.037 A 
ATOM     47  C   UNL A   1      42.979  29.577  31.956  1.00  0.00     0.037 A 
ATOM     48  C   UNL A   1      43.852  24.089  28.992  1.00  0.00     0.049 A 
ATOM     49  C   UNL A   1      43.632  28.363  32.576  1.00  0.00     0.074 A 
ATOM     50  C   UNL A   1      45.018  24.775  28.687  1.00  0.00     0.029 A 
ATOM     51  N   UNL A   1      43.700  24.209  30.363  1.00  0.00    -0.354 N 
ATOM     52  N   UNL A   1      44.044  27.318  31.915  1.00  0.00    -0.248 NA
ATOM     53  C   UNL A   1      43.775  28.198  34.020  1.00  0.00     0.031 C 
ATOM     54  C   UNL A   1      45.585  25.261  29.900  1.00  0.00     0.029 A 
ATOM     55  C   UNL A   1      44.762  24.876  30.941  1.00  0.00     0.049 A 
ATOM     56  H   UNL A   1      42.927  23.862  30.866  1.00  0.00     0.167 HD
ATOM     57  C   UNL A   1      44.405  26.330  32.798  1.00  0.00     0.074 A 
ATOM     58  C   UNL A   1      44.224  26.934  34.105  1.00  0.00     0.031 C 
ATOM     59  C   UNL A   1      44.769  25.078  32.382  1.00  0.00     0.037 A 
BRANCH  46  60
ATOM     60  C   UNL A   1      42.908  22.410  27.205  1.00  0.00     0.057 A 
ATOM     61  C   UNL A   1      42.153  21.226  27.318  1.00  0.00     0.134 A 
ATOM     62  C   UNL A   1      43.828  22.399  26.142  1.00  0.00     0.134 A 
ATOM     63  F   UNL A   1      41.136  21.117  28.181  1.00  0.00    -0.206 F 
ATOM     64  C   UNL A   1      42.398  20.084  26.544  1.00  0.00     0.040 A 
ATOM     65  C   UNL A   1      44.127  21.247  25.398  1.00  0.00     0.040 A 
ATOM     66  F   UNL A   1      44.431  23.517  25.721  1.00  0.00    -0.206 F 
ATOM     67  C   UNL A   1      43.422  20.074  25.612  1.00  0.00     0.006 A 
ENDBRANCH  46  60
BRANCH  47  68
ATOM     68  C   UNL A   1      41.889  30.362  32.590  1.00  0.00     0.057 A 
ATOM     69  C   UNL A   1      40.762  29.678  33.059  1.00  0.00     0.134 A 
ATOM     70  C   UNL A   1      42.108  31.650  33.083  1.00  0.00     0.134 A 
ATOM     71  F   UNL A   1      40.463  28.471  32.560  1.00  0.00    -0.206 F 
ATOM     72  C   UNL A   1      39.973  30.181  34.098  1.00  0.00     0.040 A 
ATOM     73  C   UNL A   1      41.314  32.175  34.107  1.00  0.00     0.040 A 
ATOM     74  F   UNL A   1      43.162  32.366  32.667  1.00  0.00    -0.206 F 
ATOM     75  C   UNL A   1      40.277  31.419  34.654  1.00  0.00     0.006 A 
ENDBRANCH  47  68
BRANCH  59  76
ATOM     76  C   UNL A   1      45.118  23.921  33.293  1.00  0.00     0.057 A 
ATOM     77  C   UNL A   1      44.215  22.912  33.655  1.00  0.00     0.134 A 
ATOM     78  C   UNL A   1      46.382  23.834  33.921  1.00  0.00     0.134 A 
ATOM     79  F   UNL A   1      42.940  22.939  33.244  1.00  0.00    -0.206 F 
ATOM     80  C   UNL A   1      44.572  21.847  34.497  1.00  0.00     0.040 A 
ATOM     81  C   UNL A   1      46.733  22.808  34.803  1.00  0.00     0.040 A 
ATOM     82  F   UNL A   1      47.351  24.732  33.701  1.00  0.00    -0.206 F 
ATOM     83  C   UNL A   1      45.835  21.793  35.076  1.00  0.00     0.006 A 
ENDBRANCH  59  76
ENDBRANCH  33  34
ENDBRANCH  25  28
ENDBRANCH  23  24
ENDBRANCH  22  23
ENDBRANCH  21  22
ENDBRANCH   1  21
TORSDOF 16
ENDMDL
MODEL 2
REMARK VINA RESULT:     -11.2      3.955      9.537
REMARK SMILES Cc1ccccc1OCC(=O)NCCC(=O)NCCCCNC(=O)c1ccc(-c2c3nc(c(-c4c(F)cccc4F)c4ccc([nH]4)c(-c4c(F)cccc4F)c4nc(c(-c5c(F)cccc5F)c5ccc2[nH]5)C=C4)C=C3)cc1
REMARK SMILES IDX 18 1 17 2 15 3 16 4 14 6 13 7 12 8 10 9 11 10 9 12 8 13 7 14
REMARK SMILES IDX 1 15 2 16 3 17 4 18 6 19 5 20 19 21 20 22 21 23 22 24 23 25
REMARK SMILES IDX 24 27 25 28 26 29 78 30 27 31 77 32 28 33 29 34 30 35 71 36
REMARK SMILES IDX 31 37 76 38 70 39 72 40 32 41 75 42 69 43 68 44 33 46 59 47
REMARK SMILES IDX 42 48 58 49 43 50 46 51 57 52 73 53 44 54 45 55 56 57 74 58
REMARK SMILES IDX 47 59 34 60 35 61 40 62 36 63 37 64 39 65 41 66 38 67 60 68
REMARK SMILES IDX 61 69 66 70 62 71 63 72 65 73 67 74 64 75 48 76 49 77 54 78
REMARK SMILES IDX 50 79 51 80 53 81 55 82 52 83
REMARK H PARENT 17 5 12 11 22 26 72 45 46 56
REMARK Flexibility Score: inf
ROOT
ATOM      1  C   UNL A   1      37.085  22.340  24.001  1.00  0.00     0.116 C 
ENDROOT
BRANCH   1   2
ATOM      2  N   UNL A   1      35.672  22.428  23.664  1.00  0.00    -0.356 N 
ATOM      3  C   UNL A   1      34.618  22.913  24.379  1.00  0.00     0.221 C 
ATOM      4  O   UNL A   1      33.491  22.824  23.887  1.00  0.00    -0.275 OA
ATOM      5  H   UNL A   1      35.440  22.081  22.772  1.00  0.00     0.163 HD
BRANCH   3   6
ATOM      6  C   UNL A   1      34.821  23.527  25.744  1.00  0.00     0.121 C 
BRANCH   6   7
ATOM      7  C   UNL A   1      33.662  24.435  26.139  1.00  0.00     0.126 C 
BRANCH   7   8
ATOM      8  N   UNL A   1      32.573  23.723  26.783  1.00  0.00    -0.353 N 
ATOM      9  C   UNL A   1      31.224  23.910  26.669  1.00  0.00     0.257 C 
ATOM     10  O   UNL A   1      30.475  23.278  27.418  1.00  0.00    -0.271 OA
ATOM     11  H   UNL A   1      32.846  22.999  27.392  1.00  0.00     0.163 HD
BRANCH   9  12
ATOM     12  C   UNL A   1      30.669  24.812  25.567  1.00  0.00     0.329 C 
BRANCH  12  13
ATOM     13  O   UNL A   1      30.183  26.076  25.938  1.00  0.00    -0.484 OA
BRANCH  13  14
ATOM     14  C   UNL A   1      30.861  27.243  25.758  1.00  0.00     0.122 A 
ATOM     15  C   UNL A   1      30.529  27.781  23.235  1.00  0.00     0.048 C 
ATOM     16  C   UNL A   1      31.044  28.040  24.622  1.00  0.00    -0.009 A 
ATOM     17  C   UNL A   1      31.729  29.266  24.784  1.00  0.00     0.007 A 
ATOM     18  C   UNL A   1      32.251  29.681  26.008  1.00  0.00     0.001 A 
ATOM     19  C   UNL A   1      31.402  27.673  26.988  1.00  0.00     0.047 A 
ATOM     20  C   UNL A   1      32.093  28.874  27.119  1.00  0.00     0.004 A 
ENDBRANCH  13  14
ENDBRANCH  12  13
ENDBRANCH   9  12
ENDBRANCH   7   8
ENDBRANCH   6   7
ENDBRANCH   3   6
ENDBRANCH   1   2
BRANCH   1  21
ATOM     21  C   UNL A   1      37.419  21.089  24.826  1.00  0.00     0.023 C 
BRANCH  21  22
ATOM     22  C   UNL A   1      38.705  21.160  25.641  1.00  0.00     0.023 C 
BRANCH  22  23
ATOM     23  C   UNL A   1      39.042  22.560  26.123  1.00  0.00     0.116 C 
BRANCH  23  24
ATOM     24  N   UNL A   1      40.461  22.794  26.367  1.00  0.00    -0.352 N 
ATOM     25  C   UNL A   1      41.133  23.990  26.587  1.00  0.00     0.251 C 
ATOM     26  H   UNL A   1      41.025  21.987  26.376  1.00  0.00     0.163 HD
ATOM     27  O   UNL A   1      42.339  23.999  26.747  1.00  0.00    -0.269 OA
BRANCH  25  28
ATOM     28  C   UNL A   1      40.344  25.236  26.797  1.00  0.00     0.039 A 
ATOM     29  C   UNL A   1      40.748  26.372  26.089  1.00  0.00     0.014 A 
ATOM     30  C   UNL A   1      39.468  25.357  27.867  1.00  0.00     0.014 A 
ATOM     31  C   UNL A   1      40.543  27.627  26.655  1.00  0.00     0.010 A 
ATOM     32  C   UNL A   1      39.388  26.579  28.503  1.00  0.00     0.010 A 
ATOM     33  C   UNL A   1      40.002  27.699  27.934  1.00  0.00    -0.014 A 
BRANCH  33  34
ATOM     34  C   UNL A   1      40.136  28.867  28.795  1.00  0.00     0.031 A 
ATOM     35  C   UNL A   1      39.076  29.892  28.821  1.00  0.00     0.074 A 
ATOM     36  C   UNL A   1      41.185  28.969  29.644  1.00  0.00     0.049 A 
ATOM     37  N   UNL A   1      39.257  31.105  29.218  1.00  0.00    -0.248 NA
ATOM     38  C   UNL A   1      37.720  29.634  28.359  1.00  0.00     0.031 C 
ATOM     39  C   UNL A   1      41.325  29.899  30.763  1.00  0.00     0.029 A 
ATOM     40  N   UNL A   1      42.451  28.372  29.530  1.00  0.00    -0.354 N 
ATOM     41  C   UNL A   1      38.022  31.696  29.340  1.00  0.00     0.074 A 
ATOM     42  C   UNL A   1      37.105  30.760  28.730  1.00  0.00     0.031 C 
ATOM     43  C   UNL A   1      42.629  30.046  31.041  1.00  0.00     0.029 A 
ATOM     44  C   UNL A   1      43.372  29.328  30.022  1.00  0.00     0.049 A 
ATOM     45  H   UNL A   1      42.656  27.474  29.181  1.00  0.00     0.167 HD
ATOM     46  C   UNL A   1      37.906  32.851  30.059  1.00  0.00     0.037 A 
ATOM     47  C   UNL A   1      44.318  29.885  29.211  1.00  0.00     0.037 A 
ATOM     48  C   UNL A   1      39.212  33.333  30.519  1.00  0.00     0.049 A 
ATOM     49  C   UNL A   1      44.234  31.386  29.052  1.00  0.00     0.074 A 
ATOM     50  C   UNL A   1      39.879  33.326  31.734  1.00  0.00     0.029 A 
ATOM     51  N   UNL A   1      40.162  33.689  29.577  1.00  0.00    -0.354 N 
ATOM     52  N   UNL A   1      43.289  32.137  29.546  1.00  0.00    -0.248 NA
ATOM     53  C   UNL A   1      45.169  32.143  28.224  1.00  0.00     0.031 C 
ATOM     54  C   UNL A   1      41.226  33.732  31.511  1.00  0.00     0.029 A 
ATOM     55  C   UNL A   1      41.379  33.981  30.161  1.00  0.00     0.049 A 
ATOM     56  H   UNL A   1      39.991  33.729  28.608  1.00  0.00     0.167 HD
ATOM     57  C   UNL A   1      43.414  33.413  29.052  1.00  0.00     0.074 A 
ATOM     58  C   UNL A   1      44.611  33.365  28.233  1.00  0.00     0.031 C 
ATOM     59  C   UNL A   1      42.489  34.387  29.312  1.00  0.00     0.037 A 
BRANCH  46  60
ATOM     60  C   UNL A   1      36.585  33.398  30.558  1.00  0.00     0.057 A 
ATOM     61  C   UNL A   1      35.655  33.970  29.667  1.00  0.00     0.134 A 
ATOM     62  C   UNL A   1      36.188  33.448  31.905  1.00  0.00     0.134 A 
ATOM     63  F   UNL A   1      35.802  33.884  28.340  1.00  0.00    -0.206 F 
ATOM     64  C   UNL A   1      34.513  34.662  30.093  1.00  0.00     0.040 A 
ATOM     65  C   UNL A   1      35.081  34.186  32.352  1.00  0.00     0.040 A 
ATOM     66  F   UNL A   1      36.807  32.727  32.848  1.00  0.00    -0.206 F 
ATOM     67  C   UNL A   1      34.247  34.814  31.443  1.00  0.00     0.006 A 
ENDBRANCH  46  60
BRANCH  47  68
ATOM     68  C   UNL A   1      44.821  28.955  28.169  1.00  0.00     0.057 A 
ATOM     69  C   UNL A   1      45.752  27.978  28.541  1.00  0.00     0.134 A 
ATOM     70  C   UNL A   1      44.132  28.759  26.971  1.00  0.00     0.134 A 
ATOM     71  F   UNL A   1      46.496  28.155  29.641  1.00  0.00    -0.206 F 
ATOM     72  C   UNL A   1      45.877  26.774  27.841  1.00  0.00     0.040 A 
ATOM     73  C   UNL A   1      44.263  27.568  26.249  1.00  0.00     0.040 A 
ATOM     74  F   UNL A   1      43.235  29.661  26.549  1.00  0.00    -0.206 F 
ATOM     75  C   UNL A   1      45.097  26.551  26.712  1.00  0.00     0.006 A 
ENDBRANCH  47  68
BRANCH  59  76
ATOM     76  C   UNL A   1      42.521  35.794  28.755  1.00  0.00     0.057 A 
ATOM     77  C   UNL A   1      42.169  36.123  27.439  1.00  0.00     0.134 A 
ATOM     78  C   UNL A   1      43.008  36.878  29.522  1.00  0.00     0.134 A 
ATOM     79  F   UNL A   1      41.818  35.177  26.556  1.00  0.00    -0.206 F 
ATOM     80  C   UNL A   1      42.202  37.439  26.955  1.00  0.00     0.040 A 
ATOM     81  C   UNL A   1      43.097  38.185  29.035  1.00  0.00     0.040 A 
ATOM     82  F   UNL A   1      43.408  36.731  30.792  1.00  0.00    -0.206 F 
ATOM     83  C   UNL A   1      42.669  38.477  27.753  1.00  0.00     0.006 A 
ENDBRANCH  59  76
ENDBRANCH  33  34
ENDBRANCH  25  28
ENDBRANCH  23  24
ENDBRANCH  22  23
ENDBRANCH  21  22
ENDBRANCH   1  21
TORSDOF 16
ENDMDL
MODEL 3
REMARK VINA RESULT:     -11.2      3.503      5.581
REMARK SMILES Cc1ccccc1OCC(=O)NCCC(=O)NCCCCNC(=O)c1ccc(-c2c3nc(c(-c4c(F)cccc4F)c4ccc([nH]4)c(-c4c(F)cccc4F)c4nc(c(-c5c(F)cccc5F)c5ccc2[nH]5)C=C4)C=C3)cc1
REMARK SMILES IDX 18 1 17 2 15 3 16 4 14 6 13 7 12 8 10 9 11 10 9 12 8 13 7 14
REMARK SMILES IDX 1 15 2 16 3 17 4 18 6 19 5 20 19 21 20 22 21 23 22 24 23 25
REMARK SMILES IDX 24 27 25 28 26 29 78 30 27 31 77 32 28 33 29 34 30 35 71 36
REMARK SMILES IDX 31 37 76 38 70 39 72 40 32 41 75 42 69 43 68 44 33 46 59 47
REMARK SMILES IDX 42 48 58 49 43 50 46 51 57 52 73 53 44 54 45 55 56 57 74 58
REMARK SMILES IDX 47 59 34 60 35 61 40 62 36 63 37 64 39 65 41 66 38 67 60 68
REMARK SMILES IDX 61 69 66 70 62 71 63 72 65 73 67 74 64 75 48 76 49 77 54 78
REMARK SMILES IDX 50 79 51 80 53 81 55 82 52 83
REMARK H PARENT 17 5 12 11 22 26 72 45 46 56
REMARK Flexibility Score: inf
ROOT
ATOM      1  C   UNL A   1      34.693  30.380  27.511  1.00  0.00     0.116 C 
ENDROOT
BRANCH   1   2
ATOM      2  N   UNL A   1      33.639  29.416  27.791  1.00  0.00    -0.356 N 
ATOM      3  C   UNL A   1      32.377  29.310  27.287  1.00  0.00     0.221 C 
ATOM      4  O   UNL A   1      31.645  28.423  27.732  1.00  0.00    -0.275 OA
ATOM      5  H   UNL A   1      33.876  28.728  28.454  1.00  0.00     0.163 HD
BRANCH   3   6
ATOM      6  C   UNL A   1      31.882  30.260  26.223  1.00  0.00     0.121 C 
BRANCH   6   7
ATOM      7  C   UNL A   1      31.737  29.576  24.868  1.00  0.00     0.126 C 
BRANCH   7   8
ATOM      8  N   UNL A   1      31.135  28.258  24.956  1.00  0.00    -0.353 N 
ATOM      9  C   UNL A   1      30.575  27.491  23.973  1.00  0.00     0.257 C 
ATOM     10  O   UNL A   1      29.994  26.451  24.295  1.00  0.00    -0.271 OA
ATOM     11  H   UNL A   1      31.129  27.858  25.856  1.00  0.00     0.163 HD
BRANCH   9  12
ATOM     12  C   UNL A   1      30.759  27.876  22.506  1.00  0.00     0.329 C 
BRANCH  12  13
ATOM     13  O   UNL A   1      29.663  28.443  21.835  1.00  0.00    -0.484 OA
BRANCH  13  14
ATOM     14  C   UNL A   1      28.911  29.468  22.320  1.00  0.00     0.122 A 
ATOM     15  C   UNL A   1      26.919  28.284  23.501  1.00  0.00     0.048 C 
ATOM     16  C   UNL A   1      27.721  29.474  23.057  1.00  0.00    -0.009 A 
ATOM     17  C   UNL A   1      27.232  30.722  23.504  1.00  0.00     0.007 A 
ATOM     18  C   UNL A   1      27.865  31.929  23.209  1.00  0.00     0.001 A 
ATOM     19  C   UNL A   1      29.535  30.698  22.022  1.00  0.00     0.047 A 
ATOM     20  C   UNL A   1      29.022  31.917  22.455  1.00  0.00     0.004 A 
ENDBRANCH  13  14
ENDBRANCH  12  13
ENDBRANCH   9  12
ENDBRANCH   7   8
ENDBRANCH   6   7
ENDBRANCH   3   6
ENDBRANCH   1   2
BRANCH   1  21
ATOM     21  C   UNL A   1      34.761  31.501  28.557  1.00  0.00     0.023 C 
BRANCH  21  22
ATOM     22  C   UNL A   1      34.701  32.921  28.008  1.00  0.00     0.023 C 
BRANCH  22  23
ATOM     23  C   UNL A   1      35.188  33.973  28.988  1.00  0.00     0.116 C 
BRANCH  23  24
ATOM     24  N   UNL A   1      34.148  34.538  29.841  1.00  0.00    -0.352 N 
ATOM     25  C   UNL A   1      33.997  34.459  31.220  1.00  0.00     0.251 C 
ATOM     26  H   UNL A   1      33.451  35.051  29.370  1.00  0.00     0.163 HD
ATOM     27  O   UNL A   1      33.040  34.975  31.765  1.00  0.00    -0.269 OA
BRANCH  25  28
ATOM     28  C   UNL A   1      35.102  33.885  32.037  1.00  0.00     0.039 A 
ATOM     29  C   UNL A   1      36.231  34.687  32.232  1.00  0.00     0.014 A 
ATOM     30  C   UNL A   1      35.157  32.526  32.314  1.00  0.00     0.014 A 
ATOM     31  C   UNL A   1      37.473  34.077  32.380  1.00  0.00     0.010 A 
ATOM     32  C   UNL A   1      36.393  31.915  32.314  1.00  0.00     0.010 A 
ATOM     33  C   UNL A   1      37.553  32.694  32.261  1.00  0.00    -0.014 A 
BRANCH  33  34
ATOM     34  C   UNL A   1      38.791  31.987  31.961  1.00  0.00     0.031 A 
ATOM     35  C   UNL A   1      38.762  30.759  31.143  1.00  0.00     0.074 A 
ATOM     36  C   UNL A   1      39.981  32.503  32.348  1.00  0.00     0.049 A 
ATOM     37  N   UNL A   1      39.695  29.870  31.146  1.00  0.00    -0.248 NA
ATOM     38  C   UNL A   1      37.645  30.419  30.274  1.00  0.00     0.031 C 
ATOM     39  C   UNL A   1      41.308  32.098  31.890  1.00  0.00     0.029 A 
ATOM     40  N   UNL A   1      40.236  33.382  33.413  1.00  0.00    -0.354 N 
ATOM     41  C   UNL A   1      39.458  29.008  30.102  1.00  0.00     0.074 A 
ATOM     42  C   UNL A   1      38.135  29.355  29.633  1.00  0.00     0.031 C 
ATOM     43  C   UNL A   1      42.212  32.460  32.813  1.00  0.00     0.029 A 
ATOM     44  C   UNL A   1      41.481  32.979  33.953  1.00  0.00     0.049 A 
ATOM     45  H   UNL A   1      39.667  34.126  33.720  1.00  0.00     0.167 HD
ATOM     46  C   UNL A   1      40.463  28.189  29.675  1.00  0.00     0.037 A 
ATOM     47  C   UNL A   1      41.580  32.497  35.227  1.00  0.00     0.037 A 
ATOM     48  C   UNL A   1      41.656  28.315  30.518  1.00  0.00     0.049 A 
ATOM     49  C   UNL A   1      42.096  31.082  35.346  1.00  0.00     0.074 A 
ATOM     50  C   UNL A   1      42.887  28.936  30.377  1.00  0.00     0.029 A 
ATOM     51  N   UNL A   1      41.567  27.968  31.855  1.00  0.00    -0.354 N 
ATOM     52  N   UNL A   1      42.351  30.293  34.340  1.00  0.00    -0.248 NA
ATOM     53  C   UNL A   1      42.267  30.413  36.633  1.00  0.00     0.031 C 
ATOM     54  C   UNL A   1      43.551  28.910  31.636  1.00  0.00     0.029 A 
ATOM     55  C   UNL A   1      42.723  28.277  32.544  1.00  0.00     0.049 A 
ATOM     56  H   UNL A   1      40.774  27.552  32.267  1.00  0.00     0.167 HD
ATOM     57  C   UNL A   1      42.615  29.028  34.806  1.00  0.00     0.074 A 
ATOM     58  C   UNL A   1      42.556  29.158  36.250  1.00  0.00     0.031 C 
ATOM     59  C   UNL A   1      42.804  27.966  33.963  1.00  0.00     0.037 A 
BRANCH  46  60
ATOM     60  C   UNL A   1      40.448  27.468  28.343  1.00  0.00     0.057 A 
ATOM     61  C   UNL A   1      39.848  26.200  28.213  1.00  0.00     0.134 A 
ATOM     62  C   UNL A   1      41.054  27.935  27.164  1.00  0.00     0.134 A 
ATOM     63  F   UNL A   1      39.105  25.665  29.189  1.00  0.00    -0.206 F 
ATOM     64  C   UNL A   1      39.973  25.408  27.063  1.00  0.00     0.040 A 
ATOM     65  C   UNL A   1      41.240  27.134  26.028  1.00  0.00     0.040 A 
ATOM     66  F   UNL A   1      41.432  29.211  27.025  1.00  0.00    -0.206 F 
ATOM     67  C   UNL A   1      40.714  25.853  25.982  1.00  0.00     0.006 A 
ENDBRANCH  46  60
BRANCH  47  68
ATOM     68  C   UNL A   1      40.619  33.125  36.169  1.00  0.00     0.057 A 
ATOM     69  C   UNL A   1      39.430  32.446  36.460  1.00  0.00     0.134 A 
ATOM     70  C   UNL A   1      41.014  34.130  37.053  1.00  0.00     0.134 A 
ATOM     71  F   UNL A   1      38.966  31.526  35.604  1.00  0.00    -0.206 F 
ATOM     72  C   UNL A   1      38.747  32.638  37.664  1.00  0.00     0.040 A 
ATOM     73  C   UNL A   1      40.328  34.348  38.252  1.00  0.00     0.040 A 
ATOM     74  F   UNL A   1      42.136  34.829  36.828  1.00  0.00    -0.206 F 
ATOM     75  C   UNL A   1      39.223  33.565  38.584  1.00  0.00     0.006 A 
ENDBRANCH  47  68
BRANCH  59  76
ATOM     76  C   UNL A   1      43.037  26.536  34.398  1.00  0.00     0.057 A 
ATOM     77  C   UNL A   1      42.048  25.720  34.964  1.00  0.00     0.134 A 
ATOM     78  C   UNL A   1      44.322  25.948  34.340  1.00  0.00     0.134 A 
ATOM     79  F   UNL A   1      40.815  26.189  35.207  1.00  0.00    -0.206 F 
ATOM     80  C   UNL A   1      42.293  24.394  35.351  1.00  0.00     0.040 A 
ATOM     81  C   UNL A   1      44.592  24.647  34.770  1.00  0.00     0.040 A 
ATOM     82  F   UNL A   1      45.383  26.600  33.846  1.00  0.00    -0.206 F 
ATOM     83  C   UNL A   1      43.570  23.852  35.256  1.00  0.00     0.006 A 
ENDBRANCH  59  76
ENDBRANCH  33  34
ENDBRANCH  25  28
ENDBRANCH  23  24
ENDBRANCH  22  23
ENDBRANCH  21  22
ENDBRANCH   1  21
TORSDOF 16
ENDMDL
