MODEL 1
REMARK VINA RESULT:     -11.4      0.000      0.000
REMARK SMILES [NH3+][C@@H](Cc1c[nH]c2ccccc12)C(=O)N[C@@H](CS)C(=O)N[C@@H](CO)C(=O)NCCCCNC(=O)c1ccc(-c2c3nc(c(-c4c(F)cccc4F)c4ccc([nH]4)c(-c4c(F)cccc4F)c4nc(c(-c5c(F)cccc5F)c5ccc2[nH]5)C=C4)C=C3)cc1
REMARK SMILES IDX 25 1 26 2 27 3 22 5 21 6 19 7 20 8 16 10 15 11 13 12 14 13
REMARK SMILES IDX 2 15 1 16 3 20 4 21 5 22 12 23 6 24 7 25 11 26 8 28 10 29
REMARK SMILES IDX 9 30 17 31 18 32 23 34 24 35 28 37 29 38 30 39 31 40 32 41
REMARK SMILES IDX 33 42 34 44 35 45 36 46 88 47 37 48 87 49 38 50 39 51 40 52
REMARK SMILES IDX 81 53 41 54 86 55 80 56 82 57 42 58 85 59 79 60 78 61 43 63
REMARK SMILES IDX 69 64 52 65 68 66 53 67 56 68 67 69 83 70 54 71 55 72 66 74
REMARK SMILES IDX 84 75 57 76 44 77 45 78 50 79 46 80 47 81 49 82 51 83 48 84
REMARK SMILES IDX 70 85 71 86 76 87 72 88 73 89 75 90 77 91 74 92 58 93 59 94
REMARK SMILES IDX 64 95 60 96 61 97 63 98 65 99 62 100
REMARK H PARENT 27 4 21 9 15 14 1 17 1 18 1 19 6 27 18 33 24 36 32 43 82 62
REMARK H PARENT 56 73
REMARK Flexibility Score: inf
ROOT
ATOM      1  C   UNL A   1      33.542  22.194  24.873  1.00  0.00     0.244 C 
ATOM      2  O   UNL A   1      32.618  21.980  24.079  1.00  0.00    -0.273 OA
ATOM      3  N   UNL A   1      34.748  21.650  24.574  1.00  0.00    -0.354 N 
ATOM      4  H   UNL A   1      34.734  21.007  23.829  1.00  0.00     0.163 HD
ENDROOT
BRANCH   1   5
ATOM      5  C   UNL A   1      33.306  23.102  26.086  1.00  0.00     0.197 C 
BRANCH   5   6
ATOM      6  N   UNL A   1      32.105  23.920  26.000  1.00  0.00    -0.340 N 
ATOM      7  C   UNL A   1      31.983  25.257  25.842  1.00  0.00     0.244 C 
ATOM      8  O   UNL A   1      31.021  25.749  26.449  1.00  0.00    -0.273 OA
ATOM      9  H   UNL A   1      31.256  23.427  26.065  1.00  0.00     0.164 HD
BRANCH   7  10
ATOM     10  C   UNL A   1      32.925  26.152  24.997  1.00  0.00     0.181 C 
BRANCH  10  11
ATOM     11  N   UNL A   1      33.772  26.930  25.884  1.00  0.00    -0.338 N 
ATOM     12  C   UNL A   1      33.773  28.272  26.092  1.00  0.00     0.279 C 
ATOM     13  O   UNL A   1      34.526  28.689  26.982  1.00  0.00    -0.268 OA
ATOM     14  H   UNL A   1      34.432  26.417  26.403  1.00  0.00     0.164 HD
BRANCH  12  15
ATOM     15  C   UNL A   1      32.988  29.289  25.209  1.00  0.00     0.275 C 
BRANCH  15  16
ATOM     16  N   UNL A   1      33.545  29.329  23.842  1.00  0.00    -0.347 N 
ATOM     17  H   UNL A   1      33.142  30.115  23.333  1.00  0.00     0.345 HD
ATOM     18  H   UNL A   1      33.321  28.460  23.358  1.00  0.00     0.345 HD
ATOM     19  H   UNL A   1      34.558  29.439  23.891  1.00  0.00     0.345 HD
ENDBRANCH  15  16
BRANCH  15  20
ATOM     20  C   UNL A   1      31.457  29.410  25.342  1.00  0.00     0.113 C 
BRANCH  20  21
ATOM     21  C   UNL A   1      30.471  29.346  24.191  1.00  0.00    -0.016 A 
ATOM     22  C   UNL A   1      30.331  28.185  23.444  1.00  0.00     0.087 A 
ATOM     23  C   UNL A   1      29.551  30.295  23.598  1.00  0.00     0.003 A 
ATOM     24  N   UNL A   1      29.521  28.430  22.376  1.00  0.00    -0.361 N 
ATOM     25  C   UNL A   1      29.102  29.735  22.395  1.00  0.00     0.046 A 
ATOM     26  C   UNL A   1      29.132  31.618  23.871  1.00  0.00     0.010 A 
ATOM     27  H   UNL A   1      29.273  27.767  21.692  1.00  0.00     0.166 HD
ATOM     28  C   UNL A   1      28.372  30.447  21.433  1.00  0.00     0.026 A 
ATOM     29  C   UNL A   1      28.411  32.352  22.918  1.00  0.00     0.001 A 
ATOM     30  C   UNL A   1      28.059  31.778  21.703  1.00  0.00     0.002 A 
ENDBRANCH  20  21
ENDBRANCH  15  20
ENDBRANCH  12  15
ENDBRANCH  10  11
BRANCH  10  31
ATOM     31  C   UNL A   1      33.600  25.681  23.705  1.00  0.00     0.101 C 
BRANCH  31  32
ATOM     32  S   UNL A   1      32.455  25.155  22.374  1.00  0.00    -0.177 SA
ATOM     33  H   UNL A   1      33.144  25.017  21.210  1.00  0.00     0.102 HD
ENDBRANCH  31  32
ENDBRANCH  10  31
ENDBRANCH   7  10
ENDBRANCH   5   6
BRANCH   5  34
ATOM     34  C   UNL A   1      33.411  22.359  27.425  1.00  0.00     0.191 C 
BRANCH  34  35
ATOM     35  O   UNL A   1      32.154  22.204  28.079  1.00  0.00    -0.394 OA
ATOM     36  H   UNL A   1      31.621  21.546  27.605  1.00  0.00     0.210 HD
ENDBRANCH  34  35
ENDBRANCH   5  34
ENDBRANCH   1   5
BRANCH   3  37
ATOM     37  C   UNL A   1      36.052  21.856  25.168  1.00  0.00     0.116 C 
BRANCH  37  38
ATOM     38  C   UNL A   1      37.165  21.263  24.312  1.00  0.00     0.023 C 
BRANCH  38  39
ATOM     39  C   UNL A   1      37.798  19.992  24.875  1.00  0.00     0.023 C 
BRANCH  39  40
ATOM     40  C   UNL A   1      38.944  20.221  25.852  1.00  0.00     0.116 C 
BRANCH  40  41
ATOM     41  N   UNL A   1      39.981  19.206  25.768  1.00  0.00    -0.352 N 
ATOM     42  C   UNL A   1      41.336  19.347  25.962  1.00  0.00     0.251 C 
ATOM     43  H   UNL A   1      39.674  18.298  25.544  1.00  0.00     0.163 HD
ATOM     44  O   UNL A   1      42.095  18.414  25.767  1.00  0.00    -0.269 OA
BRANCH  42  45
ATOM     45  C   UNL A   1      41.858  20.667  26.369  1.00  0.00     0.039 A 
ATOM     46  C   UNL A   1      42.237  21.569  25.374  1.00  0.00     0.014 A 
ATOM     47  C   UNL A   1      41.923  21.021  27.719  1.00  0.00     0.014 A 
ATOM     48  C   UNL A   1      42.635  22.856  25.735  1.00  0.00     0.010 A 
ATOM     49  C   UNL A   1      42.239  22.328  28.070  1.00  0.00     0.010 A 
ATOM     50  C   UNL A   1      42.610  23.253  27.082  1.00  0.00    -0.014 A 
BRANCH  50  51
ATOM     51  C   UNL A   1      43.007  24.624  27.477  1.00  0.00     0.031 A 
ATOM     52  C   UNL A   1      44.453  25.032  27.410  1.00  0.00     0.074 A 
ATOM     53  C   UNL A   1      42.077  25.485  27.933  1.00  0.00     0.049 A 
ATOM     54  N   UNL A   1      45.006  26.172  27.736  1.00  0.00    -0.248 NA
ATOM     55  C   UNL A   1      45.407  24.014  26.942  1.00  0.00     0.031 C 
ATOM     56  C   UNL A   1      40.652  25.186  28.094  1.00  0.00     0.029 A 
ATOM     57  N   UNL A   1      42.191  26.788  28.344  1.00  0.00    -0.354 N 
ATOM     58  C   UNL A   1      46.369  26.001  27.526  1.00  0.00     0.074 A 
ATOM     59  C   UNL A   1      46.566  24.631  27.108  1.00  0.00     0.031 C 
ATOM     60  C   UNL A   1      40.021  26.286  28.538  1.00  0.00     0.029 A 
ATOM     61  C   UNL A   1      40.998  27.354  28.720  1.00  0.00     0.049 A 
ATOM     62  H   UNL A   1      43.048  27.272  28.367  1.00  0.00     0.167 HD
ATOM     63  C   UNL A   1      47.363  26.913  27.640  1.00  0.00     0.037 A 
ATOM     64  C   UNL A   1      40.726  28.598  29.157  1.00  0.00     0.037 A 
ATOM     65  C   UNL A   1      47.157  28.282  28.028  1.00  0.00     0.049 A 
ATOM     66  C   UNL A   1      41.846  29.597  29.260  1.00  0.00     0.074 A 
ATOM     67  C   UNL A   1      48.090  29.300  28.131  1.00  0.00     0.029 A 
ATOM     68  N   UNL A   1      45.930  28.826  28.374  1.00  0.00    -0.354 N 
ATOM     69  N   UNL A   1      43.121  29.441  28.996  1.00  0.00    -0.248 NA
ATOM     70  C   UNL A   1      41.486  30.949  29.710  1.00  0.00     0.031 C 
ATOM     71  C   UNL A   1      47.429  30.452  28.572  1.00  0.00     0.029 A 
ATOM     72  C   UNL A   1      46.080  30.163  28.699  1.00  0.00     0.049 A 
ATOM     73  H   UNL A   1      45.077  28.335  28.387  1.00  0.00     0.167 HD
ATOM     74  C   UNL A   1      43.708  30.681  29.211  1.00  0.00     0.074 A 
ATOM     75  C   UNL A   1      42.647  31.580  29.616  1.00  0.00     0.031 C 
ATOM     76  C   UNL A   1      45.008  31.045  29.084  1.00  0.00     0.037 A 
BRANCH  63  77
ATOM     77  C   UNL A   1      48.757  26.453  27.328  1.00  0.00     0.057 A 
ATOM     78  C   UNL A   1      49.620  25.986  28.329  1.00  0.00     0.134 A 
ATOM     79  C   UNL A   1      49.240  26.460  26.014  1.00  0.00     0.134 A 
ATOM     80  F   UNL A   1      49.226  25.968  29.613  1.00  0.00    -0.206 F 
ATOM     81  C   UNL A   1      50.920  25.569  28.039  1.00  0.00     0.040 A 
ATOM     82  C   UNL A   1      50.527  26.019  25.706  1.00  0.00     0.040 A 
ATOM     83  F   UNL A   1      48.466  26.892  25.007  1.00  0.00    -0.206 F 
ATOM     84  C   UNL A   1      51.375  25.578  26.722  1.00  0.00     0.006 A 
ENDBRANCH  63  77
BRANCH  64  85
ATOM     85  C   UNL A   1      39.331  28.986  29.487  1.00  0.00     0.057 A 
ATOM     86  C   UNL A   1      38.825  28.824  30.782  1.00  0.00     0.134 A 
ATOM     87  C   UNL A   1      38.468  29.510  28.519  1.00  0.00     0.134 A 
ATOM     88  F   UNL A   1      39.600  28.311  31.750  1.00  0.00    -0.206 F 
ATOM     89  C   UNL A   1      37.504  29.144  31.098  1.00  0.00     0.040 A 
ATOM     90  C   UNL A   1      37.150  29.857  28.826  1.00  0.00     0.040 A 
ATOM     91  F   UNL A   1      38.894  29.699  27.261  1.00  0.00    -0.206 F 
ATOM     92  C   UNL A   1      36.663  29.666  30.118  1.00  0.00     0.006 A 
ENDBRANCH  64  85
BRANCH  76  93
ATOM     93  C   UNL A   1      45.342  32.485  29.337  1.00  0.00     0.057 A 
ATOM     94  C   UNL A   1      45.777  32.938  30.588  1.00  0.00     0.134 A 
ATOM     95  C   UNL A   1      45.254  33.425  28.302  1.00  0.00     0.134 A 
ATOM     96  F   UNL A   1      45.869  32.090  31.625  1.00  0.00    -0.206 F 
ATOM     97  C   UNL A   1      46.083  34.282  30.810  1.00  0.00     0.040 A 
ATOM     98  C   UNL A   1      45.584  34.765  28.503  1.00  0.00     0.040 A 
ATOM     99  F   UNL A   1      44.854  33.054  27.076  1.00  0.00    -0.206 F 
ATOM    100  C   UNL A   1      45.992  35.198  29.764  1.00  0.00     0.006 A 
ENDBRANCH  76  93
ENDBRANCH  50  51
ENDBRANCH  42  45
ENDBRANCH  40  41
ENDBRANCH  39  40
ENDBRANCH  38  39
ENDBRANCH  37  38
ENDBRANCH   3  37
TORSDOF 22
ENDMDL
MODEL 2
REMARK VINA RESULT:     -11.3      1.368      2.502
REMARK SMILES [NH3+][C@@H](Cc1c[nH]c2ccccc12)C(=O)N[C@@H](CS)C(=O)N[C@@H](CO)C(=O)NCCCCNC(=O)c1ccc(-c2c3nc(c(-c4c(F)cccc4F)c4ccc([nH]4)c(-c4c(F)cccc4F)c4nc(c(-c5c(F)cccc5F)c5ccc2[nH]5)C=C4)C=C3)cc1
REMARK SMILES IDX 25 1 26 2 27 3 22 5 21 6 19 7 20 8 16 10 15 11 13 12 14 13
REMARK SMILES IDX 2 15 1 16 3 20 4 21 5 22 12 23 6 24 7 25 11 26 8 28 10 29
REMARK SMILES IDX 9 30 17 31 18 32 23 34 24 35 28 37 29 38 30 39 31 40 32 41
REMARK SMILES IDX 33 42 34 44 35 45 36 46 88 47 37 48 87 49 38 50 39 51 40 52
REMARK SMILES IDX 81 53 41 54 86 55 80 56 82 57 42 58 85 59 79 60 78 61 43 63
REMARK SMILES IDX 69 64 52 65 68 66 53 67 56 68 67 69 83 70 54 71 55 72 66 74
REMARK SMILES IDX 84 75 57 76 44 77 45 78 50 79 46 80 47 81 49 82 51 83 48 84
REMARK SMILES IDX 70 85 71 86 76 87 72 88 73 89 75 90 77 91 74 92 58 93 59 94
REMARK SMILES IDX 64 95 60 96 61 97 63 98 65 99 62 100
REMARK H PARENT 27 4 21 9 15 14 1 17 1 18 1 19 6 27 18 33 24 36 32 43 82 62
REMARK H PARENT 56 73
REMARK Flexibility Score: inf
ROOT
ATOM      1  C   UNL A   1      34.700  18.910  24.691  1.00  0.00     0.244 C 
ATOM      2  O   UNL A   1      34.756  17.719  24.363  1.00  0.00    -0.273 OA
ATOM      3  N   UNL A   1      35.880  19.553  24.877  1.00  0.00    -0.354 N 
ATOM      4  H   UNL A   1      36.670  18.966  24.882  1.00  0.00     0.163 HD
ENDROOT
BRANCH   1   5
ATOM      5  C   UNL A   1      33.337  19.605  24.796  1.00  0.00     0.197 C 
BRANCH   5   6
ATOM      6  N   UNL A   1      32.890  20.241  23.566  1.00  0.00    -0.340 N 
ATOM      7  C   UNL A   1      32.303  21.444  23.383  1.00  0.00     0.244 C 
ATOM      8  O   UNL A   1      31.461  21.460  22.473  1.00  0.00    -0.273 OA
ATOM      9  H   UNL A   1      33.038  19.718  22.746  1.00  0.00     0.164 HD
BRANCH   7  10
ATOM     10  C   UNL A   1      32.604  22.726  24.201  1.00  0.00     0.181 C 
BRANCH  10  11
ATOM     11  N   UNL A   1      32.249  22.504  25.591  1.00  0.00    -0.338 N 
ATOM     12  C   UNL A   1      31.420  23.235  26.380  1.00  0.00     0.279 C 
ATOM     13  O   UNL A   1      31.195  22.779  27.510  1.00  0.00    -0.268 OA
ATOM     14  H   UNL A   1      32.664  21.720  26.017  1.00  0.00     0.164 HD
BRANCH  12  15
ATOM     15  C   UNL A   1      30.855  24.634  25.987  1.00  0.00     0.275 C 
BRANCH  15  16
ATOM     16  N   UNL A   1      29.480  24.801  26.498  1.00  0.00    -0.347 N 
ATOM     17  H   UNL A   1      29.474  24.661  27.508  1.00  0.00     0.345 HD
ATOM     18  H   UNL A   1      28.867  24.118  26.056  1.00  0.00     0.345 HD
ATOM     19  H   UNL A   1      29.150  25.743  26.285  1.00  0.00     0.345 HD
ENDBRANCH  15  16
BRANCH  15  20
ATOM     20  C   UNL A   1      31.768  25.875  26.020  1.00  0.00     0.113 C 
BRANCH  20  21
ATOM     21  C   UNL A   1      31.583  27.121  25.175  1.00  0.00    -0.016 A 
ATOM     22  C   UNL A   1      32.540  28.125  25.177  1.00  0.00     0.087 A 
ATOM     23  C   UNL A   1      30.541  27.587  24.282  1.00  0.00     0.003 A 
ATOM     24  N   UNL A   1      32.071  29.198  24.481  1.00  0.00    -0.361 N 
ATOM     25  C   UNL A   1      30.815  28.932  24.001  1.00  0.00     0.046 A 
ATOM     26  C   UNL A   1      29.328  27.071  23.771  1.00  0.00     0.010 A 
ATOM     27  H   UNL A   1      32.560  30.041  24.346  1.00  0.00     0.166 HD
ATOM     28  C   UNL A   1      29.914  29.786  23.349  1.00  0.00     0.026 A 
ATOM     29  C   UNL A   1      28.408  27.911  23.127  1.00  0.00     0.001 A 
ATOM     30  C   UNL A   1      28.689  29.258  22.943  1.00  0.00     0.002 A 
ENDBRANCH  20  21
ENDBRANCH  15  20
ENDBRANCH  12  15
ENDBRANCH  10  11
BRANCH  10  31
ATOM     31  C   UNL A   1      33.848  23.593  23.980  1.00  0.00     0.101 C 
BRANCH  31  32
ATOM     32  S   UNL A   1      33.659  24.928  22.740  1.00  0.00    -0.177 SA
ATOM     33  H   UNL A   1      34.087  24.486  21.528  1.00  0.00     0.102 HD
ENDBRANCH  31  32
ENDBRANCH  10  31
ENDBRANCH   7  10
ENDBRANCH   5   6
BRANCH   5  34
ATOM     34  C   UNL A   1      32.252  18.715  25.421  1.00  0.00     0.191 C 
BRANCH  34  35
ATOM     35  O   UNL A   1      32.678  18.073  26.620  1.00  0.00    -0.394 OA
ATOM     36  H   UNL A   1      33.033  17.195  26.409  1.00  0.00     0.210 HD
ENDBRANCH  34  35
ENDBRANCH   5  34
ENDBRANCH   1   5
BRANCH   3  37
ATOM     37  C   UNL A   1      36.171  20.958  25.070  1.00  0.00     0.116 C 
BRANCH  37  38
ATOM     38  C   UNL A   1      37.661  21.251  24.939  1.00  0.00     0.023 C 
BRANCH  38  39
ATOM     39  C   UNL A   1      38.558  20.015  24.920  1.00  0.00     0.023 C 
BRANCH  39  40
ATOM     40  C   UNL A   1      39.416  19.822  26.165  1.00  0.00     0.116 C 
BRANCH  40  41
ATOM     41  N   UNL A   1      40.488  18.860  25.978  1.00  0.00    -0.352 N 
ATOM     42  C   UNL A   1      41.847  19.069  26.032  1.00  0.00     0.251 C 
ATOM     43  H   UNL A   1      40.206  17.935  25.789  1.00  0.00     0.163 HD
ATOM     44  O   UNL A   1      42.628  18.173  25.764  1.00  0.00    -0.269 OA
BRANCH  42  45
ATOM     45  C   UNL A   1      42.340  20.417  26.381  1.00  0.00     0.039 A 
ATOM     46  C   UNL A   1      42.666  21.295  25.347  1.00  0.00     0.014 A 
ATOM     47  C   UNL A   1      42.430  20.818  27.716  1.00  0.00     0.014 A 
ATOM     48  C   UNL A   1      43.035  22.604  25.654  1.00  0.00     0.010 A 
ATOM     49  C   UNL A   1      42.717  22.144  28.015  1.00  0.00     0.010 A 
ATOM     50  C   UNL A   1      43.035  23.045  26.988  1.00  0.00    -0.014 A 
BRANCH  50  51
ATOM     51  C   UNL A   1      43.401  24.440  27.326  1.00  0.00     0.031 A 
ATOM     52  C   UNL A   1      44.835  24.883  27.221  1.00  0.00     0.074 A 
ATOM     53  C   UNL A   1      42.455  25.293  27.765  1.00  0.00     0.049 A 
ATOM     54  N   UNL A   1      45.362  26.047  27.496  1.00  0.00    -0.248 NA
ATOM     55  C   UNL A   1      45.808  23.872  26.775  1.00  0.00     0.031 C 
ATOM     56  C   UNL A   1      41.042  24.964  27.960  1.00  0.00     0.029 A 
ATOM     57  N   UNL A   1      42.542  26.612  28.127  1.00  0.00    -0.354 N 
ATOM     58  C   UNL A   1      46.726  25.904  27.271  1.00  0.00     0.074 A 
ATOM     59  C   UNL A   1      46.953  24.525  26.899  1.00  0.00     0.031 C 
ATOM     60  C   UNL A   1      40.389  26.062  28.374  1.00  0.00     0.029 A 
ATOM     61  C   UNL A   1      41.340  27.161  28.502  1.00  0.00     0.049 A 
ATOM     62  H   UNL A   1      43.386  27.119  28.118  1.00  0.00     0.167 HD
ATOM     63  C   UNL A   1      47.697  26.844  27.335  1.00  0.00     0.037 A 
ATOM     64  C   UNL A   1      41.042  28.413  28.897  1.00  0.00     0.037 A 
ATOM     65  C   UNL A   1      47.462  28.221  27.676  1.00  0.00     0.049 A 
ATOM     66  C   UNL A   1      42.137  29.444  28.946  1.00  0.00     0.074 A 
ATOM     67  C   UNL A   1      48.368  29.266  27.727  1.00  0.00     0.029 A 
ATOM     68  N   UNL A   1      46.225  28.746  28.022  1.00  0.00    -0.354 N 
ATOM     69  N   UNL A   1      43.411  29.310  28.667  1.00  0.00    -0.248 NA
ATOM     70  C   UNL A   1      41.748  30.801  29.351  1.00  0.00     0.031 C 
ATOM     71  C   UNL A   1      47.685  30.416  28.136  1.00  0.00     0.029 A 
ATOM     72  C   UNL A   1      46.346  30.098  28.296  1.00  0.00     0.049 A 
ATOM     73  H   UNL A   1      45.387  28.234  28.067  1.00  0.00     0.167 HD
ATOM     74  C   UNL A   1      43.968  30.572  28.827  1.00  0.00     0.074 A 
ATOM     75  C   UNL A   1      42.891  31.458  29.216  1.00  0.00     0.031 C 
ATOM     76  C   UNL A   1      45.257  30.965  28.666  1.00  0.00     0.037 A 
BRANCH  63  77
ATOM     77  C   UNL A   1      49.098  26.410  27.018  1.00  0.00     0.057 A 
ATOM     78  C   UNL A   1      49.982  25.985  28.019  1.00  0.00     0.134 A 
ATOM     79  C   UNL A   1      49.566  26.397  25.698  1.00  0.00     0.134 A 
ATOM     80  F   UNL A   1      49.604  25.988  29.307  1.00  0.00    -0.206 F 
ATOM     81  C   UNL A   1      51.289  25.592  27.723  1.00  0.00     0.040 A 
ATOM     82  C   UNL A   1      50.860  25.979  25.386  1.00  0.00     0.040 A 
ATOM     83  F   UNL A   1      48.771  26.788  24.690  1.00  0.00    -0.206 F 
ATOM     84  C   UNL A   1      51.728  25.581  26.401  1.00  0.00     0.006 A 
ENDBRANCH  63  77
BRANCH  64  85
ATOM     85  C   UNL A   1      39.642  28.777  29.236  1.00  0.00     0.057 A 
ATOM     86  C   UNL A   1      39.159  28.642  30.542  1.00  0.00     0.134 A 
ATOM     87  C   UNL A   1      38.753  29.250  28.264  1.00  0.00     0.134 A 
ATOM     88  F   UNL A   1      39.959  28.178  31.513  1.00  0.00    -0.206 F 
ATOM     89  C   UNL A   1      37.834  28.939  30.867  1.00  0.00     0.040 A 
ATOM     90  C   UNL A   1      37.432  29.574  28.580  1.00  0.00     0.040 A 
ATOM     91  F   UNL A   1      39.157  29.411  26.996  1.00  0.00    -0.206 F 
ATOM     92  C   UNL A   1      36.967  29.410  29.884  1.00  0.00     0.006 A 
ENDBRANCH  64  85
BRANCH  76  93
ATOM     93  C   UNL A   1      45.557  32.421  28.861  1.00  0.00     0.057 A 
ATOM     94  C   UNL A   1      45.453  33.347  27.816  1.00  0.00     0.134 A 
ATOM     95  C   UNL A   1      45.928  32.906  30.122  1.00  0.00     0.134 A 
ATOM     96  F   UNL A   1      45.116  32.945  26.581  1.00  0.00    -0.206 F 
ATOM     97  C   UNL A   1      45.738  34.700  28.012  1.00  0.00     0.040 A 
ATOM     98  C   UNL A   1      46.187  34.259  30.337  1.00  0.00     0.040 A 
ATOM     99  F   UNL A   1      46.035  32.072  31.168  1.00  0.00    -0.206 F 
ATOM    100  C   UNL A   1      46.100  35.160  29.276  1.00  0.00     0.006 A 
ENDBRANCH  76  93
ENDBRANCH  50  51
ENDBRANCH  42  45
ENDBRANCH  40  41
ENDBRANCH  39  40
ENDBRANCH  38  39
ENDBRANCH  37  38
ENDBRANCH   3  37
TORSDOF 22
ENDMDL
MODEL 3
REMARK VINA RESULT:     -11.1      1.963      3.311
REMARK SMILES [NH3+][C@@H](Cc1c[nH]c2ccccc12)C(=O)N[C@@H](CS)C(=O)N[C@@H](CO)C(=O)NCCCCNC(=O)c1ccc(-c2c3nc(c(-c4c(F)cccc4F)c4ccc([nH]4)c(-c4c(F)cccc4F)c4nc(c(-c5c(F)cccc5F)c5ccc2[nH]5)C=C4)C=C3)cc1
REMARK SMILES IDX 25 1 26 2 27 3 22 5 21 6 19 7 20 8 16 10 15 11 13 12 14 13
REMARK SMILES IDX 2 15 1 16 3 20 4 21 5 22 12 23 6 24 7 25 11 26 8 28 10 29
REMARK SMILES IDX 9 30 17 31 18 32 23 34 24 35 28 37 29 38 30 39 31 40 32 41
REMARK SMILES IDX 33 42 34 44 35 45 36 46 88 47 37 48 87 49 38 50 39 51 40 52
REMARK SMILES IDX 81 53 41 54 86 55 80 56 82 57 42 58 85 59 79 60 78 61 43 63
REMARK SMILES IDX 69 64 52 65 68 66 53 67 56 68 67 69 83 70 54 71 55 72 66 74
REMARK SMILES IDX 84 75 57 76 44 77 45 78 50 79 46 80 47 81 49 82 51 83 48 84
REMARK SMILES IDX 70 85 71 86 76 87 72 88 73 89 75 90 77 91 74 92 58 93 59 94
REMARK SMILES IDX 64 95 60 96 61 97 63 98 65 99 62 100
REMARK H PARENT 27 4 21 9 15 14 1 17 1 18 1 19 6 27 18 33 24 36 32 43 82 62
REMARK H PARENT 56 73
REMARK Flexibility Score: inf
ROOT
ATOM      1  C   UNL A   1      34.645  18.784  24.648  1.00  0.00     0.244 C 
ATOM      2  O   UNL A   1      34.626  17.621  24.229  1.00  0.00    -0.273 OA
ATOM      3  N   UNL A   1      35.857  19.303  24.967  1.00  0.00    -0.354 N 
ATOM      4  H   UNL A   1      36.593  18.650  24.977  1.00  0.00     0.163 HD
ENDROOT
BRANCH   1   5
ATOM      5  C   UNL A   1      33.340  19.587  24.717  1.00  0.00     0.197 C 
BRANCH   5   6
ATOM      6  N   UNL A   1      32.921  20.162  23.447  1.00  0.00    -0.340 N 
ATOM      7  C   UNL A   1      32.464  21.404  23.173  1.00  0.00     0.244 C 
ATOM      8  O   UNL A   1      31.596  21.436  22.288  1.00  0.00    -0.273 OA
ATOM      9  H   UNL A   1      32.980  19.557  22.673  1.00  0.00     0.164 HD
BRANCH   7  10
ATOM     10  C   UNL A   1      32.935  22.708  23.865  1.00  0.00     0.181 C 
BRANCH  10  11
ATOM     11  N   UNL A   1      32.138  22.936  25.057  1.00  0.00    -0.338 N 
ATOM     12  C   UNL A   1      31.038  23.719  25.204  1.00  0.00     0.279 C 
ATOM     13  O   UNL A   1      30.471  23.665  26.303  1.00  0.00    -0.268 OA
ATOM     14  H   UNL A   1      32.434  22.458  25.865  1.00  0.00     0.164 HD
BRANCH  12  15
ATOM     15  C   UNL A   1      30.548  24.738  24.131  1.00  0.00     0.275 C 
BRANCH  15  16
ATOM     16  N   UNL A   1      29.991  24.032  22.961  1.00  0.00    -0.347 N 
ATOM     17  H   UNL A   1      30.380  24.431  22.107  1.00  0.00     0.345 HD
ATOM     18  H   UNL A   1      28.977  24.134  22.952  1.00  0.00     0.345 HD
ATOM     19  H   UNL A   1      30.233  23.042  23.014  1.00  0.00     0.345 HD
ENDBRANCH  15  16
BRANCH  15  20
ATOM     20  C   UNL A   1      29.840  26.037  24.564  1.00  0.00     0.113 C 
BRANCH  20  21
ATOM     21  C   UNL A   1      30.492  27.405  24.638  1.00  0.00    -0.016 A 
ATOM     22  C   UNL A   1      30.359  28.308  23.594  1.00  0.00     0.087 A 
ATOM     23  C   UNL A   1      31.321  28.074  25.620  1.00  0.00     0.003 A 
ATOM     24  N   UNL A   1      31.165  29.383  23.821  1.00  0.00    -0.361 N 
ATOM     25  C   UNL A   1      31.833  29.225  25.008  1.00  0.00     0.046 A 
ATOM     26  C   UNL A   1      31.800  27.785  26.919  1.00  0.00     0.010 A 
ATOM     27  H   UNL A   1      31.256  30.158  23.221  1.00  0.00     0.166 HD
ATOM     28  C   UNL A   1      32.849  30.013  25.567  1.00  0.00     0.026 A 
ATOM     29  C   UNL A   1      32.824  28.554  27.491  1.00  0.00     0.001 A 
ATOM     30  C   UNL A   1      33.358  29.639  26.809  1.00  0.00     0.002 A 
ENDBRANCH  20  21
ENDBRANCH  15  20
ENDBRANCH  12  15
ENDBRANCH  10  11
BRANCH  10  31
ATOM     31  C   UNL A   1      34.407  23.115  23.982  1.00  0.00     0.101 C 
BRANCH  31  32
ATOM     32  S   UNL A   1      34.702  24.792  24.659  1.00  0.00    -0.177 SA
ATOM     33  H   UNL A   1      33.846  25.022  25.690  1.00  0.00     0.102 HD
ENDBRANCH  31  32
ENDBRANCH  10  31
ENDBRANCH   7  10
ENDBRANCH   5   6
BRANCH   5  34
ATOM     34  C   UNL A   1      32.203  18.832  25.420  1.00  0.00     0.191 C 
BRANCH  34  35
ATOM     35  O   UNL A   1      32.652  18.039  26.515  1.00  0.00    -0.394 OA
ATOM     36  H   UNL A   1      32.172  18.293  27.318  1.00  0.00     0.210 HD
ENDBRANCH  34  35
ENDBRANCH   5  34
ENDBRANCH   1   5
BRANCH   3  37
ATOM     37  C   UNL A   1      36.249  20.658  25.293  1.00  0.00     0.116 C 
BRANCH  37  38
ATOM     38  C   UNL A   1      37.708  20.926  24.942  1.00  0.00     0.023 C 
BRANCH  38  39
ATOM     39  C   UNL A   1      38.613  19.696  24.979  1.00  0.00     0.023 C 
BRANCH  39  40
ATOM     40  C   UNL A   1      39.567  19.634  26.164  1.00  0.00     0.116 C 
BRANCH  40  41
ATOM     41  N   UNL A   1      40.854  19.045  25.834  1.00  0.00    -0.352 N 
ATOM     42  C   UNL A   1      42.104  19.615  25.910  1.00  0.00     0.251 C 
ATOM     43  H   UNL A   1      40.829  18.114  25.513  1.00  0.00     0.163 HD
ATOM     44  O   UNL A   1      43.088  19.019  25.510  1.00  0.00    -0.269 OA
BRANCH  42  45
ATOM     45  C   UNL A   1      42.222  20.985  26.449  1.00  0.00     0.039 A 
ATOM     46  C   UNL A   1      42.148  21.167  27.830  1.00  0.00     0.014 A 
ATOM     47  C   UNL A   1      42.451  22.067  25.596  1.00  0.00     0.014 A 
ATOM     48  C   UNL A   1      42.360  22.437  28.364  1.00  0.00     0.010 A 
ATOM     49  C   UNL A   1      42.743  23.314  26.135  1.00  0.00     0.010 A 
ATOM     50  C   UNL A   1      42.687  23.513  27.522  1.00  0.00    -0.014 A 
BRANCH  50  51
ATOM     51  C   UNL A   1      42.939  24.863  28.079  1.00  0.00     0.031 A 
ATOM     52  C   UNL A   1      44.340  25.273  28.440  1.00  0.00     0.074 A 
ATOM     53  C   UNL A   1      41.906  25.700  28.297  1.00  0.00     0.049 A 
ATOM     54  N   UNL A   1      44.764  26.394  28.963  1.00  0.00    -0.248 NA
ATOM     55  C   UNL A   1      45.400  24.279  28.209  1.00  0.00     0.031 C 
ATOM     56  C   UNL A   1      40.497  25.394  28.038  1.00  0.00     0.029 A 
ATOM     57  N   UNL A   1      41.883  26.980  28.787  1.00  0.00    -0.354 N 
ATOM     58  C   UNL A   1      46.133  26.234  29.136  1.00  0.00     0.074 A 
ATOM     59  C   UNL A   1      46.458  24.887  28.722  1.00  0.00     0.031 C 
ATOM     60  C   UNL A   1      39.752  26.470  28.341  1.00  0.00     0.029 A 
ATOM     61  C   UNL A   1      40.624  27.527  28.842  1.00  0.00     0.049 A 
ATOM     62  H   UNL A   1      42.692  27.462  29.073  1.00  0.00     0.167 HD
ATOM     63  C   UNL A   1      47.043  27.138  29.567  1.00  0.00     0.037 A 
ATOM     64  C   UNL A   1      40.224  28.747  29.246  1.00  0.00     0.037 A 
ATOM     65  C   UNL A   1      46.718  28.486  29.949  1.00  0.00     0.049 A 
ATOM     66  C   UNL A   1      41.256  29.739  29.707  1.00  0.00     0.074 A 
ATOM     67  C   UNL A   1      47.570  29.497  30.359  1.00  0.00     0.029 A 
ATOM     68  N   UNL A   1      45.435  29.012  29.964  1.00  0.00    -0.354 N 
ATOM     69  N   UNL A   1      42.556  29.596  29.803  1.00  0.00    -0.248 NA
ATOM     70  C   UNL A   1      40.766  31.066  30.104  1.00  0.00     0.031 C 
ATOM     71  C   UNL A   1      46.797  30.625  30.653  1.00  0.00     0.029 A 
ATOM     72  C   UNL A   1      45.470  30.331  30.383  1.00  0.00     0.049 A 
ATOM     73  H   UNL A   1      44.620  28.521  29.713  1.00  0.00     0.167 HD
ATOM     74  C   UNL A   1      43.042  30.823  30.234  1.00  0.00     0.074 A 
ATOM     75  C   UNL A   1      41.898  31.701  30.370  1.00  0.00     0.031 C 
ATOM     76  C   UNL A   1      44.321  31.192  30.495  1.00  0.00     0.037 A 
BRANCH  63  77
ATOM     77  C   UNL A   1      48.475  26.694  29.637  1.00  0.00     0.057 A 
ATOM     78  C   UNL A   1      49.355  26.874  28.561  1.00  0.00     0.134 A 
ATOM     79  C   UNL A   1      48.987  26.097  30.796  1.00  0.00     0.134 A 
ATOM     80  F   UNL A   1      48.926  27.425  27.415  1.00  0.00    -0.206 F 
ATOM     81  C   UNL A   1      50.684  26.451  28.625  1.00  0.00     0.040 A 
ATOM     82  C   UNL A   1      50.321  25.696  30.882  1.00  0.00     0.040 A 
ATOM     83  F   UNL A   1      48.200  25.898  31.864  1.00  0.00    -0.206 F 
ATOM     84  C   UNL A   1      51.172  25.866  29.791  1.00  0.00     0.006 A 
ENDBRANCH  63  77
BRANCH  64  85
ATOM     85  C   UNL A   1      38.787  29.118  29.190  1.00  0.00     0.057 A 
ATOM     86  C   UNL A   1      38.212  29.602  28.010  1.00  0.00     0.134 A 
ATOM     87  C   UNL A   1      37.960  29.015  30.315  1.00  0.00     0.134 A 
ATOM     88  F   UNL A   1      38.959  29.739  26.903  1.00  0.00    -0.206 F 
ATOM     89  C   UNL A   1      36.874  29.995  27.954  1.00  0.00     0.040 A 
ATOM     90  C   UNL A   1      36.613  29.381  30.266  1.00  0.00     0.040 A 
ATOM     91  F   UNL A   1      38.447  28.549  31.474  1.00  0.00    -0.206 F 
ATOM     92  C   UNL A   1      36.069  29.882  29.085  1.00  0.00     0.006 A 
ENDBRANCH  64  85
BRANCH  76  93
ATOM     93  C   UNL A   1      44.551  32.617  30.902  1.00  0.00     0.057 A 
ATOM     94  C   UNL A   1      44.765  33.632  29.963  1.00  0.00     0.134 A 
ATOM     95  C   UNL A   1      44.530  32.980  32.255  1.00  0.00     0.134 A 
ATOM     96  F   UNL A   1      44.811  33.349  28.652  1.00  0.00    -0.206 F 
ATOM     97  C   UNL A   1      44.980  34.955  30.356  1.00  0.00     0.040 A 
ATOM     98  C   UNL A   1      44.715  34.302  32.659  1.00  0.00     0.040 A 
ATOM     99  F   UNL A   1      44.320  32.057  33.206  1.00  0.00    -0.206 F 
ATOM    100  C   UNL A   1      44.950  35.293  31.707  1.00  0.00     0.006 A 
ENDBRANCH  76  93
ENDBRANCH  50  51
ENDBRANCH  42  45
ENDBRANCH  40  41
ENDBRANCH  39  40
ENDBRANCH  38  39
ENDBRANCH  37  38
ENDBRANCH   3  37
TORSDOF 22
ENDMDL
