MODEL 1
REMARK VINA RESULT:     -11.3      0.000      0.000
REMARK SMILES CCc1cn(C[C@H](NC(=O)c2ccco2)C(=O)NCCCCNC(=O)c2ccc(-c3c4nc(c(-c5c(F)cccc5F)c5ccc([nH]5)c(-c5c(F)cccc5F)c5nc(c(-c6c(F)cccc6F)c6ccc3[nH]6)C=C5)C=C4)cc2)c(=O)[nH]c1=O
REMARK SMILES IDX 20 1 19 2 18 3 16 4 17 5 7 7 6 8 5 9 3 10 4 11 83 12 82 13
REMARK SMILES IDX 84 14 80 15 81 17 2 18 1 19 8 20 9 21 10 23 11 24 12 25
REMARK SMILES IDX 15 26 13 27 14 28 21 29 22 30 23 31 24 32 25 34 26 35 27 36
REMARK SMILES IDX 79 37 28 38 78 39 29 40 30 41 31 42 72 43 32 44 77 45 71 46
REMARK SMILES IDX 73 47 33 48 76 49 70 50 69 51 34 53 60 54 43 55 59 56 44 57
REMARK SMILES IDX 47 58 58 59 74 60 45 61 46 62 57 64 75 65 48 66 35 67 36 68
REMARK SMILES IDX 41 69 37 70 38 71 40 72 42 73 39 74 61 75 62 76 67 77 63 78
REMARK SMILES IDX 64 79 66 80 68 81 65 82 49 83 50 84 55 85 51 86 52 87 54 88
REMARK SMILES IDX 56 89 53 90
REMARK H PARENT 18 6 82 16 8 22 23 33 73 52 47 63
REMARK Flexibility Score: inf
ROOT
ATOM      1  C   UNL A   1      37.015  21.961  24.348  1.00  0.00     0.023 C 
ENDROOT
BRANCH   1   2
ATOM      2  C   UNL A   1      36.597  23.014  25.366  1.00  0.00     0.116 C 
BRANCH   2   3
ATOM      3  N   UNL A   1      35.902  22.477  26.515  1.00  0.00    -0.354 N 
ATOM      4  C   UNL A   1      34.568  22.299  26.718  1.00  0.00     0.244 C 
ATOM      5  O   UNL A   1      34.238  21.573  27.663  1.00  0.00    -0.273 OA
ATOM      6  H   UNL A   1      36.479  22.198  27.261  1.00  0.00     0.163 HD
BRANCH   4   7
ATOM      7  C   UNL A   1      33.504  22.856  25.758  1.00  0.00     0.191 C 
BRANCH   7   8
ATOM      8  C   UNL A   1      32.369  23.581  26.550  1.00  0.00     0.162 C 
BRANCH   8   9
ATOM      9  N   UNL A   1      32.125  25.027  26.336  1.00  0.00    -0.298 N 
ATOM     10  C   UNL A   1      32.981  27.134  25.574  1.00  0.00     0.033 A 
ATOM     11  C   UNL A   1      33.167  25.854  25.934  1.00  0.00     0.100 A 
ATOM     12  C   UNL A   1      31.603  27.684  25.677  1.00  0.00     0.256 A 
ATOM     13  N   UNL A   1      30.635  26.806  26.054  1.00  0.00    -0.274 N 
ATOM     14  O   UNL A   1      31.345  28.856  25.428  1.00  0.00    -0.269 OA
ATOM     15  C   UNL A   1      30.815  25.488  26.336  1.00  0.00     0.328 A 
ATOM     16  H   UNL A   1      29.719  27.158  26.130  1.00  0.00     0.175 HD
ATOM     17  O   UNL A   1      29.846  24.783  26.604  1.00  0.00    -0.248 OA
BRANCH  10  18
ATOM     18  C   UNL A   1      33.998  28.108  25.028  1.00  0.00     0.039 C 
ATOM     19  C   UNL A   1      34.021  28.315  23.521  1.00  0.00     0.009 C 
ENDBRANCH  10  18
ENDBRANCH   8   9
ENDBRANCH   7   8
BRANCH   7  20
ATOM     20  N   UNL A   1      33.087  21.887  24.750  1.00  0.00    -0.336 N 
ATOM     21  C   UNL A   1      32.530  22.094  23.510  1.00  0.00     0.287 C 
ATOM     22  H   UNL A   1      33.226  20.943  24.993  1.00  0.00     0.164 HD
ATOM     23  O   UNL A   1      32.135  21.101  22.901  1.00  0.00    -0.266 OA
BRANCH  21  24
ATOM     24  C   UNL A   1      32.403  23.436  22.993  1.00  0.00     0.191 A 
ATOM     25  C   UNL A   1      33.235  24.251  22.246  1.00  0.00     0.056 A 
ATOM     26  O   UNL A   1      31.214  24.084  23.204  1.00  0.00    -0.459 OA
ATOM     27  C   UNL A   1      32.521  25.453  22.006  1.00  0.00     0.043 A 
ATOM     28  C   UNL A   1      31.301  25.302  22.615  1.00  0.00     0.196 A 
ENDBRANCH  21  24
ENDBRANCH   7  20
ENDBRANCH   4   7
ENDBRANCH   2   3
ENDBRANCH   1   2
BRANCH   1  29
ATOM     29  C   UNL A   1      37.633  20.689  24.925  1.00  0.00     0.023 C 
BRANCH  29  30
ATOM     30  C   UNL A   1      38.915  20.867  25.728  1.00  0.00     0.116 C 
BRANCH  30  31
ATOM     31  N   UNL A   1      39.841  19.747  25.636  1.00  0.00    -0.352 N 
ATOM     32  C   UNL A   1      41.163  19.687  26.020  1.00  0.00     0.251 C 
ATOM     33  H   UNL A   1      39.472  18.921  25.249  1.00  0.00     0.163 HD
ATOM     34  O   UNL A   1      41.818  18.668  25.833  1.00  0.00    -0.269 OA
BRANCH  32  35
ATOM     35  C   UNL A   1      41.802  20.886  26.603  1.00  0.00     0.039 A 
ATOM     36  C   UNL A   1      41.824  21.080  27.985  1.00  0.00     0.014 A 
ATOM     37  C   UNL A   1      42.306  21.867  25.745  1.00  0.00     0.014 A 
ATOM     38  C   UNL A   1      42.161  22.329  28.494  1.00  0.00     0.010 A 
ATOM     39  C   UNL A   1      42.728  23.093  26.269  1.00  0.00     0.010 A 
ATOM     40  C   UNL A   1      42.593  23.358  27.640  1.00  0.00    -0.014 A 
BRANCH  40  41
ATOM     41  C   UNL A   1      42.853  24.711  28.201  1.00  0.00     0.031 A 
ATOM     42  C   UNL A   1      44.259  25.155  28.517  1.00  0.00     0.074 A 
ATOM     43  C   UNL A   1      41.826  25.568  28.362  1.00  0.00     0.049 A 
ATOM     44  N   UNL A   1      44.676  26.308  28.979  1.00  0.00    -0.248 NA
ATOM     45  C   UNL A   1      45.337  24.180  28.290  1.00  0.00     0.031 C 
ATOM     46  C   UNL A   1      40.421  25.266  28.081  1.00  0.00     0.029 A 
ATOM     47  N   UNL A   1      41.809  26.876  28.775  1.00  0.00    -0.354 N 
ATOM     48  C   UNL A   1      46.053  26.187  29.125  1.00  0.00     0.074 A 
ATOM     49  C   UNL A   1      46.402  24.842  28.721  1.00  0.00     0.031 C 
ATOM     50  C   UNL A   1      39.687  26.371  28.276  1.00  0.00     0.029 A 
ATOM     51  C   UNL A   1      40.558  27.441  28.752  1.00  0.00     0.049 A 
ATOM     52  H   UNL A   1      42.616  27.362  29.060  1.00  0.00     0.167 HD
ATOM     53  C   UNL A   1      46.948  27.114  29.544  1.00  0.00     0.037 A 
ATOM     54  C   UNL A   1      40.154  28.680  29.088  1.00  0.00     0.037 A 
ATOM     55  C   UNL A   1      46.611  28.466  29.909  1.00  0.00     0.049 A 
ATOM     56  C   UNL A   1      41.166  29.673  29.585  1.00  0.00     0.074 A 
ATOM     57  C   UNL A   1      47.456  29.491  30.300  1.00  0.00     0.029 A 
ATOM     58  N   UNL A   1      45.324  28.980  29.928  1.00  0.00    -0.354 N 
ATOM     59  N   UNL A   1      42.465  29.548  29.690  1.00  0.00    -0.248 NA
ATOM     60  C   UNL A   1      40.645  30.976  30.022  1.00  0.00     0.031 C 
ATOM     61  C   UNL A   1      46.676  30.615  30.594  1.00  0.00     0.029 A 
ATOM     62  C   UNL A   1      45.350  30.300  30.348  1.00  0.00     0.049 A 
ATOM     63  H   UNL A   1      44.513  28.482  29.681  1.00  0.00     0.167 HD
ATOM     64  C   UNL A   1      42.921  30.762  30.187  1.00  0.00     0.074 A 
ATOM     65  C   UNL A   1      41.761  31.615  30.342  1.00  0.00     0.031 C 
ATOM     66  C   UNL A   1      44.187  31.136  30.494  1.00  0.00     0.037 A 
BRANCH  53  67
ATOM     67  C   UNL A   1      48.386  26.695  29.650  1.00  0.00     0.057 A 
ATOM     68  C   UNL A   1      49.259  26.878  28.570  1.00  0.00     0.134 A 
ATOM     69  C   UNL A   1      48.895  26.071  30.796  1.00  0.00     0.134 A 
ATOM     70  F   UNL A   1      48.834  27.463  27.441  1.00  0.00    -0.206 F 
ATOM     71  C   UNL A   1      50.588  26.452  28.626  1.00  0.00     0.040 A 
ATOM     72  C   UNL A   1      50.228  25.661  30.870  1.00  0.00     0.040 A 
ATOM     73  F   UNL A   1      48.114  25.877  31.868  1.00  0.00    -0.206 F 
ATOM     74  C   UNL A   1      51.077  25.845  29.780  1.00  0.00     0.006 A 
ENDBRANCH  53  67
BRANCH  54  75
ATOM     75  C   UNL A   1      38.724  29.056  28.976  1.00  0.00     0.057 A 
ATOM     76  C   UNL A   1      37.865  28.996  30.080  1.00  0.00     0.134 A 
ATOM     77  C   UNL A   1      38.192  29.519  27.767  1.00  0.00     0.134 A 
ATOM     78  F   UNL A   1      38.316  28.559  31.265  1.00  0.00    -0.206 F 
ATOM     79  C   UNL A   1      36.527  29.377  29.985  1.00  0.00     0.040 A 
ATOM     80  C   UNL A   1      36.862  29.928  27.664  1.00  0.00     0.040 A 
ATOM     81  F   UNL A   1      38.972  29.618  26.681  1.00  0.00    -0.206 F 
ATOM     82  C   UNL A   1      36.025  29.855  28.776  1.00  0.00     0.006 A 
ENDBRANCH  54  75
BRANCH  66  83
ATOM     83  C   UNL A   1      44.375  32.535  30.996  1.00  0.00     0.057 A 
ATOM     84  C   UNL A   1      44.347  32.812  32.369  1.00  0.00     0.134 A 
ATOM     85  C   UNL A   1      44.584  33.610  30.122  1.00  0.00     0.134 A 
ATOM     86  F   UNL A   1      44.146  31.828  33.259  1.00  0.00    -0.206 F 
ATOM     87  C   UNL A   1      44.525  34.107  32.855  1.00  0.00     0.040 A 
ATOM     88  C   UNL A   1      44.787  34.906  30.598  1.00  0.00     0.040 A 
ATOM     89  F   UNL A   1      44.639  33.407  28.798  1.00  0.00    -0.206 F 
ATOM     90  C   UNL A   1      44.754  35.158  31.968  1.00  0.00     0.006 A 
ENDBRANCH  66  83
ENDBRANCH  40  41
ENDBRANCH  32  35
ENDBRANCH  30  31
ENDBRANCH  29  30
ENDBRANCH   1  29
TORSDOF 16
ENDMDL
MODEL 2
REMARK VINA RESULT:     -11.2      4.437      9.261
REMARK SMILES CCc1cn(C[C@H](NC(=O)c2ccco2)C(=O)NCCCCNC(=O)c2ccc(-c3c4nc(c(-c5c(F)cccc5F)c5ccc([nH]5)c(-c5c(F)cccc5F)c5nc(c(-c6c(F)cccc6F)c6ccc3[nH]6)C=C5)C=C4)cc2)c(=O)[nH]c1=O
REMARK SMILES IDX 20 1 19 2 18 3 16 4 17 5 7 7 6 8 5 9 3 10 4 11 83 12 82 13
REMARK SMILES IDX 84 14 80 15 81 17 2 18 1 19 8 20 9 21 10 23 11 24 12 25
REMARK SMILES IDX 15 26 13 27 14 28 21 29 22 30 23 31 24 32 25 34 26 35 27 36
REMARK SMILES IDX 79 37 28 38 78 39 29 40 30 41 31 42 72 43 32 44 77 45 71 46
REMARK SMILES IDX 73 47 33 48 76 49 70 50 69 51 34 53 60 54 43 55 59 56 44 57
REMARK SMILES IDX 47 58 58 59 74 60 45 61 46 62 57 64 75 65 48 66 35 67 36 68
REMARK SMILES IDX 41 69 37 70 38 71 40 72 42 73 39 74 61 75 62 76 67 77 63 78
REMARK SMILES IDX 64 79 66 80 68 81 65 82 49 83 50 84 55 85 51 86 52 87 54 88
REMARK SMILES IDX 56 89 53 90
REMARK H PARENT 18 6 82 16 8 22 23 33 73 52 47 63
REMARK Flexibility Score: inf
ROOT
ATOM      1  C   UNL A   1      32.179  30.268  26.707  1.00  0.00     0.023 C 
ENDROOT
BRANCH   1   2
ATOM      2  C   UNL A   1      31.891  29.660  25.341  1.00  0.00     0.116 C 
BRANCH   2   3
ATOM      3  N   UNL A   1      33.038  29.618  24.462  1.00  0.00    -0.354 N 
ATOM      4  C   UNL A   1      33.437  28.643  23.600  1.00  0.00     0.244 C 
ATOM      5  O   UNL A   1      34.291  28.953  22.762  1.00  0.00    -0.273 OA
ATOM      6  H   UNL A   1      33.617  30.413  24.491  1.00  0.00     0.163 HD
BRANCH   4   7
ATOM      7  C   UNL A   1      32.780  27.254  23.562  1.00  0.00     0.191 C 
BRANCH   7   8
ATOM      8  C   UNL A   1      31.660  27.201  22.474  1.00  0.00     0.162 C 
BRANCH   8   9
ATOM      9  N   UNL A   1      30.308  27.729  22.777  1.00  0.00    -0.298 N 
ATOM     10  C   UNL A   1      28.658  29.423  22.376  1.00  0.00     0.033 A 
ATOM     11  C   UNL A   1      29.915  28.962  22.271  1.00  0.00     0.100 A 
ATOM     12  C   UNL A   1      27.680  28.590  23.126  1.00  0.00     0.256 A 
ATOM     13  N   UNL A   1      28.135  27.387  23.569  1.00  0.00    -0.274 N 
ATOM     14  O   UNL A   1      26.528  28.954  23.326  1.00  0.00    -0.269 OA
ATOM     15  C   UNL A   1      29.386  26.887  23.384  1.00  0.00     0.328 A 
ATOM     16  H   UNL A   1      27.499  26.827  24.069  1.00  0.00     0.175 HD
ATOM     17  O   UNL A   1      29.655  25.756  23.780  1.00  0.00    -0.248 OA
BRANCH  10  18
ATOM     18  C   UNL A   1      28.076  30.688  21.792  1.00  0.00     0.039 C 
ATOM     19  C   UNL A   1      28.766  31.997  22.144  1.00  0.00     0.009 C 
ENDBRANCH  10  18
ENDBRANCH   8   9
ENDBRANCH   7   8
BRANCH   7  20
ATOM     20  N   UNL A   1      32.432  26.755  24.889  1.00  0.00    -0.336 N 
ATOM     21  C   UNL A   1      32.646  25.516  25.444  1.00  0.00     0.287 C 
ATOM     22  H   UNL A   1      31.975  27.402  25.473  1.00  0.00     0.164 HD
ATOM     23  O   UNL A   1      32.130  25.297  26.539  1.00  0.00    -0.266 OA
BRANCH  21  24
ATOM     24  C   UNL A   1      33.423  24.530  24.730  1.00  0.00     0.191 A 
ATOM     25  C   UNL A   1      34.779  24.351  24.528  1.00  0.00     0.056 A 
ATOM     26  O   UNL A   1      32.742  23.495  24.143  1.00  0.00    -0.459 OA
ATOM     27  C   UNL A   1      34.926  23.158  23.774  1.00  0.00     0.043 A 
ATOM     28  C   UNL A   1      33.657  22.681  23.561  1.00  0.00     0.196 A 
ENDBRANCH  21  24
ENDBRANCH   7  20
ENDBRANCH   4   7
ENDBRANCH   2   3
ENDBRANCH   1   2
BRANCH   1  29
ATOM     29  C   UNL A   1      31.789  31.734  26.876  1.00  0.00     0.023 C 
BRANCH  29  30
ATOM     30  C   UNL A   1      32.885  32.672  27.366  1.00  0.00     0.116 C 
BRANCH  30  31
ATOM     31  N   UNL A   1      32.429  34.019  27.676  1.00  0.00    -0.352 N 
ATOM     32  C   UNL A   1      32.974  34.934  28.549  1.00  0.00     0.251 C 
ATOM     33  H   UNL A   1      31.623  34.316  27.197  1.00  0.00     0.163 HD
ATOM     34  O   UNL A   1      32.437  36.022  28.725  1.00  0.00    -0.269 OA
BRANCH  32  35
ATOM     35  C   UNL A   1      34.182  34.569  29.320  1.00  0.00     0.039 A 
ATOM     36  C   UNL A   1      35.451  34.684  28.751  1.00  0.00     0.014 A 
ATOM     37  C   UNL A   1      34.028  34.022  30.597  1.00  0.00     0.014 A 
ATOM     38  C   UNL A   1      36.535  34.071  29.370  1.00  0.00     0.010 A 
ATOM     39  C   UNL A   1      35.137  33.484  31.257  1.00  0.00     0.010 A 
ATOM     40  C   UNL A   1      36.386  33.443  30.618  1.00  0.00    -0.014 A 
BRANCH  40  41
ATOM     41  C   UNL A   1      37.539  32.712  31.210  1.00  0.00     0.031 A 
ATOM     42  C   UNL A   1      38.041  33.056  32.590  1.00  0.00     0.074 A 
ATOM     43  C   UNL A   1      38.093  31.690  30.530  1.00  0.00     0.049 A 
ATOM     44  N   UNL A   1      39.010  32.504  33.277  1.00  0.00    -0.248 NA
ATOM     45  C   UNL A   1      37.371  34.164  33.290  1.00  0.00     0.031 C 
ATOM     46  C   UNL A   1      37.692  31.248  29.193  1.00  0.00     0.029 A 
ATOM     47  N   UNL A   1      39.093  30.820  30.882  1.00  0.00    -0.354 N 
ATOM     48  C   UNL A   1      39.086  33.213  34.470  1.00  0.00     0.074 A 
ATOM     49  C   UNL A   1      38.077  34.248  34.409  1.00  0.00     0.031 C 
ATOM     50  C   UNL A   1      38.399  30.158  28.860  1.00  0.00     0.029 A 
ATOM     51  C   UNL A   1      39.342  29.860  29.932  1.00  0.00     0.049 A 
ATOM     52  H   UNL A   1      39.585  30.878  31.733  1.00  0.00     0.167 HD
ATOM     53  C   UNL A   1      39.911  33.013  35.527  1.00  0.00     0.037 A 
ATOM     54  C   UNL A   1      40.239  28.856  29.920  1.00  0.00     0.037 A 
ATOM     55  C   UNL A   1      40.889  31.959  35.610  1.00  0.00     0.049 A 
ATOM     56  C   UNL A   1      41.165  28.684  31.091  1.00  0.00     0.074 A 
ATOM     57  C   UNL A   1      41.736  31.648  36.659  1.00  0.00     0.029 A 
ATOM     58  N   UNL A   1      41.150  31.044  34.601  1.00  0.00    -0.354 N 
ATOM     59  N   UNL A   1      41.204  29.347  32.220  1.00  0.00    -0.248 NA
ATOM     60  C   UNL A   1      42.181  27.629  30.974  1.00  0.00     0.031 C 
ATOM     61  C   UNL A   1      42.538  30.568  36.271  1.00  0.00     0.029 A 
ATOM     62  C   UNL A   1      42.162  30.184  34.995  1.00  0.00     0.049 A 
ATOM     63  H   UNL A   1      40.685  31.011  33.735  1.00  0.00     0.167 HD
ATOM     64  C   UNL A   1      42.233  28.778  32.957  1.00  0.00     0.074 A 
ATOM     65  C   UNL A   1      42.779  27.703  32.154  1.00  0.00     0.031 C 
ATOM     66  C   UNL A   1      42.691  29.118  34.185  1.00  0.00     0.037 A 
BRANCH  53  67
ATOM     67  C   UNL A   1      39.806  33.966  36.682  1.00  0.00     0.057 A 
ATOM     68  C   UNL A   1      39.010  33.654  37.790  1.00  0.00     0.134 A 
ATOM     69  C   UNL A   1      40.452  35.210  36.679  1.00  0.00     0.134 A 
ATOM     70  F   UNL A   1      38.358  32.483  37.854  1.00  0.00    -0.206 F 
ATOM     71  C   UNL A   1      38.857  34.545  38.854  1.00  0.00     0.040 A 
ATOM     72  C   UNL A   1      40.324  36.100  37.747  1.00  0.00     0.040 A 
ATOM     73  F   UNL A   1      41.238  35.564  35.652  1.00  0.00    -0.206 F 
ATOM     74  C   UNL A   1      39.518  35.771  38.836  1.00  0.00     0.006 A 
ENDBRANCH  53  67
BRANCH  54  75
ATOM     75  C   UNL A   1      40.318  27.937  28.759  1.00  0.00     0.057 A 
ATOM     76  C   UNL A   1      39.628  26.718  28.746  1.00  0.00     0.134 A 
ATOM     77  C   UNL A   1      41.058  28.273  27.621  1.00  0.00     0.134 A 
ATOM     78  F   UNL A   1      38.903  26.338  29.808  1.00  0.00    -0.206 F 
ATOM     79  C   UNL A   1      39.677  25.865  27.643  1.00  0.00     0.040 A 
ATOM     80  C   UNL A   1      41.094  27.442  26.501  1.00  0.00     0.040 A 
ATOM     81  F   UNL A   1      41.722  29.438  27.568  1.00  0.00    -0.206 F 
ATOM     82  C   UNL A   1      40.404  26.231  26.513  1.00  0.00     0.006 A 
ENDBRANCH  54  75
BRANCH  66  83
ATOM     83  C   UNL A   1      43.816  28.296  34.739  1.00  0.00     0.057 A 
ATOM     84  C   UNL A   1      43.556  27.123  35.460  1.00  0.00     0.134 A 
ATOM     85  C   UNL A   1      45.156  28.663  34.558  1.00  0.00     0.134 A 
ATOM     86  F   UNL A   1      42.295  26.718  35.672  1.00  0.00    -0.206 F 
ATOM     87  C   UNL A   1      44.590  26.343  35.978  1.00  0.00     0.040 A 
ATOM     88  C   UNL A   1      46.198  27.878  35.051  1.00  0.00     0.040 A 
ATOM     89  F   UNL A   1      45.469  29.766  33.861  1.00  0.00    -0.206 F 
ATOM     90  C   UNL A   1      45.917  26.716  35.767  1.00  0.00     0.006 A 
ENDBRANCH  66  83
ENDBRANCH  40  41
ENDBRANCH  32  35
ENDBRANCH  30  31
ENDBRANCH  29  30
ENDBRANCH   1  29
TORSDOF 16
ENDMDL
MODEL 3
REMARK VINA RESULT:     -11.2      1.368      2.224
REMARK SMILES CCc1cn(C[C@H](NC(=O)c2ccco2)C(=O)NCCCCNC(=O)c2ccc(-c3c4nc(c(-c5c(F)cccc5F)c5ccc([nH]5)c(-c5c(F)cccc5F)c5nc(c(-c6c(F)cccc6F)c6ccc3[nH]6)C=C5)C=C4)cc2)c(=O)[nH]c1=O
REMARK SMILES IDX 20 1 19 2 18 3 16 4 17 5 7 7 6 8 5 9 3 10 4 11 83 12 82 13
REMARK SMILES IDX 84 14 80 15 81 17 2 18 1 19 8 20 9 21 10 23 11 24 12 25
REMARK SMILES IDX 15 26 13 27 14 28 21 29 22 30 23 31 24 32 25 34 26 35 27 36
REMARK SMILES IDX 79 37 28 38 78 39 29 40 30 41 31 42 72 43 32 44 77 45 71 46
REMARK SMILES IDX 73 47 33 48 76 49 70 50 69 51 34 53 60 54 43 55 59 56 44 57
REMARK SMILES IDX 47 58 58 59 74 60 45 61 46 62 57 64 75 65 48 66 35 67 36 68
REMARK SMILES IDX 41 69 37 70 38 71 40 72 42 73 39 74 61 75 62 76 67 77 63 78
REMARK SMILES IDX 64 79 66 80 68 81 65 82 49 83 50 84 55 85 51 86 52 87 54 88
REMARK SMILES IDX 56 89 53 90
REMARK H PARENT 18 6 82 16 8 22 23 33 73 52 47 63
REMARK Flexibility Score: inf
ROOT
ATOM      1  C   UNL A   1      37.263  21.706  24.352  1.00  0.00     0.023 C 
ENDROOT
BRANCH   1   2
ATOM      2  C   UNL A   1      36.741  22.767  25.312  1.00  0.00     0.116 C 
BRANCH   2   3
ATOM      3  N   UNL A   1      35.998  22.232  26.432  1.00  0.00    -0.354 N 
ATOM      4  C   UNL A   1      34.653  22.140  26.616  1.00  0.00     0.244 C 
ATOM      5  O   UNL A   1      34.263  21.400  27.526  1.00  0.00    -0.273 OA
ATOM      6  H   UNL A   1      36.546  21.882  27.170  1.00  0.00     0.163 HD
BRANCH   4   7
ATOM      7  C   UNL A   1      33.641  22.810  25.671  1.00  0.00     0.191 C 
BRANCH   7   8
ATOM      8  C   UNL A   1      32.434  23.391  26.476  1.00  0.00     0.162 C 
BRANCH   8   9
ATOM      9  N   UNL A   1      32.145  24.844  26.428  1.00  0.00    -0.298 N 
ATOM     10  C   UNL A   1      32.942  27.053  25.941  1.00  0.00     0.033 A 
ATOM     11  C   UNL A   1      33.165  25.746  26.152  1.00  0.00     0.100 A 
ATOM     12  C   UNL A   1      31.543  27.542  26.076  1.00  0.00     0.256 A 
ATOM     13  N   UNL A   1      30.599  26.595  26.323  1.00  0.00    -0.274 N 
ATOM     14  O   UNL A   1      31.250  28.726  25.960  1.00  0.00    -0.269 OA
ATOM     15  C   UNL A   1      30.820  25.259  26.451  1.00  0.00     0.328 A 
ATOM     16  H   UNL A   1      29.671  26.905  26.418  1.00  0.00     0.175 HD
ATOM     17  O   UNL A   1      29.870  24.496  26.611  1.00  0.00    -0.248 OA
BRANCH  10  18
ATOM     18  C   UNL A   1      33.935  28.117  25.539  1.00  0.00     0.039 C 
ATOM     19  C   UNL A   1      34.549  28.950  26.653  1.00  0.00     0.009 C 
ENDBRANCH  10  18
ENDBRANCH   8   9
ENDBRANCH   7   8
BRANCH   7  20
ATOM     20  N   UNL A   1      33.322  21.989  24.508  1.00  0.00    -0.336 N 
ATOM     21  C   UNL A   1      32.845  22.364  23.273  1.00  0.00     0.287 C 
ATOM     22  H   UNL A   1      33.470  21.023  24.623  1.00  0.00     0.164 HD
ATOM     23  O   UNL A   1      32.521  21.462  22.502  1.00  0.00    -0.266 OA
BRANCH  21  24
ATOM     24  C   UNL A   1      32.716  23.764  22.946  1.00  0.00     0.191 A 
ATOM     25  C   UNL A   1      31.644  24.636  22.903  1.00  0.00     0.056 A 
ATOM     26  O   UNL A   1      33.865  24.452  22.652  1.00  0.00    -0.459 OA
ATOM     27  C   UNL A   1      32.165  25.909  22.556  1.00  0.00     0.043 A 
ATOM     28  C   UNL A   1      33.519  25.740  22.409  1.00  0.00     0.196 A 
ENDBRANCH  21  24
ENDBRANCH   7  20
ENDBRANCH   4   7
ENDBRANCH   2   3
ENDBRANCH   1   2
BRANCH   1  29
ATOM     29  C   UNL A   1      37.812  20.437  24.999  1.00  0.00     0.023 C 
BRANCH  29  30
ATOM     30  C   UNL A   1      39.114  20.586  25.775  1.00  0.00     0.116 C 
BRANCH  30  31
ATOM     31  N   UNL A   1      39.959  19.401  25.762  1.00  0.00    -0.352 N 
ATOM     32  C   UNL A   1      41.296  19.292  26.076  1.00  0.00     0.251 C 
ATOM     33  H   UNL A   1      39.516  18.565  25.494  1.00  0.00     0.163 HD
ATOM     34  O   UNL A   1      41.873  18.215  25.972  1.00  0.00    -0.269 OA
BRANCH  32  35
ATOM     35  C   UNL A   1      42.046  20.501  26.481  1.00  0.00     0.039 A 
ATOM     36  C   UNL A   1      42.130  20.869  27.824  1.00  0.00     0.014 A 
ATOM     37  C   UNL A   1      42.594  21.319  25.489  1.00  0.00     0.014 A 
ATOM     38  C   UNL A   1      42.579  22.143  28.156  1.00  0.00     0.010 A 
ATOM     39  C   UNL A   1      43.126  22.564  25.837  1.00  0.00     0.010 A 
ATOM     40  C   UNL A   1      43.060  23.014  27.164  1.00  0.00    -0.014 A 
BRANCH  40  41
ATOM     41  C   UNL A   1      43.441  24.403  27.535  1.00  0.00     0.031 A 
ATOM     42  C   UNL A   1      44.865  24.876  27.381  1.00  0.00     0.074 A 
ATOM     43  C   UNL A   1      42.490  25.263  27.947  1.00  0.00     0.049 A 
ATOM     44  N   UNL A   1      45.372  26.060  27.623  1.00  0.00    -0.248 NA
ATOM     45  C   UNL A   1      45.849  23.894  26.897  1.00  0.00     0.031 C 
ATOM     46  C   UNL A   1      41.074  24.934  28.125  1.00  0.00     0.029 A 
ATOM     47  N   UNL A   1      42.565  26.595  28.264  1.00  0.00    -0.354 N 
ATOM     48  C   UNL A   1      46.732  25.957  27.350  1.00  0.00     0.074 A 
ATOM     49  C   UNL A   1      46.977  24.590  26.942  1.00  0.00     0.031 C 
ATOM     50  C   UNL A   1      40.405  26.046  28.466  1.00  0.00     0.029 A 
ATOM     51  C   UNL A   1      41.352  27.150  28.588  1.00  0.00     0.049 A 
ATOM     52  H   UNL A   1      43.407  27.104  28.260  1.00  0.00     0.167 HD
ATOM     53  C   UNL A   1      47.687  26.915  27.419  1.00  0.00     0.037 A 
ATOM     54  C   UNL A   1      41.036  28.406  28.954  1.00  0.00     0.037 A 
ATOM     55  C   UNL A   1      47.442  28.286  27.786  1.00  0.00     0.049 A 
ATOM     56  C   UNL A   1      42.124  29.436  29.058  1.00  0.00     0.074 A 
ATOM     57  C   UNL A   1      48.339  29.340  27.837  1.00  0.00     0.029 A 
ATOM     58  N   UNL A   1      46.208  28.793  28.163  1.00  0.00    -0.354 N 
ATOM     59  N   UNL A   1      43.398  29.327  28.771  1.00  0.00    -0.248 NA
ATOM     60  C   UNL A   1      41.727  30.762  29.552  1.00  0.00     0.031 C 
ATOM     61  C   UNL A   1      47.655  30.476  28.284  1.00  0.00     0.029 A 
ATOM     62  C   UNL A   1      46.325  30.138  28.474  1.00  0.00     0.049 A 
ATOM     63  H   UNL A   1      45.373  28.274  28.205  1.00  0.00     0.167 HD
ATOM     64  C   UNL A   1      43.951  30.573  29.030  1.00  0.00     0.074 A 
ATOM     65  C   UNL A   1      42.870  31.427  29.478  1.00  0.00     0.031 C 
ATOM     66  C   UNL A   1      45.240  30.974  28.914  1.00  0.00     0.037 A 
BRANCH  53  67
ATOM     67  C   UNL A   1      49.100  26.513  27.108  1.00  0.00     0.057 A 
ATOM     68  C   UNL A   1      49.920  25.972  28.106  1.00  0.00     0.134 A 
ATOM     69  C   UNL A   1      49.664  26.704  25.840  1.00  0.00     0.134 A 
ATOM     70  F   UNL A   1      49.445  25.770  29.344  1.00  0.00    -0.206 F 
ATOM     71  C   UNL A   1      51.252  25.637  27.854  1.00  0.00     0.040 A 
ATOM     72  C   UNL A   1      50.988  26.352  25.571  1.00  0.00     0.040 A 
ATOM     73  F   UNL A   1      48.928  27.208  24.838  1.00  0.00    -0.206 F 
ATOM     74  C   UNL A   1      51.789  25.823  26.582  1.00  0.00     0.006 A 
ENDBRANCH  53  67
BRANCH  54  75
ATOM     75  C   UNL A   1      39.630  28.765  29.259  1.00  0.00     0.057 A 
ATOM     76  C   UNL A   1      38.768  29.248  28.267  1.00  0.00     0.134 A 
ATOM     77  C   UNL A   1      39.106  28.601  30.546  1.00  0.00     0.134 A 
ATOM     78  F   UNL A   1      39.212  29.430  27.014  1.00  0.00    -0.206 F 
ATOM     79  C   UNL A   1      37.437  29.559  28.545  1.00  0.00     0.040 A 
ATOM     80  C   UNL A   1      37.770  28.883  30.832  1.00  0.00     0.040 A 
ATOM     81  F   UNL A   1      39.879  28.122  31.533  1.00  0.00    -0.206 F 
ATOM     82  C   UNL A   1      36.932  29.367  29.829  1.00  0.00     0.006 A 
ENDBRANCH  54  75
BRANCH  66  83
ATOM     83  C   UNL A   1      45.535  32.405  29.248  1.00  0.00     0.057 A 
ATOM     84  C   UNL A   1      45.429  33.404  28.272  1.00  0.00     0.134 A 
ATOM     85  C   UNL A   1      45.923  32.796  30.537  1.00  0.00     0.134 A 
ATOM     86  F   UNL A   1      45.067  33.096  27.018  1.00  0.00    -0.206 F 
ATOM     87  C   UNL A   1      45.696  34.741  28.567  1.00  0.00     0.040 A 
ATOM     88  C   UNL A   1      46.168  34.133  30.849  1.00  0.00     0.040 A 
ATOM     89  F   UNL A   1      46.024  31.888  31.519  1.00  0.00    -0.206 F 
ATOM     90  C   UNL A   1      46.058  35.110  29.861  1.00  0.00     0.006 A 
ENDBRANCH  66  83
ENDBRANCH  40  41
ENDBRANCH  32  35
ENDBRANCH  30  31
ENDBRANCH  29  30
ENDBRANCH   1  29
TORSDOF 16
ENDMDL
