MODEL 1
REMARK VINA RESULT:     -12.9      0.000      0.000
REMARK SMILES Cc1ccn2c([C@@H]3CCCC[C@@H]3C(=O)NCCCCNC(=O)c3ccc(-c4c5nc(c(-c6c(F)cccc6F)c6ccc([nH]6)c(-c6c(F)cccc6F)c6nc(c(-c7c(F)cccc7F)c7ccc4[nH]7)C=C6)C=C5)cc3)nnc2c1
REMARK SMILES IDX 18 1 17 2 16 3 15 4 13 5 14 6 12 8 7 9 8 10 9 11 11 12 10 13
REMARK SMILES IDX 6 14 1 15 2 16 3 17 80 18 4 19 79 20 5 21 78 22 77 23 19 24
REMARK SMILES IDX 20 25 21 26 22 28 23 29 24 30 76 31 25 32 75 33 26 34 27 35
REMARK SMILES IDX 28 36 69 37 29 38 74 39 68 40 70 41 30 42 73 43 67 44 66 45
REMARK SMILES IDX 31 47 57 48 40 49 56 50 41 51 44 52 55 53 71 54 42 55 43 56
REMARK SMILES IDX 54 58 72 59 45 60 32 61 33 62 38 63 34 64 35 65 37 66 39 67
REMARK SMILES IDX 36 68 58 69 59 70 64 71 60 72 61 73 63 74 65 75 62 76 46 77
REMARK SMILES IDX 47 78 52 79 48 80 49 81 51 82 53 83 50 84
REMARK H PARENT 15 7 20 27 70 46 44 57
REMARK Flexibility Score: inf
ROOT
ATOM      1  C   UNL A   1      33.400  28.291  26.937  1.00  0.00     0.023 C 
ENDROOT
BRANCH   1   2
ATOM      2  C   UNL A   1      33.187  27.414  25.704  1.00  0.00     0.023 C 
BRANCH   2   3
ATOM      3  C   UNL A   1      33.989  26.118  25.687  1.00  0.00     0.116 C 
BRANCH   3   4
ATOM      4  N   UNL A   1      33.245  25.019  26.268  1.00  0.00    -0.356 N 
ATOM      5  C   UNL A   1      32.939  23.774  25.844  1.00  0.00     0.223 C 
ATOM      6  O   UNL A   1      31.939  23.295  26.397  1.00  0.00    -0.275 OA
ATOM      7  H   UNL A   1      32.886  25.224  27.162  1.00  0.00     0.163 HD
BRANCH   5   8
ATOM      8  C   UNL A   1      33.715  22.915  24.831  1.00  0.00     0.089 C 
ATOM      9  C   UNL A   1      33.171  22.990  23.375  1.00  0.00     0.071 C 
ATOM     10  C   UNL A   1      32.017  22.024  23.080  1.00  0.00     0.012 C 
ATOM     11  C   UNL A   1      32.386  20.587  23.448  1.00  0.00     0.001 C 
ATOM     12  C   UNL A   1      34.031  21.451  25.157  1.00  0.00     0.014 C 
ATOM     13  C   UNL A   1      32.860  20.500  24.892  1.00  0.00     0.001 C 
BRANCH   9  14
ATOM     14  C   UNL A   1      32.973  24.364  22.799  1.00  0.00     0.141 A 
ATOM     15  C   UNL A   1      29.185  28.488  23.052  1.00  0.00     0.044 C 
ATOM     16  C   UNL A   1      30.153  27.348  22.949  1.00  0.00    -0.046 A 
ATOM     17  C   UNL A   1      29.810  26.114  23.651  1.00  0.00     0.022 A 
ATOM     18  C   UNL A   1      31.317  27.448  22.271  1.00  0.00     0.053 A 
ATOM     19  C   UNL A   1      30.676  25.087  23.641  1.00  0.00     0.095 A 
ATOM     20  C   UNL A   1      32.222  26.353  22.243  1.00  0.00     0.161 A 
ATOM     21  N   UNL A   1      31.886  25.209  22.955  1.00  0.00    -0.286 N 
ATOM     22  N   UNL A   1      33.382  26.186  21.650  1.00  0.00    -0.130 NA
ATOM     23  N   UNL A   1      33.851  24.945  21.996  1.00  0.00    -0.134 NA
ENDBRANCH   9  14
ENDBRANCH   5   8
ENDBRANCH   3   4
ENDBRANCH   2   3
ENDBRANCH   1   2
BRANCH   1  24
ATOM     24  C   UNL A   1      34.788  28.931  27.056  1.00  0.00     0.116 C 
BRANCH  24  25
ATOM     25  N   UNL A   1      35.066  29.555  28.336  1.00  0.00    -0.352 N 
ATOM     26  C   UNL A   1      36.197  29.807  29.061  1.00  0.00     0.251 C 
ATOM     27  H   UNL A   1      34.250  29.869  28.788  1.00  0.00     0.163 HD
ATOM     28  O   UNL A   1      36.057  30.530  30.055  1.00  0.00    -0.269 OA
BRANCH  26  29
ATOM     29  C   UNL A   1      37.535  29.224  28.789  1.00  0.00     0.039 A 
ATOM     30  C   UNL A   1      38.220  28.373  29.650  1.00  0.00     0.014 A 
ATOM     31  C   UNL A   1      38.177  29.643  27.607  1.00  0.00     0.014 A 
ATOM     32  C   UNL A   1      39.553  28.069  29.418  1.00  0.00     0.010 A 
ATOM     33  C   UNL A   1      39.501  29.303  27.344  1.00  0.00     0.010 A 
ATOM     34  C   UNL A   1      40.204  28.562  28.284  1.00  0.00    -0.014 A 
BRANCH  34  35
ATOM     35  C   UNL A   1      41.596  28.163  28.102  1.00  0.00     0.031 A 
ATOM     36  C   UNL A   1      41.756  26.850  27.424  1.00  0.00     0.074 A 
ATOM     37  C   UNL A   1      42.659  28.892  28.495  1.00  0.00     0.049 A 
ATOM     38  N   UNL A   1      42.171  25.744  27.947  1.00  0.00    -0.248 NA
ATOM     39  C   UNL A   1      41.250  26.712  26.051  1.00  0.00     0.031 C 
ATOM     40  C   UNL A   1      42.676  30.282  28.955  1.00  0.00     0.029 A 
ATOM     41  N   UNL A   1      43.982  28.546  28.504  1.00  0.00    -0.354 N 
ATOM     42  C   UNL A   1      42.168  24.808  26.915  1.00  0.00     0.074 A 
ATOM     43  C   UNL A   1      41.458  25.413  25.821  1.00  0.00     0.031 C 
ATOM     44  C   UNL A   1      43.953  30.726  28.994  1.00  0.00     0.029 A 
ATOM     45  C   UNL A   1      44.845  29.610  28.721  1.00  0.00     0.049 A 
ATOM     46  H   UNL A   1      44.295  27.622  28.370  1.00  0.00     0.167 HD
ATOM     47  C   UNL A   1      42.979  23.717  26.969  1.00  0.00     0.037 A 
ATOM     48  C   UNL A   1      46.198  29.586  28.675  1.00  0.00     0.037 A 
ATOM     49  C   UNL A   1      43.471  23.499  28.304  1.00  0.00     0.049 A 
ATOM     50  C   UNL A   1      46.641  28.198  28.916  1.00  0.00     0.074 A 
ATOM     51  C   UNL A   1      43.019  22.935  29.476  1.00  0.00     0.029 A 
ATOM     52  N   UNL A   1      44.572  24.250  28.610  1.00  0.00    -0.354 N 
ATOM     53  N   UNL A   1      46.522  27.599  30.067  1.00  0.00    -0.248 NA
ATOM     54  C   UNL A   1      46.953  27.328  27.787  1.00  0.00     0.031 C 
ATOM     55  C   UNL A   1      43.796  23.518  30.525  1.00  0.00     0.029 A 
ATOM     56  C   UNL A   1      44.710  24.403  29.961  1.00  0.00     0.049 A 
ATOM     57  H   UNL A   1      45.188  24.632  27.943  1.00  0.00     0.167 HD
ATOM     58  C   UNL A   1      46.314  26.275  29.740  1.00  0.00     0.074 A 
ATOM     59  C   UNL A   1      46.777  26.137  28.366  1.00  0.00     0.031 C 
ATOM     60  C   UNL A   1      45.487  25.497  30.492  1.00  0.00     0.037 A 
BRANCH  47  61
ATOM     61  C   UNL A   1      43.748  23.170  25.781  1.00  0.00     0.057 A 
ATOM     62  C   UNL A   1      44.739  23.889  25.083  1.00  0.00     0.134 A 
ATOM     63  C   UNL A   1      43.758  21.779  25.561  1.00  0.00     0.134 A 
ATOM     64  F   UNL A   1      44.907  25.208  25.227  1.00  0.00    -0.206 F 
ATOM     65  C   UNL A   1      45.695  23.272  24.271  1.00  0.00     0.040 A 
ATOM     66  C   UNL A   1      44.739  21.146  24.785  1.00  0.00     0.040 A 
ATOM     67  F   UNL A   1      42.866  20.979  26.164  1.00  0.00    -0.206 F 
ATOM     68  C   UNL A   1      45.721  21.892  24.148  1.00  0.00     0.006 A 
ENDBRANCH  47  61
BRANCH  48  69
ATOM     69  C   UNL A   1      47.146  30.646  28.277  1.00  0.00     0.057 A 
ATOM     70  C   UNL A   1      47.917  31.314  29.242  1.00  0.00     0.134 A 
ATOM     71  C   UNL A   1      47.104  31.226  27.002  1.00  0.00     0.134 A 
ATOM     72  F   UNL A   1      47.968  30.874  30.507  1.00  0.00    -0.206 F 
ATOM     73  C   UNL A   1      48.580  32.514  28.965  1.00  0.00     0.040 A 
ATOM     74  C   UNL A   1      47.763  32.428  26.712  1.00  0.00     0.040 A 
ATOM     75  F   UNL A   1      46.369  30.675  26.025  1.00  0.00    -0.206 F 
ATOM     76  C   UNL A   1      48.490  33.084  27.699  1.00  0.00     0.006 A 
ENDBRANCH  48  69
BRANCH  60  77
ATOM     77  C   UNL A   1      45.241  25.940  31.897  1.00  0.00     0.057 A 
ATOM     78  C   UNL A   1      44.101  26.702  32.166  1.00  0.00     0.134 A 
ATOM     79  C   UNL A   1      46.101  25.671  32.969  1.00  0.00     0.134 A 
ATOM     80  F   UNL A   1      43.258  27.031  31.173  1.00  0.00    -0.206 F 
ATOM     81  C   UNL A   1      43.813  27.164  33.450  1.00  0.00     0.040 A 
ATOM     82  C   UNL A   1      45.810  26.101  34.266  1.00  0.00     0.040 A 
ATOM     83  F   UNL A   1      47.252  25.010  32.783  1.00  0.00    -0.206 F 
ATOM     84  C   UNL A   1      44.662  26.853  34.508  1.00  0.00     0.006 A 
ENDBRANCH  60  77
ENDBRANCH  34  35
ENDBRANCH  26  29
ENDBRANCH  24  25
ENDBRANCH   1  24
TORSDOF 12
ENDMDL
MODEL 2
REMARK VINA RESULT:     -12.7      1.036      2.871
REMARK SMILES Cc1ccn2c([C@@H]3CCCC[C@@H]3C(=O)NCCCCNC(=O)c3ccc(-c4c5nc(c(-c6c(F)cccc6F)c6ccc([nH]6)c(-c6c(F)cccc6F)c6nc(c(-c7c(F)cccc7F)c7ccc4[nH]7)C=C6)C=C5)cc3)nnc2c1
REMARK SMILES IDX 18 1 17 2 16 3 15 4 13 5 14 6 12 8 7 9 8 10 9 11 11 12 10 13
REMARK SMILES IDX 6 14 1 15 2 16 3 17 80 18 4 19 79 20 5 21 78 22 77 23 19 24
REMARK SMILES IDX 20 25 21 26 22 28 23 29 24 30 76 31 25 32 75 33 26 34 27 35
REMARK SMILES IDX 28 36 69 37 29 38 74 39 68 40 70 41 30 42 73 43 67 44 66 45
REMARK SMILES IDX 31 47 57 48 40 49 56 50 41 51 44 52 55 53 71 54 42 55 43 56
REMARK SMILES IDX 54 58 72 59 45 60 32 61 33 62 38 63 34 64 35 65 37 66 39 67
REMARK SMILES IDX 36 68 58 69 59 70 64 71 60 72 61 73 63 74 65 75 62 76 46 77
REMARK SMILES IDX 47 78 52 79 48 80 49 81 51 82 53 83 50 84
REMARK H PARENT 15 7 20 27 70 46 44 57
REMARK Flexibility Score: inf
ROOT
ATOM      1  C   UNL A   1      33.354  28.348  27.123  1.00  0.00     0.023 C 
ENDROOT
BRANCH   1   2
ATOM      2  C   UNL A   1      33.010  27.703  25.781  1.00  0.00     0.023 C 
BRANCH   2   3
ATOM      3  C   UNL A   1      33.634  26.333  25.544  1.00  0.00     0.116 C 
BRANCH   3   4
ATOM      4  N   UNL A   1      32.961  25.299  26.303  1.00  0.00    -0.356 N 
ATOM      5  C   UNL A   1      31.896  24.507  26.056  1.00  0.00     0.223 C 
ATOM      6  O   UNL A   1      31.353  24.073  27.082  1.00  0.00    -0.275 OA
ATOM      7  H   UNL A   1      33.368  25.139  27.185  1.00  0.00     0.163 HD
BRANCH   5   8
ATOM      8  C   UNL A   1      31.357  24.066  24.684  1.00  0.00     0.089 C 
ATOM      9  C   UNL A   1      32.437  23.483  23.727  1.00  0.00     0.071 C 
ATOM     10  C   UNL A   1      33.201  24.539  22.918  1.00  0.00     0.012 C 
ATOM     11  C   UNL A   1      32.245  25.459  22.160  1.00  0.00     0.001 C 
ATOM     12  C   UNL A   1      30.454  25.009  23.881  1.00  0.00     0.014 C 
ATOM     13  C   UNL A   1      31.225  26.080  23.104  1.00  0.00     0.001 C 
BRANCH   9  14
ATOM     14  C   UNL A   1      33.312  22.394  24.280  1.00  0.00     0.141 A 
ATOM     15  C   UNL A   1      33.794  16.824  23.888  1.00  0.00     0.044 C 
ATOM     16  C   UNL A   1      33.606  18.304  24.028  1.00  0.00    -0.046 A 
ATOM     17  C   UNL A   1      32.469  18.903  23.334  1.00  0.00     0.022 A 
ATOM     18  C   UNL A   1      34.463  19.077  24.731  1.00  0.00     0.053 A 
ATOM     19  C   UNL A   1      32.297  20.235  23.378  1.00  0.00     0.095 A 
ATOM     20  C   UNL A   1      34.268  20.483  24.794  1.00  0.00     0.161 A 
ATOM     21  N   UNL A   1      33.201  21.026  24.089  1.00  0.00    -0.286 N 
ATOM     22  N   UNL A   1      34.925  21.435  25.415  1.00  0.00    -0.130 NA
ATOM     23  N   UNL A   1      34.329  22.628  25.095  1.00  0.00    -0.134 NA
ENDBRANCH   9  14
ENDBRANCH   5   8
ENDBRANCH   3   4
ENDBRANCH   2   3
ENDBRANCH   1   2
BRANCH   1  24
ATOM     24  C   UNL A   1      34.766  28.938  27.225  1.00  0.00     0.116 C 
BRANCH  24  25
ATOM     25  N   UNL A   1      35.069  29.582  28.489  1.00  0.00    -0.352 N 
ATOM     26  C   UNL A   1      36.214  29.844  29.187  1.00  0.00     0.251 C 
ATOM     27  H   UNL A   1      34.263  29.904  28.952  1.00  0.00     0.163 HD
ATOM     28  O   UNL A   1      36.095  30.583  30.172  1.00  0.00    -0.269 OA
BRANCH  26  29
ATOM     29  C   UNL A   1      37.547  29.255  28.898  1.00  0.00     0.039 A 
ATOM     30  C   UNL A   1      38.248  28.417  29.759  1.00  0.00     0.014 A 
ATOM     31  C   UNL A   1      38.165  29.654  27.697  1.00  0.00     0.014 A 
ATOM     32  C   UNL A   1      39.576  28.107  29.506  1.00  0.00     0.010 A 
ATOM     33  C   UNL A   1      39.483  29.308  27.413  1.00  0.00     0.010 A 
ATOM     34  C   UNL A   1      40.204  28.581  28.350  1.00  0.00    -0.014 A 
BRANCH  34  35
ATOM     35  C   UNL A   1      41.592  28.178  28.148  1.00  0.00     0.031 A 
ATOM     36  C   UNL A   1      41.737  26.866  27.464  1.00  0.00     0.074 A 
ATOM     37  C   UNL A   1      42.664  28.901  28.527  1.00  0.00     0.049 A 
ATOM     38  N   UNL A   1      42.156  25.757  27.978  1.00  0.00    -0.248 NA
ATOM     39  C   UNL A   1      41.211  26.733  26.098  1.00  0.00     0.031 C 
ATOM     40  C   UNL A   1      42.692  30.291  28.990  1.00  0.00     0.029 A 
ATOM     41  N   UNL A   1      43.985  28.550  28.516  1.00  0.00    -0.354 N 
ATOM     42  C   UNL A   1      42.134  24.823  26.944  1.00  0.00     0.074 A 
ATOM     43  C   UNL A   1      41.410  25.434  25.861  1.00  0.00     0.031 C 
ATOM     44  C   UNL A   1      43.972  30.730  29.011  1.00  0.00     0.029 A 
ATOM     45  C   UNL A   1      44.855  29.611  28.723  1.00  0.00     0.049 A 
ATOM     46  H   UNL A   1      44.292  27.626  28.375  1.00  0.00     0.167 HD
ATOM     47  C   UNL A   1      42.942  23.729  26.983  1.00  0.00     0.037 A 
ATOM     48  C   UNL A   1      46.207  29.582  28.657  1.00  0.00     0.037 A 
ATOM     49  C   UNL A   1      43.452  23.507  28.311  1.00  0.00     0.049 A 
ATOM     50  C   UNL A   1      46.648  28.192  28.888  1.00  0.00     0.074 A 
ATOM     51  C   UNL A   1      43.016  22.941  29.487  1.00  0.00     0.029 A 
ATOM     52  N   UNL A   1      44.561  24.252  28.602  1.00  0.00    -0.354 N 
ATOM     53  N   UNL A   1      46.544  27.590  30.039  1.00  0.00    -0.248 NA
ATOM     54  C   UNL A   1      46.940  27.324  27.752  1.00  0.00     0.031 C 
ATOM     55  C   UNL A   1      43.810  23.518  30.526  1.00  0.00     0.029 A 
ATOM     56  C   UNL A   1      44.718  24.402  29.951  1.00  0.00     0.049 A 
ATOM     57  H   UNL A   1      45.168  24.633  27.927  1.00  0.00     0.167 HD
ATOM     58  C   UNL A   1      46.326  26.268  29.711  1.00  0.00     0.074 A 
ATOM     59  C   UNL A   1      46.768  26.132  28.330  1.00  0.00     0.031 C 
ATOM     60  C   UNL A   1      45.507  25.491  30.474  1.00  0.00     0.037 A 
BRANCH  47  61
ATOM     61  C   UNL A   1      43.691  23.183  25.783  1.00  0.00     0.057 A 
ATOM     62  C   UNL A   1      44.656  23.910  25.056  1.00  0.00     0.134 A 
ATOM     63  C   UNL A   1      43.717  21.789  25.574  1.00  0.00     0.134 A 
ATOM     64  F   UNL A   1      44.807  25.232  25.184  1.00  0.00    -0.206 F 
ATOM     65  C   UNL A   1      45.602  23.298  24.227  1.00  0.00     0.040 A 
ATOM     66  C   UNL A   1      44.688  21.164  24.782  1.00  0.00     0.040 A 
ATOM     67  F   UNL A   1      42.850  20.982  26.205  1.00  0.00    -0.206 F 
ATOM     68  C   UNL A   1      45.645  21.918  24.117  1.00  0.00     0.006 A 
ENDBRANCH  47  61
BRANCH  48  69
ATOM     69  C   UNL A   1      47.153  30.639  28.248  1.00  0.00     0.057 A 
ATOM     70  C   UNL A   1      47.965  31.279  29.199  1.00  0.00     0.134 A 
ATOM     71  C   UNL A   1      47.074  31.247  26.987  1.00  0.00     0.134 A 
ATOM     72  F   UNL A   1      48.055  30.811  30.452  1.00  0.00    -0.206 F 
ATOM     73  C   UNL A   1      48.633  32.477  28.923  1.00  0.00     0.040 A 
ATOM     74  C   UNL A   1      47.736  32.447  26.699  1.00  0.00     0.040 A 
ATOM     75  F   UNL A   1      46.299  30.725  26.026  1.00  0.00    -0.206 F 
ATOM     76  C   UNL A   1      48.505  33.074  27.674  1.00  0.00     0.006 A 
ENDBRANCH  48  69
BRANCH  60  77
ATOM     77  C   UNL A   1      45.283  25.931  31.883  1.00  0.00     0.057 A 
ATOM     78  C   UNL A   1      44.143  26.685  32.173  1.00  0.00     0.134 A 
ATOM     79  C   UNL A   1      46.165  25.667  32.940  1.00  0.00     0.134 A 
ATOM     80  F   UNL A   1      43.281  27.009  31.196  1.00  0.00    -0.206 F 
ATOM     81  C   UNL A   1      43.875  27.145  33.462  1.00  0.00     0.040 A 
ATOM     82  C   UNL A   1      45.894  26.094  34.242  1.00  0.00     0.040 A 
ATOM     83  F   UNL A   1      47.316  25.014  32.733  1.00  0.00    -0.206 F 
ATOM     84  C   UNL A   1      44.746  26.838  34.505  1.00  0.00     0.006 A 
ENDBRANCH  60  77
ENDBRANCH  34  35
ENDBRANCH  26  29
ENDBRANCH  24  25
ENDBRANCH   1  24
TORSDOF 12
ENDMDL
MODEL 3
REMARK VINA RESULT:     -12.6      3.292      7.409
REMARK SMILES Cc1ccn2c([C@@H]3CCCC[C@@H]3C(=O)NCCCCNC(=O)c3ccc(-c4c5nc(c(-c6c(F)cccc6F)c6ccc([nH]6)c(-c6c(F)cccc6F)c6nc(c(-c7c(F)cccc7F)c7ccc4[nH]7)C=C6)C=C5)cc3)nnc2c1
REMARK SMILES IDX 18 1 17 2 16 3 15 4 13 5 14 6 12 8 7 9 8 10 9 11 11 12 10 13
REMARK SMILES IDX 6 14 1 15 2 16 3 17 80 18 4 19 79 20 5 21 78 22 77 23 19 24
REMARK SMILES IDX 20 25 21 26 22 28 23 29 24 30 76 31 25 32 75 33 26 34 27 35
REMARK SMILES IDX 28 36 69 37 29 38 74 39 68 40 70 41 30 42 73 43 67 44 66 45
REMARK SMILES IDX 31 47 57 48 40 49 56 50 41 51 44 52 55 53 71 54 42 55 43 56
REMARK SMILES IDX 54 58 72 59 45 60 32 61 33 62 38 63 34 64 35 65 37 66 39 67
REMARK SMILES IDX 36 68 58 69 59 70 64 71 60 72 61 73 63 74 65 75 62 76 46 77
REMARK SMILES IDX 47 78 52 79 48 80 49 81 51 82 53 83 50 84
REMARK H PARENT 15 7 20 27 70 46 44 57
REMARK Flexibility Score: inf
ROOT
ATOM      1  C   UNL A   1      38.770  22.263  26.112  1.00  0.00     0.023 C 
ENDROOT
BRANCH   1   2
ATOM      2  C   UNL A   1      38.160  23.663  26.169  1.00  0.00     0.023 C 
BRANCH   2   3
ATOM      3  C   UNL A   1      36.670  23.732  25.857  1.00  0.00     0.116 C 
BRANCH   3   4
ATOM      4  N   UNL A   1      35.922  22.734  26.594  1.00  0.00    -0.356 N 
ATOM      5  C   UNL A   1      35.021  21.794  26.238  1.00  0.00     0.223 C 
ATOM      6  O   UNL A   1      34.282  21.439  27.167  1.00  0.00    -0.275 OA
ATOM      7  H   UNL A   1      36.111  22.744  27.561  1.00  0.00     0.163 HD
BRANCH   5   8
ATOM      8  C   UNL A   1      34.875  21.112  24.866  1.00  0.00     0.089 C 
ATOM      9  C   UNL A   1      33.761  21.718  23.964  1.00  0.00     0.071 C 
ATOM     10  C   UNL A   1      32.358  21.153  24.224  1.00  0.00     0.012 C 
ATOM     11  C   UNL A   1      32.350  19.627  24.145  1.00  0.00     0.001 C 
ATOM     12  C   UNL A   1      34.793  19.584  24.779  1.00  0.00     0.014 C 
ATOM     13  C   UNL A   1      33.397  19.029  25.074  1.00  0.00     0.001 C 
BRANCH   9  14
ATOM     14  C   UNL A   1      33.786  23.207  23.768  1.00  0.00     0.141 A 
ATOM     15  C   UNL A   1      32.058  27.802  26.474  1.00  0.00     0.044 C 
ATOM     16  C   UNL A   1      32.455  26.558  25.738  1.00  0.00    -0.046 A 
ATOM     17  C   UNL A   1      32.076  25.279  26.333  1.00  0.00     0.022 A 
ATOM     18  C   UNL A   1      33.165  26.595  24.590  1.00  0.00     0.053 A 
ATOM     19  C   UNL A   1      32.464  24.136  25.742  1.00  0.00     0.095 A 
ATOM     20  C   UNL A   1      33.557  25.385  23.955  1.00  0.00     0.161 A 
ATOM     21  N   UNL A   1      33.217  24.186  24.568  1.00  0.00    -0.286 N 
ATOM     22  N   UNL A   1      34.215  25.149  22.843  1.00  0.00    -0.130 NA
ATOM     23  N   UNL A   1      34.358  23.790  22.726  1.00  0.00    -0.134 NA
ENDBRANCH   9  14
ENDBRANCH   5   8
ENDBRANCH   3   4
ENDBRANCH   2   3
ENDBRANCH   1   2
BRANCH   1  24
ATOM     24  C   UNL A   1      40.130  22.111  26.803  1.00  0.00     0.116 C 
BRANCH  24  25
ATOM     25  N   UNL A   1      41.280  22.274  25.933  1.00  0.00    -0.352 N 
ATOM     26  C   UNL A   1      42.251  23.224  25.785  1.00  0.00     0.251 C 
ATOM     27  H   UNL A   1      41.385  21.526  25.301  1.00  0.00     0.163 HD
ATOM     28  O   UNL A   1      43.190  22.932  25.035  1.00  0.00    -0.269 OA
BRANCH  26  29
ATOM     29  C   UNL A   1      42.217  24.582  26.386  1.00  0.00     0.039 A 
ATOM     30  C   UNL A   1      42.879  24.951  27.553  1.00  0.00     0.014 A 
ATOM     31  C   UNL A   1      41.381  25.528  25.761  1.00  0.00     0.014 A 
ATOM     32  C   UNL A   1      42.603  26.167  28.158  1.00  0.00     0.010 A 
ATOM     33  C   UNL A   1      41.135  26.770  26.339  1.00  0.00     0.010 A 
ATOM     34  C   UNL A   1      41.704  27.062  27.571  1.00  0.00    -0.014 A 
BRANCH  34  35
ATOM     35  C   UNL A   1      41.499  28.332  28.260  1.00  0.00     0.031 A 
ATOM     36  C   UNL A   1      42.614  29.297  28.074  1.00  0.00     0.074 A 
ATOM     37  C   UNL A   1      40.415  28.636  29.000  1.00  0.00     0.049 A 
ATOM     38  N   UNL A   1      43.473  29.683  28.959  1.00  0.00    -0.248 NA
ATOM     39  C   UNL A   1      42.904  29.768  26.713  1.00  0.00     0.031 C 
ATOM     40  C   UNL A   1      39.151  27.901  29.087  1.00  0.00     0.029 A 
ATOM     41  N   UNL A   1      40.195  29.726  29.795  1.00  0.00    -0.354 N 
ATOM     42  C   UNL A   1      44.298  30.603  28.317  1.00  0.00     0.074 A 
ATOM     43  C   UNL A   1      44.000  30.504  26.913  1.00  0.00     0.031 C 
ATOM     44  C   UNL A   1      38.229  28.667  29.714  1.00  0.00     0.029 A 
ATOM     45  C   UNL A   1      38.879  29.869  30.211  1.00  0.00     0.049 A 
ATOM     46  H   UNL A   1      40.909  30.354  30.052  1.00  0.00     0.167 HD
ATOM     47  C   UNL A   1      44.969  31.547  29.032  1.00  0.00     0.037 A 
ATOM     48  C   UNL A   1      38.352  30.901  30.910  1.00  0.00     0.037 A 
ATOM     49  C   UNL A   1      45.008  31.211  30.431  1.00  0.00     0.049 A 
ATOM     50  C   UNL A   1      39.448  31.568  31.641  1.00  0.00     0.074 A 
ATOM     51  C   UNL A   1      45.741  30.393  31.260  1.00  0.00     0.029 A 
ATOM     52  N   UNL A   1      43.885  31.586  31.114  1.00  0.00    -0.354 N 
ATOM     53  N   UNL A   1      40.078  31.021  32.641  1.00  0.00    -0.248 NA
ATOM     54  C   UNL A   1      40.083  32.754  31.076  1.00  0.00     0.031 C 
ATOM     55  C   UNL A   1      44.926  30.156  32.410  1.00  0.00     0.029 A 
ATOM     56  C   UNL A   1      43.730  30.851  32.256  1.00  0.00     0.049 A 
ATOM     57  H   UNL A   1      43.267  32.295  30.823  1.00  0.00     0.167 HD
ATOM     58  C   UNL A   1      41.363  31.515  32.544  1.00  0.00     0.074 A 
ATOM     59  C   UNL A   1      41.260  32.701  31.705  1.00  0.00     0.031 C 
ATOM     60  C   UNL A   1      42.431  30.738  32.875  1.00  0.00     0.037 A 
BRANCH  47  61
ATOM     61  C   UNL A   1      45.121  32.992  28.596  1.00  0.00     0.057 A 
ATOM     62  C   UNL A   1      46.299  33.529  28.038  1.00  0.00     0.134 A 
ATOM     63  C   UNL A   1      43.961  33.766  28.391  1.00  0.00     0.134 A 
ATOM     64  F   UNL A   1      47.474  32.892  28.088  1.00  0.00    -0.206 F 
ATOM     65  C   UNL A   1      46.316  34.713  27.294  1.00  0.00     0.040 A 
ATOM     66  C   UNL A   1      43.960  34.929  27.610  1.00  0.00     0.040 A 
ATOM     67  F   UNL A   1      42.774  33.368  28.873  1.00  0.00    -0.206 F 
ATOM     68  C   UNL A   1      45.138  35.398  27.046  1.00  0.00     0.006 A 
ENDBRANCH  47  61
BRANCH  48  69
ATOM     69  C   UNL A   1      36.988  31.465  30.873  1.00  0.00     0.057 A 
ATOM     70  C   UNL A   1      36.559  32.226  29.774  1.00  0.00     0.134 A 
ATOM     71  C   UNL A   1      36.188  31.525  32.023  1.00  0.00     0.134 A 
ATOM     72  F   UNL A   1      37.289  32.284  28.652  1.00  0.00    -0.206 F 
ATOM     73  C   UNL A   1      35.417  33.031  29.826  1.00  0.00     0.040 A 
ATOM     74  C   UNL A   1      35.043  32.329  32.088  1.00  0.00     0.040 A 
ATOM     75  F   UNL A   1      36.535  30.857  33.132  1.00  0.00    -0.206 F 
ATOM     76  C   UNL A   1      34.663  33.098  30.993  1.00  0.00     0.006 A 
ENDBRANCH  48  69
BRANCH  60  77
ATOM     77  C   UNL A   1      42.168  29.588  33.792  1.00  0.00     0.057 A 
ATOM     78  C   UNL A   1      42.307  29.787  35.168  1.00  0.00     0.134 A 
ATOM     79  C   UNL A   1      41.822  28.301  33.361  1.00  0.00     0.134 A 
ATOM     80  F   UNL A   1      42.679  30.987  35.643  1.00  0.00    -0.206 F 
ATOM     81  C   UNL A   1      42.093  28.757  36.084  1.00  0.00     0.040 A 
ATOM     82  C   UNL A   1      41.574  27.267  34.268  1.00  0.00     0.040 A 
ATOM     83  F   UNL A   1      41.740  28.007  32.056  1.00  0.00    -0.206 F 
ATOM     84  C   UNL A   1      41.712  27.495  35.635  1.00  0.00     0.006 A 
ENDBRANCH  60  77
ENDBRANCH  34  35
ENDBRANCH  26  29
ENDBRANCH  24  25
ENDBRANCH   1  24
TORSDOF 12
ENDMDL
