MODEL 1
REMARK VINA RESULT:     -10.9      0.000      0.000
REMARK SMILES C#CC[N@@H+](CC(=O)NCCCCNC(=O)c1ccc(-c2c3nc(c(-c4c(F)cccc4F)c4ccc([nH]4)c(-c4c(F)cccc4F)c4nc(c(-c5c(F)cccc5F)c5ccc2[nH]5)C=C4)C=C3)cc1)CC(=O)NC(=O)NC
REMARK SMILES IDX 10 1 9 2 8 3 6 4 7 5 5 7 4 8 3 10 2 11 1 12 70 13 71 14
REMARK SMILES IDX 72 15 73 16 74 17 75 19 76 20 77 21 11 23 12 24 13 25 14 26
REMARK SMILES IDX 15 28 16 29 17 30 69 31 18 32 68 33 19 34 20 35 21 36 62 37
REMARK SMILES IDX 22 38 67 39 61 40 63 41 23 42 66 43 60 44 59 45 24 47 50 48
REMARK SMILES IDX 33 49 49 50 34 51 37 52 48 53 64 54 35 55 36 56 47 58 65 59
REMARK SMILES IDX 38 60 25 61 26 62 31 63 27 64 28 65 30 66 32 67 29 68 51 69
REMARK SMILES IDX 52 70 57 71 53 72 54 73 56 74 58 75 55 76 39 77 40 78 45 79
REMARK SMILES IDX 41 80 42 81 44 82 46 83 43 84
REMARK H PARENT 8 6 4 9 73 18 76 22 13 27 63 46 37 57
REMARK Flexibility Score: inf
ROOT
ATOM      1  C   UNL A   1      32.183  30.357  26.657  1.00  0.00     0.023 C 
ENDROOT
BRANCH   1   2
ATOM      2  C   UNL A   1      31.803  29.703  25.304  1.00  0.00     0.116 C 
BRANCH   2   3
ATOM      3  N   UNL A   1      32.921  29.573  24.385  1.00  0.00    -0.351 N 
ATOM      4  C   UNL A   1      33.424  28.543  23.643  1.00  0.00     0.275 C 
ATOM      5  O   UNL A   1      34.314  28.854  22.842  1.00  0.00    -0.269 OA
ATOM      6  H   UNL A   1      33.427  30.410  24.275  1.00  0.00     0.163 HD
BRANCH   4   7
ATOM      7  C   UNL A   1      32.932  27.071  23.694  1.00  0.00     0.364 C 
BRANCH   7   8
ATOM      8  N   UNL A   1      33.023  26.331  24.996  1.00  0.00    -0.309 N 
ATOM      9  H   UNL A   1      32.734  26.977  25.730  1.00  0.00     0.349 HD
BRANCH   8  10
ATOM     10  C   UNL A   1      34.398  25.904  25.126  1.00  0.00     0.354 C 
BRANCH  10  11
ATOM     11  C   UNL A   1      34.778  24.492  25.538  1.00  0.00    -0.047 C 
ATOM     12  C   UNL A   1      35.105  23.280  25.891  1.00  0.00     0.010 C 
ENDBRANCH  10  11
ENDBRANCH   8  10
BRANCH   8  13
ATOM     13  C   UNL A   1      32.072  25.217  25.216  1.00  0.00     0.365 C 
BRANCH  13  14
ATOM     14  C   UNL A   1      30.876  25.451  26.115  1.00  0.00     0.283 C 
ATOM     15  O   UNL A   1      30.641  26.585  26.551  1.00  0.00    -0.268 OA
ATOM     16  N   UNL A   1      30.007  24.426  26.436  1.00  0.00    -0.273 N 
ATOM     17  C   UNL A   1      30.152  23.145  26.877  1.00  0.00     0.321 C 
ATOM     18  H   UNL A   1      29.062  24.680  26.320  1.00  0.00     0.175 HD
ATOM     19  O   UNL A   1      29.528  22.790  27.881  1.00  0.00    -0.248 OA
ATOM     20  N   UNL A   1      30.927  22.228  26.280  1.00  0.00    -0.341 N 
ATOM     21  C   UNL A   1      31.433  22.105  24.939  1.00  0.00     0.144 C 
ATOM     22  H   UNL A   1      31.203  21.495  26.877  1.00  0.00     0.165 HD
ENDBRANCH  13  14
ENDBRANCH   8  13
ENDBRANCH   7   8
ENDBRANCH   4   7
ENDBRANCH   2   3
ENDBRANCH   1   2
BRANCH   1  23
ATOM     23  C   UNL A   1      31.767  31.794  26.844  1.00  0.00     0.023 C 
BRANCH  23  24
ATOM     24  C   UNL A   1      32.870  32.646  27.393  1.00  0.00     0.116 C 
BRANCH  24  25
ATOM     25  N   UNL A   1      32.467  34.030  27.635  1.00  0.00    -0.352 N 
ATOM     26  C   UNL A   1      33.013  34.903  28.543  1.00  0.00     0.251 C 
ATOM     27  H   UNL A   1      31.724  34.373  27.087  1.00  0.00     0.163 HD
ATOM     28  O   UNL A   1      32.531  36.001  28.756  1.00  0.00    -0.269 OA
BRANCH  26  29
ATOM     29  C   UNL A   1      34.191  34.418  29.273  1.00  0.00     0.039 A 
ATOM     30  C   UNL A   1      34.012  33.537  30.335  1.00  0.00     0.014 A 
ATOM     31  C   UNL A   1      35.456  34.685  28.742  1.00  0.00     0.014 A 
ATOM     32  C   UNL A   1      35.126  32.883  30.847  1.00  0.00     0.010 A 
ATOM     33  C   UNL A   1      36.526  33.912  29.141  1.00  0.00     0.010 A 
ATOM     34  C   UNL A   1      36.381  33.046  30.233  1.00  0.00    -0.014 A 
BRANCH  34  35
ATOM     35  C   UNL A   1      37.584  32.391  30.777  1.00  0.00     0.031 A 
ATOM     36  C   UNL A   1      38.115  32.848  32.107  1.00  0.00     0.074 A 
ATOM     37  C   UNL A   1      38.197  31.426  30.070  1.00  0.00     0.049 A 
ATOM     38  N   UNL A   1      39.145  32.408  32.780  1.00  0.00    -0.248 NA
ATOM     39  C   UNL A   1      37.428  33.985  32.749  1.00  0.00     0.031 C 
ATOM     40  C   UNL A   1      37.808  30.974  28.730  1.00  0.00     0.029 A 
ATOM     41  N   UNL A   1      39.271  30.640  30.387  1.00  0.00    -0.354 N 
ATOM     42  C   UNL A   1      39.231  33.222  33.902  1.00  0.00     0.074 A 
ATOM     43  C   UNL A   1      38.218  34.240  33.777  1.00  0.00     0.031 C 
ATOM     44  C   UNL A   1      38.598  29.950  28.367  1.00  0.00     0.029 A 
ATOM     45  C   UNL A   1      39.557  29.693  29.435  1.00  0.00     0.049 A 
ATOM     46  H   UNL A   1      39.789  30.744  31.219  1.00  0.00     0.167 HD
ATOM     47  C   UNL A   1      40.049  33.099  34.970  1.00  0.00     0.037 A 
ATOM     48  C   UNL A   1      40.479  28.714  29.448  1.00  0.00     0.037 A 
ATOM     49  C   UNL A   1      41.017  32.048  35.101  1.00  0.00     0.049 A 
ATOM     50  C   UNL A   1      41.345  28.564  30.669  1.00  0.00     0.074 A 
ATOM     51  C   UNL A   1      41.863  31.778  36.159  1.00  0.00     0.029 A 
ATOM     52  N   UNL A   1      41.256  31.083  34.133  1.00  0.00    -0.354 N 
ATOM     53  N   UNL A   1      41.363  29.287  31.763  1.00  0.00    -0.248 NA
ATOM     54  C   UNL A   1      42.303  27.453  30.663  1.00  0.00     0.031 C 
ATOM     55  C   UNL A   1      42.640  30.666  35.816  1.00  0.00     0.029 A 
ATOM     56  C   UNL A   1      42.246  30.219  34.563  1.00  0.00     0.049 A 
ATOM     57  H   UNL A   1      40.790  31.022  33.267  1.00  0.00     0.167 HD
ATOM     58  C   UNL A   1      42.317  28.706  32.588  1.00  0.00     0.074 A 
ATOM     59  C   UNL A   1      42.835  27.556  31.873  1.00  0.00     0.031 C 
ATOM     60  C   UNL A   1      42.732  29.083  33.822  1.00  0.00     0.037 A 
BRANCH  47  61
ATOM     61  C   UNL A   1      39.903  34.112  36.067  1.00  0.00     0.057 A 
ATOM     62  C   UNL A   1      40.623  35.316  36.062  1.00  0.00     0.134 A 
ATOM     63  C   UNL A   1      39.045  33.880  37.147  1.00  0.00     0.134 A 
ATOM     64  F   UNL A   1      41.484  35.591  35.069  1.00  0.00    -0.206 F 
ATOM     65  C   UNL A   1      40.518  36.236  37.107  1.00  0.00     0.040 A 
ATOM     66  C   UNL A   1      38.909  34.805  38.183  1.00  0.00     0.040 A 
ATOM     67  F   UNL A   1      38.332  32.746  37.218  1.00  0.00    -0.206 F 
ATOM     68  C   UNL A   1      39.653  35.984  38.169  1.00  0.00     0.006 A 
ENDBRANCH  47  61
BRANCH  48  69
ATOM     69  C   UNL A   1      40.582  27.769  28.309  1.00  0.00     0.057 A 
ATOM     70  C   UNL A   1      39.919  26.535  28.331  1.00  0.00     0.134 A 
ATOM     71  C   UNL A   1      41.336  28.073  27.170  1.00  0.00     0.134 A 
ATOM     72  F   UNL A   1      39.187  26.182  29.397  1.00  0.00    -0.206 F 
ATOM     73  C   UNL A   1      40.022  25.628  27.275  1.00  0.00     0.040 A 
ATOM     74  C   UNL A   1      41.430  27.185  26.095  1.00  0.00     0.040 A 
ATOM     75  F   UNL A   1      41.984  29.243  27.079  1.00  0.00    -0.206 F 
ATOM     76  C   UNL A   1      40.777  25.955  26.150  1.00  0.00     0.006 A 
ENDBRANCH  48  69
BRANCH  60  77
ATOM     77  C   UNL A   1      43.775  28.228  34.475  1.00  0.00     0.057 A 
ATOM     78  C   UNL A   1      45.140  28.508  34.350  1.00  0.00     0.134 A 
ATOM     79  C   UNL A   1      43.404  27.128  35.258  1.00  0.00     0.134 A 
ATOM     80  F   UNL A   1      45.558  29.542  33.603  1.00  0.00    -0.206 F 
ATOM     81  C   UNL A   1      46.105  27.702  34.955  1.00  0.00     0.040 A 
ATOM     82  C   UNL A   1      44.357  26.333  35.892  1.00  0.00     0.040 A 
ATOM     83  F   UNL A   1      42.110  26.817  35.427  1.00  0.00    -0.206 F 
ATOM     84  C   UNL A   1      45.713  26.614  35.733  1.00  0.00     0.006 A 
ENDBRANCH  60  77
ENDBRANCH  34  35
ENDBRANCH  26  29
ENDBRANCH  24  25
ENDBRANCH  23  24
ENDBRANCH   1  23
TORSDOF 16
ENDMDL
MODEL 2
REMARK VINA RESULT:     -10.7      1.546      2.319
REMARK SMILES C#CC[N@@H+](CC(=O)NCCCCNC(=O)c1ccc(-c2c3nc(c(-c4c(F)cccc4F)c4ccc([nH]4)c(-c4c(F)cccc4F)c4nc(c(-c5c(F)cccc5F)c5ccc2[nH]5)C=C4)C=C3)cc1)CC(=O)NC(=O)NC
REMARK SMILES IDX 10 1 9 2 8 3 6 4 7 5 5 7 4 8 3 10 2 11 1 12 70 13 71 14
REMARK SMILES IDX 72 15 73 16 74 17 75 19 76 20 77 21 11 23 12 24 13 25 14 26
REMARK SMILES IDX 15 28 16 29 17 30 69 31 18 32 68 33 19 34 20 35 21 36 62 37
REMARK SMILES IDX 22 38 67 39 61 40 63 41 23 42 66 43 60 44 59 45 24 47 50 48
REMARK SMILES IDX 33 49 49 50 34 51 37 52 48 53 64 54 35 55 36 56 47 58 65 59
REMARK SMILES IDX 38 60 25 61 26 62 31 63 27 64 28 65 30 66 32 67 29 68 51 69
REMARK SMILES IDX 52 70 57 71 53 72 54 73 56 74 58 75 55 76 39 77 40 78 45 79
REMARK SMILES IDX 41 80 42 81 44 82 46 83 43 84
REMARK H PARENT 8 6 4 9 73 18 76 22 13 27 63 46 37 57
REMARK Flexibility Score: inf
ROOT
ATOM      1  C   UNL A   1      31.999  30.432  26.239  1.00  0.00     0.023 C 
ENDROOT
BRANCH   1   2
ATOM      2  C   UNL A   1      33.437  29.864  26.357  1.00  0.00     0.116 C 
BRANCH   2   3
ATOM      3  N   UNL A   1      33.935  29.280  25.123  1.00  0.00    -0.351 N 
ATOM      4  C   UNL A   1      33.734  28.087  24.490  1.00  0.00     0.275 C 
ATOM      5  O   UNL A   1      34.217  28.003  23.354  1.00  0.00    -0.269 OA
ATOM      6  H   UNL A   1      34.554  29.874  24.638  1.00  0.00     0.163 HD
BRANCH   4   7
ATOM      7  C   UNL A   1      32.919  26.892  25.055  1.00  0.00     0.364 C 
BRANCH   7   8
ATOM      8  N   UNL A   1      31.442  26.847  24.796  1.00  0.00    -0.309 N 
ATOM      9  H   UNL A   1      31.126  27.810  24.685  1.00  0.00     0.349 HD
BRANCH   8  10
ATOM     10  C   UNL A   1      30.849  26.184  25.936  1.00  0.00     0.354 C 
BRANCH  10  11
ATOM     11  C   UNL A   1      30.782  24.671  26.055  1.00  0.00    -0.047 C 
ATOM     12  C   UNL A   1      30.723  23.373  26.158  1.00  0.00     0.010 C 
ENDBRANCH  10  11
ENDBRANCH   8  10
BRANCH   8  13
ATOM     13  C   UNL A   1      30.991  26.257  23.514  1.00  0.00     0.365 C 
BRANCH  13  14
ATOM     14  C   UNL A   1      31.186  27.053  22.241  1.00  0.00     0.283 C 
ATOM     15  O   UNL A   1      30.482  28.045  22.016  1.00  0.00    -0.268 OA
ATOM     16  N   UNL A   1      32.168  26.718  21.327  1.00  0.00    -0.273 N 
ATOM     17  C   UNL A   1      32.568  25.563  20.727  1.00  0.00     0.321 C 
ATOM     18  H   UNL A   1      32.701  27.496  21.043  1.00  0.00     0.175 HD
ATOM     19  O   UNL A   1      32.666  25.538  19.497  1.00  0.00    -0.248 OA
ATOM     20  N   UNL A   1      32.879  24.440  21.390  1.00  0.00    -0.341 N 
ATOM     21  C   UNL A   1      33.297  24.194  22.744  1.00  0.00     0.144 C 
ATOM     22  H   UNL A   1      32.808  23.625  20.843  1.00  0.00     0.165 HD
ENDBRANCH  13  14
ENDBRANCH   8  13
ENDBRANCH   7   8
ENDBRANCH   4   7
ENDBRANCH   2   3
ENDBRANCH   1   2
BRANCH   1  23
ATOM     23  C   UNL A   1      31.688  31.641  27.083  1.00  0.00     0.023 C 
BRANCH  23  24
ATOM     24  C   UNL A   1      32.886  32.515  27.303  1.00  0.00     0.116 C 
BRANCH  24  25
ATOM     25  N   UNL A   1      32.543  33.909  27.571  1.00  0.00    -0.352 N 
ATOM     26  C   UNL A   1      33.102  34.730  28.521  1.00  0.00     0.251 C 
ATOM     27  H   UNL A   1      31.837  34.304  27.010  1.00  0.00     0.163 HD
ATOM     28  O   UNL A   1      32.669  35.844  28.750  1.00  0.00    -0.269 OA
BRANCH  26  29
ATOM     29  C   UNL A   1      34.230  34.166  29.273  1.00  0.00     0.039 A 
ATOM     30  C   UNL A   1      34.001  33.100  30.138  1.00  0.00     0.014 A 
ATOM     31  C   UNL A   1      35.523  34.574  28.933  1.00  0.00     0.014 A 
ATOM     32  C   UNL A   1      35.096  32.408  30.639  1.00  0.00     0.010 A 
ATOM     33  C   UNL A   1      36.592  33.783  29.299  1.00  0.00     0.010 A 
ATOM     34  C   UNL A   1      36.393  32.729  30.199  1.00  0.00    -0.014 A 
BRANCH  34  35
ATOM     35  C   UNL A   1      37.574  32.034  30.742  1.00  0.00     0.031 A 
ATOM     36  C   UNL A   1      38.042  32.381  32.127  1.00  0.00     0.074 A 
ATOM     37  C   UNL A   1      38.222  31.130  29.987  1.00  0.00     0.049 A 
ATOM     38  N   UNL A   1      39.042  31.888  32.808  1.00  0.00    -0.248 NA
ATOM     39  C   UNL A   1      37.321  33.461  32.828  1.00  0.00     0.031 C 
ATOM     40  C   UNL A   1      37.897  30.788  28.598  1.00  0.00     0.029 A 
ATOM     41  N   UNL A   1      39.286  30.322  30.287  1.00  0.00    -0.354 N 
ATOM     42  C   UNL A   1      39.074  32.608  33.995  1.00  0.00     0.074 A 
ATOM     43  C   UNL A   1      38.062  33.632  33.908  1.00  0.00     0.031 C 
ATOM     44  C   UNL A   1      38.708  29.798  28.189  1.00  0.00     0.029 A 
ATOM     45  C   UNL A   1      39.618  29.457  29.275  1.00  0.00     0.049 A 
ATOM     46  H   UNL A   1      39.764  30.359  31.147  1.00  0.00     0.167 HD
ATOM     47  C   UNL A   1      39.844  32.400  35.086  1.00  0.00     0.037 A 
ATOM     48  C   UNL A   1      40.544  28.481  29.250  1.00  0.00     0.037 A 
ATOM     49  C   UNL A   1      40.811  31.343  35.174  1.00  0.00     0.049 A 
ATOM     50  C   UNL A   1      41.355  28.233  30.492  1.00  0.00     0.074 A 
ATOM     51  C   UNL A   1      41.609  30.988  36.244  1.00  0.00     0.029 A 
ATOM     52  N   UNL A   1      41.098  30.461  34.143  1.00  0.00    -0.354 N 
ATOM     53  N   UNL A   1      41.320  28.864  31.642  1.00  0.00    -0.248 NA
ATOM     54  C   UNL A   1      42.318  27.127  30.439  1.00  0.00     0.031 C 
ATOM     55  C   UNL A   1      42.406  29.909  35.847  1.00  0.00     0.029 A 
ATOM     56  C   UNL A   1      42.071  29.566  34.546  1.00  0.00     0.049 A 
ATOM     57  H   UNL A   1      40.671  30.470  33.255  1.00  0.00     0.167 HD
ATOM     58  C   UNL A   1      42.238  28.219  32.458  1.00  0.00     0.074 A 
ATOM     59  C   UNL A   1      42.795  27.132  31.677  1.00  0.00     0.031 C 
ATOM     60  C   UNL A   1      42.596  28.495  33.737  1.00  0.00     0.037 A 
BRANCH  47  61
ATOM     61  C   UNL A   1      39.644  33.320  36.254  1.00  0.00     0.057 A 
ATOM     62  C   UNL A   1      40.381  34.505  36.396  1.00  0.00     0.134 A 
ATOM     63  C   UNL A   1      38.715  33.015  37.254  1.00  0.00     0.134 A 
ATOM     64  F   UNL A   1      41.309  34.844  35.487  1.00  0.00    -0.206 F 
ATOM     65  C   UNL A   1      40.223  35.335  37.507  1.00  0.00     0.040 A 
ATOM     66  C   UNL A   1      38.526  33.853  38.355  1.00  0.00     0.040 A 
ATOM     67  F   UNL A   1      37.981  31.894  37.183  1.00  0.00    -0.206 F 
ATOM     68  C   UNL A   1      39.288  35.013  38.488  1.00  0.00     0.006 A 
ENDBRANCH  47  61
BRANCH  48  69
ATOM     69  C   UNL A   1      40.702  27.632  28.043  1.00  0.00     0.057 A 
ATOM     70  C   UNL A   1      40.039  26.404  27.931  1.00  0.00     0.134 A 
ATOM     71  C   UNL A   1      41.513  28.025  26.972  1.00  0.00     0.134 A 
ATOM     72  F   UNL A   1      39.255  25.968  28.928  1.00  0.00    -0.206 F 
ATOM     73  C   UNL A   1      40.194  25.586  26.811  1.00  0.00     0.040 A 
ATOM     74  C   UNL A   1      41.659  27.228  25.834  1.00  0.00     0.040 A 
ATOM     75  F   UNL A   1      42.164  29.196  27.009  1.00  0.00    -0.206 F 
ATOM     76  C   UNL A   1      41.004  26.001  25.755  1.00  0.00     0.006 A 
ENDBRANCH  48  69
BRANCH  60  77
ATOM     77  C   UNL A   1      43.612  27.590  34.364  1.00  0.00     0.057 A 
ATOM     78  C   UNL A   1      43.245  26.401  35.005  1.00  0.00     0.134 A 
ATOM     79  C   UNL A   1      44.976  27.902  34.301  1.00  0.00     0.134 A 
ATOM     80  F   UNL A   1      41.952  26.054  35.106  1.00  0.00    -0.206 F 
ATOM     81  C   UNL A   1      44.197  25.569  35.592  1.00  0.00     0.040 A 
ATOM     82  C   UNL A   1      45.940  27.063  34.858  1.00  0.00     0.040 A 
ATOM     83  F   UNL A   1      45.392  29.021  33.689  1.00  0.00    -0.206 F 
ATOM     84  C   UNL A   1      45.550  25.897  35.514  1.00  0.00     0.006 A 
ENDBRANCH  60  77
ENDBRANCH  34  35
ENDBRANCH  26  29
ENDBRANCH  24  25
ENDBRANCH  23  24
ENDBRANCH   1  23
TORSDOF 16
ENDMDL
MODEL 3
REMARK VINA RESULT:     -10.7      1.514      2.323
REMARK SMILES C#CC[N@@H+](CC(=O)NCCCCNC(=O)c1ccc(-c2c3nc(c(-c4c(F)cccc4F)c4ccc([nH]4)c(-c4c(F)cccc4F)c4nc(c(-c5c(F)cccc5F)c5ccc2[nH]5)C=C4)C=C3)cc1)CC(=O)NC(=O)NC
REMARK SMILES IDX 10 1 9 2 8 3 6 4 7 5 5 7 4 8 3 10 2 11 1 12 70 13 71 14
REMARK SMILES IDX 72 15 73 16 74 17 75 19 76 20 77 21 11 23 12 24 13 25 14 26
REMARK SMILES IDX 15 28 16 29 17 30 69 31 18 32 68 33 19 34 20 35 21 36 62 37
REMARK SMILES IDX 22 38 67 39 61 40 63 41 23 42 66 43 60 44 59 45 24 47 50 48
REMARK SMILES IDX 33 49 49 50 34 51 37 52 48 53 64 54 35 55 36 56 47 58 65 59
REMARK SMILES IDX 38 60 25 61 26 62 31 63 27 64 28 65 30 66 32 67 29 68 51 69
REMARK SMILES IDX 52 70 57 71 53 72 54 73 56 74 58 75 55 76 39 77 40 78 45 79
REMARK SMILES IDX 41 80 42 81 44 82 46 83 43 84
REMARK H PARENT 8 6 4 9 73 18 76 22 13 27 63 46 37 57
REMARK Flexibility Score: inf
ROOT
ATOM      1  C   UNL A   1      32.477  29.308  24.334  1.00  0.00     0.023 C 
ENDROOT
BRANCH   1   2
ATOM      2  C   UNL A   1      31.707  28.453  23.295  1.00  0.00     0.116 C 
BRANCH   2   3
ATOM      3  N   UNL A   1      32.573  27.670  22.429  1.00  0.00    -0.351 N 
ATOM      4  C   UNL A   1      32.988  26.369  22.429  1.00  0.00     0.275 C 
ATOM      5  O   UNL A   1      33.614  26.015  21.423  1.00  0.00    -0.269 OA
ATOM      6  H   UNL A   1      32.941  28.192  21.680  1.00  0.00     0.163 HD
BRANCH   4   7
ATOM      7  C   UNL A   1      32.688  25.326  23.540  1.00  0.00     0.364 C 
BRANCH   7   8
ATOM      8  N   UNL A   1      33.667  25.183  24.669  1.00  0.00    -0.309 N 
ATOM      9  H   UNL A   1      34.025  26.115  24.877  1.00  0.00     0.349 HD
BRANCH   8  10
ATOM     10  C   UNL A   1      34.690  24.273  24.206  1.00  0.00     0.354 C 
BRANCH  10  11
ATOM     11  C   UNL A   1      35.942  23.975  25.013  1.00  0.00    -0.047 C 
ATOM     12  C   UNL A   1      37.016  23.719  25.706  1.00  0.00     0.010 C 
ENDBRANCH  10  11
ENDBRANCH   8  10
BRANCH   8  13
ATOM     13  C   UNL A   1      33.130  24.790  25.991  1.00  0.00     0.365 C 
BRANCH  13  14
ATOM     14  C   UNL A   1      31.783  25.333  26.419  1.00  0.00     0.283 C 
ATOM     15  O   UNL A   1      31.674  26.517  26.763  1.00  0.00    -0.268 OA
ATOM     16  N   UNL A   1      30.650  24.542  26.401  1.00  0.00    -0.273 N 
ATOM     17  C   UNL A   1      30.343  23.292  26.845  1.00  0.00     0.321 C 
ATOM     18  H   UNL A   1      29.886  24.986  25.966  1.00  0.00     0.175 HD
ATOM     19  O   UNL A   1      29.350  23.145  27.562  1.00  0.00    -0.248 OA
ATOM     20  N   UNL A   1      31.049  22.193  26.542  1.00  0.00    -0.341 N 
ATOM     21  C   UNL A   1      31.944  21.878  25.461  1.00  0.00     0.144 C 
ATOM     22  H   UNL A   1      30.932  21.457  27.187  1.00  0.00     0.165 HD
ENDBRANCH  13  14
ENDBRANCH   8  13
ENDBRANCH   7   8
ENDBRANCH   4   7
ENDBRANCH   2   3
ENDBRANCH   1   2
BRANCH   1  23
ATOM     23  C   UNL A   1      31.668  29.848  25.485  1.00  0.00     0.023 C 
BRANCH  23  24
ATOM     24  C   UNL A   1      32.524  30.413  26.577  1.00  0.00     0.116 C 
BRANCH  24  25
ATOM     25  N   UNL A   1      32.263  31.825  26.846  1.00  0.00    -0.352 N 
ATOM     26  C   UNL A   1      33.075  32.702  27.521  1.00  0.00     0.251 C 
ATOM     27  H   UNL A   1      31.413  32.188  26.504  1.00  0.00     0.163 HD
ATOM     28  O   UNL A   1      32.719  33.833  27.799  1.00  0.00    -0.269 OA
BRANCH  26  29
ATOM     29  C   UNL A   1      34.387  32.181  27.926  1.00  0.00     0.039 A 
ATOM     30  C   UNL A   1      35.461  33.058  28.029  1.00  0.00     0.014 A 
ATOM     31  C   UNL A   1      34.460  30.868  28.402  1.00  0.00     0.014 A 
ATOM     32  C   UNL A   1      36.619  32.617  28.657  1.00  0.00     0.010 A 
ATOM     33  C   UNL A   1      35.544  30.494  29.168  1.00  0.00     0.010 A 
ATOM     34  C   UNL A   1      36.653  31.344  29.254  1.00  0.00    -0.014 A 
BRANCH  34  35
ATOM     35  C   UNL A   1      37.880  30.838  29.896  1.00  0.00     0.031 A 
ATOM     36  C   UNL A   1      38.152  31.211  31.327  1.00  0.00     0.074 A 
ATOM     37  C   UNL A   1      38.740  30.083  29.191  1.00  0.00     0.049 A 
ATOM     38  N   UNL A   1      39.154  30.870  32.092  1.00  0.00    -0.248 NA
ATOM     39  C   UNL A   1      37.196  32.129  31.974  1.00  0.00     0.031 C 
ATOM     40  C   UNL A   1      38.607  29.740  27.771  1.00  0.00     0.029 A 
ATOM     41  N   UNL A   1      39.894  29.456  29.578  1.00  0.00    -0.354 N 
ATOM     42  C   UNL A   1      38.953  31.544  33.290  1.00  0.00     0.074 A 
ATOM     43  C   UNL A   1      37.793  32.385  33.124  1.00  0.00     0.031 C 
ATOM     44  C   UNL A   1      39.610  28.916  27.424  1.00  0.00     0.029 A 
ATOM     45  C   UNL A   1      40.461  28.695  28.587  1.00  0.00     0.049 A 
ATOM     46  H   UNL A   1      40.277  29.543  30.481  1.00  0.00     0.167 HD
ATOM     47  C   UNL A   1      39.643  31.430  34.446  1.00  0.00     0.037 A 
ATOM     48  C   UNL A   1      41.539  27.890  28.633  1.00  0.00     0.037 A 
ATOM     49  C   UNL A   1      40.763  30.549  34.608  1.00  0.00     0.049 A 
ATOM     50  C   UNL A   1      42.261  27.739  29.944  1.00  0.00     0.074 A 
ATOM     51  C   UNL A   1      41.508  30.296  35.743  1.00  0.00     0.029 A 
ATOM     52  N   UNL A   1      41.291  29.764  33.593  1.00  0.00    -0.354 N 
ATOM     53  N   UNL A   1      42.013  28.315  31.096  1.00  0.00    -0.248 NA
ATOM     54  C   UNL A   1      43.400  26.814  29.964  1.00  0.00     0.031 C 
ATOM     55  C   UNL A   1      42.511  29.381  35.405  1.00  0.00     0.029 A 
ATOM     56  C   UNL A   1      42.362  29.032  34.072  1.00  0.00     0.049 A 
ATOM     57  H   UNL A   1      40.953  29.732  32.668  1.00  0.00     0.167 HD
ATOM     58  C   UNL A   1      42.949  27.806  31.986  1.00  0.00     0.074 A 
ATOM     59  C   UNL A   1      43.752  26.856  31.242  1.00  0.00     0.031 C 
ATOM     60  C   UNL A   1      43.134  28.093  33.298  1.00  0.00     0.037 A 
BRANCH  47  61
ATOM     61  C   UNL A   1      39.181  32.262  35.606  1.00  0.00     0.057 A 
ATOM     62  C   UNL A   1      39.636  33.575  35.801  1.00  0.00     0.134 A 
ATOM     63  C   UNL A   1      38.284  31.745  36.545  1.00  0.00     0.134 A 
ATOM     64  F   UNL A   1      40.519  34.123  34.952  1.00  0.00    -0.206 F 
ATOM     65  C   UNL A   1      39.238  34.330  36.906  1.00  0.00     0.040 A 
ATOM     66  C   UNL A   1      37.855  32.501  37.638  1.00  0.00     0.040 A 
ATOM     67  F   UNL A   1      37.815  30.494  36.423  1.00  0.00    -0.206 F 
ATOM     68  C   UNL A   1      38.339  33.794  37.826  1.00  0.00     0.006 A 
ENDBRANCH  47  61
BRANCH  48  69
ATOM     69  C   UNL A   1      41.950  27.123  27.432  1.00  0.00     0.057 A 
ATOM     70  C   UNL A   1      42.805  27.682  26.474  1.00  0.00     0.134 A 
ATOM     71  C   UNL A   1      41.508  25.813  27.213  1.00  0.00     0.134 A 
ATOM     72  F   UNL A   1      43.257  28.936  26.623  1.00  0.00    -0.206 F 
ATOM     73  C   UNL A   1      43.184  26.978  25.330  1.00  0.00     0.040 A 
ATOM     74  C   UNL A   1      41.898  25.088  26.085  1.00  0.00     0.040 A 
ATOM     75  F   UNL A   1      40.699  25.214  28.099  1.00  0.00    -0.206 F 
ATOM     76  C   UNL A   1      42.733  25.674  25.135  1.00  0.00     0.006 A 
ENDBRANCH  48  69
BRANCH  60  77
ATOM     77  C   UNL A   1      44.228  27.352  34.004  1.00  0.00     0.057 A 
ATOM     78  C   UNL A   1      44.003  26.111  34.612  1.00  0.00     0.134 A 
ATOM     79  C   UNL A   1      45.526  27.875  34.051  1.00  0.00     0.134 A 
ATOM     80  F   UNL A   1      42.777  25.563  34.609  1.00  0.00    -0.206 F 
ATOM     81  C   UNL A   1      45.026  25.430  35.272  1.00  0.00     0.040 A 
ATOM     82  C   UNL A   1      46.563  27.190  34.682  1.00  0.00     0.040 A 
ATOM     83  F   UNL A   1      45.807  29.053  33.475  1.00  0.00    -0.206 F 
ATOM     84  C   UNL A   1      46.311  25.969  35.304  1.00  0.00     0.006 A 
ENDBRANCH  60  77
ENDBRANCH  34  35
ENDBRANCH  26  29
ENDBRANCH  24  25
ENDBRANCH  23  24
ENDBRANCH   1  23
TORSDOF 16
ENDMDL
