MODEL 1
REMARK VINA RESULT:     -12.9      0.000      0.000
REMARK SMILES CC1=Nc2ncnn2[C@H](c2ccc(F)cc2)[C@@H]1C(=O)NCCCCNC(=O)c1ccc(-c2c3nc(c(-c4c(F)cccc4F)c4ccc([nH]4)c(-c4c(F)cccc4F)c4nc(c(-c5c(F)cccc5F)c5ccc2[nH]5)C=C4)C=C3)cc1
REMARK SMILES IDX 23 1 22 2 21 3 20 4 18 5 19 6 17 8 1 9 2 10 3 11 4 12 9 13
REMARK SMILES IDX 5 14 8 15 6 16 7 17 10 18 11 19 16 20 12 21 15 22 13 23
REMARK SMILES IDX 14 24 24 25 25 26 26 27 27 29 28 30 29 31 81 32 30 33 80 34
REMARK SMILES IDX 31 35 32 36 33 37 74 38 34 39 79 40 73 41 75 42 35 43 78 44
REMARK SMILES IDX 72 45 71 46 36 48 62 49 45 50 61 51 46 52 49 53 60 54 76 55
REMARK SMILES IDX 47 56 48 57 59 59 77 60 50 61 37 62 38 63 43 64 39 65 40 66
REMARK SMILES IDX 42 67 44 68 41 69 63 70 64 71 69 72 65 73 66 74 68 75 70 76
REMARK SMILES IDX 67 77 51 78 52 79 57 80 53 81 54 82 56 83 58 84 55 85
REMARK H PARENT 20 7 25 28 75 47 49 58
REMARK Flexibility Score: inf
ROOT
ATOM      1  C   UNL A   1      32.776  29.393  26.477  1.00  0.00     0.023 C 
ENDROOT
BRANCH   1   2
ATOM      2  C   UNL A   1      33.631  28.920  25.287  1.00  0.00     0.023 C 
BRANCH   2   3
ATOM      3  C   UNL A   1      33.653  27.408  25.029  1.00  0.00     0.116 C 
BRANCH   3   4
ATOM      4  N   UNL A   1      33.788  27.129  23.614  1.00  0.00    -0.355 N 
ATOM      5  C   UNL A   1      33.141  26.242  22.815  1.00  0.00     0.231 C 
ATOM      6  O   UNL A   1      33.568  26.107  21.667  1.00  0.00    -0.274 OA
ATOM      7  H   UNL A   1      34.465  27.675  23.152  1.00  0.00     0.163 HD
BRANCH   5   8
ATOM      8  C   UNL A   1      31.922  25.473  23.308  1.00  0.00     0.152 C 
ATOM      9  C   UNL A   1      30.569  27.703  23.478  1.00  0.00     0.063 C 
ATOM     10  C   UNL A   1      30.970  26.377  24.093  1.00  0.00     0.034 C 
ATOM     11  N   UNL A   1      30.370  26.066  25.201  1.00  0.00    -0.220 NA
ATOM     12  C   UNL A   1      30.562  24.843  25.734  1.00  0.00     0.248 A 
ATOM     13  C   UNL A   1      32.270  24.154  24.053  1.00  0.00     0.159 C 
ATOM     14  N   UNL A   1      29.939  24.274  26.744  1.00  0.00    -0.198 NA
ATOM     15  N   UNL A   1      31.441  23.935  25.222  1.00  0.00    -0.221 N 
ATOM     16  C   UNL A   1      30.434  23.004  26.766  1.00  0.00     0.248 A 
ATOM     17  N   UNL A   1      31.331  22.728  25.818  1.00  0.00    -0.157 NA
BRANCH  13  18
ATOM     18  C   UNL A   1      33.725  23.828  24.386  1.00  0.00    -0.022 A 
ATOM     19  C   UNL A   1      34.501  23.156  23.417  1.00  0.00     0.009 A 
ATOM     20  C   UNL A   1      34.332  24.180  25.601  1.00  0.00     0.009 A 
ATOM     21  C   UNL A   1      35.868  22.991  23.594  1.00  0.00     0.039 A 
ATOM     22  C   UNL A   1      35.708  24.077  25.750  1.00  0.00     0.039 A 
ATOM     23  C   UNL A   1      36.455  23.516  24.734  1.00  0.00     0.123 A 
ATOM     24  F   UNL A   1      37.776  23.521  24.858  1.00  0.00    -0.207 F 
ENDBRANCH  13  18
ENDBRANCH   5   8
ENDBRANCH   3   4
ENDBRANCH   2   3
ENDBRANCH   1   2
BRANCH   1  25
ATOM     25  C   UNL A   1      33.573  30.031  27.602  1.00  0.00     0.116 C 
BRANCH  25  26
ATOM     26  N   UNL A   1      34.098  31.354  27.259  1.00  0.00    -0.352 N 
ATOM     27  C   UNL A   1      35.305  31.919  27.654  1.00  0.00     0.251 C 
ATOM     28  H   UNL A   1      33.529  31.910  26.679  1.00  0.00     0.163 HD
ATOM     29  O   UNL A   1      35.486  33.121  27.626  1.00  0.00    -0.269 OA
BRANCH  27  30
ATOM     30  C   UNL A   1      36.377  31.004  28.092  1.00  0.00     0.039 A 
ATOM     31  C   UNL A   1      36.494  29.692  27.626  1.00  0.00     0.014 A 
ATOM     32  C   UNL A   1      37.319  31.536  28.962  1.00  0.00     0.014 A 
ATOM     33  C   UNL A   1      37.616  28.953  28.003  1.00  0.00     0.010 A 
ATOM     34  C   UNL A   1      38.519  30.908  29.119  1.00  0.00     0.010 A 
ATOM     35  C   UNL A   1      38.631  29.581  28.742  1.00  0.00    -0.014 A 
BRANCH  35  36
ATOM     36  C   UNL A   1      39.874  28.913  29.103  1.00  0.00     0.031 A 
ATOM     37  C   UNL A   1      40.104  28.773  30.559  1.00  0.00     0.074 A 
ATOM     38  C   UNL A   1      40.659  28.308  28.181  1.00  0.00     0.049 A 
ATOM     39  N   UNL A   1      41.014  29.371  31.251  1.00  0.00    -0.248 NA
ATOM     40  C   UNL A   1      39.146  28.006  31.370  1.00  0.00     0.031 C 
ATOM     41  C   UNL A   1      40.462  28.191  26.727  1.00  0.00     0.029 A 
ATOM     42  N   UNL A   1      41.797  27.590  28.375  1.00  0.00    -0.354 N 
ATOM     43  C   UNL A   1      40.879  28.905  32.553  1.00  0.00     0.074 A 
ATOM     44  C   UNL A   1      39.622  28.205  32.602  1.00  0.00     0.031 C 
ATOM     45  C   UNL A   1      41.319  27.277  26.216  1.00  0.00     0.029 A 
ATOM     46  C   UNL A   1      42.225  26.864  27.266  1.00  0.00     0.049 A 
ATOM     47  H   UNL A   1      42.281  27.583  29.233  1.00  0.00     0.167 HD
ATOM     48  C   UNL A   1      41.927  28.948  33.419  1.00  0.00     0.037 A 
ATOM     49  C   UNL A   1      43.285  26.021  27.200  1.00  0.00     0.037 A 
ATOM     50  C   UNL A   1      42.976  29.804  32.924  1.00  0.00     0.049 A 
ATOM     51  C   UNL A   1      44.218  26.461  28.260  1.00  0.00     0.074 A 
ATOM     52  C   UNL A   1      43.086  31.154  32.658  1.00  0.00     0.029 A 
ATOM     53  N   UNL A   1      44.004  29.199  32.243  1.00  0.00    -0.354 N 
ATOM     54  N   UNL A   1      44.813  27.622  28.248  1.00  0.00    -0.248 NA
ATOM     55  C   UNL A   1      44.117  25.818  29.559  1.00  0.00     0.031 C 
ATOM     56  C   UNL A   1      43.877  31.235  31.475  1.00  0.00     0.029 A 
ATOM     57  C   UNL A   1      44.267  29.942  31.121  1.00  0.00     0.049 A 
ATOM     58  H   UNL A   1      44.471  28.375  32.514  1.00  0.00     0.167 HD
ATOM     59  C   UNL A   1      44.764  28.053  29.565  1.00  0.00     0.074 A 
ATOM     60  C   UNL A   1      44.415  26.860  30.338  1.00  0.00     0.031 C 
ATOM     61  C   UNL A   1      44.729  29.384  29.868  1.00  0.00     0.037 A 
BRANCH  48  62
ATOM     62  C   UNL A   1      42.166  27.950  34.518  1.00  0.00     0.057 A 
ATOM     63  C   UNL A   1      41.677  28.094  35.831  1.00  0.00     0.134 A 
ATOM     64  C   UNL A   1      42.653  26.670  34.196  1.00  0.00     0.134 A 
ATOM     65  F   UNL A   1      41.085  29.219  36.252  1.00  0.00    -0.206 F 
ATOM     66  C   UNL A   1      41.670  27.049  36.757  1.00  0.00     0.040 A 
ATOM     67  C   UNL A   1      42.606  25.602  35.101  1.00  0.00     0.040 A 
ATOM     68  F   UNL A   1      43.122  26.401  32.969  1.00  0.00    -0.206 F 
ATOM     69  C   UNL A   1      42.111  25.789  36.385  1.00  0.00     0.006 A 
ENDBRANCH  48  62
BRANCH  49  70
ATOM     70  C   UNL A   1      43.351  24.670  26.590  1.00  0.00     0.057 A 
ATOM     71  C   UNL A   1      44.002  24.453  25.363  1.00  0.00     0.134 A 
ATOM     72  C   UNL A   1      42.529  23.626  27.032  1.00  0.00     0.134 A 
ATOM     73  F   UNL A   1      44.693  25.434  24.774  1.00  0.00    -0.206 F 
ATOM     74  C   UNL A   1      43.863  23.271  24.627  1.00  0.00     0.040 A 
ATOM     75  C   UNL A   1      42.362  22.441  26.296  1.00  0.00     0.040 A 
ATOM     76  F   UNL A   1      41.809  23.761  28.155  1.00  0.00    -0.206 F 
ATOM     77  C   UNL A   1      43.028  22.261  25.087  1.00  0.00     0.006 A 
ENDBRANCH  49  70
BRANCH  61  78
ATOM     78  C   UNL A   1      44.972  30.369  28.752  1.00  0.00     0.057 A 
ATOM     79  C   UNL A   1      46.266  30.866  28.565  1.00  0.00     0.134 A 
ATOM     80  C   UNL A   1      43.953  30.981  28.004  1.00  0.00     0.134 A 
ATOM     81  F   UNL A   1      47.286  30.368  29.280  1.00  0.00    -0.206 F 
ATOM     82  C   UNL A   1      46.532  31.927  27.695  1.00  0.00     0.040 A 
ATOM     83  C   UNL A   1      44.209  32.026  27.107  1.00  0.00     0.040 A 
ATOM     84  F   UNL A   1      42.674  30.641  28.169  1.00  0.00    -0.206 F 
ATOM     85  C   UNL A   1      45.503  32.511  26.961  1.00  0.00     0.006 A 
ENDBRANCH  61  78
ENDBRANCH  35  36
ENDBRANCH  27  30
ENDBRANCH  25  26
ENDBRANCH   1  25
TORSDOF 12
ENDMDL
MODEL 2
REMARK VINA RESULT:     -12.9      2.013      3.462
REMARK SMILES CC1=Nc2ncnn2[C@H](c2ccc(F)cc2)[C@@H]1C(=O)NCCCCNC(=O)c1ccc(-c2c3nc(c(-c4c(F)cccc4F)c4ccc([nH]4)c(-c4c(F)cccc4F)c4nc(c(-c5c(F)cccc5F)c5ccc2[nH]5)C=C4)C=C3)cc1
REMARK SMILES IDX 23 1 22 2 21 3 20 4 18 5 19 6 17 8 1 9 2 10 3 11 4 12 9 13
REMARK SMILES IDX 5 14 8 15 6 16 7 17 10 18 11 19 16 20 12 21 15 22 13 23
REMARK SMILES IDX 14 24 24 25 25 26 26 27 27 29 28 30 29 31 81 32 30 33 80 34
REMARK SMILES IDX 31 35 32 36 33 37 74 38 34 39 79 40 73 41 75 42 35 43 78 44
REMARK SMILES IDX 72 45 71 46 36 48 62 49 45 50 61 51 46 52 49 53 60 54 76 55
REMARK SMILES IDX 47 56 48 57 59 59 77 60 50 61 37 62 38 63 43 64 39 65 40 66
REMARK SMILES IDX 42 67 44 68 41 69 63 70 64 71 69 72 65 73 66 74 68 75 70 76
REMARK SMILES IDX 67 77 51 78 52 79 57 80 53 81 54 82 56 83 58 84 55 85
REMARK H PARENT 20 7 25 28 75 47 49 58
REMARK Flexibility Score: inf
ROOT
ATOM      1  C   UNL A   1      32.806  30.102  26.948  1.00  0.00     0.023 C 
ENDROOT
BRANCH   1   2
ATOM      2  C   UNL A   1      32.550  28.628  27.310  1.00  0.00     0.023 C 
BRANCH   2   3
ATOM      3  C   UNL A   1      32.036  27.733  26.175  1.00  0.00     0.116 C 
BRANCH   3   4
ATOM      4  N   UNL A   1      30.959  26.880  26.639  1.00  0.00    -0.355 N 
ATOM      5  C   UNL A   1      30.394  25.778  26.082  1.00  0.00     0.231 C 
ATOM      6  O   UNL A   1      29.380  25.335  26.625  1.00  0.00    -0.274 OA
ATOM      7  H   UNL A   1      30.571  27.145  27.504  1.00  0.00     0.163 HD
BRANCH   5   8
ATOM      8  C   UNL A   1      31.005  25.103  24.861  1.00  0.00     0.152 C 
ATOM      9  C   UNL A   1      33.083  24.393  26.279  1.00  0.00     0.063 C 
ATOM     10  C   UNL A   1      32.523  24.973  24.995  1.00  0.00     0.034 C 
ATOM     11  N   UNL A   1      33.390  25.206  24.058  1.00  0.00    -0.220 NA
ATOM     12  C   UNL A   1      32.957  25.584  22.839  1.00  0.00     0.248 A 
ATOM     13  C   UNL A   1      30.559  25.727  23.510  1.00  0.00     0.159 C 
ATOM     14  N   UNL A   1      33.640  25.713  21.721  1.00  0.00    -0.198 NA
ATOM     15  N   UNL A   1      31.646  25.835  22.556  1.00  0.00    -0.221 N 
ATOM     16  C   UNL A   1      32.691  25.985  20.781  1.00  0.00     0.248 A 
ATOM     17  N   UNL A   1      31.437  26.025  21.236  1.00  0.00    -0.157 NA
BRANCH  13  18
ATOM     18  C   UNL A   1      29.736  27.014  23.498  1.00  0.00    -0.022 A 
ATOM     19  C   UNL A   1      30.409  28.240  23.307  1.00  0.00     0.009 A 
ATOM     20  C   UNL A   1      28.340  27.033  23.649  1.00  0.00     0.009 A 
ATOM     21  C   UNL A   1      29.697  29.416  23.113  1.00  0.00     0.039 A 
ATOM     22  C   UNL A   1      27.627  28.194  23.388  1.00  0.00     0.039 A 
ATOM     23  C   UNL A   1      28.314  29.355  23.092  1.00  0.00     0.123 A 
ATOM     24  F   UNL A   1      27.607  30.425  22.748  1.00  0.00    -0.207 F 
ENDBRANCH  13  18
ENDBRANCH   5   8
ENDBRANCH   3   4
ENDBRANCH   2   3
ENDBRANCH   1   2
BRANCH   1  25
ATOM     25  C   UNL A   1      34.185  30.608  27.337  1.00  0.00     0.116 C 
BRANCH  25  26
ATOM     26  N   UNL A   1      34.153  31.599  28.415  1.00  0.00    -0.352 N 
ATOM     27  C   UNL A   1      35.022  31.709  29.494  1.00  0.00     0.251 C 
ATOM     28  H   UNL A   1      33.432  32.266  28.369  1.00  0.00     0.163 HD
ATOM     29  O   UNL A   1      34.712  32.312  30.503  1.00  0.00    -0.269 OA
BRANCH  27  30
ATOM     30  C   UNL A   1      36.352  31.083  29.367  1.00  0.00     0.039 A 
ATOM     31  C   UNL A   1      37.529  31.822  29.222  1.00  0.00     0.014 A 
ATOM     32  C   UNL A   1      36.389  29.697  29.458  1.00  0.00     0.014 A 
ATOM     33  C   UNL A   1      38.747  31.139  29.241  1.00  0.00     0.010 A 
ATOM     34  C   UNL A   1      37.571  29.073  29.726  1.00  0.00     0.010 A 
ATOM     35  C   UNL A   1      38.753  29.761  29.508  1.00  0.00    -0.014 A 
BRANCH  35  36
ATOM     36  C   UNL A   1      39.979  28.986  29.633  1.00  0.00     0.031 A 
ATOM     37  C   UNL A   1      40.470  28.817  31.020  1.00  0.00     0.074 A 
ATOM     38  C   UNL A   1      40.519  28.321  28.584  1.00  0.00     0.049 A 
ATOM     39  N   UNL A   1      41.544  29.330  31.520  1.00  0.00    -0.248 NA
ATOM     40  C   UNL A   1      39.622  28.131  32.006  1.00  0.00     0.031 C 
ATOM     41  C   UNL A   1      40.039  28.231  27.196  1.00  0.00     0.029 A 
ATOM     42  N   UNL A   1      41.607  27.506  28.565  1.00  0.00    -0.354 N 
ATOM     43  C   UNL A   1      41.620  28.869  32.828  1.00  0.00     0.074 A 
ATOM     44  C   UNL A   1      40.339  28.280  33.123  1.00  0.00     0.031 C 
ATOM     45  C   UNL A   1      40.702  27.249  26.541  1.00  0.00     0.029 A 
ATOM     46  C   UNL A   1      41.752  26.753  27.403  1.00  0.00     0.049 A 
ATOM     47  H   UNL A   1      42.244  27.451  29.315  1.00  0.00     0.167 HD
ATOM     48  C   UNL A   1      42.814  28.816  33.478  1.00  0.00     0.037 A 
ATOM     49  C   UNL A   1      42.703  25.822  27.145  1.00  0.00     0.037 A 
ATOM     50  C   UNL A   1      43.819  29.581  32.783  1.00  0.00     0.049 A 
ATOM     51  C   UNL A   1      43.855  26.173  28.002  1.00  0.00     0.074 A 
ATOM     52  C   UNL A   1      43.992  30.918  32.487  1.00  0.00     0.029 A 
ATOM     53  N   UNL A   1      44.642  28.894  31.925  1.00  0.00    -0.354 N 
ATOM     54  N   UNL A   1      44.535  27.278  27.865  1.00  0.00    -0.248 NA
ATOM     55  C   UNL A   1      43.949  25.533  29.303  1.00  0.00     0.031 C 
ATOM     56  C   UNL A   1      44.547  30.938  31.175  1.00  0.00     0.029 A 
ATOM     57  C   UNL A   1      44.749  29.618  30.766  1.00  0.00     0.049 A 
ATOM     58  H   UNL A   1      45.079  28.031  32.110  1.00  0.00     0.167 HD
ATOM     59  C   UNL A   1      44.776  27.703  29.162  1.00  0.00     0.074 A 
ATOM     60  C   UNL A   1      44.480  26.540  30.001  1.00  0.00     0.031 C 
ATOM     61  C   UNL A   1      44.914  29.030  29.454  1.00  0.00     0.037 A 
BRANCH  48  62
ATOM     62  C   UNL A   1      43.171  27.794  34.521  1.00  0.00     0.057 A 
ATOM     63  C   UNL A   1      43.039  28.006  35.908  1.00  0.00     0.134 A 
ATOM     64  C   UNL A   1      43.385  26.458  34.136  1.00  0.00     0.134 A 
ATOM     65  F   UNL A   1      42.727  29.204  36.419  1.00  0.00    -0.206 F 
ATOM     66  C   UNL A   1      43.112  26.972  36.843  1.00  0.00     0.040 A 
ATOM     67  C   UNL A   1      43.411  25.407  35.062  1.00  0.00     0.040 A 
ATOM     68  F   UNL A   1      43.502  26.125  32.842  1.00  0.00    -0.206 F 
ATOM     69  C   UNL A   1      43.272  25.662  36.420  1.00  0.00     0.006 A 
ENDBRANCH  48  62
BRANCH  49  70
ATOM     70  C   UNL A   1      42.536  24.475  26.546  1.00  0.00     0.057 A 
ATOM     71  C   UNL A   1      41.869  23.446  27.235  1.00  0.00     0.134 A 
ATOM     72  C   UNL A   1      43.277  24.072  25.428  1.00  0.00     0.134 A 
ATOM     73  F   UNL A   1      41.252  23.690  28.395  1.00  0.00    -0.206 F 
ATOM     74  C   UNL A   1      41.918  22.106  26.834  1.00  0.00     0.040 A 
ATOM     75  C   UNL A   1      43.355  22.729  25.024  1.00  0.00     0.040 A 
ATOM     76  F   UNL A   1      44.007  24.965  24.744  1.00  0.00    -0.206 F 
ATOM     77  C   UNL A   1      42.675  21.740  25.729  1.00  0.00     0.006 A 
ENDBRANCH  49  70
BRANCH  61  78
ATOM     78  C   UNL A   1      45.024  29.998  28.301  1.00  0.00     0.057 A 
ATOM     79  C   UNL A   1      46.295  30.355  27.843  1.00  0.00     0.134 A 
ATOM     80  C   UNL A   1      43.943  30.726  27.777  1.00  0.00     0.134 A 
ATOM     81  F   UNL A   1      47.383  29.741  28.334  1.00  0.00    -0.206 F 
ATOM     82  C   UNL A   1      46.487  31.392  26.926  1.00  0.00     0.040 A 
ATOM     83  C   UNL A   1      44.117  31.748  26.836  1.00  0.00     0.040 A 
ATOM     84  F   UNL A   1      42.697  30.524  28.209  1.00  0.00    -0.206 F 
ATOM     85  C   UNL A   1      45.396  32.093  26.418  1.00  0.00     0.006 A 
ENDBRANCH  61  78
ENDBRANCH  35  36
ENDBRANCH  27  30
ENDBRANCH  25  26
ENDBRANCH   1  25
TORSDOF 12
ENDMDL
MODEL 3
REMARK VINA RESULT:     -12.8      1.943      6.129
REMARK SMILES CC1=Nc2ncnn2[C@H](c2ccc(F)cc2)[C@@H]1C(=O)NCCCCNC(=O)c1ccc(-c2c3nc(c(-c4c(F)cccc4F)c4ccc([nH]4)c(-c4c(F)cccc4F)c4nc(c(-c5c(F)cccc5F)c5ccc2[nH]5)C=C4)C=C3)cc1
REMARK SMILES IDX 23 1 22 2 21 3 20 4 18 5 19 6 17 8 1 9 2 10 3 11 4 12 9 13
REMARK SMILES IDX 5 14 8 15 6 16 7 17 10 18 11 19 16 20 12 21 15 22 13 23
REMARK SMILES IDX 14 24 24 25 25 26 26 27 27 29 28 30 29 31 81 32 30 33 80 34
REMARK SMILES IDX 31 35 32 36 33 37 74 38 34 39 79 40 73 41 75 42 35 43 78 44
REMARK SMILES IDX 72 45 71 46 36 48 62 49 45 50 61 51 46 52 49 53 60 54 76 55
REMARK SMILES IDX 47 56 48 57 59 59 77 60 50 61 37 62 38 63 43 64 39 65 40 66
REMARK SMILES IDX 42 67 44 68 41 69 63 70 64 71 69 72 65 73 66 74 68 75 70 76
REMARK SMILES IDX 67 77 51 78 52 79 57 80 53 81 54 82 56 83 58 84 55 85
REMARK H PARENT 20 7 25 28 75 47 49 58
REMARK Flexibility Score: inf
ROOT
ATOM      1  C   UNL A   1      34.042  29.086  27.066  1.00  0.00     0.023 C 
ENDROOT
BRANCH   1   2
ATOM      2  C   UNL A   1      33.944  28.777  25.561  1.00  0.00     0.023 C 
BRANCH   2   3
ATOM      3  C   UNL A   1      33.765  27.301  25.184  1.00  0.00     0.116 C 
BRANCH   3   4
ATOM      4  N   UNL A   1      33.893  27.115  23.752  1.00  0.00    -0.355 N 
ATOM      5  C   UNL A   1      33.229  26.294  22.898  1.00  0.00     0.231 C 
ATOM      6  O   UNL A   1      33.652  26.230  21.742  1.00  0.00    -0.274 OA
ATOM      7  H   UNL A   1      34.578  27.680  23.326  1.00  0.00     0.163 HD
BRANCH   5   8
ATOM      8  C   UNL A   1      31.998  25.514  23.342  1.00  0.00     0.152 C 
ATOM      9  C   UNL A   1      30.670  27.748  23.626  1.00  0.00     0.063 C 
ATOM     10  C   UNL A   1      31.053  26.386  24.170  1.00  0.00     0.034 C 
ATOM     11  N   UNL A   1      30.443  26.023  25.256  1.00  0.00    -0.220 NA
ATOM     12  C   UNL A   1      30.617  24.770  25.723  1.00  0.00     0.248 A 
ATOM     13  C   UNL A   1      32.327  24.153  24.016  1.00  0.00     0.159 C 
ATOM     14  N   UNL A   1      29.982  24.155  26.698  1.00  0.00    -0.198 NA
ATOM     15  N   UNL A   1      31.489  23.881  25.167  1.00  0.00    -0.221 N 
ATOM     16  C   UNL A   1      30.462  22.879  26.653  1.00  0.00     0.248 A 
ATOM     17  N   UNL A   1      31.361  22.645  25.696  1.00  0.00    -0.157 NA
BRANCH  13  18
ATOM     18  C   UNL A   1      33.776  23.792  24.338  1.00  0.00    -0.022 A 
ATOM     19  C   UNL A   1      34.566  23.212  23.321  1.00  0.00     0.009 A 
ATOM     20  C   UNL A   1      34.365  24.026  25.590  1.00  0.00     0.009 A 
ATOM     21  C   UNL A   1      35.929  23.026  23.502  1.00  0.00     0.039 A 
ATOM     22  C   UNL A   1      35.738  23.904  25.749  1.00  0.00     0.039 A 
ATOM     23  C   UNL A   1      36.500  23.439  24.695  1.00  0.00     0.123 A 
ATOM     24  F   UNL A   1      37.819  23.428  24.840  1.00  0.00    -0.207 F 
ENDBRANCH  13  18
ENDBRANCH   5   8
ENDBRANCH   3   4
ENDBRANCH   2   3
ENDBRANCH   1   2
BRANCH   1  25
ATOM     25  C   UNL A   1      35.455  29.344  27.558  1.00  0.00     0.116 C 
BRANCH  25  26
ATOM     26  N   UNL A   1      35.510  29.769  28.958  1.00  0.00    -0.352 N 
ATOM     27  C   UNL A   1      36.482  29.462  29.903  1.00  0.00     0.251 C 
ATOM     28  H   UNL A   1      34.771  30.341  29.267  1.00  0.00     0.163 HD
ATOM     29  O   UNL A   1      36.263  29.549  31.096  1.00  0.00    -0.269 OA
BRANCH  27  30
ATOM     30  C   UNL A   1      37.807  29.042  29.408  1.00  0.00     0.039 A 
ATOM     31  C   UNL A   1      38.448  29.662  28.331  1.00  0.00     0.014 A 
ATOM     32  C   UNL A   1      38.429  28.020  30.113  1.00  0.00     0.014 A 
ATOM     33  C   UNL A   1      39.753  29.275  28.025  1.00  0.00     0.010 A 
ATOM     34  C   UNL A   1      39.772  27.827  29.972  1.00  0.00     0.010 A 
ATOM     35  C   UNL A   1      40.410  28.362  28.867  1.00  0.00    -0.014 A 
BRANCH  35  36
ATOM     36  C   UNL A   1      41.799  27.969  28.674  1.00  0.00     0.031 A 
ATOM     37  C   UNL A   1      41.991  26.732  27.882  1.00  0.00     0.074 A 
ATOM     38  C   UNL A   1      42.829  28.771  29.032  1.00  0.00     0.049 A 
ATOM     39  N   UNL A   1      42.440  25.605  28.320  1.00  0.00    -0.248 NA
ATOM     40  C   UNL A   1      41.507  26.683  26.494  1.00  0.00     0.031 C 
ATOM     41  C   UNL A   1      42.794  30.109  29.645  1.00  0.00     0.029 A 
ATOM     42  N   UNL A   1      44.162  28.574  28.850  1.00  0.00    -0.354 N 
ATOM     43  C   UNL A   1      42.489  24.755  27.223  1.00  0.00     0.074 A 
ATOM     44  C   UNL A   1      41.753  25.410  26.172  1.00  0.00     0.031 C 
ATOM     45  C   UNL A   1      44.021  30.678  29.582  1.00  0.00     0.029 A 
ATOM     46  C   UNL A   1      44.955  29.696  29.076  1.00  0.00     0.049 A 
ATOM     47  H   UNL A   1      44.538  27.705  28.579  1.00  0.00     0.167 HD
ATOM     48  C   UNL A   1      43.326  23.683  27.210  1.00  0.00     0.037 A 
ATOM     49  C   UNL A   1      46.297  29.797  28.908  1.00  0.00     0.037 A 
ATOM     50  C   UNL A   1      43.827  23.399  28.532  1.00  0.00     0.049 A 
ATOM     51  C   UNL A   1      46.824  28.422  29.042  1.00  0.00     0.074 A 
ATOM     52  C   UNL A   1      43.258  22.994  29.722  1.00  0.00     0.029 A 
ATOM     53  N   UNL A   1      45.054  23.923  28.858  1.00  0.00    -0.354 N 
ATOM     54  N   UNL A   1      46.755  27.736  30.149  1.00  0.00    -0.248 NA
ATOM     55  C   UNL A   1      46.992  27.642  27.827  1.00  0.00     0.031 C 
ATOM     56  C   UNL A   1      43.962  23.711  30.733  1.00  0.00     0.029 A 
ATOM     57  C   UNL A   1      44.967  24.460  30.117  1.00  0.00     0.049 A 
ATOM     58  H   UNL A   1      45.857  23.914  28.288  1.00  0.00     0.167 HD
ATOM     59  C   UNL A   1      46.428  26.452  29.745  1.00  0.00     0.074 A 
ATOM     60  C   UNL A   1      46.685  26.433  28.304  1.00  0.00     0.031 C 
ATOM     61  C   UNL A   1      45.712  25.619  30.558  1.00  0.00     0.037 A 
BRANCH  48  62
ATOM     62  C   UNL A   1      43.976  23.123  25.975  1.00  0.00     0.057 A 
ATOM     63  C   UNL A   1      44.943  23.811  25.216  1.00  0.00     0.134 A 
ATOM     64  C   UNL A   1      43.852  21.752  25.689  1.00  0.00     0.134 A 
ATOM     65  F   UNL A   1      45.250  25.094  25.446  1.00  0.00    -0.206 F 
ATOM     66  C   UNL A   1      45.729  23.187  24.245  1.00  0.00     0.040 A 
ATOM     67  C   UNL A   1      44.669  21.106  24.752  1.00  0.00     0.040 A 
ATOM     68  F   UNL A   1      42.984  20.984  26.363  1.00  0.00    -0.206 F 
ATOM     69  C   UNL A   1      45.613  21.823  24.029  1.00  0.00     0.006 A 
ENDBRANCH  48  62
BRANCH  49  70
ATOM     70  C   UNL A   1      47.064  30.887  28.258  1.00  0.00     0.057 A 
ATOM     71  C   UNL A   1      48.043  31.612  28.959  1.00  0.00     0.134 A 
ATOM     72  C   UNL A   1      46.656  31.445  27.040  1.00  0.00     0.134 A 
ATOM     73  F   UNL A   1      48.402  31.253  30.196  1.00  0.00    -0.206 F 
ATOM     74  C   UNL A   1      48.596  32.805  28.479  1.00  0.00     0.040 A 
ATOM     75  C   UNL A   1      47.184  32.651  26.553  1.00  0.00     0.040 A 
ATOM     76  F   UNL A   1      45.676  30.869  26.327  1.00  0.00    -0.206 F 
ATOM     77  C   UNL A   1      48.156  33.337  27.275  1.00  0.00     0.006 A 
ENDBRANCH  49  70
BRANCH  61  78
ATOM     78  C   UNL A   1      45.485  26.051  31.986  1.00  0.00     0.057 A 
ATOM     79  C   UNL A   1      46.429  25.692  32.953  1.00  0.00     0.134 A 
ATOM     80  C   UNL A   1      44.292  26.621  32.458  1.00  0.00     0.134 A 
ATOM     81  F   UNL A   1      47.573  25.095  32.586  1.00  0.00    -0.206 F 
ATOM     82  C   UNL A   1      46.193  25.872  34.319  1.00  0.00     0.040 A 
ATOM     83  C   UNL A   1      44.054  26.834  33.821  1.00  0.00     0.040 A 
ATOM     84  F   UNL A   1      43.293  26.922  31.627  1.00  0.00    -0.206 F 
ATOM     85  C   UNL A   1      45.003  26.446  34.759  1.00  0.00     0.006 A 
ENDBRANCH  61  78
ENDBRANCH  35  36
ENDBRANCH  27  30
ENDBRANCH  25  26
ENDBRANCH   1  25
TORSDOF 12
ENDMDL
