MODEL 1
REMARK VINA RESULT:     -11.9      0.000      0.000
REMARK SMILES Cc1cc(CS(=O)(=O)N[C@@H]2C=C[C@H](C(=O)NCCCCNC(=O)c3ccc(-c4c5nc(c(-c6c(F)cccc6F)c6ccc([nH]6)c(-c6c(F)cccc6F)c6nc(c(-c7c(F)cccc7F)c7ccc4[nH]7)C=C6)C=C5)cc3)C2)no1
REMARK SMILES IDX 17 1 16 2 14 3 15 4 13 6 10 7 11 8 78 9 12 10 9 11 6 13 7 14
REMARK SMILES IDX 8 15 5 16 4 17 1 18 2 19 3 20 80 21 79 22 18 23 19 24 20 25
REMARK SMILES IDX 21 26 22 27 23 29 24 30 25 31 77 32 26 33 76 34 27 35 28 36
REMARK SMILES IDX 29 37 70 38 30 39 75 40 69 41 71 42 31 43 74 44 68 45 67 46
REMARK SMILES IDX 32 48 58 49 41 50 57 51 42 52 45 53 56 54 72 55 43 56 44 57
REMARK SMILES IDX 55 59 73 60 46 61 33 62 34 63 39 64 35 65 36 66 38 67 40 68
REMARK SMILES IDX 37 69 59 70 60 71 65 72 61 73 62 74 64 75 66 76 63 77 47 78
REMARK SMILES IDX 48 79 53 80 49 81 50 82 52 83 54 84 51 85
REMARK H PARENT 16 5 9 12 21 28 71 47 45 58
REMARK Flexibility Score: inf
ROOT
ATOM      1  C   UNL A   1      33.109  30.026  26.691  1.00  0.00     0.116 C 
ENDROOT
BRANCH   1   2
ATOM      2  N   UNL A   1      33.405  29.892  25.275  1.00  0.00    -0.356 N 
ATOM      3  C   UNL A   1      32.828  29.207  24.255  1.00  0.00     0.226 C 
ATOM      4  O   UNL A   1      33.419  29.257  23.169  1.00  0.00    -0.274 OA
ATOM      5  H   UNL A   1      34.196  30.410  24.995  1.00  0.00     0.163 HD
BRANCH   3   6
ATOM      6  C   UNL A   1      31.496  28.450  24.339  1.00  0.00     0.103 C 
ATOM      7  C   UNL A   1      30.780  26.854  22.581  1.00  0.00     0.093 C 
ATOM      8  C   UNL A   1      30.026  28.140  22.556  1.00  0.00    -0.011 C 
ATOM      9  C   UNL A   1      31.679  27.009  23.812  1.00  0.00     0.042 C 
ATOM     10  C   UNL A   1      30.344  28.963  23.557  1.00  0.00    -0.016 C 
BRANCH   7  11
ATOM     11  N   UNL A   1      31.523  26.758  21.321  1.00  0.00    -0.208 NA
ATOM     12  H   UNL A   1      30.886  26.377  20.623  1.00  0.00     0.141 HD
BRANCH  11  13
ATOM     13  S   UNL A   1      32.920  25.812  21.294  1.00  0.00     0.218 S 
ATOM     14  O   UNL A   1      34.023  26.640  21.721  1.00  0.00    -0.212 OA
ATOM     15  O   UNL A   1      32.927  25.236  19.961  1.00  0.00    -0.212 OA
BRANCH  13  16
ATOM     16  C   UNL A   1      32.620  24.449  22.454  1.00  0.00     0.213 C 
BRANCH  16  17
ATOM     17  C   UNL A   1      33.832  23.934  23.132  1.00  0.00     0.100 A 
ATOM     18  C   UNL A   1      36.688  23.875  25.415  1.00  0.00     0.091 C 
ATOM     19  C   UNL A   1      35.554  23.718  24.485  1.00  0.00     0.133 A 
ATOM     20  C   UNL A   1      34.260  24.180  24.462  1.00  0.00     0.073 A 
ATOM     21  O   UNL A   1      35.813  23.063  23.324  1.00  0.00    -0.361 OA
ATOM     22  N   UNL A   1      34.715  23.160  22.488  1.00  0.00    -0.084 NA
ENDBRANCH  16  17
ENDBRANCH  13  16
ENDBRANCH  11  13
ENDBRANCH   7  11
ENDBRANCH   3   6
ENDBRANCH   1   2
BRANCH   1  23
ATOM     23  C   UNL A   1      31.666  30.478  26.919  1.00  0.00     0.023 C 
BRANCH  23  24
ATOM     24  C   UNL A   1      31.471  31.994  26.819  1.00  0.00     0.023 C 
BRANCH  24  25
ATOM     25  C   UNL A   1      32.695  32.826  27.189  1.00  0.00     0.116 C 
BRANCH  25  26
ATOM     26  N   UNL A   1      32.364  34.179  27.613  1.00  0.00    -0.352 N 
ATOM     27  C   UNL A   1      32.980  34.948  28.570  1.00  0.00     0.251 C 
ATOM     28  H   UNL A   1      31.601  34.597  27.152  1.00  0.00     0.163 HD
ATOM     29  O   UNL A   1      32.508  36.031  28.898  1.00  0.00    -0.269 OA
BRANCH  27  30
ATOM     30  C   UNL A   1      34.198  34.435  29.229  1.00  0.00     0.039 A 
ATOM     31  C   UNL A   1      34.080  33.796  30.463  1.00  0.00     0.014 A 
ATOM     32  C   UNL A   1      35.442  34.542  28.601  1.00  0.00     0.014 A 
ATOM     33  C   UNL A   1      35.204  33.201  31.039  1.00  0.00     0.010 A 
ATOM     34  C   UNL A   1      36.542  33.881  29.136  1.00  0.00     0.010 A 
ATOM     35  C   UNL A   1      36.434  33.204  30.360  1.00  0.00    -0.014 A 
BRANCH  35  36
ATOM     36  C   UNL A   1      37.617  32.500  30.916  1.00  0.00     0.031 A 
ATOM     37  C   UNL A   1      38.272  32.999  32.174  1.00  0.00     0.074 A 
ATOM     38  C   UNL A   1      38.138  31.449  30.254  1.00  0.00     0.049 A 
ATOM     39  N   UNL A   1      39.337  32.548  32.785  1.00  0.00    -0.248 NA
ATOM     40  C   UNL A   1      37.667  34.178  32.813  1.00  0.00     0.031 C 
ATOM     41  C   UNL A   1      37.628  30.904  28.993  1.00  0.00     0.029 A 
ATOM     42  N   UNL A   1      39.218  30.653  30.545  1.00  0.00    -0.354 N 
ATOM     43  C   UNL A   1      39.536  33.393  33.870  1.00  0.00     0.074 A 
ATOM     44  C   UNL A   1      38.518  34.419  33.799  1.00  0.00     0.031 C 
ATOM     45  C   UNL A   1      38.377  29.849  28.636  1.00  0.00     0.029 A 
ATOM     46  C   UNL A   1      39.441  29.665  29.617  1.00  0.00     0.049 A 
ATOM     47  H   UNL A   1      39.779  30.780  31.344  1.00  0.00     0.167 HD
ATOM     48  C   UNL A   1      40.467  33.308  34.849  1.00  0.00     0.037 A 
ATOM     49  C   UNL A   1      40.399  28.721  29.562  1.00  0.00     0.037 A 
ATOM     50  C   UNL A   1      41.465  32.274  34.928  1.00  0.00     0.049 A 
ATOM     51  C   UNL A   1      41.423  28.649  30.661  1.00  0.00     0.074 A 
ATOM     52  C   UNL A   1      42.412  32.064  35.914  1.00  0.00     0.029 A 
ATOM     53  N   UNL A   1      41.650  31.281  33.978  1.00  0.00    -0.354 N 
ATOM     54  N   UNL A   1      41.552  29.408  31.723  1.00  0.00    -0.248 NA
ATOM     55  C   UNL A   1      42.432  27.585  30.558  1.00  0.00     0.031 C 
ATOM     56  C   UNL A   1      43.204  30.975  35.536  1.00  0.00     0.029 A 
ATOM     57  C   UNL A   1      42.712  30.470  34.342  1.00  0.00     0.049 A 
ATOM     58  H   UNL A   1      41.106  31.168  33.164  1.00  0.00     0.167 HD
ATOM     59  C   UNL A   1      42.633  28.896  32.429  1.00  0.00     0.074 A 
ATOM     60  C   UNL A   1      43.114  27.751  31.682  1.00  0.00     0.031 C 
ATOM     61  C   UNL A   1      43.178  29.332  33.591  1.00  0.00     0.037 A 
BRANCH  48  62
ATOM     62  C   UNL A   1      40.445  34.363  35.919  1.00  0.00     0.057 A 
ATOM     63  C   UNL A   1      41.147  35.569  35.784  1.00  0.00     0.134 A 
ATOM     64  C   UNL A   1      39.687  34.186  37.083  1.00  0.00     0.134 A 
ATOM     65  F   UNL A   1      41.904  35.798  34.700  1.00  0.00    -0.206 F 
ATOM     66  C   UNL A   1      41.119  36.547  36.780  1.00  0.00     0.040 A 
ATOM     67  C   UNL A   1      39.626  35.170  38.071  1.00  0.00     0.040 A 
ATOM     68  F   UNL A   1      38.985  33.059  37.274  1.00  0.00    -0.206 F 
ATOM     69  C   UNL A   1      40.350  36.352  37.925  1.00  0.00     0.006 A 
ENDBRANCH  48  62
BRANCH  49  70
ATOM     70  C   UNL A   1      40.423  27.750  28.438  1.00  0.00     0.057 A 
ATOM     71  C   UNL A   1      39.726  26.538  28.513  1.00  0.00     0.134 A 
ATOM     72  C   UNL A   1      41.148  28.004  27.267  1.00  0.00     0.134 A 
ATOM     73  F   UNL A   1      39.028  26.229  29.617  1.00  0.00    -0.206 F 
ATOM     74  C   UNL A   1      39.766  25.604  27.477  1.00  0.00     0.040 A 
ATOM     75  C   UNL A   1      41.174  27.091  26.211  1.00  0.00     0.040 A 
ATOM     76  F   UNL A   1      41.830  29.150  27.127  1.00  0.00    -0.206 F 
ATOM     77  C   UNL A   1      40.489  25.883  26.318  1.00  0.00     0.006 A 
ENDBRANCH  49  70
BRANCH  61  78
ATOM     78  C   UNL A   1      44.331  28.548  34.146  1.00  0.00     0.057 A 
ATOM     79  C   UNL A   1      44.142  27.432  34.970  1.00  0.00     0.134 A 
ATOM     80  C   UNL A   1      45.649  28.894  33.821  1.00  0.00     0.134 A 
ATOM     81  F   UNL A   1      42.906  27.053  35.330  1.00  0.00    -0.206 F 
ATOM     82  C   UNL A   1      45.222  26.704  35.473  1.00  0.00     0.040 A 
ATOM     83  C   UNL A   1      46.736  28.157  34.292  1.00  0.00     0.040 A 
ATOM     84  F   UNL A   1      45.901  29.947  33.027  1.00  0.00    -0.206 F 
ATOM     85  C   UNL A   1      46.524  27.063  35.127  1.00  0.00     0.006 A 
ENDBRANCH  61  78
ENDBRANCH  35  36
ENDBRANCH  27  30
ENDBRANCH  25  26
ENDBRANCH  24  25
ENDBRANCH  23  24
ENDBRANCH   1  23
TORSDOF 15
ENDMDL
MODEL 2
REMARK VINA RESULT:     -11.9      1.908      6.710
REMARK SMILES Cc1cc(CS(=O)(=O)N[C@@H]2C=C[C@H](C(=O)NCCCCNC(=O)c3ccc(-c4c5nc(c(-c6c(F)cccc6F)c6ccc([nH]6)c(-c6c(F)cccc6F)c6nc(c(-c7c(F)cccc7F)c7ccc4[nH]7)C=C6)C=C5)cc3)C2)no1
REMARK SMILES IDX 17 1 16 2 14 3 15 4 13 6 10 7 11 8 78 9 12 10 9 11 6 13 7 14
REMARK SMILES IDX 8 15 5 16 4 17 1 18 2 19 3 20 80 21 79 22 18 23 19 24 20 25
REMARK SMILES IDX 21 26 22 27 23 29 24 30 25 31 77 32 26 33 76 34 27 35 28 36
REMARK SMILES IDX 29 37 70 38 30 39 75 40 69 41 71 42 31 43 74 44 68 45 67 46
REMARK SMILES IDX 32 48 58 49 41 50 57 51 42 52 45 53 56 54 72 55 43 56 44 57
REMARK SMILES IDX 55 59 73 60 46 61 33 62 34 63 39 64 35 65 36 66 38 67 40 68
REMARK SMILES IDX 37 69 59 70 60 71 65 72 61 73 62 74 64 75 66 76 63 77 47 78
REMARK SMILES IDX 48 79 53 80 49 81 50 82 52 83 54 84 51 85
REMARK H PARENT 16 5 9 12 21 28 71 47 45 58
REMARK Flexibility Score: inf
ROOT
ATOM      1  C   UNL A   1      33.324  30.156  26.366  1.00  0.00     0.116 C 
ENDROOT
BRANCH   1   2
ATOM      2  N   UNL A   1      33.582  29.319  25.208  1.00  0.00    -0.356 N 
ATOM      3  C   UNL A   1      33.698  27.978  25.024  1.00  0.00     0.226 C 
ATOM      4  O   UNL A   1      34.018  27.615  23.886  1.00  0.00    -0.274 OA
ATOM      5  H   UNL A   1      33.700  29.834  24.376  1.00  0.00     0.163 HD
BRANCH   3   6
ATOM      6  C   UNL A   1      33.402  26.911  26.086  1.00  0.00     0.103 C 
ATOM      7  C   UNL A   1      32.883  24.563  25.478  1.00  0.00     0.093 C 
ATOM      8  C   UNL A   1      31.694  25.331  25.947  1.00  0.00    -0.011 C 
ATOM      9  C   UNL A   1      34.029  25.563  25.661  1.00  0.00     0.042 C 
ATOM     10  C   UNL A   1      31.985  26.565  26.362  1.00  0.00    -0.016 C 
BRANCH   7  11
ATOM     11  N   UNL A   1      32.643  24.196  24.080  1.00  0.00    -0.208 NA
ATOM     12  H   UNL A   1      31.643  24.029  23.978  1.00  0.00     0.141 HD
BRANCH  11  13
ATOM     13  S   UNL A   1      33.443  22.841  23.467  1.00  0.00     0.218 S 
ATOM     14  O   UNL A   1      34.612  23.302  22.757  1.00  0.00    -0.212 OA
ATOM     15  O   UNL A   1      32.406  22.117  22.753  1.00  0.00    -0.212 OA
BRANCH  13  16
ATOM     16  C   UNL A   1      33.890  21.835  24.909  1.00  0.00     0.213 C 
BRANCH  16  17
ATOM     17  C   UNL A   1      33.457  20.420  24.835  1.00  0.00     0.100 A 
ATOM     18  C   UNL A   1      33.379  16.940  23.717  1.00  0.00     0.091 C 
ATOM     19  C   UNL A   1      33.321  18.286  24.317  1.00  0.00     0.133 A 
ATOM     20  C   UNL A   1      34.245  19.280  24.535  1.00  0.00     0.073 A 
ATOM     21  O   UNL A   1      32.089  18.742  24.658  1.00  0.00    -0.361 OA
ATOM     22  N   UNL A   1      32.178  20.072  25.027  1.00  0.00    -0.084 NA
ENDBRANCH  16  17
ENDBRANCH  13  16
ENDBRANCH  11  13
ENDBRANCH   7  11
ENDBRANCH   3   6
ENDBRANCH   1   2
BRANCH   1  23
ATOM     23  C   UNL A   1      31.831  30.446  26.523  1.00  0.00     0.023 C 
BRANCH  23  24
ATOM     24  C   UNL A   1      31.515  31.911  26.835  1.00  0.00     0.023 C 
BRANCH  24  25
ATOM     25  C   UNL A   1      32.697  32.729  27.346  1.00  0.00     0.116 C 
BRANCH  25  26
ATOM     26  N   UNL A   1      32.366  34.124  27.599  1.00  0.00    -0.352 N 
ATOM     27  C   UNL A   1      32.950  34.992  28.488  1.00  0.00     0.251 C 
ATOM     28  H   UNL A   1      31.627  34.493  27.062  1.00  0.00     0.163 HD
ATOM     29  O   UNL A   1      32.478  36.108  28.671  1.00  0.00    -0.269 OA
BRANCH  27  30
ATOM     30  C   UNL A   1      34.133  34.548  29.253  1.00  0.00     0.039 A 
ATOM     31  C   UNL A   1      33.952  34.020  30.531  1.00  0.00     0.014 A 
ATOM     32  C   UNL A   1      35.409  34.608  28.684  1.00  0.00     0.014 A 
ATOM     33  C   UNL A   1      35.045  33.487  31.215  1.00  0.00     0.010 A 
ATOM     34  C   UNL A   1      36.480  34.004  29.332  1.00  0.00     0.010 A 
ATOM     35  C   UNL A   1      36.310  33.438  30.604  1.00  0.00    -0.014 A 
BRANCH  35  36
ATOM     36  C   UNL A   1      37.464  32.794  31.281  1.00  0.00     0.031 A 
ATOM     37  C   UNL A   1      38.127  31.593  30.666  1.00  0.00     0.074 A 
ATOM     38  C   UNL A   1      37.874  33.254  32.478  1.00  0.00     0.049 A 
ATOM     39  N   UNL A   1      39.114  30.868  31.127  1.00  0.00    -0.248 NA
ATOM     40  C   UNL A   1      37.591  31.127  29.377  1.00  0.00     0.031 C 
ATOM     41  C   UNL A   1      37.277  34.377  33.205  1.00  0.00     0.029 A 
ATOM     42  N   UNL A   1      38.888  32.830  33.301  1.00  0.00    -0.354 N 
ATOM     43  C   UNL A   1      39.308  29.857  30.195  1.00  0.00     0.074 A 
ATOM     44  C   UNL A   1      38.299  30.026  29.172  1.00  0.00     0.031 C 
ATOM     45  C   UNL A   1      37.951  34.568  34.350  1.00  0.00     0.029 A 
ATOM     46  C   UNL A   1      39.002  33.562  34.458  1.00  0.00     0.049 A 
ATOM     47  H   UNL A   1      39.477  32.072  33.081  1.00  0.00     0.167 HD
ATOM     48  C   UNL A   1      40.256  28.891  30.179  1.00  0.00     0.037 A 
ATOM     49  C   UNL A   1      39.855  33.432  35.492  1.00  0.00     0.037 A 
ATOM     50  C   UNL A   1      41.272  28.739  31.188  1.00  0.00     0.049 A 
ATOM     51  C   UNL A   1      40.898  32.349  35.451  1.00  0.00     0.074 A 
ATOM     52  C   UNL A   1      42.315  27.832  31.229  1.00  0.00     0.029 A 
ATOM     53  N   UNL A   1      41.365  29.510  32.337  1.00  0.00    -0.354 N 
ATOM     54  N   UNL A   1      41.120  31.448  34.524  1.00  0.00    -0.248 NA
ATOM     55  C   UNL A   1      41.814  32.269  36.597  1.00  0.00     0.031 C 
ATOM     56  C   UNL A   1      43.010  28.019  32.429  1.00  0.00     0.029 A 
ATOM     57  C   UNL A   1      42.434  29.082  33.106  1.00  0.00     0.049 A 
ATOM     58  H   UNL A   1      40.761  30.252  32.571  1.00  0.00     0.167 HD
ATOM     59  C   UNL A   1      42.216  30.716  34.959  1.00  0.00     0.074 A 
ATOM     60  C   UNL A   1      42.625  31.288  36.226  1.00  0.00     0.031 C 
ATOM     61  C   UNL A   1      42.832  29.664  34.363  1.00  0.00     0.037 A 
BRANCH  48  62
ATOM     62  C   UNL A   1      40.240  27.923  29.030  1.00  0.00     0.057 A 
ATOM     63  C   UNL A   1      39.506  26.730  29.076  1.00  0.00     0.134 A 
ATOM     64  C   UNL A   1      40.939  28.204  27.849  1.00  0.00     0.134 A 
ATOM     65  F   UNL A   1      38.824  26.393  30.181  1.00  0.00    -0.206 F 
ATOM     66  C   UNL A   1      39.492  25.838  28.002  1.00  0.00     0.040 A 
ATOM     67  C   UNL A   1      40.908  27.335  26.757  1.00  0.00     0.040 A 
ATOM     68  F   UNL A   1      41.657  29.332  27.733  1.00  0.00    -0.206 F 
ATOM     69  C   UNL A   1      40.188  26.144  26.835  1.00  0.00     0.006 A 
ENDBRANCH  48  62
BRANCH  49  70
ATOM     70  C   UNL A   1      39.777  34.367  36.643  1.00  0.00     0.057 A 
ATOM     71  C   UNL A   1      40.437  35.601  36.621  1.00  0.00     0.134 A 
ATOM     72  C   UNL A   1      39.048  34.048  37.796  1.00  0.00     0.134 A 
ATOM     73  F   UNL A   1      41.166  35.956  35.551  1.00  0.00    -0.206 F 
ATOM     74  C   UNL A   1      40.397  36.474  37.709  1.00  0.00     0.040 A 
ATOM     75  C   UNL A   1      38.976  34.924  38.881  1.00  0.00     0.040 A 
ATOM     76  F   UNL A   1      38.385  32.885  37.878  1.00  0.00    -0.206 F 
ATOM     77  C   UNL A   1      39.659  36.137  38.842  1.00  0.00     0.006 A 
ENDBRANCH  49  70
BRANCH  61  78
ATOM     78  C   UNL A   1      44.033  29.090  35.055  1.00  0.00     0.057 A 
ATOM     79  C   UNL A   1      45.331  29.548  34.794  1.00  0.00     0.134 A 
ATOM     80  C   UNL A   1      43.886  28.088  36.023  1.00  0.00     0.134 A 
ATOM     81  F   UNL A   1      45.544  30.498  33.870  1.00  0.00    -0.206 F 
ATOM     82  C   UNL A   1      46.440  29.013  35.451  1.00  0.00     0.040 A 
ATOM     83  C   UNL A   1      44.983  27.566  36.709  1.00  0.00     0.040 A 
ATOM     84  F   UNL A   1      42.669  27.610  36.330  1.00  0.00    -0.206 F 
ATOM     85  C   UNL A   1      46.266  28.024  36.417  1.00  0.00     0.006 A 
ENDBRANCH  61  78
ENDBRANCH  35  36
ENDBRANCH  27  30
ENDBRANCH  25  26
ENDBRANCH  24  25
ENDBRANCH  23  24
ENDBRANCH   1  23
TORSDOF 15
ENDMDL
MODEL 3
REMARK VINA RESULT:     -11.8      2.137      2.493
REMARK SMILES Cc1cc(CS(=O)(=O)N[C@@H]2C=C[C@H](C(=O)NCCCCNC(=O)c3ccc(-c4c5nc(c(-c6c(F)cccc6F)c6ccc([nH]6)c(-c6c(F)cccc6F)c6nc(c(-c7c(F)cccc7F)c7ccc4[nH]7)C=C6)C=C5)cc3)C2)no1
REMARK SMILES IDX 17 1 16 2 14 3 15 4 13 6 10 7 11 8 78 9 12 10 9 11 6 13 7 14
REMARK SMILES IDX 8 15 5 16 4 17 1 18 2 19 3 20 80 21 79 22 18 23 19 24 20 25
REMARK SMILES IDX 21 26 22 27 23 29 24 30 25 31 77 32 26 33 76 34 27 35 28 36
REMARK SMILES IDX 29 37 70 38 30 39 75 40 69 41 71 42 31 43 74 44 68 45 67 46
REMARK SMILES IDX 32 48 58 49 41 50 57 51 42 52 45 53 56 54 72 55 43 56 44 57
REMARK SMILES IDX 55 59 73 60 46 61 33 62 34 63 39 64 35 65 36 66 38 67 40 68
REMARK SMILES IDX 37 69 59 70 60 71 65 72 61 73 62 74 64 75 66 76 63 77 47 78
REMARK SMILES IDX 48 79 53 80 49 81 50 82 52 83 54 84 51 85
REMARK H PARENT 16 5 9 12 21 28 71 47 45 58
REMARK Flexibility Score: inf
ROOT
ATOM      1  C   UNL A   1      32.562  29.847  27.043  1.00  0.00     0.116 C 
ENDROOT
BRANCH   1   2
ATOM      2  N   UNL A   1      31.907  28.580  27.318  1.00  0.00    -0.356 N 
ATOM      3  C   UNL A   1      31.763  27.426  26.618  1.00  0.00     0.226 C 
ATOM      4  O   UNL A   1      31.048  26.562  27.142  1.00  0.00    -0.274 OA
ATOM      5  H   UNL A   1      31.474  28.552  28.203  1.00  0.00     0.163 HD
BRANCH   3   6
ATOM      6  C   UNL A   1      32.460  27.103  25.289  1.00  0.00     0.103 C 
ATOM      7  C   UNL A   1      33.048  24.781  24.646  1.00  0.00     0.093 C 
ATOM      8  C   UNL A   1      34.227  25.603  25.043  1.00  0.00    -0.011 C 
ATOM      9  C   UNL A   1      31.895  25.787  24.708  1.00  0.00     0.042 C 
ATOM     10  C   UNL A   1      33.927  26.877  25.300  1.00  0.00    -0.016 C 
BRANCH   7  11
ATOM     11  N   UNL A   1      32.929  23.690  25.617  1.00  0.00    -0.208 NA
ATOM     12  H   UNL A   1      33.857  23.526  26.004  1.00  0.00     0.141 HD
BRANCH  11  13
ATOM     13  S   UNL A   1      32.342  22.204  25.072  1.00  0.00     0.218 S 
ATOM     14  O   UNL A   1      32.530  22.152  23.642  1.00  0.00    -0.212 OA
ATOM     15  O   UNL A   1      31.000  22.135  25.624  1.00  0.00    -0.212 OA
BRANCH  13  16
ATOM     16  C   UNL A   1      33.327  20.940  25.922  1.00  0.00     0.213 C 
BRANCH  16  17
ATOM     17  C   UNL A   1      33.275  19.595  25.304  1.00  0.00     0.100 A 
ATOM     18  C   UNL A   1      34.070  16.884  22.983  1.00  0.00     0.091 C 
ATOM     19  C   UNL A   1      33.683  17.848  24.030  1.00  0.00     0.133 A 
ATOM     20  C   UNL A   1      34.322  18.888  24.661  1.00  0.00     0.073 A 
ATOM     21  O   UNL A   1      32.385  17.816  24.429  1.00  0.00    -0.361 OA
ATOM     22  N   UNL A   1      32.137  18.889  25.267  1.00  0.00    -0.084 NA
ENDBRANCH  16  17
ENDBRANCH  13  16
ENDBRANCH  11  13
ENDBRANCH   7  11
ENDBRANCH   3   6
ENDBRANCH   1   2
BRANCH   1  23
ATOM     23  C   UNL A   1      31.741  30.702  26.078  1.00  0.00     0.023 C 
BRANCH  23  24
ATOM     24  C   UNL A   1      31.436  32.108  26.603  1.00  0.00     0.023 C 
BRANCH  24  25
ATOM     25  C   UNL A   1      32.600  32.798  27.307  1.00  0.00     0.116 C 
BRANCH  25  26
ATOM     26  N   UNL A   1      32.316  34.178  27.672  1.00  0.00    -0.352 N 
ATOM     27  C   UNL A   1      32.963  34.969  28.590  1.00  0.00     0.251 C 
ATOM     28  H   UNL A   1      31.562  34.599  27.198  1.00  0.00     0.163 HD
ATOM     29  O   UNL A   1      32.528  36.079  28.873  1.00  0.00    -0.269 OA
BRANCH  27  30
ATOM     30  C   UNL A   1      34.169  34.446  29.263  1.00  0.00     0.039 A 
ATOM     31  C   UNL A   1      34.022  33.727  30.450  1.00  0.00     0.014 A 
ATOM     32  C   UNL A   1      35.433  34.625  28.694  1.00  0.00     0.014 A 
ATOM     33  C   UNL A   1      35.140  33.127  31.031  1.00  0.00     0.010 A 
ATOM     34  C   UNL A   1      36.530  33.960  29.229  1.00  0.00     0.010 A 
ATOM     35  C   UNL A   1      36.395  33.205  30.404  1.00  0.00    -0.014 A 
BRANCH  35  36
ATOM     36  C   UNL A   1      37.575  32.498  30.961  1.00  0.00     0.031 A 
ATOM     37  C   UNL A   1      38.231  32.996  32.219  1.00  0.00     0.074 A 
ATOM     38  C   UNL A   1      38.093  31.444  30.301  1.00  0.00     0.049 A 
ATOM     39  N   UNL A   1      39.294  32.543  32.832  1.00  0.00    -0.248 NA
ATOM     40  C   UNL A   1      37.629  34.178  32.856  1.00  0.00     0.031 C 
ATOM     41  C   UNL A   1      37.583  30.900  29.041  1.00  0.00     0.029 A 
ATOM     42  N   UNL A   1      39.171  30.646  30.594  1.00  0.00    -0.354 N 
ATOM     43  C   UNL A   1      39.495  33.389  33.915  1.00  0.00     0.074 A 
ATOM     44  C   UNL A   1      38.480  34.417  33.843  1.00  0.00     0.031 C 
ATOM     45  C   UNL A   1      38.329  29.842  28.685  1.00  0.00     0.029 A 
ATOM     46  C   UNL A   1      39.392  29.656  29.667  1.00  0.00     0.049 A 
ATOM     47  H   UNL A   1      39.732  30.772  31.393  1.00  0.00     0.167 HD
ATOM     48  C   UNL A   1      40.425  33.302  34.895  1.00  0.00     0.037 A 
ATOM     49  C   UNL A   1      40.347  28.709  29.613  1.00  0.00     0.037 A 
ATOM     50  C   UNL A   1      41.420  32.265  34.975  1.00  0.00     0.049 A 
ATOM     51  C   UNL A   1      41.370  28.635  30.713  1.00  0.00     0.074 A 
ATOM     52  C   UNL A   1      42.366  32.054  35.962  1.00  0.00     0.029 A 
ATOM     53  N   UNL A   1      41.602  31.270  34.027  1.00  0.00    -0.354 N 
ATOM     54  N   UNL A   1      41.500  29.395  31.775  1.00  0.00    -0.248 NA
ATOM     55  C   UNL A   1      42.375  27.568  30.612  1.00  0.00     0.031 C 
ATOM     56  C   UNL A   1      43.154  30.962  35.586  1.00  0.00     0.029 A 
ATOM     57  C   UNL A   1      42.662  30.457  34.393  1.00  0.00     0.049 A 
ATOM     58  H   UNL A   1      41.058  31.158  33.213  1.00  0.00     0.167 HD
ATOM     59  C   UNL A   1      42.579  28.880  32.481  1.00  0.00     0.074 A 
ATOM     60  C   UNL A   1      43.058  27.734  31.736  1.00  0.00     0.031 C 
ATOM     61  C   UNL A   1      43.125  29.317  33.644  1.00  0.00     0.037 A 
BRANCH  48  62
ATOM     62  C   UNL A   1      40.406  34.359  35.963  1.00  0.00     0.057 A 
ATOM     63  C   UNL A   1      41.152  35.541  35.850  1.00  0.00     0.134 A 
ATOM     64  C   UNL A   1      39.607  34.209  37.104  1.00  0.00     0.134 A 
ATOM     65  F   UNL A   1      41.948  35.743  34.789  1.00  0.00    -0.206 F 
ATOM     66  C   UNL A   1      41.125  36.520  36.844  1.00  0.00     0.040 A 
ATOM     67  C   UNL A   1      39.549  35.195  38.090  1.00  0.00     0.040 A 
ATOM     68  F   UNL A   1      38.863  33.105  37.274  1.00  0.00    -0.206 F 
ATOM     69  C   UNL A   1      40.315  36.352  37.965  1.00  0.00     0.006 A 
ENDBRANCH  48  62
BRANCH  49  70
ATOM     70  C   UNL A   1      40.368  27.736  28.491  1.00  0.00     0.057 A 
ATOM     71  C   UNL A   1      39.696  26.511  28.581  1.00  0.00     0.134 A 
ATOM     72  C   UNL A   1      41.066  28.002  27.306  1.00  0.00     0.134 A 
ATOM     73  F   UNL A   1      39.024  26.191  29.698  1.00  0.00    -0.206 F 
ATOM     74  C   UNL A   1      39.735  25.576  27.545  1.00  0.00     0.040 A 
ATOM     75  C   UNL A   1      41.090  27.088  26.251  1.00  0.00     0.040 A 
ATOM     76  F   UNL A   1      41.724  29.161  27.152  1.00  0.00    -0.206 F 
ATOM     77  C   UNL A   1      40.430  25.867  26.373  1.00  0.00     0.006 A 
ENDBRANCH  49  70
BRANCH  61  78
ATOM     78  C   UNL A   1      44.275  28.530  34.200  1.00  0.00     0.057 A 
ATOM     79  C   UNL A   1      44.083  27.428  35.043  1.00  0.00     0.134 A 
ATOM     80  C   UNL A   1      45.593  28.858  33.858  1.00  0.00     0.134 A 
ATOM     81  F   UNL A   1      42.847  27.067  35.420  1.00  0.00    -0.206 F 
ATOM     82  C   UNL A   1      45.161  26.698  35.547  1.00  0.00     0.040 A 
ATOM     83  C   UNL A   1      46.677  28.118  34.330  1.00  0.00     0.040 A 
ATOM     84  F   UNL A   1      45.849  29.896  33.046  1.00  0.00    -0.206 F 
ATOM     85  C   UNL A   1      46.463  27.038  35.184  1.00  0.00     0.006 A 
ENDBRANCH  61  78
ENDBRANCH  35  36
ENDBRANCH  27  30
ENDBRANCH  25  26
ENDBRANCH  24  25
ENDBRANCH  23  24
ENDBRANCH   1  23
TORSDOF 15
ENDMDL
