MODEL 1
REMARK VINA RESULT:     -12.7      0.000      0.000
REMARK SMILES O=C(NCCCCNC(=O)c1c(-c2ccc(Cl)cc2)noc1CO[C@@H]1CCCCO1)c1ccc(-c2c3nc(c(-c4c(F)cccc4F)c4ccc([nH]4)c(-c4c(F)cccc4F)c4nc(c(-c5c(F)cccc5F)c5ccc2[nH]5)C=C4)C=C3)cc1
REMARK SMILES IDX 6 1 5 2 4 3 3 4 1 5 2 6 31 8 32 9 84 10 33 11 83 12 34 13
REMARK SMILES IDX 35 14 36 15 77 16 37 17 82 18 76 19 78 20 38 21 81 22 75 23
REMARK SMILES IDX 74 24 39 26 65 27 48 28 64 29 49 30 52 31 63 32 79 33 50 34
REMARK SMILES IDX 51 35 62 37 80 38 53 39 40 40 41 41 46 42 42 43 43 44 45 45
REMARK SMILES IDX 47 46 44 47 66 48 67 49 72 50 68 51 69 52 71 53 73 54 70 55
REMARK SMILES IDX 54 56 55 57 60 58 56 59 57 60 59 61 61 62 58 63 7 64 8 65
REMARK SMILES IDX 9 66 10 68 11 69 12 70 22 71 20 72 21 73 13 74 14 75 19 76
REMARK SMILES IDX 15 77 18 78 16 79 17 80 23 81 24 82 25 83 26 84 30 85 27 86
REMARK SMILES IDX 29 87 28 88
REMARK H PARENT 3 7 78 25 52 36 8 67
REMARK Flexibility Score: inf
ROOT
ATOM      1  C   UNL A   1      31.401  30.672  25.728  1.00  0.00     0.023 C 
ENDROOT
BRANCH   1   2
ATOM      2  C   UNL A   1      31.303  31.990  26.507  1.00  0.00     0.023 C 
BRANCH   2   3
ATOM      3  C   UNL A   1      32.614  32.477  27.116  1.00  0.00     0.116 C 
BRANCH   3   4
ATOM      4  N   UNL A   1      32.526  33.854  27.573  1.00  0.00    -0.352 N 
ATOM      5  O   UNL A   1      32.842  35.581  28.985  1.00  0.00    -0.269 OA
ATOM      6  C   UNL A   1      33.213  34.489  28.579  1.00  0.00     0.251 C 
ATOM      7  H   UNL A   1      31.876  34.415  27.090  1.00  0.00     0.163 HD
BRANCH   6   8
ATOM      8  C   UNL A   1      34.397  33.839  29.174  1.00  0.00     0.039 A 
ATOM      9  C   UNL A   1      34.245  32.816  30.114  1.00  0.00     0.014 A 
ATOM     10  C   UNL A   1      35.668  34.238  28.760  1.00  0.00     0.014 A 
ATOM     11  C   UNL A   1      35.366  32.276  30.734  1.00  0.00     0.010 A 
ATOM     12  C   UNL A   1      36.795  33.645  29.331  1.00  0.00     0.010 A 
ATOM     13  C   UNL A   1      36.652  32.677  30.338  1.00  0.00    -0.014 A 
BRANCH  13  14
ATOM     14  C   UNL A   1      37.848  32.043  30.939  1.00  0.00     0.031 A 
ATOM     15  C   UNL A   1      38.592  30.965  30.208  1.00  0.00     0.074 A 
ATOM     16  C   UNL A   1      38.234  32.422  32.172  1.00  0.00     0.049 A 
ATOM     17  N   UNL A   1      39.587  30.225  30.621  1.00  0.00    -0.248 NA
ATOM     18  C   UNL A   1      38.151  30.674  28.836  1.00  0.00     0.031 C 
ATOM     19  C   UNL A   1      37.584  33.459  32.976  1.00  0.00     0.029 A 
ATOM     20  N   UNL A   1      39.252  31.968  32.970  1.00  0.00    -0.354 N 
ATOM     21  C   UNL A   1      39.876  29.360  29.573  1.00  0.00     0.074 A 
ATOM     22  C   UNL A   1      38.937  29.657  28.511  1.00  0.00     0.031 C 
ATOM     23  C   UNL A   1      38.218  33.564  34.151  1.00  0.00     0.029 A 
ATOM     24  C   UNL A   1      39.276  32.560  34.208  1.00  0.00     0.049 A 
ATOM     25  H   UNL A   1      39.900  31.286  32.684  1.00  0.00     0.167 HD
ATOM     26  C   UNL A   1      40.836  28.406  29.509  1.00  0.00     0.037 A 
ATOM     27  C   UNL A   1      40.035  32.298  35.286  1.00  0.00     0.037 A 
ATOM     28  C   UNL A   1      41.768  28.128  30.571  1.00  0.00     0.049 A 
ATOM     29  C   UNL A   1      41.069  31.215  35.206  1.00  0.00     0.074 A 
ATOM     30  C   UNL A   1      42.808  27.215  30.589  1.00  0.00     0.029 A 
ATOM     31  N   UNL A   1      41.764  28.754  31.809  1.00  0.00    -0.354 N 
ATOM     32  N   UNL A   1      41.356  30.427  34.199  1.00  0.00    -0.248 NA
ATOM     33  C   UNL A   1      41.882  30.984  36.407  1.00  0.00     0.031 C 
ATOM     34  C   UNL A   1      43.402  27.254  31.855  1.00  0.00     0.029 A 
ATOM     35  C   UNL A   1      42.766  28.228  32.608  1.00  0.00     0.049 A 
ATOM     36  H   UNL A   1      41.141  29.466  32.081  1.00  0.00     0.167 HD
ATOM     37  C   UNL A   1      42.397  29.619  34.634  1.00  0.00     0.074 A 
ATOM     38  C   UNL A   1      42.693  30.017  35.996  1.00  0.00     0.031 C 
ATOM     39  C   UNL A   1      43.051  28.641  33.960  1.00  0.00     0.037 A 
BRANCH  26  40
ATOM     40  C   UNL A   1      40.900  27.574  28.260  1.00  0.00     0.057 A 
ATOM     41  C   UNL A   1      40.182  26.380  28.122  1.00  0.00     0.134 A 
ATOM     42  C   UNL A   1      41.683  27.984  27.173  1.00  0.00     0.134 A 
ATOM     43  F   UNL A   1      39.422  25.922  29.128  1.00  0.00    -0.206 F 
ATOM     44  C   UNL A   1      40.266  25.606  26.962  1.00  0.00     0.040 A 
ATOM     45  C   UNL A   1      41.755  27.234  25.998  1.00  0.00     0.040 A 
ATOM     46  F   UNL A   1      42.391  29.122  27.234  1.00  0.00    -0.206 F 
ATOM     47  C   UNL A   1      41.051  26.036  25.894  1.00  0.00     0.006 A 
ENDBRANCH  26  40
BRANCH  27  48
ATOM     48  C   UNL A   1      39.814  33.075  36.529  1.00  0.00     0.057 A 
ATOM     49  C   UNL A   1      40.535  34.244  36.789  1.00  0.00     0.134 A 
ATOM     50  C   UNL A   1      38.826  32.704  37.450  1.00  0.00     0.134 A 
ATOM     51  F   UNL A   1      41.501  34.643  35.949  1.00  0.00    -0.206 F 
ATOM     52  C   UNL A   1      40.281  35.020  37.922  1.00  0.00     0.040 A 
ATOM     53  C   UNL A   1      38.544  33.482  38.573  1.00  0.00     0.040 A 
ATOM     54  F   UNL A   1      38.091  31.601  37.246  1.00  0.00    -0.206 F 
ATOM     55  C   UNL A   1      39.275  34.644  38.811  1.00  0.00     0.006 A 
ENDBRANCH  27  48
BRANCH  39  56
ATOM     56  C   UNL A   1      44.180  27.956  34.669  1.00  0.00     0.057 A 
ATOM     57  C   UNL A   1      45.482  28.472  34.660  1.00  0.00     0.134 A 
ATOM     58  C   UNL A   1      43.945  26.802  35.426  1.00  0.00     0.134 A 
ATOM     59  F   UNL A   1      45.774  29.567  33.943  1.00  0.00    -0.206 F 
ATOM     60  C   UNL A   1      46.511  27.859  35.376  1.00  0.00     0.040 A 
ATOM     61  C   UNL A   1      44.960  26.193  36.163  1.00  0.00     0.040 A 
ATOM     62  F   UNL A   1      42.718  26.261  35.479  1.00  0.00    -0.206 F 
ATOM     63  C   UNL A   1      46.249  26.721  36.137  1.00  0.00     0.006 A 
ENDBRANCH  39  56
ENDBRANCH  13  14
ENDBRANCH   6   8
ENDBRANCH   3   4
ENDBRANCH   2   3
ENDBRANCH   1   2
BRANCH   1  64
ATOM     64  C   UNL A   1      32.659  29.851  26.005  1.00  0.00     0.116 C 
BRANCH  64  65
ATOM     65  N   UNL A   1      33.466  29.698  24.813  1.00  0.00    -0.352 N 
ATOM     66  C   UNL A   1      33.387  28.790  23.793  1.00  0.00     0.257 C 
ATOM     67  H   UNL A   1      34.193  30.355  24.721  1.00  0.00     0.163 HD
ATOM     68  O   UNL A   1      34.369  28.706  23.055  1.00  0.00    -0.269 OA
BRANCH  66  69
ATOM     69  C   UNL A   1      32.204  27.985  23.594  1.00  0.00     0.113 A 
ATOM     70  C   UNL A   1      32.111  26.559  23.679  1.00  0.00     0.127 A 
ATOM     71  C   UNL A   1      30.991  28.341  23.032  1.00  0.00     0.175 A 
ATOM     72  N   UNL A   1      30.867  26.139  23.411  1.00  0.00    -0.079 NA
ATOM     73  O   UNL A   1      30.170  27.257  23.014  1.00  0.00    -0.357 OA
BRANCH  70  74
ATOM     74  C   UNL A   1      33.196  25.608  23.870  1.00  0.00     0.005 A 
ATOM     75  C   UNL A   1      33.592  24.731  22.852  1.00  0.00     0.012 A 
ATOM     76  C   UNL A   1      33.773  25.493  25.145  1.00  0.00     0.012 A 
ATOM     77  C   UNL A   1      34.529  23.729  23.121  1.00  0.00     0.021 A 
ATOM     78  C   UNL A   1      34.705  24.491  25.412  1.00  0.00     0.021 A 
ATOM     79  C   UNL A   1      35.071  23.606  24.400  1.00  0.00     0.041 A 
ATOM     80  Cl  UNL A   1      36.186  22.340  24.739  1.00  0.00    -0.084 Cl
ENDBRANCH  70  74
BRANCH  71  81
ATOM     81  C   UNL A   1      30.442  29.557  22.386  1.00  0.00     0.242 C 
BRANCH  81  82
ATOM     82  O   UNL A   1      29.297  29.177  21.630  1.00  0.00    -0.345 OA
BRANCH  82  83
ATOM     83  C   UNL A   1      28.073  29.872  21.885  1.00  0.00     0.250 C 
ATOM     84  C   UNL A   1      28.003  31.130  21.015  1.00  0.00     0.062 C 
ATOM     85  O   UNL A   1      27.804  30.081  23.268  1.00  0.00    -0.353 OA
ATOM     86  C   UNL A   1      28.780  32.282  21.628  1.00  0.00     0.008 C 
ATOM     87  C   UNL A   1      27.492  31.415  23.645  1.00  0.00     0.163 C 
ATOM     88  C   UNL A   1      28.499  32.425  23.118  1.00  0.00     0.029 C 
ENDBRANCH  82  83
ENDBRANCH  81  82
ENDBRANCH  71  81
ENDBRANCH  66  69
ENDBRANCH  64  65
ENDBRANCH   1  64
TORSDOF 15
ENDMDL
MODEL 2
REMARK VINA RESULT:     -12.6      5.381     10.234
REMARK SMILES O=C(NCCCCNC(=O)c1c(-c2ccc(Cl)cc2)noc1CO[C@@H]1CCCCO1)c1ccc(-c2c3nc(c(-c4c(F)cccc4F)c4ccc([nH]4)c(-c4c(F)cccc4F)c4nc(c(-c5c(F)cccc5F)c5ccc2[nH]5)C=C4)C=C3)cc1
REMARK SMILES IDX 6 1 5 2 4 3 3 4 1 5 2 6 31 8 32 9 84 10 33 11 83 12 34 13
REMARK SMILES IDX 35 14 36 15 77 16 37 17 82 18 76 19 78 20 38 21 81 22 75 23
REMARK SMILES IDX 74 24 39 26 65 27 48 28 64 29 49 30 52 31 63 32 79 33 50 34
REMARK SMILES IDX 51 35 62 37 80 38 53 39 40 40 41 41 46 42 42 43 43 44 45 45
REMARK SMILES IDX 47 46 44 47 66 48 67 49 72 50 68 51 69 52 71 53 73 54 70 55
REMARK SMILES IDX 54 56 55 57 60 58 56 59 57 60 59 61 61 62 58 63 7 64 8 65
REMARK SMILES IDX 9 66 10 68 11 69 12 70 22 71 20 72 21 73 13 74 14 75 19 76
REMARK SMILES IDX 15 77 18 78 16 79 17 80 23 81 24 82 25 83 26 84 30 85 27 86
REMARK SMILES IDX 29 87 28 88
REMARK H PARENT 3 7 78 25 52 36 8 67
REMARK Flexibility Score: inf
ROOT
ATOM      1  C   UNL A   1      36.087  20.287  24.998  1.00  0.00     0.023 C 
ENDROOT
BRANCH   1   2
ATOM      2  C   UNL A   1      37.471  19.679  24.739  1.00  0.00     0.023 C 
BRANCH   2   3
ATOM      3  C   UNL A   1      38.591  20.232  25.615  1.00  0.00     0.116 C 
BRANCH   3   4
ATOM      4  N   UNL A   1      39.689  19.291  25.756  1.00  0.00    -0.352 N 
ATOM      5  O   UNL A   1      41.843  18.642  25.884  1.00  0.00    -0.269 OA
ATOM      6  C   UNL A   1      41.013  19.525  26.040  1.00  0.00     0.251 C 
ATOM      7  H   UNL A   1      39.450  18.344  25.628  1.00  0.00     0.163 HD
BRANCH   6   8
ATOM      8  C   UNL A   1      41.428  20.857  26.525  1.00  0.00     0.039 A 
ATOM      9  C   UNL A   1      41.809  21.853  25.622  1.00  0.00     0.014 A 
ATOM     10  C   UNL A   1      41.403  21.115  27.896  1.00  0.00     0.014 A 
ATOM     11  C   UNL A   1      42.284  23.070  26.096  1.00  0.00     0.010 A 
ATOM     12  C   UNL A   1      41.813  22.362  28.368  1.00  0.00     0.010 A 
ATOM     13  C   UNL A   1      42.278  23.340  27.473  1.00  0.00    -0.014 A 
BRANCH  13  14
ATOM     14  C   UNL A   1      42.708  24.666  27.974  1.00  0.00     0.031 A 
ATOM     15  C   UNL A   1      41.696  25.725  28.300  1.00  0.00     0.074 A 
ATOM     16  C   UNL A   1      44.024  24.921  28.093  1.00  0.00     0.049 A 
ATOM     17  N   UNL A   1      41.889  26.972  28.642  1.00  0.00    -0.248 NA
ATOM     18  C   UNL A   1      40.281  25.333  28.219  1.00  0.00     0.031 C 
ATOM     19  C   UNL A   1      45.095  23.967  27.803  1.00  0.00     0.029 A 
ATOM     20  N   UNL A   1      44.684  26.061  28.472  1.00  0.00    -0.354 N 
ATOM     21  C   UNL A   1      40.623  27.524  28.791  1.00  0.00     0.074 A 
ATOM     22  C   UNL A   1      39.669  26.479  28.484  1.00  0.00     0.031 C 
ATOM     23  C   UNL A   1      46.279  24.559  28.015  1.00  0.00     0.029 A 
ATOM     24  C   UNL A   1      46.050  25.949  28.393  1.00  0.00     0.049 A 
ATOM     25  H   UNL A   1      44.224  26.879  28.771  1.00  0.00     0.167 HD
ATOM     26  C   UNL A   1      40.292  28.788  29.149  1.00  0.00     0.037 A 
ATOM     27  C   UNL A   1      47.012  26.872  28.563  1.00  0.00     0.037 A 
ATOM     28  C   UNL A   1      41.253  29.815  29.460  1.00  0.00     0.049 A 
ATOM     29  C   UNL A   1      46.625  28.275  28.926  1.00  0.00     0.074 A 
ATOM     30  C   UNL A   1      41.023  31.114  29.878  1.00  0.00     0.029 A 
ATOM     31  N   UNL A   1      42.629  29.661  29.373  1.00  0.00    -0.354 N 
ATOM     32  N   UNL A   1      45.426  28.777  29.097  1.00  0.00    -0.248 NA
ATOM     33  C   UNL A   1      47.717  29.237  29.118  1.00  0.00     0.031 C 
ATOM     34  C   UNL A   1      42.258  31.760  29.997  1.00  0.00     0.029 A 
ATOM     35  C   UNL A   1      43.260  30.850  29.704  1.00  0.00     0.049 A 
ATOM     36  H   UNL A   1      43.090  28.830  29.115  1.00  0.00     0.167 HD
ATOM     37  C   UNL A   1      45.616  30.108  29.439  1.00  0.00     0.074 A 
ATOM     38  C   UNL A   1      47.049  30.333  29.454  1.00  0.00     0.031 C 
ATOM     39  C   UNL A   1      44.688  31.054  29.721  1.00  0.00     0.037 A 
BRANCH  26  40
ATOM     40  C   UNL A   1      38.832  29.135  29.190  1.00  0.00     0.057 A 
ATOM     41  C   UNL A   1      38.135  29.566  28.055  1.00  0.00     0.134 A 
ATOM     42  C   UNL A   1      38.108  29.019  30.385  1.00  0.00     0.134 A 
ATOM     43  F   UNL A   1      38.769  29.710  26.881  1.00  0.00    -0.206 F 
ATOM     44  C   UNL A   1      36.781  29.903  28.112  1.00  0.00     0.040 A 
ATOM     45  C   UNL A   1      36.748  29.328  30.449  1.00  0.00     0.040 A 
ATOM     46  F   UNL A   1      38.711  28.604  31.509  1.00  0.00    -0.206 F 
ATOM     47  C   UNL A   1      36.083  29.780  29.311  1.00  0.00     0.006 A 
ENDBRANCH  26  40
BRANCH  27  48
ATOM     48  C   UNL A   1      48.429  26.481  28.369  1.00  0.00     0.057 A 
ATOM     49  C   UNL A   1      49.191  25.974  29.425  1.00  0.00     0.134 A 
ATOM     50  C   UNL A   1      49.029  26.538  27.104  1.00  0.00     0.134 A 
ATOM     51  F   UNL A   1      48.673  25.906  30.660  1.00  0.00    -0.206 F 
ATOM     52  C   UNL A   1      50.502  25.535  29.232  1.00  0.00     0.040 A 
ATOM     53  C   UNL A   1      50.329  26.080  26.891  1.00  0.00     0.040 A 
ATOM     54  F   UNL A   1      48.342  27.000  26.050  1.00  0.00    -0.206 F 
ATOM     55  C   UNL A   1      51.070  25.578  27.959  1.00  0.00     0.006 A 
ENDBRANCH  27  48
BRANCH  39  56
ATOM     56  C   UNL A   1      45.187  32.413  30.108  1.00  0.00     0.057 A 
ATOM     57  C   UNL A   1      45.343  33.440  29.169  1.00  0.00     0.134 A 
ATOM     58  C   UNL A   1      45.449  32.715  31.450  1.00  0.00     0.134 A 
ATOM     59  F   UNL A   1      45.122  33.209  27.867  1.00  0.00    -0.206 F 
ATOM     60  C   UNL A   1      45.749  34.719  29.552  1.00  0.00     0.040 A 
ATOM     61  C   UNL A   1      45.834  33.995  31.848  1.00  0.00     0.040 A 
ATOM     62  F   UNL A   1      45.313  31.776  32.399  1.00  0.00    -0.206 F 
ATOM     63  C   UNL A   1      45.987  35.001  30.896  1.00  0.00     0.006 A 
ENDBRANCH  39  56
ENDBRANCH  13  14
ENDBRANCH   6   8
ENDBRANCH   3   4
ENDBRANCH   2   3
ENDBRANCH   1   2
BRANCH   1  64
ATOM     64  C   UNL A   1      36.100  21.702  25.574  1.00  0.00     0.116 C 
BRANCH  64  65
ATOM     65  N   UNL A   1      35.206  21.823  26.705  1.00  0.00    -0.352 N 
ATOM     66  C   UNL A   1      33.934  22.320  26.788  1.00  0.00     0.257 C 
ATOM     67  H   UNL A   1      35.573  21.494  27.558  1.00  0.00     0.163 HD
ATOM     68  O   UNL A   1      33.514  22.569  27.918  1.00  0.00    -0.269 OA
BRANCH  66  69
ATOM     69  C   UNL A   1      33.132  22.527  25.605  1.00  0.00     0.113 A 
ATOM     70  C   UNL A   1      32.650  23.777  25.101  1.00  0.00     0.127 A 
ATOM     71  C   UNL A   1      32.430  21.601  24.854  1.00  0.00     0.175 A 
ATOM     72  N   UNL A   1      31.912  23.602  23.996  1.00  0.00    -0.079 NA
ATOM     73  O   UNL A   1      31.783  22.240  23.842  1.00  0.00    -0.357 OA
BRANCH  70  74
ATOM     74  C   UNL A   1      32.766  25.089  25.721  1.00  0.00     0.005 A 
ATOM     75  C   UNL A   1      31.701  25.668  26.421  1.00  0.00     0.012 A 
ATOM     76  C   UNL A   1      33.938  25.833  25.505  1.00  0.00     0.012 A 
ATOM     77  C   UNL A   1      31.796  26.989  26.867  1.00  0.00     0.021 A 
ATOM     78  C   UNL A   1      34.029  27.152  25.950  1.00  0.00     0.021 A 
ATOM     79  C   UNL A   1      32.953  27.727  26.620  1.00  0.00     0.041 A 
ATOM     80  Cl  UNL A   1      33.046  29.368  27.128  1.00  0.00    -0.084 Cl
ENDBRANCH  70  74
BRANCH  71  81
ATOM     81  C   UNL A   1      32.157  20.147  24.954  1.00  0.00     0.242 C 
BRANCH  81  82
ATOM     82  O   UNL A   1      32.832  19.496  23.883  1.00  0.00    -0.345 OA
BRANCH  82  83
ATOM     83  C   UNL A   1      32.544  18.111  23.662  1.00  0.00     0.250 C 
ATOM     84  C   UNL A   1      32.347  17.405  25.006  1.00  0.00     0.062 C 
ATOM     85  O   UNL A   1      33.450  17.468  22.771  1.00  0.00    -0.353 OA
ATOM     86  C   UNL A   1      33.673  17.024  25.642  1.00  0.00     0.008 C 
ATOM     87  C   UNL A   1      34.028  16.257  23.241  1.00  0.00     0.163 C 
ATOM     88  C   UNL A   1      34.623  16.393  24.633  1.00  0.00     0.029 C 
ENDBRANCH  82  83
ENDBRANCH  81  82
ENDBRANCH  71  81
ENDBRANCH  66  69
ENDBRANCH  64  65
ENDBRANCH   1  64
TORSDOF 15
ENDMDL
MODEL 3
REMARK VINA RESULT:     -12.6      1.962      3.832
REMARK SMILES O=C(NCCCCNC(=O)c1c(-c2ccc(Cl)cc2)noc1CO[C@@H]1CCCCO1)c1ccc(-c2c3nc(c(-c4c(F)cccc4F)c4ccc([nH]4)c(-c4c(F)cccc4F)c4nc(c(-c5c(F)cccc5F)c5ccc2[nH]5)C=C4)C=C3)cc1
REMARK SMILES IDX 6 1 5 2 4 3 3 4 1 5 2 6 31 8 32 9 84 10 33 11 83 12 34 13
REMARK SMILES IDX 35 14 36 15 77 16 37 17 82 18 76 19 78 20 38 21 81 22 75 23
REMARK SMILES IDX 74 24 39 26 65 27 48 28 64 29 49 30 52 31 63 32 79 33 50 34
REMARK SMILES IDX 51 35 62 37 80 38 53 39 40 40 41 41 46 42 42 43 43 44 45 45
REMARK SMILES IDX 47 46 44 47 66 48 67 49 72 50 68 51 69 52 71 53 73 54 70 55
REMARK SMILES IDX 54 56 55 57 60 58 56 59 57 60 59 61 61 62 58 63 7 64 8 65
REMARK SMILES IDX 9 66 10 68 11 69 12 70 22 71 20 72 21 73 13 74 14 75 19 76
REMARK SMILES IDX 15 77 18 78 16 79 17 80 23 81 24 82 25 83 26 84 30 85 27 86
REMARK SMILES IDX 29 87 28 88
REMARK H PARENT 3 7 78 25 52 36 8 67
REMARK Flexibility Score: inf
ROOT
ATOM      1  C   UNL A   1      31.423  30.533  25.741  1.00  0.00     0.023 C 
ENDROOT
BRANCH   1   2
ATOM      2  C   UNL A   1      31.290  31.836  26.538  1.00  0.00     0.023 C 
BRANCH   2   3
ATOM      3  C   UNL A   1      32.609  32.440  27.012  1.00  0.00     0.116 C 
BRANCH   3   4
ATOM      4  N   UNL A   1      32.450  33.810  27.468  1.00  0.00    -0.352 N 
ATOM      5  O   UNL A   1      32.676  35.550  28.881  1.00  0.00    -0.269 OA
ATOM      6  C   UNL A   1      33.102  34.479  28.476  1.00  0.00     0.251 C 
ATOM      7  H   UNL A   1      31.775  34.338  26.983  1.00  0.00     0.163 HD
BRANCH   6   8
ATOM      8  C   UNL A   1      34.315  33.888  29.075  1.00  0.00     0.039 A 
ATOM      9  C   UNL A   1      35.583  34.336  28.696  1.00  0.00     0.014 A 
ATOM     10  C   UNL A   1      34.175  32.898  30.049  1.00  0.00     0.014 A 
ATOM     11  C   UNL A   1      36.716  33.708  29.200  1.00  0.00     0.010 A 
ATOM     12  C   UNL A   1      35.313  32.317  30.607  1.00  0.00     0.010 A 
ATOM     13  C   UNL A   1      36.592  32.702  30.170  1.00  0.00    -0.014 A 
BRANCH  13  14
ATOM     14  C   UNL A   1      37.801  32.089  30.768  1.00  0.00     0.031 A 
ATOM     15  C   UNL A   1      38.538  30.997  30.052  1.00  0.00     0.074 A 
ATOM     16  C   UNL A   1      38.203  32.499  31.985  1.00  0.00     0.049 A 
ATOM     17  N   UNL A   1      39.544  30.272  30.467  1.00  0.00    -0.248 NA
ATOM     18  C   UNL A   1      38.078  30.670  28.693  1.00  0.00     0.031 C 
ATOM     19  C   UNL A   1      37.560  33.552  32.773  1.00  0.00     0.029 A 
ATOM     20  N   UNL A   1      39.235  32.070  32.778  1.00  0.00    -0.354 N 
ATOM     21  C   UNL A   1      39.821  29.383  29.436  1.00  0.00     0.074 A 
ATOM     22  C   UNL A   1      38.865  29.649  28.382  1.00  0.00     0.031 C 
ATOM     23  C   UNL A   1      38.212  33.689  33.936  1.00  0.00     0.029 A 
ATOM     24  C   UNL A   1      39.275  32.692  34.001  1.00  0.00     0.049 A 
ATOM     25  H   UNL A   1      39.883  31.384  32.498  1.00  0.00     0.167 HD
ATOM     26  C   UNL A   1      40.784  28.432  29.380  1.00  0.00     0.037 A 
ATOM     27  C   UNL A   1      40.052  32.460  35.073  1.00  0.00     0.037 A 
ATOM     28  C   UNL A   1      41.734  28.185  30.434  1.00  0.00     0.049 A 
ATOM     29  C   UNL A   1      41.091  31.380  35.004  1.00  0.00     0.074 A 
ATOM     30  C   UNL A   1      42.779  27.277  30.458  1.00  0.00     0.029 A 
ATOM     31  N   UNL A   1      41.746  28.841  31.657  1.00  0.00    -0.354 N 
ATOM     32  N   UNL A   1      41.366  30.569  34.012  1.00  0.00    -0.248 NA
ATOM     33  C   UNL A   1      41.923  31.182  36.197  1.00  0.00     0.031 C 
ATOM     34  C   UNL A   1      43.392  27.350  31.714  1.00  0.00     0.029 A 
ATOM     35  C   UNL A   1      42.763  28.339  32.453  1.00  0.00     0.049 A 
ATOM     36  H   UNL A   1      41.124  29.556  31.920  1.00  0.00     0.167 HD
ATOM     37  C   UNL A   1      42.418  29.777  34.449  1.00  0.00     0.074 A 
ATOM     38  C   UNL A   1      42.732  30.209  35.797  1.00  0.00     0.031 C 
ATOM     39  C   UNL A   1      43.066  28.786  33.790  1.00  0.00     0.037 A 
BRANCH  26  40
ATOM     40  C   UNL A   1      40.834  27.570  28.151  1.00  0.00     0.057 A 
ATOM     41  C   UNL A   1      41.591  27.917  27.026  1.00  0.00     0.134 A 
ATOM     42  C   UNL A   1      40.121  26.364  28.102  1.00  0.00     0.134 A 
ATOM     43  F   UNL A   1      42.288  29.063  27.001  1.00  0.00    -0.206 F 
ATOM     44  C   UNL A   1      41.612  27.114  25.883  1.00  0.00     0.040 A 
ATOM     45  C   UNL A   1      40.155  25.540  26.976  1.00  0.00     0.040 A 
ATOM     46  F   UNL A   1      39.381  25.967  29.148  1.00  0.00    -0.206 F 
ATOM     47  C   UNL A   1      40.896  25.919  25.858  1.00  0.00     0.006 A 
ENDBRANCH  26  40
BRANCH  27  48
ATOM     48  C   UNL A   1      39.846  33.266  36.300  1.00  0.00     0.057 A 
ATOM     49  C   UNL A   1      40.517  34.477  36.491  1.00  0.00     0.134 A 
ATOM     50  C   UNL A   1      38.919  32.877  37.276  1.00  0.00     0.134 A 
ATOM     51  F   UNL A   1      41.424  34.895  35.596  1.00  0.00    -0.206 F 
ATOM     52  C   UNL A   1      40.273  35.276  37.610  1.00  0.00     0.040 A 
ATOM     53  C   UNL A   1      38.647  33.676  38.386  1.00  0.00     0.040 A 
ATOM     54  F   UNL A   1      38.234  31.732  37.139  1.00  0.00    -0.206 F 
ATOM     55  C   UNL A   1      39.327  34.881  38.555  1.00  0.00     0.006 A 
ENDBRANCH  27  48
BRANCH  39  56
ATOM     56  C   UNL A   1      44.210  28.124  34.498  1.00  0.00     0.057 A 
ATOM     57  C   UNL A   1      45.509  28.645  34.456  1.00  0.00     0.134 A 
ATOM     58  C   UNL A   1      43.991  26.988  35.286  1.00  0.00     0.134 A 
ATOM     59  F   UNL A   1      45.784  29.723  33.707  1.00  0.00    -0.206 F 
ATOM     60  C   UNL A   1      46.552  28.055  35.170  1.00  0.00     0.040 A 
ATOM     61  C   UNL A   1      45.021  26.401  36.022  1.00  0.00     0.040 A 
ATOM     62  F   UNL A   1      42.768  26.443  35.372  1.00  0.00    -0.206 F 
ATOM     63  C   UNL A   1      46.307  26.935  35.963  1.00  0.00     0.006 A 
ENDBRANCH  39  56
ENDBRANCH  13  14
ENDBRANCH   6   8
ENDBRANCH   3   4
ENDBRANCH   2   3
ENDBRANCH   1   2
BRANCH   1  64
ATOM     64  C   UNL A   1      32.532  29.596  26.216  1.00  0.00     0.116 C 
BRANCH  64  65
ATOM     65  N   UNL A   1      31.991  28.380  26.785  1.00  0.00    -0.352 N 
ATOM     66  C   UNL A   1      31.900  27.117  26.269  1.00  0.00     0.257 C 
ATOM     67  H   UNL A   1      31.628  28.478  27.695  1.00  0.00     0.163 HD
ATOM     68  O   UNL A   1      31.139  26.340  26.848  1.00  0.00    -0.269 OA
BRANCH  66  69
ATOM     69  C   UNL A   1      32.668  26.722  25.112  1.00  0.00     0.113 A 
ATOM     70  C   UNL A   1      32.392  27.046  23.745  1.00  0.00     0.127 A 
ATOM     71  C   UNL A   1      33.653  25.756  25.007  1.00  0.00     0.175 A 
ATOM     72  N   UNL A   1      33.295  26.494  22.924  1.00  0.00    -0.079 NA
ATOM     73  O   UNL A   1      34.086  25.695  23.719  1.00  0.00    -0.357 OA
BRANCH  70  74
ATOM     74  C   UNL A   1      31.227  27.741  23.215  1.00  0.00     0.005 A 
ATOM     75  C   UNL A   1      31.350  28.927  22.482  1.00  0.00     0.012 A 
ATOM     76  C   UNL A   1      29.949  27.266  23.553  1.00  0.00     0.012 A 
ATOM     77  C   UNL A   1      30.207  29.647  22.124  1.00  0.00     0.021 A 
ATOM     78  C   UNL A   1      28.810  27.987  23.197  1.00  0.00     0.021 A 
ATOM     79  C   UNL A   1      28.945  29.180  22.493  1.00  0.00     0.041 A 
ATOM     80  Cl  UNL A   1      27.544  30.095  22.092  1.00  0.00    -0.084 Cl
ENDBRANCH  70  74
BRANCH  71  81
ATOM     81  C   UNL A   1      34.250  24.751  25.919  1.00  0.00     0.242 C 
BRANCH  81  82
ATOM     82  O   UNL A   1      34.338  23.515  25.218  1.00  0.00    -0.345 OA
BRANCH  82  83
ATOM     83  C   UNL A   1      33.247  22.598  25.351  1.00  0.00     0.250 C 
ATOM     84  C   UNL A   1      32.834  22.086  23.968  1.00  0.00     0.062 C 
ATOM     85  O   UNL A   1      32.178  23.084  26.157  1.00  0.00    -0.353 OA
ATOM     86  C   UNL A   1      31.918  23.066  23.255  1.00  0.00     0.008 C 
ATOM     87  C   UNL A   1      30.881  23.010  25.579  1.00  0.00     0.163 C 
ATOM     88  C   UNL A   1      30.829  23.597  24.177  1.00  0.00     0.029 C 
ENDBRANCH  82  83
ENDBRANCH  81  82
ENDBRANCH  71  81
ENDBRANCH  66  69
ENDBRANCH  64  65
ENDBRANCH   1  64
TORSDOF 15
ENDMDL
