MODEL 1
REMARK VINA RESULT:     -12.2      0.000      0.000
REMARK SMILES O=C(CCC(=O)Nc1ccc2nc(-c3ccccc3)oc2c1)NCCCCNC(=O)c1ccc(-c2c3nc(c(-c4c(F)cccc4F)c4ccc([nH]4)c(-c4c(F)cccc4F)c4nc(c(-c5c(F)cccc5F)c5ccc2[nH]5)C=C4)C=C3)cc1
REMARK SMILES IDX 24 1 23 2 1 3 2 4 3 6 4 7 5 8 6 9 7 10 8 12 9 13 22 14 10 15
REMARK SMILES IDX 21 16 11 17 20 18 12 19 13 20 14 21 15 22 19 23 16 24 18 25
REMARK SMILES IDX 17 26 25 27 26 28 27 29 28 30 29 31 30 33 31 34 32 35 84 36
REMARK SMILES IDX 33 37 83 38 34 39 35 40 36 41 77 42 37 43 82 44 76 45 78 46
REMARK SMILES IDX 38 47 81 48 75 49 74 50 39 52 65 53 48 54 64 55 49 56 52 57
REMARK SMILES IDX 63 58 79 59 50 60 51 61 62 63 80 64 53 65 40 66 41 67 46 68
REMARK SMILES IDX 42 69 43 70 45 71 47 72 44 73 66 74 67 75 72 76 68 77 69 78
REMARK SMILES IDX 71 79 73 80 70 81 54 82 55 83 60 84 56 85 57 86 59 87 61 88
REMARK SMILES IDX 58 89
REMARK H PARENT 23 5 7 11 28 32 78 51 52 62
REMARK Flexibility Score: inf
ROOT
ATOM      1  C   UNL A   1      31.810  28.696  26.104  1.00  0.00     0.116 C 
ENDROOT
BRANCH   1   2
ATOM      2  N   UNL A   1      33.016  27.959  25.768  1.00  0.00    -0.356 N 
ATOM      3  O   UNL A   1      32.197  25.882  26.322  1.00  0.00    -0.275 OA
ATOM      4  C   UNL A   1      33.063  26.582  25.806  1.00  0.00     0.220 C 
ATOM      5  H   UNL A   1      33.823  28.457  25.504  1.00  0.00     0.163 HD
BRANCH   4   6
ATOM      6  C   UNL A   1      34.245  25.970  25.083  1.00  0.00     0.110 C 
BRANCH   6   7
ATOM      7  C   UNL A   1      34.113  24.472  24.803  1.00  0.00     0.110 C 
BRANCH   7   8
ATOM      8  C   UNL A   1      33.993  24.129  23.336  1.00  0.00     0.224 C 
ATOM      9  O   UNL A   1      34.977  23.657  22.751  1.00  0.00    -0.275 OA
ATOM     10  N   UNL A   1      32.878  24.335  22.581  1.00  0.00    -0.326 N 
ATOM     11  H   UNL A   1      32.881  23.812  21.747  1.00  0.00     0.169 HD
BRANCH  10  12
ATOM     12  C   UNL A   1      31.719  25.128  22.723  1.00  0.00     0.045 A 
ATOM     13  C   UNL A   1      30.594  24.752  23.464  1.00  0.00     0.028 A 
ATOM     14  C   UNL A   1      31.791  26.433  22.186  1.00  0.00     0.075 A 
ATOM     15  C   UNL A   1      29.610  25.671  23.848  1.00  0.00     0.034 A 
ATOM     16  C   UNL A   1      30.769  27.308  22.547  1.00  0.00     0.157 A 
ATOM     17  C   UNL A   1      29.729  26.978  23.397  1.00  0.00     0.110 A 
ATOM     18  O   UNL A   1      30.581  28.611  22.161  1.00  0.00    -0.436 OA
ATOM     19  N   UNL A   1      28.942  28.058  23.635  1.00  0.00    -0.209 NA
ATOM     20  C   UNL A   1      29.442  28.978  22.837  1.00  0.00     0.227 A 
BRANCH  20  21
ATOM     21  C   UNL A   1      28.798  30.225  22.478  1.00  0.00     0.037 A 
ATOM     22  C   UNL A   1      28.396  30.448  21.154  1.00  0.00     0.014 A 
ATOM     23  C   UNL A   1      28.803  31.290  23.386  1.00  0.00     0.014 A 
ATOM     24  C   UNL A   1      28.036  31.728  20.736  1.00  0.00     0.001 A 
ATOM     25  C   UNL A   1      28.460  32.574  22.960  1.00  0.00     0.001 A 
ATOM     26  C   UNL A   1      28.087  32.793  21.635  1.00  0.00     0.000 A 
ENDBRANCH  20  21
ENDBRANCH  10  12
ENDBRANCH   7   8
ENDBRANCH   6   7
ENDBRANCH   4   6
ENDBRANCH   1   2
BRANCH   1  27
ATOM     27  C   UNL A   1      31.750  30.103  25.518  1.00  0.00     0.023 C 
BRANCH  27  28
ATOM     28  C   UNL A   1      31.527  31.228  26.530  1.00  0.00     0.023 C 
BRANCH  28  29
ATOM     29  C   UNL A   1      32.779  31.988  26.959  1.00  0.00     0.116 C 
BRANCH  29  30
ATOM     30  N   UNL A   1      32.508  33.372  27.323  1.00  0.00    -0.352 N 
ATOM     31  C   UNL A   1      33.105  34.169  28.273  1.00  0.00     0.251 C 
ATOM     32  H   UNL A   1      31.789  33.804  26.809  1.00  0.00     0.163 HD
ATOM     33  O   UNL A   1      32.622  35.271  28.539  1.00  0.00    -0.269 OA
BRANCH  31  34
ATOM     34  C   UNL A   1      34.304  33.706  29.007  1.00  0.00     0.039 A 
ATOM     35  C   UNL A   1      34.143  32.814  30.072  1.00  0.00     0.014 A 
ATOM     36  C   UNL A   1      35.583  34.148  28.660  1.00  0.00     0.014 A 
ATOM     37  C   UNL A   1      35.267  32.297  30.724  1.00  0.00     0.010 A 
ATOM     38  C   UNL A   1      36.704  33.568  29.254  1.00  0.00     0.010 A 
ATOM     39  C   UNL A   1      36.560  32.631  30.288  1.00  0.00    -0.014 A 
BRANCH  39  40
ATOM     40  C   UNL A   1      37.767  31.993  30.882  1.00  0.00     0.031 A 
ATOM     41  C   UNL A   1      38.479  30.881  30.158  1.00  0.00     0.074 A 
ATOM     42  C   UNL A   1      38.182  32.363  32.110  1.00  0.00     0.049 A 
ATOM     43  N   UNL A   1      39.495  30.155  30.553  1.00  0.00    -0.248 NA
ATOM     44  C   UNL A   1      37.967  30.523  28.827  1.00  0.00     0.031 C 
ATOM     45  C   UNL A   1      37.555  33.391  32.941  1.00  0.00     0.029 A 
ATOM     46  N   UNL A   1      39.225  31.907  32.880  1.00  0.00    -0.354 N 
ATOM     47  C   UNL A   1      39.736  29.250  29.526  1.00  0.00     0.074 A 
ATOM     48  C   UNL A   1      38.724  29.481  28.517  1.00  0.00     0.031 C 
ATOM     49  C   UNL A   1      38.233  33.501  34.094  1.00  0.00     0.029 A 
ATOM     50  C   UNL A   1      39.318  32.524  34.104  1.00  0.00     0.049 A 
ATOM     51  H   UNL A   1      39.846  31.204  32.582  1.00  0.00     0.167 HD
ATOM     52  C   UNL A   1      40.722  28.327  29.421  1.00  0.00     0.037 A 
ATOM     53  C   UNL A   1      40.171  32.320  35.126  1.00  0.00     0.037 A 
ATOM     54  C   UNL A   1      41.738  28.106  30.418  1.00  0.00     0.049 A 
ATOM     55  C   UNL A   1      41.247  31.277  34.994  1.00  0.00     0.074 A 
ATOM     56  C   UNL A   1      42.807  27.228  30.379  1.00  0.00     0.029 A 
ATOM     57  N   UNL A   1      41.807  28.764  31.637  1.00  0.00    -0.354 N 
ATOM     58  N   UNL A   1      41.502  30.475  33.988  1.00  0.00    -0.248 NA
ATOM     59  C   UNL A   1      42.158  31.115  36.135  1.00  0.00     0.031 C 
ATOM     60  C   UNL A   1      43.496  27.320  31.592  1.00  0.00     0.029 A 
ATOM     61  C   UNL A   1      42.888  28.295  32.366  1.00  0.00     0.049 A 
ATOM     62  H   UNL A   1      41.181  29.461  31.940  1.00  0.00     0.167 HD
ATOM     63  C   UNL A   1      42.616  29.736  34.363  1.00  0.00     0.074 A 
ATOM     64  C   UNL A   1      42.999  30.196  35.681  1.00  0.00     0.031 C 
ATOM     65  C   UNL A   1      43.265  28.765  33.675  1.00  0.00     0.037 A 
BRANCH  52  66
ATOM     66  C   UNL A   1      40.754  27.486  28.176  1.00  0.00     0.057 A 
ATOM     67  C   UNL A   1      41.502  27.862  27.052  1.00  0.00     0.134 A 
ATOM     68  C   UNL A   1      40.061  26.270  28.113  1.00  0.00     0.134 A 
ATOM     69  F   UNL A   1      42.180  29.019  27.041  1.00  0.00    -0.206 F 
ATOM     70  C   UNL A   1      41.535  27.073  25.900  1.00  0.00     0.040 A 
ATOM     71  C   UNL A   1      40.112  25.459  26.978  1.00  0.00     0.040 A 
ATOM     72  F   UNL A   1      39.334  25.845  29.156  1.00  0.00    -0.206 F 
ATOM     73  C   UNL A   1      40.845  25.864  25.864  1.00  0.00     0.006 A 
ENDBRANCH  52  66
BRANCH  53  74
ATOM     74  C   UNL A   1      40.054  33.129  36.367  1.00  0.00     0.057 A 
ATOM     75  C   UNL A   1      39.188  32.749  37.399  1.00  0.00     0.134 A 
ATOM     76  C   UNL A   1      40.791  34.307  36.545  1.00  0.00     0.134 A 
ATOM     77  F   UNL A   1      38.439  31.642  37.279  1.00  0.00    -0.206 F 
ATOM     78  C   UNL A   1      39.042  33.520  38.554  1.00  0.00     0.040 A 
ATOM     79  C   UNL A   1      40.676  35.072  37.706  1.00  0.00     0.040 A 
ATOM     80  F   UNL A   1      41.644  34.721  35.597  1.00  0.00    -0.206 F 
ATOM     81  C   UNL A   1      39.792  34.684  38.711  1.00  0.00     0.006 A 
ENDBRANCH  53  74
BRANCH  65  82
ATOM     82  C   UNL A   1      44.479  28.159  34.318  1.00  0.00     0.057 A 
ATOM     83  C   UNL A   1      44.405  27.000  35.101  1.00  0.00     0.134 A 
ATOM     84  C   UNL A   1      45.746  28.723  34.119  1.00  0.00     0.134 A 
ATOM     85  F   UNL A   1      43.222  26.416  35.343  1.00  0.00    -0.206 F 
ATOM     86  C   UNL A   1      45.544  26.437  35.682  1.00  0.00     0.040 A 
ATOM     87  C   UNL A   1      46.895  28.155  34.670  1.00  0.00     0.040 A 
ATOM     88  F   UNL A   1      45.890  29.828  33.373  1.00  0.00    -0.206 F 
ATOM     89  C   UNL A   1      46.794  27.012  35.460  1.00  0.00     0.006 A 
ENDBRANCH  65  82
ENDBRANCH  39  40
ENDBRANCH  31  34
ENDBRANCH  29  30
ENDBRANCH  28  29
ENDBRANCH  27  28
ENDBRANCH   1  27
TORSDOF 15
ENDMDL
MODEL 2
REMARK VINA RESULT:     -12.1      4.436      8.400
REMARK SMILES O=C(CCC(=O)Nc1ccc2nc(-c3ccccc3)oc2c1)NCCCCNC(=O)c1ccc(-c2c3nc(c(-c4c(F)cccc4F)c4ccc([nH]4)c(-c4c(F)cccc4F)c4nc(c(-c5c(F)cccc5F)c5ccc2[nH]5)C=C4)C=C3)cc1
REMARK SMILES IDX 24 1 23 2 1 3 2 4 3 6 4 7 5 8 6 9 7 10 8 12 9 13 22 14 10 15
REMARK SMILES IDX 21 16 11 17 20 18 12 19 13 20 14 21 15 22 19 23 16 24 18 25
REMARK SMILES IDX 17 26 25 27 26 28 27 29 28 30 29 31 30 33 31 34 32 35 84 36
REMARK SMILES IDX 33 37 83 38 34 39 35 40 36 41 77 42 37 43 82 44 76 45 78 46
REMARK SMILES IDX 38 47 81 48 75 49 74 50 39 52 65 53 48 54 64 55 49 56 52 57
REMARK SMILES IDX 63 58 79 59 50 60 51 61 62 63 80 64 53 65 40 66 41 67 46 68
REMARK SMILES IDX 42 69 43 70 45 71 47 72 44 73 66 74 67 75 72 76 68 77 69 78
REMARK SMILES IDX 71 79 73 80 70 81 54 82 55 83 60 84 56 85 57 86 59 87 61 88
REMARK SMILES IDX 58 89
REMARK H PARENT 23 5 7 11 28 32 78 51 52 62
REMARK Flexibility Score: inf
ROOT
ATOM      1  C   UNL A   1      34.955  23.836  23.746  1.00  0.00     0.116 C 
ENDROOT
BRANCH   1   2
ATOM      2  N   UNL A   1      34.866  24.851  24.781  1.00  0.00    -0.356 N 
ATOM      3  O   UNL A   1      33.462  26.260  23.624  1.00  0.00    -0.275 OA
ATOM      4  C   UNL A   1      34.027  25.938  24.666  1.00  0.00     0.220 C 
ATOM      5  H   UNL A   1      35.421  24.760  25.589  1.00  0.00     0.163 HD
BRANCH   4   6
ATOM      6  C   UNL A   1      33.777  26.684  25.960  1.00  0.00     0.110 C 
BRANCH   6   7
ATOM      7  C   UNL A   1      32.568  27.622  25.932  1.00  0.00     0.110 C 
BRANCH   7   8
ATOM      8  C   UNL A   1      31.414  27.163  26.792  1.00  0.00     0.224 C 
ATOM      9  O   UNL A   1      31.197  27.748  27.861  1.00  0.00    -0.275 OA
ATOM     10  N   UNL A   1      30.598  26.112  26.497  1.00  0.00    -0.326 N 
ATOM     11  H   UNL A   1      29.756  26.129  27.006  1.00  0.00     0.169 HD
BRANCH  10  12
ATOM     12  C   UNL A   1      30.687  25.004  25.628  1.00  0.00     0.045 A 
ATOM     13  C   UNL A   1      30.267  25.014  24.294  1.00  0.00     0.028 A 
ATOM     14  C   UNL A   1      31.374  23.876  26.129  1.00  0.00     0.075 A 
ATOM     15  C   UNL A   1      30.653  24.027  23.379  1.00  0.00     0.034 A 
ATOM     16  C   UNL A   1      31.699  22.886  25.203  1.00  0.00     0.157 A 
ATOM     17  C   UNL A   1      31.409  22.963  23.852  1.00  0.00     0.110 A 
ATOM     18  O   UNL A   1      32.340  21.693  25.415  1.00  0.00    -0.436 OA
ATOM     19  N   UNL A   1      31.928  21.898  23.190  1.00  0.00    -0.209 NA
ATOM     20  C   UNL A   1      32.410  21.145  24.156  1.00  0.00     0.227 A 
BRANCH  20  21
ATOM     21  C   UNL A   1      32.808  19.758  24.028  1.00  0.00     0.037 A 
ATOM     22  C   UNL A   1      33.988  19.310  24.635  1.00  0.00     0.014 A 
ATOM     23  C   UNL A   1      32.153  18.936  23.103  1.00  0.00     0.014 A 
ATOM     24  C   UNL A   1      34.526  18.069  24.296  1.00  0.00     0.001 A 
ATOM     25  C   UNL A   1      32.702  17.703  22.752  1.00  0.00     0.001 A 
ATOM     26  C   UNL A   1      33.892  17.276  23.340  1.00  0.00     0.000 A 
ENDBRANCH  20  21
ENDBRANCH  10  12
ENDBRANCH   7   8
ENDBRANCH   6   7
ENDBRANCH   4   6
ENDBRANCH   1   2
BRANCH   1  27
ATOM     27  C   UNL A   1      36.362  23.292  23.519  1.00  0.00     0.023 C 
BRANCH  27  28
ATOM     28  C   UNL A   1      36.585  21.844  23.958  1.00  0.00     0.023 C 
BRANCH  28  29
ATOM     29  C   UNL A   1      36.876  21.643  25.444  1.00  0.00     0.116 C 
BRANCH  29  30
ATOM     30  N   UNL A   1      37.937  20.675  25.690  1.00  0.00    -0.352 N 
ATOM     31  C   UNL A   1      39.227  20.871  26.126  1.00  0.00     0.251 C 
ATOM     32  H   UNL A   1      37.693  19.738  25.519  1.00  0.00     0.163 HD
ATOM     33  O   UNL A   1      40.025  19.932  26.119  1.00  0.00    -0.269 OA
BRANCH  31  34
ATOM     34  C   UNL A   1      39.682  22.207  26.576  1.00  0.00     0.039 A 
ATOM     35  C   UNL A   1      40.731  22.290  27.496  1.00  0.00     0.014 A 
ATOM     36  C   UNL A   1      39.079  23.375  26.104  1.00  0.00     0.014 A 
ATOM     37  C   UNL A   1      41.232  23.540  27.870  1.00  0.00     0.010 A 
ATOM     38  C   UNL A   1      39.634  24.617  26.411  1.00  0.00     0.010 A 
ATOM     39  C   UNL A   1      40.722  24.715  27.291  1.00  0.00    -0.014 A 
BRANCH  39  40
ATOM     40  C   UNL A   1      41.327  26.045  27.576  1.00  0.00     0.031 A 
ATOM     41  C   UNL A   1      42.737  26.351  27.145  1.00  0.00     0.074 A 
ATOM     42  C   UNL A   1      40.634  26.955  28.288  1.00  0.00     0.049 A 
ATOM     43  N   UNL A   1      43.456  27.422  27.373  1.00  0.00    -0.248 NA
ATOM     44  C   UNL A   1      43.437  25.309  26.380  1.00  0.00     0.031 C 
ATOM     45  C   UNL A   1      39.279  26.770  28.809  1.00  0.00     0.029 A 
ATOM     46  N   UNL A   1      40.979  28.217  28.708  1.00  0.00    -0.354 N 
ATOM     47  C   UNL A   1      44.694  27.177  26.789  1.00  0.00     0.074 A 
ATOM     48  C   UNL A   1      44.645  25.836  26.248  1.00  0.00     0.031 C 
ATOM     49  C   UNL A   1      38.901  27.881  29.462  1.00  0.00     0.029 A 
ATOM     50  C   UNL A   1      40.000  28.842  29.443  1.00  0.00     0.049 A 
ATOM     51  H   UNL A   1      41.847  28.634  28.503  1.00  0.00     0.167 HD
ATOM     52  C   UNL A   1      45.765  28.001  26.691  1.00  0.00     0.037 A 
ATOM     53  C   UNL A   1      39.989  30.047  30.045  1.00  0.00     0.037 A 
ATOM     54  C   UNL A   1      45.810  29.342  27.217  1.00  0.00     0.049 A 
ATOM     55  C   UNL A   1      41.197  30.937  29.938  1.00  0.00     0.074 A 
ATOM     56  C   UNL A   1      46.832  30.270  27.124  1.00  0.00     0.029 A 
ATOM     57  N   UNL A   1      44.790  29.943  27.940  1.00  0.00    -0.354 N 
ATOM     58  N   UNL A   1      42.334  30.716  29.326  1.00  0.00    -0.248 NA
ATOM     59  C   UNL A   1      41.116  32.246  30.600  1.00  0.00     0.031 C 
ATOM     60  C   UNL A   1      46.451  31.415  27.830  1.00  0.00     0.029 A 
ATOM     61  C   UNL A   1      45.169  31.221  28.317  1.00  0.00     0.049 A 
ATOM     62  H   UNL A   1      43.925  29.523  28.154  1.00  0.00     0.167 HD
ATOM     63  C   UNL A   1      43.092  31.867  29.504  1.00  0.00     0.074 A 
ATOM     64  C   UNL A   1      42.279  32.789  30.268  1.00  0.00     0.031 C 
ATOM     65  C   UNL A   1      44.349  32.135  29.071  1.00  0.00     0.037 A 
BRANCH  52  66
ATOM     66  C   UNL A   1      46.981  27.476  25.981  1.00  0.00     0.057 A 
ATOM     67  C   UNL A   1      48.010  26.819  26.670  1.00  0.00     0.134 A 
ATOM     68  C   UNL A   1      47.107  27.595  24.591  1.00  0.00     0.134 A 
ATOM     69  F   UNL A   1      47.957  26.681  28.003  1.00  0.00    -0.206 F 
ATOM     70  C   UNL A   1      49.134  26.326  26.005  1.00  0.00     0.040 A 
ATOM     71  C   UNL A   1      48.212  27.078  23.913  1.00  0.00     0.040 A 
ATOM     72  F   UNL A   1      46.155  28.203  23.869  1.00  0.00    -0.206 F 
ATOM     73  C   UNL A   1      49.234  26.448  24.621  1.00  0.00     0.006 A 
ENDBRANCH  52  66
BRANCH  53  74
ATOM     74  C   UNL A   1      38.787  30.492  30.797  1.00  0.00     0.057 A 
ATOM     75  C   UNL A   1      37.787  31.251  30.178  1.00  0.00     0.134 A 
ATOM     76  C   UNL A   1      38.615  30.182  32.152  1.00  0.00     0.134 A 
ATOM     77  F   UNL A   1      37.904  31.597  28.887  1.00  0.00    -0.206 F 
ATOM     78  C   UNL A   1      36.670  31.705  30.883  1.00  0.00     0.040 A 
ATOM     79  C   UNL A   1      37.491  30.605  32.861  1.00  0.00     0.040 A 
ATOM     80  F   UNL A   1      39.533  29.451  32.801  1.00  0.00    -0.206 F 
ATOM     81  C   UNL A   1      36.518  31.377  32.228  1.00  0.00     0.006 A 
ENDBRANCH  53  74
BRANCH  65  82
ATOM     82  C   UNL A   1      44.909  33.493  29.380  1.00  0.00     0.057 A 
ATOM     83  C   UNL A   1      45.676  33.738  30.526  1.00  0.00     0.134 A 
ATOM     84  C   UNL A   1      44.708  34.563  28.498  1.00  0.00     0.134 A 
ATOM     85  F   UNL A   1      45.895  32.761  31.419  1.00  0.00    -0.206 F 
ATOM     86  C   UNL A   1      46.204  35.002  30.795  1.00  0.00     0.040 A 
ATOM     87  C   UNL A   1      45.254  35.824  28.741  1.00  0.00     0.040 A 
ATOM     88  F   UNL A   1      43.991  34.396  27.377  1.00  0.00    -0.206 F 
ATOM     89  C   UNL A   1      45.999  36.048  29.897  1.00  0.00     0.006 A 
ENDBRANCH  65  82
ENDBRANCH  39  40
ENDBRANCH  31  34
ENDBRANCH  29  30
ENDBRANCH  28  29
ENDBRANCH  27  28
ENDBRANCH   1  27
TORSDOF 15
ENDMDL
MODEL 3
REMARK VINA RESULT:     -12.1      4.442      9.727
REMARK SMILES O=C(CCC(=O)Nc1ccc2nc(-c3ccccc3)oc2c1)NCCCCNC(=O)c1ccc(-c2c3nc(c(-c4c(F)cccc4F)c4ccc([nH]4)c(-c4c(F)cccc4F)c4nc(c(-c5c(F)cccc5F)c5ccc2[nH]5)C=C4)C=C3)cc1
REMARK SMILES IDX 24 1 23 2 1 3 2 4 3 6 4 7 5 8 6 9 7 10 8 12 9 13 22 14 10 15
REMARK SMILES IDX 21 16 11 17 20 18 12 19 13 20 14 21 15 22 19 23 16 24 18 25
REMARK SMILES IDX 17 26 25 27 26 28 27 29 28 30 29 31 30 33 31 34 32 35 84 36
REMARK SMILES IDX 33 37 83 38 34 39 35 40 36 41 77 42 37 43 82 44 76 45 78 46
REMARK SMILES IDX 38 47 81 48 75 49 74 50 39 52 65 53 48 54 64 55 49 56 52 57
REMARK SMILES IDX 63 58 79 59 50 60 51 61 62 63 80 64 53 65 40 66 41 67 46 68
REMARK SMILES IDX 42 69 43 70 45 71 47 72 44 73 66 74 67 75 72 76 68 77 69 78
REMARK SMILES IDX 71 79 73 80 70 81 54 82 55 83 60 84 56 85 57 86 59 87 61 88
REMARK SMILES IDX 58 89
REMARK H PARENT 23 5 7 11 28 32 78 51 52 62
REMARK Flexibility Score: inf
ROOT
ATOM      1  C   UNL A   1      34.910  23.745  24.090  1.00  0.00     0.116 C 
ENDROOT
BRANCH   1   2
ATOM      2  N   UNL A   1      34.814  24.862  25.013  1.00  0.00    -0.356 N 
ATOM      3  O   UNL A   1      33.563  26.213  23.634  1.00  0.00    -0.275 OA
ATOM      4  C   UNL A   1      34.044  25.971  24.737  1.00  0.00     0.220 C 
ATOM      5  H   UNL A   1      35.313  24.827  25.862  1.00  0.00     0.163 HD
BRANCH   4   6
ATOM      6  C   UNL A   1      33.758  26.856  25.933  1.00  0.00     0.110 C 
BRANCH   6   7
ATOM      7  C   UNL A   1      32.468  27.671  25.827  1.00  0.00     0.110 C 
BRANCH   7   8
ATOM      8  C   UNL A   1      31.349  27.170  26.710  1.00  0.00     0.224 C 
ATOM      9  O   UNL A   1      31.134  27.744  27.785  1.00  0.00    -0.275 OA
ATOM     10  N   UNL A   1      30.564  26.092  26.429  1.00  0.00    -0.326 N 
ATOM     11  H   UNL A   1      29.733  26.078  26.955  1.00  0.00     0.169 HD
BRANCH  10  12
ATOM     12  C   UNL A   1      30.673  24.990  25.554  1.00  0.00     0.045 A 
ATOM     13  C   UNL A   1      30.310  25.018  24.204  1.00  0.00     0.028 A 
ATOM     14  C   UNL A   1      31.322  23.847  26.074  1.00  0.00     0.075 A 
ATOM     15  C   UNL A   1      30.720  24.032  23.298  1.00  0.00     0.034 A 
ATOM     16  C   UNL A   1      31.672  22.861  25.153  1.00  0.00     0.157 A 
ATOM     17  C   UNL A   1      31.439  22.953  23.792  1.00  0.00     0.110 A 
ATOM     18  O   UNL A   1      32.285  21.656  25.381  1.00  0.00    -0.436 OA
ATOM     19  N   UNL A   1      31.970  21.887  23.142  1.00  0.00    -0.209 NA
ATOM     20  C   UNL A   1      32.400  21.118  24.121  1.00  0.00     0.227 A 
BRANCH  20  21
ATOM     21  C   UNL A   1      32.783  19.727  23.997  1.00  0.00     0.037 A 
ATOM     22  C   UNL A   1      33.905  19.246  24.685  1.00  0.00     0.014 A 
ATOM     23  C   UNL A   1      32.188  18.933  23.009  1.00  0.00     0.014 A 
ATOM     24  C   UNL A   1      34.445  18.002  24.364  1.00  0.00     0.001 A 
ATOM     25  C   UNL A   1      32.741  17.697  22.677  1.00  0.00     0.001 A 
ATOM     26  C   UNL A   1      33.874  17.237  23.347  1.00  0.00     0.000 A 
ENDBRANCH  20  21
ENDBRANCH  10  12
ENDBRANCH   7   8
ENDBRANCH   6   7
ENDBRANCH   4   6
ENDBRANCH   1   2
BRANCH   1  27
ATOM     27  C   UNL A   1      36.338  23.356  23.722  1.00  0.00     0.023 C 
BRANCH  27  28
ATOM     28  C   UNL A   1      36.679  21.873  23.884  1.00  0.00     0.023 C 
BRANCH  28  29
ATOM     29  C   UNL A   1      36.851  21.389  25.322  1.00  0.00     0.116 C 
BRANCH  29  30
ATOM     30  N   UNL A   1      37.859  20.346  25.455  1.00  0.00    -0.352 N 
ATOM     31  C   UNL A   1      39.170  20.432  25.862  1.00  0.00     0.251 C 
ATOM     32  H   UNL A   1      37.554  19.441  25.218  1.00  0.00     0.163 HD
ATOM     33  O   UNL A   1      39.910  19.453  25.753  1.00  0.00    -0.269 OA
BRANCH  31  34
ATOM     34  C   UNL A   1      39.716  21.699  26.400  1.00  0.00     0.039 A 
ATOM     35  C   UNL A   1      40.846  21.654  27.222  1.00  0.00     0.014 A 
ATOM     36  C   UNL A   1      39.119  22.928  26.109  1.00  0.00     0.014 A 
ATOM     37  C   UNL A   1      41.429  22.842  27.671  1.00  0.00     0.010 A 
ATOM     38  C   UNL A   1      39.749  24.113  26.487  1.00  0.00     0.010 A 
ATOM     39  C   UNL A   1      40.915  24.086  27.266  1.00  0.00    -0.014 A 
BRANCH  39  40
ATOM     40  C   UNL A   1      41.596  25.360  27.626  1.00  0.00     0.031 A 
ATOM     41  C   UNL A   1      40.877  26.411  28.430  1.00  0.00     0.074 A 
ATOM     42  C   UNL A   1      42.839  25.605  27.168  1.00  0.00     0.049 A 
ATOM     43  N   UNL A   1      41.279  27.610  28.770  1.00  0.00    -0.248 NA
ATOM     44  C   UNL A   1      39.520  26.080  28.889  1.00  0.00     0.031 C 
ATOM     45  C   UNL A   1      43.631  24.695  26.339  1.00  0.00     0.029 A 
ATOM     46  N   UNL A   1      43.653  26.701  27.324  1.00  0.00    -0.354 N 
ATOM     47  C   UNL A   1      40.223  28.178  29.473  1.00  0.00     0.074 A 
ATOM     48  C   UNL A   1      39.143  27.215  29.460  1.00  0.00     0.031 C 
ATOM     49  C   UNL A   1      44.820  25.260  26.074  1.00  0.00     0.029 A 
ATOM     50  C   UNL A   1      44.861  26.588  26.679  1.00  0.00     0.049 A 
ATOM     51  H   UNL A   1      43.394  27.493  27.848  1.00  0.00     0.167 HD
ATOM     52  C   UNL A   1      40.165  29.381  30.092  1.00  0.00     0.037 A 
ATOM     53  C   UNL A   1      45.884  27.458  26.573  1.00  0.00     0.037 A 
ATOM     54  C   UNL A   1      41.244  30.336  30.118  1.00  0.00     0.049 A 
ATOM     55  C   UNL A   1      45.789  28.796  27.254  1.00  0.00     0.074 A 
ATOM     56  C   UNL A   1      41.296  31.560  30.761  1.00  0.00     0.029 A 
ATOM     57  N   UNL A   1      42.457  30.175  29.466  1.00  0.00    -0.354 N 
ATOM     58  N   UNL A   1      44.809  29.291  27.971  1.00  0.00    -0.248 NA
ATOM     59  C   UNL A   1      46.945  29.693  27.118  1.00  0.00     0.031 C 
ATOM     60  C   UNL A   1      42.522  32.162  30.461  1.00  0.00     0.029 A 
ATOM     61  C   UNL A   1      43.256  31.288  29.675  1.00  0.00     0.049 A 
ATOM     62  H   UNL A   1      42.714  29.388  28.934  1.00  0.00     0.167 HD
ATOM     63  C   UNL A   1      45.241  30.542  28.394  1.00  0.00     0.074 A 
ATOM     64  C   UNL A   1      46.577  30.723  27.867  1.00  0.00     0.031 C 
ATOM     65  C   UNL A   1      44.588  31.457  29.152  1.00  0.00     0.037 A 
BRANCH  52  66
ATOM     66  C   UNL A   1      38.888  29.734  30.802  1.00  0.00     0.057 A 
ATOM     67  C   UNL A   1      38.672  29.393  32.144  1.00  0.00     0.134 A 
ATOM     68  C   UNL A   1      37.879  30.454  30.149  1.00  0.00     0.134 A 
ATOM     69  F   UNL A   1      39.593  28.695  32.825  1.00  0.00    -0.206 F 
ATOM     70  C   UNL A   1      37.488  29.730  32.802  1.00  0.00     0.040 A 
ATOM     71  C   UNL A   1      36.704  30.823  30.806  1.00  0.00     0.040 A 
ATOM     72  F   UNL A   1      38.024  30.821  28.868  1.00  0.00    -0.206 F 
ATOM     73  C   UNL A   1      36.502  30.454  32.134  1.00  0.00     0.006 A 
ENDBRANCH  52  66
BRANCH  53  74
ATOM     74  C   UNL A   1      47.098  27.090  25.799  1.00  0.00     0.057 A 
ATOM     75  C   UNL A   1      48.158  26.402  26.401  1.00  0.00     0.134 A 
ATOM     76  C   UNL A   1      47.233  27.426  24.447  1.00  0.00     0.134 A 
ATOM     77  F   UNL A   1      48.097  26.070  27.700  1.00  0.00    -0.206 F 
ATOM     78  C   UNL A   1      49.319  26.082  25.694  1.00  0.00     0.040 A 
ATOM     79  C   UNL A   1      48.375  27.087  23.720  1.00  0.00     0.040 A 
ATOM     80  F   UNL A   1      46.250  28.078  23.810  1.00  0.00    -0.206 F 
ATOM     81  C   UNL A   1      49.427  26.421  24.347  1.00  0.00     0.006 A 
ENDBRANCH  53  74
BRANCH  65  82
ATOM     82  C   UNL A   1      45.323  32.722  29.490  1.00  0.00     0.057 A 
ATOM     83  C   UNL A   1      45.213  33.877  28.707  1.00  0.00     0.134 A 
ATOM     84  C   UNL A   1      46.123  32.794  30.638  1.00  0.00     0.134 A 
ATOM     85  F   UNL A   1      44.474  33.873  27.588  1.00  0.00    -0.206 F 
ATOM     86  C   UNL A   1      45.890  35.053  29.040  1.00  0.00     0.040 A 
ATOM     87  C   UNL A   1      46.782  33.970  30.998  1.00  0.00     0.040 A 
ATOM     88  F   UNL A   1      46.266  31.727  31.438  1.00  0.00    -0.206 F 
ATOM     89  C   UNL A   1      46.672  35.102  30.193  1.00  0.00     0.006 A 
ENDBRANCH  65  82
ENDBRANCH  39  40
ENDBRANCH  31  34
ENDBRANCH  29  30
ENDBRANCH  28  29
ENDBRANCH  27  28
ENDBRANCH   1  27
TORSDOF 15
ENDMDL
