MODEL 1
REMARK VINA RESULT:     -10.8      0.000      0.000
REMARK SMILES CN(c1ccccc1)c1nc(OCC(=O)NCCCCNC(=O)c2ccc(-c3c4nc(c(-c5c(F)cccc5F)c5ccc([nH]5)c(-c5c(F)cccc5F)c5nc(c(-c6c(F)cccc6F)c6ccc3[nH]6)C=C5)C=C4)cc2)cc(-c2ccncc2)n1
REMARK SMILES IDX 17 1 16 2 14 3 15 4 13 6 12 7 11 8 9 9 10 10 86 11 79 12
REMARK SMILES IDX 78 13 2 14 1 15 3 16 4 17 8 18 5 19 7 20 6 21 80 22 81 23
REMARK SMILES IDX 85 24 82 25 84 26 83 27 18 28 19 29 20 30 21 31 22 32 23 34
REMARK SMILES IDX 24 35 25 36 77 37 26 38 76 39 27 40 28 41 29 42 70 43 30 44
REMARK SMILES IDX 75 45 69 46 71 47 31 48 74 49 68 50 67 51 32 53 58 54 41 55
REMARK SMILES IDX 57 56 42 57 45 58 56 59 72 60 43 61 44 62 55 64 73 65 46 66
REMARK SMILES IDX 33 67 34 68 39 69 35 70 36 71 38 72 40 73 37 74 59 75 60 76
REMARK SMILES IDX 65 77 61 78 62 79 64 80 66 81 63 82 47 83 48 84 53 85 49 86
REMARK SMILES IDX 50 87 52 88 54 89 51 90
REMARK H PARENT 16 5 21 33 71 52 45 63
REMARK Flexibility Score: inf
ROOT
ATOM      1  C   UNL A   1      46.356  19.672  24.871  1.00  0.00     0.116 C 
ENDROOT
BRANCH   1   2
ATOM      2  N   UNL A   1      45.568  20.497  23.975  1.00  0.00    -0.353 N 
ATOM      3  C   UNL A   1      45.208  21.802  24.123  1.00  0.00     0.258 C 
ATOM      4  O   UNL A   1      44.514  22.329  23.250  1.00  0.00    -0.271 OA
ATOM      5  H   UNL A   1      45.252  20.056  23.153  1.00  0.00     0.163 HD
BRANCH   3   6
ATOM      6  C   UNL A   1      45.674  22.590  25.354  1.00  0.00     0.331 C 
BRANCH   6   7
ATOM      7  O   UNL A   1      46.854  23.357  25.208  1.00  0.00    -0.467 OA
BRANCH   7   8
ATOM      8  C   UNL A   1      46.740  24.715  25.162  1.00  0.00     0.219 A 
ATOM      9  C   UNL A   1      47.921  26.653  24.721  1.00  0.00     0.233 A 
ATOM     10  N   UNL A   1      47.873  25.310  24.770  1.00  0.00    -0.177 NA
ATOM     11  N   UNL A   1      46.879  27.423  25.078  1.00  0.00    -0.212 NA
ATOM     12  C   UNL A   1      45.735  26.802  25.423  1.00  0.00     0.080 A 
ATOM     13  C   UNL A   1      45.615  25.430  25.467  1.00  0.00     0.097 A 
BRANCH   9  14
ATOM     14  N   UNL A   1      49.098  27.256  24.245  1.00  0.00    -0.314 N 
ATOM     15  C   UNL A   1      49.901  27.917  25.262  1.00  0.00     0.153 C 
BRANCH  14  16
ATOM     16  C   UNL A   1      49.510  27.294  22.903  1.00  0.00     0.043 A 
ATOM     17  C   UNL A   1      48.554  27.383  21.874  1.00  0.00     0.026 A 
ATOM     18  C   UNL A   1      50.859  27.252  22.523  1.00  0.00     0.026 A 
ATOM     19  C   UNL A   1      48.924  27.449  20.528  1.00  0.00     0.002 A 
ATOM     20  C   UNL A   1      51.236  27.305  21.175  1.00  0.00     0.002 A 
ATOM     21  C   UNL A   1      50.268  27.409  20.178  1.00  0.00     0.000 A 
ENDBRANCH  14  16
ENDBRANCH   9  14
BRANCH  12  22
ATOM     22  C   UNL A   1      44.578  27.655  25.699  1.00  0.00     0.004 A 
ATOM     23  C   UNL A   1      44.668  28.735  26.586  1.00  0.00     0.030 A 
ATOM     24  C   UNL A   1      43.328  27.363  25.142  1.00  0.00     0.030 A 
ATOM     25  C   UNL A   1      43.521  29.451  26.885  1.00  0.00     0.111 A 
ATOM     26  C   UNL A   1      42.237  28.131  25.512  1.00  0.00     0.111 A 
ATOM     27  N   UNL A   1      42.305  29.168  26.373  1.00  0.00    -0.265 NA
ENDBRANCH  12  22
ENDBRANCH   7   8
ENDBRANCH   6   7
ENDBRANCH   3   6
ENDBRANCH   1   2
BRANCH   1  28
ATOM     28  C   UNL A   1      45.552  18.505  25.440  1.00  0.00     0.023 C 
BRANCH  28  29
ATOM     29  C   UNL A   1      44.050  18.539  25.136  1.00  0.00     0.023 C 
BRANCH  29  30
ATOM     30  C   UNL A   1      43.126  18.530  26.349  1.00  0.00     0.116 C 
BRANCH  30  31
ATOM     31  N   UNL A   1      41.719  18.648  26.001  1.00  0.00    -0.352 N 
ATOM     32  C   UNL A   1      40.864  19.710  26.179  1.00  0.00     0.251 C 
ATOM     33  H   UNL A   1      41.322  17.854  25.575  1.00  0.00     0.163 HD
ATOM     34  O   UNL A   1      39.670  19.589  25.923  1.00  0.00    -0.269 OA
BRANCH  32  35
ATOM     35  C   UNL A   1      41.375  20.992  26.715  1.00  0.00     0.039 A 
ATOM     36  C   UNL A   1      41.873  21.943  25.820  1.00  0.00     0.014 A 
ATOM     37  C   UNL A   1      41.352  21.263  28.085  1.00  0.00     0.014 A 
ATOM     38  C   UNL A   1      42.276  23.196  26.291  1.00  0.00     0.010 A 
ATOM     39  C   UNL A   1      41.687  22.535  28.544  1.00  0.00     0.010 A 
ATOM     40  C   UNL A   1      42.146  23.517  27.652  1.00  0.00    -0.014 A 
BRANCH  40  41
ATOM     41  C   UNL A   1      42.462  24.879  28.159  1.00  0.00     0.031 A 
ATOM     42  C   UNL A   1      43.849  25.206  28.639  1.00  0.00     0.074 A 
ATOM     43  C   UNL A   1      41.479  25.795  28.268  1.00  0.00     0.049 A 
ATOM     44  N   UNL A   1      44.290  26.297  29.211  1.00  0.00    -0.248 NA
ATOM     45  C   UNL A   1      44.870  24.157  28.482  1.00  0.00     0.031 C 
ATOM     46  C   UNL A   1      40.082  25.588  27.884  1.00  0.00     0.029 A 
ATOM     47  N   UNL A   1      41.501  27.078  28.756  1.00  0.00    -0.354 N 
ATOM     48  C   UNL A   1      45.627  26.059  29.503  1.00  0.00     0.074 A 
ATOM     49  C   UNL A   1      45.917  24.706  29.081  1.00  0.00     0.031 C 
ATOM     50  C   UNL A   1      39.383  26.705  28.145  1.00  0.00     0.029 A 
ATOM     51  C   UNL A   1      40.271  27.692  28.751  1.00  0.00     0.049 A 
ATOM     52  H   UNL A   1      42.321  27.519  29.078  1.00  0.00     0.167 HD
ATOM     53  C   UNL A   1      46.533  26.898  30.059  1.00  0.00     0.037 A 
ATOM     54  C   UNL A   1      39.895  28.905  29.202  1.00  0.00     0.037 A 
ATOM     55  C   UNL A   1      46.252  28.256  30.444  1.00  0.00     0.049 A 
ATOM     56  C   UNL A   1      40.925  29.818  29.808  1.00  0.00     0.074 A 
ATOM     57  C   UNL A   1      47.130  29.209  30.933  1.00  0.00     0.029 A 
ATOM     58  N   UNL A   1      45.003  28.852  30.390  1.00  0.00    -0.354 N 
ATOM     59  N   UNL A   1      42.205  29.608  29.999  1.00  0.00    -0.248 NA
ATOM     60  C   UNL A   1      40.461  31.139  30.257  1.00  0.00     0.031 C 
ATOM     61  C   UNL A   1      46.400  30.366  31.224  1.00  0.00     0.029 A 
ATOM     62  C   UNL A   1      45.079  30.151  30.865  1.00  0.00     0.049 A 
ATOM     63  H   UNL A   1      44.182  28.417  30.061  1.00  0.00     0.167 HD
ATOM     64  C   UNL A   1      42.702  30.777  30.560  1.00  0.00     0.074 A 
ATOM     65  C   UNL A   1      41.590  31.698  30.667  1.00  0.00     0.031 C 
ATOM     66  C   UNL A   1      43.967  31.062  30.953  1.00  0.00     0.037 A 
BRANCH  53  67
ATOM     67  C   UNL A   1      47.922  26.376  30.288  1.00  0.00     0.057 A 
ATOM     68  C   UNL A   1      48.317  25.829  31.516  1.00  0.00     0.134 A 
ATOM     69  C   UNL A   1      48.857  26.360  29.244  1.00  0.00     0.134 A 
ATOM     70  F   UNL A   1      47.474  25.822  32.559  1.00  0.00    -0.206 F 
ATOM     71  C   UNL A   1      49.597  25.304  31.702  1.00  0.00     0.040 A 
ATOM     72  C   UNL A   1      50.129  25.813  29.410  1.00  0.00     0.040 A 
ATOM     73  F   UNL A   1      48.541  26.860  28.039  1.00  0.00    -0.206 F 
ATOM     74  C   UNL A   1      50.504  25.286  30.646  1.00  0.00     0.006 A 
ENDBRANCH  53  67
BRANCH  54  75
ATOM     75  C   UNL A   1      38.475  29.331  29.103  1.00  0.00     0.057 A 
ATOM     76  C   UNL A   1      37.624  29.286  30.214  1.00  0.00     0.134 A 
ATOM     77  C   UNL A   1      37.928  29.768  27.890  1.00  0.00     0.134 A 
ATOM     78  F   UNL A   1      38.083  28.857  31.399  1.00  0.00    -0.206 F 
ATOM     79  C   UNL A   1      36.275  29.632  30.117  1.00  0.00     0.040 A 
ATOM     80  C   UNL A   1      36.587  30.144  27.786  1.00  0.00     0.040 A 
ATOM     81  F   UNL A   1      38.691  29.842  26.790  1.00  0.00    -0.206 F 
ATOM     82  C   UNL A   1      35.754  30.067  28.900  1.00  0.00     0.006 A 
ENDBRANCH  54  75
BRANCH  66  83
ATOM     83  C   UNL A   1      44.231  32.436  31.497  1.00  0.00     0.057 A 
ATOM     84  C   UNL A   1      44.173  32.715  32.868  1.00  0.00     0.134 A 
ATOM     85  C   UNL A   1      44.595  33.482  30.639  1.00  0.00     0.134 A 
ATOM     86  F   UNL A   1      43.818  31.759  33.741  1.00  0.00    -0.206 F 
ATOM     87  C   UNL A   1      44.450  33.988  33.365  1.00  0.00     0.040 A 
ATOM     88  C   UNL A   1      44.901  34.753  31.127  1.00  0.00     0.040 A 
ATOM     89  F   UNL A   1      44.677  33.281  29.316  1.00  0.00    -0.206 F 
ATOM     90  C   UNL A   1      44.824  35.011  32.494  1.00  0.00     0.006 A 
ENDBRANCH  66  83
ENDBRANCH  40  41
ENDBRANCH  32  35
ENDBRANCH  30  31
ENDBRANCH  29  30
ENDBRANCH  28  29
ENDBRANCH   1  28
TORSDOF 16
ENDMDL
MODEL 2
REMARK VINA RESULT:     -10.4      4.729     10.895
REMARK SMILES CN(c1ccccc1)c1nc(OCC(=O)NCCCCNC(=O)c2ccc(-c3c4nc(c(-c5c(F)cccc5F)c5ccc([nH]5)c(-c5c(F)cccc5F)c5nc(c(-c6c(F)cccc6F)c6ccc3[nH]6)C=C5)C=C4)cc2)cc(-c2ccncc2)n1
REMARK SMILES IDX 17 1 16 2 14 3 15 4 13 6 12 7 11 8 9 9 10 10 86 11 79 12
REMARK SMILES IDX 78 13 2 14 1 15 3 16 4 17 8 18 5 19 7 20 6 21 80 22 81 23
REMARK SMILES IDX 85 24 82 25 84 26 83 27 18 28 19 29 20 30 21 31 22 32 23 34
REMARK SMILES IDX 24 35 25 36 77 37 26 38 76 39 27 40 28 41 29 42 70 43 30 44
REMARK SMILES IDX 75 45 69 46 71 47 31 48 74 49 68 50 67 51 32 53 58 54 41 55
REMARK SMILES IDX 57 56 42 57 45 58 56 59 72 60 43 61 44 62 55 64 73 65 46 66
REMARK SMILES IDX 33 67 34 68 39 69 35 70 36 71 38 72 40 73 37 74 59 75 60 76
REMARK SMILES IDX 65 77 61 78 62 79 64 80 66 81 63 82 47 83 48 84 53 85 49 86
REMARK SMILES IDX 50 87 52 88 54 89 51 90
REMARK H PARENT 16 5 21 33 71 52 45 63
REMARK Flexibility Score: inf
ROOT
ATOM      1  C   UNL A   1      31.123  26.478  25.718  1.00  0.00     0.116 C 
ENDROOT
BRANCH   1   2
ATOM      2  N   UNL A   1      30.366  25.595  26.585  1.00  0.00    -0.353 N 
ATOM      3  C   UNL A   1      30.280  24.235  26.541  1.00  0.00     0.258 C 
ATOM      4  O   UNL A   1      29.564  23.660  27.364  1.00  0.00    -0.271 OA
ATOM      5  H   UNL A   1      29.847  26.033  27.297  1.00  0.00     0.163 HD
BRANCH   3   6
ATOM      6  C   UNL A   1      31.073  23.452  25.488  1.00  0.00     0.331 C 
BRANCH   6   7
ATOM      7  O   UNL A   1      30.988  22.041  25.549  1.00  0.00    -0.467 OA
BRANCH   7   8
ATOM      8  C   UNL A   1      32.099  21.313  25.239  1.00  0.00     0.219 A 
ATOM      9  C   UNL A   1      34.275  21.499  24.479  1.00  0.00     0.233 A 
ATOM     10  N   UNL A   1      33.124  22.084  24.857  1.00  0.00    -0.177 NA
ATOM     11  N   UNL A   1      34.424  20.164  24.444  1.00  0.00    -0.212 NA
ATOM     12  C   UNL A   1      33.396  19.410  24.878  1.00  0.00     0.080 A 
ATOM     13  C   UNL A   1      32.202  19.951  25.302  1.00  0.00     0.097 A 
BRANCH   9  14
ATOM     14  N   UNL A   1      35.359  22.327  24.144  1.00  0.00    -0.314 N 
ATOM     15  C   UNL A   1      35.220  23.037  22.882  1.00  0.00     0.153 C 
BRANCH  14  16
ATOM     16  C   UNL A   1      36.535  22.477  24.898  1.00  0.00     0.043 A 
ATOM     17  C   UNL A   1      37.470  21.428  24.963  1.00  0.00     0.026 A 
ATOM     18  C   UNL A   1      36.838  23.650  25.605  1.00  0.00     0.026 A 
ATOM     19  C   UNL A   1      38.662  21.546  25.680  1.00  0.00     0.002 A 
ATOM     20  C   UNL A   1      38.026  23.771  26.336  1.00  0.00     0.002 A 
ATOM     21  C   UNL A   1      38.941  22.721  26.369  1.00  0.00     0.000 A 
ENDBRANCH  14  16
ENDBRANCH   9  14
BRANCH  12  22
ATOM     22  C   UNL A   1      33.617  17.964  24.939  1.00  0.00     0.004 A 
ATOM     23  C   UNL A   1      32.601  17.092  25.350  1.00  0.00     0.030 A 
ATOM     24  C   UNL A   1      34.877  17.424  24.664  1.00  0.00     0.030 A 
ATOM     25  C   UNL A   1      32.891  15.744  25.482  1.00  0.00     0.111 A 
ATOM     26  C   UNL A   1      35.073  16.064  24.836  1.00  0.00     0.111 A 
ATOM     27  N   UNL A   1      34.108  15.212  25.241  1.00  0.00    -0.265 NA
ENDBRANCH  12  22
ENDBRANCH   7   8
ENDBRANCH   6   7
ENDBRANCH   3   6
ENDBRANCH   1   2
BRANCH   1  28
ATOM     28  C   UNL A   1      32.464  26.877  26.330  1.00  0.00     0.023 C 
BRANCH  28  29
ATOM     29  C   UNL A   1      32.633  28.374  26.611  1.00  0.00     0.023 C 
BRANCH  29  30
ATOM     30  C   UNL A   1      33.963  28.787  27.235  1.00  0.00     0.116 C 
BRANCH  30  31
ATOM     31  N   UNL A   1      33.930  30.114  27.829  1.00  0.00    -0.352 N 
ATOM     32  C   UNL A   1      34.909  30.777  28.531  1.00  0.00     0.251 C 
ATOM     33  H   UNL A   1      33.087  30.608  27.712  1.00  0.00     0.163 HD
ATOM     34  O   UNL A   1      34.663  31.857  29.059  1.00  0.00    -0.269 OA
BRANCH  32  35
ATOM     35  C   UNL A   1      36.252  30.174  28.682  1.00  0.00     0.039 A 
ATOM     36  C   UNL A   1      37.139  30.232  27.603  1.00  0.00     0.014 A 
ATOM     37  C   UNL A   1      36.643  29.569  29.878  1.00  0.00     0.014 A 
ATOM     38  C   UNL A   1      38.444  29.752  27.749  1.00  0.00     0.010 A 
ATOM     39  C   UNL A   1      37.963  29.155  30.045  1.00  0.00     0.010 A 
ATOM     40  C   UNL A   1      38.879  29.249  28.986  1.00  0.00    -0.014 A 
BRANCH  40  41
ATOM     41  C   UNL A   1      40.292  28.836  29.199  1.00  0.00     0.031 A 
ATOM     42  C   UNL A   1      41.291  29.811  29.758  1.00  0.00     0.074 A 
ATOM     43  C   UNL A   1      40.694  27.610  28.809  1.00  0.00     0.049 A 
ATOM     44  N   UNL A   1      42.583  29.671  29.917  1.00  0.00    -0.248 NA
ATOM     45  C   UNL A   1      40.775  31.127  30.168  1.00  0.00     0.031 C 
ATOM     46  C   UNL A   1      39.836  26.588  28.207  1.00  0.00     0.029 A 
ATOM     47  N   UNL A   1      41.935  27.023  28.840  1.00  0.00    -0.354 N 
ATOM     48  C   UNL A   1      43.036  30.884  30.419  1.00  0.00     0.074 A 
ATOM     49  C   UNL A   1      41.889  31.762  30.504  1.00  0.00     0.031 C 
ATOM     50  C   UNL A   1      40.573  25.500  27.931  1.00  0.00     0.029 A 
ATOM     51  C   UNL A   1      41.962  25.759  28.297  1.00  0.00     0.049 A 
ATOM     52  H   UNL A   1      42.731  27.464  29.214  1.00  0.00     0.167 HD
ATOM     53  C   UNL A   1      44.292  31.229  30.790  1.00  0.00     0.037 A 
ATOM     54  C   UNL A   1      42.991  24.913  28.098  1.00  0.00     0.037 A 
ATOM     55  C   UNL A   1      45.425  30.342  30.740  1.00  0.00     0.049 A 
ATOM     56  C   UNL A   1      44.374  25.320  28.527  1.00  0.00     0.074 A 
ATOM     57  C   UNL A   1      46.718  30.575  31.178  1.00  0.00     0.029 A 
ATOM     58  N   UNL A   1      45.404  29.059  30.219  1.00  0.00    -0.354 N 
ATOM     59  N   UNL A   1      44.771  26.440  29.079  1.00  0.00    -0.248 NA
ATOM     60  C   UNL A   1      45.452  24.344  28.310  1.00  0.00     0.031 C 
ATOM     61  C   UNL A   1      47.491  29.451  30.873  1.00  0.00     0.029 A 
ATOM     62  C   UNL A   1      46.668  28.498  30.295  1.00  0.00     0.049 A 
ATOM     63  H   UNL A   1      44.607  28.612  29.849  1.00  0.00     0.167 HD
ATOM     64  C   UNL A   1      46.135  26.292  29.302  1.00  0.00     0.074 A 
ATOM     65  C   UNL A   1      46.494  24.969  28.838  1.00  0.00     0.031 C 
ATOM     66  C   UNL A   1      47.010  27.174  29.842  1.00  0.00     0.037 A 
BRANCH  53  67
ATOM     67  C   UNL A   1      44.517  32.629  31.285  1.00  0.00     0.057 A 
ATOM     68  C   UNL A   1      44.843  33.679  30.418  1.00  0.00     0.134 A 
ATOM     69  C   UNL A   1      44.340  32.940  32.640  1.00  0.00     0.134 A 
ATOM     70  F   UNL A   1      45.035  33.447  29.112  1.00  0.00    -0.206 F 
ATOM     71  C   UNL A   1      45.003  34.986  30.884  1.00  0.00     0.040 A 
ATOM     72  C   UNL A   1      44.470  34.246  33.113  1.00  0.00     0.040 A 
ATOM     73  F   UNL A   1      44.019  31.982  33.523  1.00  0.00    -0.206 F 
ATOM     74  C   UNL A   1      44.808  35.273  32.233  1.00  0.00     0.006 A 
ENDBRANCH  53  67
BRANCH  54  75
ATOM     75  C   UNL A   1      42.758  23.592  27.459  1.00  0.00     0.057 A 
ATOM     76  C   UNL A   1      42.832  23.434  26.070  1.00  0.00     0.134 A 
ATOM     77  C   UNL A   1      42.431  22.462  28.219  1.00  0.00     0.134 A 
ATOM     78  F   UNL A   1      43.122  24.484  25.286  1.00  0.00    -0.206 F 
ATOM     79  C   UNL A   1      42.561  22.211  25.457  1.00  0.00     0.040 A 
ATOM     80  C   UNL A   1      42.185  21.225  27.620  1.00  0.00     0.040 A 
ATOM     81  F   UNL A   1      42.351  22.543  29.555  1.00  0.00    -0.206 F 
ATOM     82  C   UNL A   1      42.240  21.099  26.234  1.00  0.00     0.006 A 
ENDBRANCH  54  75
BRANCH  66  83
ATOM     83  C   UNL A   1      48.433  26.728  30.001  1.00  0.00     0.057 A 
ATOM     84  C   UNL A   1      49.415  27.027  29.048  1.00  0.00     0.134 A 
ATOM     85  C   UNL A   1      48.836  26.030  31.147  1.00  0.00     0.134 A 
ATOM     86  F   UNL A   1      49.092  27.681  27.922  1.00  0.00    -0.206 F 
ATOM     87  C   UNL A   1      50.743  26.633  29.221  1.00  0.00     0.040 A 
ATOM     88  C   UNL A   1      50.166  25.655  31.344  1.00  0.00     0.040 A 
ATOM     89  F   UNL A   1      47.948  25.718  32.103  1.00  0.00    -0.206 F 
ATOM     90  C   UNL A   1      51.123  25.951  30.376  1.00  0.00     0.006 A 
ENDBRANCH  66  83
ENDBRANCH  40  41
ENDBRANCH  32  35
ENDBRANCH  30  31
ENDBRANCH  29  30
ENDBRANCH  28  29
ENDBRANCH   1  28
TORSDOF 16
ENDMDL
MODEL 3
REMARK VINA RESULT:     -10.3      0.532      6.163
REMARK SMILES CN(c1ccccc1)c1nc(OCC(=O)NCCCCNC(=O)c2ccc(-c3c4nc(c(-c5c(F)cccc5F)c5ccc([nH]5)c(-c5c(F)cccc5F)c5nc(c(-c6c(F)cccc6F)c6ccc3[nH]6)C=C5)C=C4)cc2)cc(-c2ccncc2)n1
REMARK SMILES IDX 17 1 16 2 14 3 15 4 13 6 12 7 11 8 9 9 10 10 86 11 79 12
REMARK SMILES IDX 78 13 2 14 1 15 3 16 4 17 8 18 5 19 7 20 6 21 80 22 81 23
REMARK SMILES IDX 85 24 82 25 84 26 83 27 18 28 19 29 20 30 21 31 22 32 23 34
REMARK SMILES IDX 24 35 25 36 77 37 26 38 76 39 27 40 28 41 29 42 70 43 30 44
REMARK SMILES IDX 75 45 69 46 71 47 31 48 74 49 68 50 67 51 32 53 58 54 41 55
REMARK SMILES IDX 57 56 42 57 45 58 56 59 72 60 43 61 44 62 55 64 73 65 46 66
REMARK SMILES IDX 33 67 34 68 39 69 35 70 36 71 38 72 40 73 37 74 59 75 60 76
REMARK SMILES IDX 65 77 61 78 62 79 64 80 66 81 63 82 47 83 48 84 53 85 49 86
REMARK SMILES IDX 50 87 52 88 54 89 51 90
REMARK H PARENT 16 5 21 33 71 52 45 63
REMARK Flexibility Score: inf
ROOT
ATOM      1  C   UNL A   1      46.545  20.150  24.593  1.00  0.00     0.116 C 
ENDROOT
BRANCH   1   2
ATOM      2  N   UNL A   1      45.503  20.843  23.859  1.00  0.00    -0.353 N 
ATOM      3  C   UNL A   1      45.006  22.093  24.074  1.00  0.00     0.258 C 
ATOM      4  O   UNL A   1      44.100  22.504  23.345  1.00  0.00    -0.271 OA
ATOM      5  H   UNL A   1      45.103  20.346  23.110  1.00  0.00     0.163 HD
BRANCH   3   6
ATOM      6  C   UNL A   1      45.579  22.963  25.199  1.00  0.00     0.331 C 
BRANCH   6   7
ATOM      7  O   UNL A   1      46.807  23.615  24.934  1.00  0.00    -0.467 OA
BRANCH   7   8
ATOM      8  C   UNL A   1      46.835  24.978  24.974  1.00  0.00     0.219 A 
ATOM      9  C   UNL A   1      48.163  26.811  24.500  1.00  0.00     0.233 A 
ATOM     10  N   UNL A   1      47.976  25.479  24.484  1.00  0.00    -0.177 NA
ATOM     11  N   UNL A   1      47.255  27.658  25.016  1.00  0.00    -0.212 NA
ATOM     12  C   UNL A   1      46.096  27.134  25.459  1.00  0.00     0.080 A 
ATOM     13  C   UNL A   1      45.835  25.782  25.445  1.00  0.00     0.097 A 
BRANCH   9  14
ATOM     14  N   UNL A   1      49.338  27.321  23.922  1.00  0.00    -0.314 N 
ATOM     15  C   UNL A   1      50.301  27.861  24.870  1.00  0.00     0.153 C 
BRANCH  14  16
ATOM     16  C   UNL A   1      49.613  27.377  22.546  1.00  0.00     0.043 A 
ATOM     17  C   UNL A   1      50.586  28.267  22.057  1.00  0.00     0.026 A 
ATOM     18  C   UNL A   1      48.956  26.567  21.609  1.00  0.00     0.026 A 
ATOM     19  C   UNL A   1      50.907  28.335  20.699  1.00  0.00     0.002 A 
ATOM     20  C   UNL A   1      49.264  26.638  20.244  1.00  0.00     0.002 A 
ATOM     21  C   UNL A   1      50.244  27.519  19.791  1.00  0.00     0.000 A 
ENDBRANCH  14  16
ENDBRANCH   9  14
BRANCH  12  22
ATOM     22  C   UNL A   1      45.075  28.081  25.912  1.00  0.00     0.004 A 
ATOM     23  C   UNL A   1      45.427  29.291  26.523  1.00  0.00     0.030 A 
ATOM     24  C   UNL A   1      43.716  27.762  25.818  1.00  0.00     0.030 A 
ATOM     25  C   UNL A   1      44.424  30.105  27.020  1.00  0.00     0.111 A 
ATOM     26  C   UNL A   1      42.787  28.638  26.354  1.00  0.00     0.111 A 
ATOM     27  N   UNL A   1      43.111  29.801  26.955  1.00  0.00    -0.265 NA
ENDBRANCH  12  22
ENDBRANCH   7   8
ENDBRANCH   6   7
ENDBRANCH   3   6
ENDBRANCH   1   2
BRANCH   1  28
ATOM     28  C   UNL A   1      46.005  18.949  25.367  1.00  0.00     0.023 C 
BRANCH  28  29
ATOM     29  C   UNL A   1      44.538  18.601  25.091  1.00  0.00     0.023 C 
BRANCH  29  30
ATOM     30  C   UNL A   1      43.560  18.900  26.224  1.00  0.00     0.116 C 
BRANCH  30  31
ATOM     31  N   UNL A   1      42.169  18.720  25.842  1.00  0.00    -0.352 N 
ATOM     32  C   UNL A   1      41.101  19.568  26.021  1.00  0.00     0.251 C 
ATOM     33  H   UNL A   1      41.961  17.870  25.391  1.00  0.00     0.163 HD
ATOM     34  O   UNL A   1      39.967  19.199  25.733  1.00  0.00    -0.269 OA
BRANCH  32  35
ATOM     35  C   UNL A   1      41.311  20.916  26.595  1.00  0.00     0.039 A 
ATOM     36  C   UNL A   1      41.160  21.090  27.974  1.00  0.00     0.014 A 
ATOM     37  C   UNL A   1      41.668  21.999  25.787  1.00  0.00     0.014 A 
ATOM     38  C   UNL A   1      41.441  22.330  28.552  1.00  0.00     0.010 A 
ATOM     39  C   UNL A   1      42.015  23.214  26.373  1.00  0.00     0.010 A 
ATOM     40  C   UNL A   1      41.913  23.391  27.762  1.00  0.00    -0.014 A 
BRANCH  40  41
ATOM     41  C   UNL A   1      42.325  24.685  28.369  1.00  0.00     0.031 A 
ATOM     42  C   UNL A   1      41.325  25.794  28.540  1.00  0.00     0.074 A 
ATOM     43  C   UNL A   1      43.619  24.890  28.686  1.00  0.00     0.049 A 
ATOM     44  N   UNL A   1      41.516  27.023  28.949  1.00  0.00    -0.248 NA
ATOM     45  C   UNL A   1      39.931  25.492  28.179  1.00  0.00     0.031 C 
ATOM     46  C   UNL A   1      44.697  23.914  28.522  1.00  0.00     0.029 A 
ATOM     47  N   UNL A   1      44.252  25.999  29.191  1.00  0.00    -0.354 N 
ATOM     48  C   UNL A   1      40.276  27.645  28.870  1.00  0.00     0.074 A 
ATOM     49  C   UNL A   1      39.347  26.671  28.340  1.00  0.00     0.031 C 
ATOM     50  C   UNL A   1      45.855  24.463  28.924  1.00  0.00     0.029 A 
ATOM     51  C   UNL A   1      45.611  25.842  29.335  1.00  0.00     0.049 A 
ATOM     52  H   UNL A   1      43.778  26.829  29.428  1.00  0.00     0.167 HD
ATOM     53  C   UNL A   1      39.941  28.909  29.223  1.00  0.00     0.037 A 
ATOM     54  C   UNL A   1      46.556  26.715  29.734  1.00  0.00     0.037 A 
ATOM     55  C   UNL A   1      40.859  29.864  29.787  1.00  0.00     0.049 A 
ATOM     56  C   UNL A   1      46.153  28.110  30.128  1.00  0.00     0.074 A 
ATOM     57  C   UNL A   1      40.590  31.139  30.257  1.00  0.00     0.029 A 
ATOM     58  N   UNL A   1      42.218  29.655  29.951  1.00  0.00    -0.354 N 
ATOM     59  N   UNL A   1      44.961  28.656  30.128  1.00  0.00    -0.248 NA
ATOM     60  C   UNL A   1      47.224  29.009  30.580  1.00  0.00     0.031 C 
ATOM     61  C   UNL A   1      41.798  31.720  30.658  1.00  0.00     0.029 A 
ATOM     62  C   UNL A   1      42.808  30.787  30.487  1.00  0.00     0.049 A 
ATOM     63  H   UNL A   1      42.694  28.823  29.721  1.00  0.00     0.167 HD
ATOM     64  C   UNL A   1      45.136  29.948  30.607  1.00  0.00     0.074 A 
ATOM     65  C   UNL A   1      46.545  30.101  30.901  1.00  0.00     0.031 C 
ATOM     66  C   UNL A   1      44.211  30.922  30.788  1.00  0.00     0.037 A 
BRANCH  53  67
ATOM     67  C   UNL A   1      38.518  29.341  29.013  1.00  0.00     0.057 A 
ATOM     68  C   UNL A   1      38.031  29.701  27.751  1.00  0.00     0.134 A 
ATOM     69  C   UNL A   1      37.608  29.332  30.078  1.00  0.00     0.134 A 
ATOM     70  F   UNL A   1      38.852  29.739  26.691  1.00  0.00    -0.206 F 
ATOM     71  C   UNL A   1      36.695  30.056  27.559  1.00  0.00     0.040 A 
ATOM     72  C   UNL A   1      36.264  29.658  29.894  1.00  0.00     0.040 A 
ATOM     73  F   UNL A   1      38.007  28.989  31.313  1.00  0.00    -0.206 F 
ATOM     74  C   UNL A   1      35.805  30.026  28.630  1.00  0.00     0.006 A 
ENDBRANCH  53  67
BRANCH  54  75
ATOM     75  C   UNL A   1      47.982  26.301  29.782  1.00  0.00     0.057 A 
ATOM     76  C   UNL A   1      48.846  26.546  28.706  1.00  0.00     0.134 A 
ATOM     77  C   UNL A   1      48.510  25.627  30.890  1.00  0.00     0.134 A 
ATOM     78  F   UNL A   1      48.394  27.169  27.607  1.00  0.00    -0.206 F 
ATOM     79  C   UNL A   1      50.171  26.112  28.719  1.00  0.00     0.040 A 
ATOM     80  C   UNL A   1      49.842  25.212  30.928  1.00  0.00     0.040 A 
ATOM     81  F   UNL A   1      47.739  25.369  31.956  1.00  0.00    -0.206 F 
ATOM     82  C   UNL A   1      50.675  25.446  29.836  1.00  0.00     0.006 A 
ENDBRANCH  54  75
BRANCH  66  83
ATOM     83  C   UNL A   1      44.680  32.225  31.365  1.00  0.00     0.057 A 
ATOM     84  C   UNL A   1      45.091  33.290  30.554  1.00  0.00     0.134 A 
ATOM     85  C   UNL A   1      44.674  32.431  32.751  1.00  0.00     0.134 A 
ATOM     86  F   UNL A   1      45.132  33.152  29.220  1.00  0.00    -0.206 F 
ATOM     87  C   UNL A   1      45.497  34.508  31.101  1.00  0.00     0.040 A 
ATOM     88  C   UNL A   1      45.051  33.655  33.308  1.00  0.00     0.040 A 
ATOM     89  F   UNL A   1      44.284  31.456  33.584  1.00  0.00    -0.206 F 
ATOM     90  C   UNL A   1      45.470  34.696  32.482  1.00  0.00     0.006 A 
ENDBRANCH  66  83
ENDBRANCH  40  41
ENDBRANCH  32  35
ENDBRANCH  30  31
ENDBRANCH  29  30
ENDBRANCH  28  29
ENDBRANCH   1  28
TORSDOF 16
ENDMDL
