MODEL 1
REMARK VINA RESULT:     -12.1      0.000      0.000
REMARK SMILES O=C(NCCCCNC(=O)[C@@H]1[C@@H](C(=O)NCCn2cc(Cl)cn2)[C@H]2CC[C@@H]1O2)c1ccc(-c2c3nc(c(-c4c(F)cccc4F)c4ccc([nH]4)c(-c4c(F)cccc4F)c4nc(c(-c5c(F)cccc5F)c5ccc2[nH]5)C=C4)C=C3)cc1
REMARK SMILES IDX 6 1 5 2 4 3 3 4 1 5 2 6 29 8 30 9 82 10 31 11 81 12 32 13
REMARK SMILES IDX 33 14 34 15 75 16 35 17 80 18 74 19 76 20 36 21 79 22 73 23
REMARK SMILES IDX 72 24 37 26 63 27 46 28 62 29 47 30 50 31 61 32 77 33 48 34
REMARK SMILES IDX 49 35 60 37 78 38 51 39 38 40 39 41 44 42 40 43 41 44 43 45
REMARK SMILES IDX 45 46 42 47 64 48 65 49 70 50 66 51 67 52 69 53 71 54 68 55
REMARK SMILES IDX 52 56 53 57 58 58 54 59 55 60 57 61 59 62 56 63 7 64 8 65
REMARK SMILES IDX 9 66 10 68 11 69 12 70 27 71 24 72 26 73 28 74 25 75 13 76
REMARK SMILES IDX 14 77 15 78 16 80 17 81 18 82 19 83 23 84 20 85 22 86 21 87
REMARK H PARENT 3 7 76 25 50 36 8 67 15 79
REMARK Flexibility Score: inf
ROOT
ATOM      1  C   UNL A   1      31.729  29.407  27.229  1.00  0.00     0.023 C 
ENDROOT
BRANCH   1   2
ATOM      2  C   UNL A   1      32.688  30.349  26.504  1.00  0.00     0.023 C 
BRANCH   2   3
ATOM      3  C   UNL A   1      34.048  30.518  27.186  1.00  0.00     0.116 C 
BRANCH   3   4
ATOM      4  N   UNL A   1      34.018  31.358  28.369  1.00  0.00    -0.352 N 
ATOM      5  O   UNL A   1      34.557  32.673  30.049  1.00  0.00    -0.269 OA
ATOM      6  C   UNL A   1      34.933  31.777  29.295  1.00  0.00     0.251 C 
ATOM      7  H   UNL A   1      33.117  31.713  28.549  1.00  0.00     0.163 HD
BRANCH   6   8
ATOM      8  C   UNL A   1      36.290  31.203  29.500  1.00  0.00     0.039 A 
ATOM      9  C   UNL A   1      37.487  31.917  29.478  1.00  0.00     0.014 A 
ATOM     10  C   UNL A   1      36.344  29.799  29.613  1.00  0.00     0.014 A 
ATOM     11  C   UNL A   1      38.705  31.241  29.472  1.00  0.00     0.010 A 
ATOM     12  C   UNL A   1      37.555  29.121  29.616  1.00  0.00     0.010 A 
ATOM     13  C   UNL A   1      38.736  29.844  29.500  1.00  0.00    -0.014 A 
BRANCH  13  14
ATOM     14  C   UNL A   1      40.034  29.176  29.571  1.00  0.00     0.031 A 
ATOM     15  C   UNL A   1      40.581  29.065  30.957  1.00  0.00     0.074 A 
ATOM     16  C   UNL A   1      40.617  28.566  28.518  1.00  0.00     0.049 A 
ATOM     17  N   UNL A   1      41.693  29.531  31.425  1.00  0.00    -0.248 NA
ATOM     18  C   UNL A   1      39.711  28.462  31.984  1.00  0.00     0.031 C 
ATOM     19  C   UNL A   1      40.059  28.339  27.182  1.00  0.00     0.029 A 
ATOM     20  N   UNL A   1      41.820  27.926  28.452  1.00  0.00    -0.354 N 
ATOM     21  C   UNL A   1      41.752  29.120  32.758  1.00  0.00     0.074 A 
ATOM     22  C   UNL A   1      40.449  28.609  33.083  1.00  0.00     0.031 C 
ATOM     23  C   UNL A   1      40.816  27.427  26.529  1.00  0.00     0.029 A 
ATOM     24  C   UNL A   1      41.976  27.106  27.340  1.00  0.00     0.049 A 
ATOM     25  H   UNL A   1      42.519  28.035  29.136  1.00  0.00     0.167 HD
ATOM     26  C   UNL A   1      42.937  29.025  33.423  1.00  0.00     0.037 A 
ATOM     27  C   UNL A   1      42.955  26.184  27.141  1.00  0.00     0.037 A 
ATOM     28  C   UNL A   1      43.953  29.825  32.789  1.00  0.00     0.049 A 
ATOM     29  C   UNL A   1      44.068  26.502  28.071  1.00  0.00     0.074 A 
ATOM     30  C   UNL A   1      44.109  31.170  32.519  1.00  0.00     0.029 A 
ATOM     31  N   UNL A   1      44.884  29.184  32.010  1.00  0.00    -0.354 N 
ATOM     32  N   UNL A   1      44.821  27.559  27.968  1.00  0.00    -0.248 NA
ATOM     33  C   UNL A   1      44.039  25.877  29.385  1.00  0.00     0.031 C 
ATOM     34  C   UNL A   1      44.749  31.216  31.246  1.00  0.00     0.029 A 
ATOM     35  C   UNL A   1      45.000  29.902  30.851  1.00  0.00     0.049 A 
ATOM     36  H   UNL A   1      45.376  28.363  32.243  1.00  0.00     0.167 HD
ATOM     37  C   UNL A   1      45.010  27.984  29.274  1.00  0.00     0.074 A 
ATOM     38  C   UNL A   1      44.566  26.868  30.107  1.00  0.00     0.031 C 
ATOM     39  C   UNL A   1      45.236  29.299  29.562  1.00  0.00     0.037 A 
BRANCH  26  40
ATOM     40  C   UNL A   1      43.284  27.907  34.387  1.00  0.00     0.057 A 
ATOM     41  C   UNL A   1      43.335  26.584  33.904  1.00  0.00     0.134 A 
ATOM     42  C   UNL A   1      43.245  28.023  35.791  1.00  0.00     0.134 A 
ATOM     43  F   UNL A   1      43.392  26.331  32.587  1.00  0.00    -0.206 F 
ATOM     44  C   UNL A   1      43.229  25.470  34.746  1.00  0.00     0.040 A 
ATOM     45  C   UNL A   1      43.186  26.916  36.642  1.00  0.00     0.040 A 
ATOM     46  F   UNL A   1      43.164  29.200  36.420  1.00  0.00    -0.206 F 
ATOM     47  C   UNL A   1      43.134  25.634  36.121  1.00  0.00     0.006 A 
ENDBRANCH  26  40
BRANCH  27  48
ATOM     48  C   UNL A   1      42.862  24.869  26.461  1.00  0.00     0.057 A 
ATOM     49  C   UNL A   1      43.648  24.563  25.340  1.00  0.00     0.134 A 
ATOM     50  C   UNL A   1      42.208  23.781  27.066  1.00  0.00     0.134 A 
ATOM     51  F   UNL A   1      44.353  25.522  24.722  1.00  0.00    -0.206 F 
ATOM     52  C   UNL A   1      43.787  23.253  24.858  1.00  0.00     0.040 A 
ATOM     53  C   UNL A   1      42.333  22.470  26.593  1.00  0.00     0.040 A 
ATOM     54  F   UNL A   1      41.499  23.941  28.193  1.00  0.00    -0.206 F 
ATOM     55  C   UNL A   1      43.136  22.199  25.493  1.00  0.00     0.006 A 
ENDBRANCH  27  48
BRANCH  39  56
ATOM     56  C   UNL A   1      45.507  30.236  28.421  1.00  0.00     0.057 A 
ATOM     57  C   UNL A   1      44.506  30.917  27.711  1.00  0.00     0.134 A 
ATOM     58  C   UNL A   1      46.831  30.590  28.144  1.00  0.00     0.134 A 
ATOM     59  F   UNL A   1      43.208  30.720  27.977  1.00  0.00    -0.206 F 
ATOM     60  C   UNL A   1      44.813  31.879  26.743  1.00  0.00     0.040 A 
ATOM     61  C   UNL A   1      47.150  31.572  27.204  1.00  0.00     0.040 A 
ATOM     62  F   UNL A   1      47.839  30.021  28.825  1.00  0.00    -0.206 F 
ATOM     63  C   UNL A   1      46.139  32.215  26.494  1.00  0.00     0.006 A 
ENDBRANCH  39  56
ENDBRANCH  13  14
ENDBRANCH   6   8
ENDBRANCH   3   4
ENDBRANCH   2   3
ENDBRANCH   1   2
BRANCH   1  64
ATOM     64  C   UNL A   1      32.205  27.987  27.525  1.00  0.00     0.116 C 
BRANCH  64  65
ATOM     65  N   UNL A   1      31.275  27.035  26.957  1.00  0.00    -0.356 N 
ATOM     66  C   UNL A   1      31.255  26.404  25.750  1.00  0.00     0.226 C 
ATOM     67  H   UNL A   1      30.522  26.801  27.548  1.00  0.00     0.163 HD
ATOM     68  O   UNL A   1      30.163  25.933  25.424  1.00  0.00    -0.275 OA
BRANCH  66  69
ATOM     69  C   UNL A   1      32.516  26.239  24.892  1.00  0.00     0.122 C 
ATOM     70  C   UNL A   1      32.221  25.679  23.475  1.00  0.00     0.122 C 
ATOM     71  C   UNL A   1      33.298  25.064  25.519  1.00  0.00     0.132 C 
ATOM     72  C   UNL A   1      32.843  24.257  23.555  1.00  0.00     0.132 C 
ATOM     73  C   UNL A   1      34.688  24.909  24.895  1.00  0.00     0.035 C 
ATOM     74  O   UNL A   1      32.606  23.924  24.948  1.00  0.00    -0.373 OA
ATOM     75  C   UNL A   1      34.369  24.161  23.604  1.00  0.00     0.035 C 
BRANCH  70  76
ATOM     76  C   UNL A   1      32.804  26.499  22.328  1.00  0.00     0.226 C 
ATOM     77  O   UNL A   1      33.624  26.038  21.529  1.00  0.00    -0.275 OA
ATOM     78  N   UNL A   1      32.473  27.793  22.106  1.00  0.00    -0.354 N 
ATOM     79  H   UNL A   1      32.915  28.179  21.316  1.00  0.00     0.163 HD
BRANCH  78  80
ATOM     80  C   UNL A   1      31.603  28.722  22.794  1.00  0.00     0.139 C 
BRANCH  80  81
ATOM     81  C   UNL A   1      30.152  28.558  22.356  1.00  0.00     0.165 C 
BRANCH  81  82
ATOM     82  N   UNL A   1      29.311  29.737  22.339  1.00  0.00    -0.269 N 
ATOM     83  C   UNL A   1      29.475  30.840  23.130  1.00  0.00     0.129 A 
ATOM     84  N   UNL A   1      28.508  29.957  21.277  1.00  0.00    -0.180 NA
ATOM     85  C   UNL A   1      28.789  31.853  22.508  1.00  0.00     0.079 A 
ATOM     86  C   UNL A   1      28.217  31.259  21.370  1.00  0.00     0.155 A 
ATOM     87  Cl  UNL A   1      28.688  33.478  22.964  1.00  0.00    -0.081 Cl
ENDBRANCH  81  82
ENDBRANCH  80  81
ENDBRANCH  78  80
ENDBRANCH  70  76
ENDBRANCH  66  69
ENDBRANCH  64  65
ENDBRANCH   1  64
TORSDOF 15
ENDMDL
MODEL 2
REMARK VINA RESULT:     -11.9      2.302      3.732
REMARK SMILES O=C(NCCCCNC(=O)[C@@H]1[C@@H](C(=O)NCCn2cc(Cl)cn2)[C@H]2CC[C@@H]1O2)c1ccc(-c2c3nc(c(-c4c(F)cccc4F)c4ccc([nH]4)c(-c4c(F)cccc4F)c4nc(c(-c5c(F)cccc5F)c5ccc2[nH]5)C=C4)C=C3)cc1
REMARK SMILES IDX 6 1 5 2 4 3 3 4 1 5 2 6 29 8 30 9 82 10 31 11 81 12 32 13
REMARK SMILES IDX 33 14 34 15 75 16 35 17 80 18 74 19 76 20 36 21 79 22 73 23
REMARK SMILES IDX 72 24 37 26 63 27 46 28 62 29 47 30 50 31 61 32 77 33 48 34
REMARK SMILES IDX 49 35 60 37 78 38 51 39 38 40 39 41 44 42 40 43 41 44 43 45
REMARK SMILES IDX 45 46 42 47 64 48 65 49 70 50 66 51 67 52 69 53 71 54 68 55
REMARK SMILES IDX 52 56 53 57 58 58 54 59 55 60 57 61 59 62 56 63 7 64 8 65
REMARK SMILES IDX 9 66 10 68 11 69 12 70 27 71 24 72 26 73 28 74 25 75 13 76
REMARK SMILES IDX 14 77 15 78 16 80 17 81 18 82 19 83 23 84 20 85 22 86 21 87
REMARK H PARENT 3 7 76 25 50 36 8 67 15 79
REMARK Flexibility Score: inf
ROOT
ATOM      1  C   UNL A   1      34.640  29.802  27.296  1.00  0.00     0.023 C 
ENDROOT
BRANCH   1   2
ATOM      2  C   UNL A   1      33.602  30.878  27.605  1.00  0.00     0.023 C 
BRANCH   2   3
ATOM      3  C   UNL A   1      34.181  32.178  28.167  1.00  0.00     0.116 C 
BRANCH   3   4
ATOM      4  N   UNL A   1      34.254  32.217  29.616  1.00  0.00    -0.352 N 
ATOM      5  O   UNL A   1      34.952  32.266  31.702  1.00  0.00    -0.269 OA
ATOM      6  C   UNL A   1      35.188  31.883  30.557  1.00  0.00     0.251 C 
ATOM      7  H   UNL A   1      33.429  32.572  30.019  1.00  0.00     0.163 HD
BRANCH   6   8
ATOM      8  C   UNL A   1      36.402  31.055  30.325  1.00  0.00     0.039 A 
ATOM      9  C   UNL A   1      36.483  29.672  30.475  1.00  0.00     0.014 A 
ATOM     10  C   UNL A   1      37.579  31.773  30.037  1.00  0.00     0.014 A 
ATOM     11  C   UNL A   1      37.722  29.035  30.434  1.00  0.00     0.010 A 
ATOM     12  C   UNL A   1      38.816  31.143  29.986  1.00  0.00     0.010 A 
ATOM     13  C   UNL A   1      38.889  29.777  30.230  1.00  0.00    -0.014 A 
BRANCH  13  14
ATOM     14  C   UNL A   1      40.159  29.063  30.117  1.00  0.00     0.031 A 
ATOM     15  C   UNL A   1      40.875  28.893  31.418  1.00  0.00     0.074 A 
ATOM     16  C   UNL A   1      40.580  28.465  28.983  1.00  0.00     0.049 A 
ATOM     17  N   UNL A   1      42.054  29.306  31.749  1.00  0.00    -0.248 NA
ATOM     18  C   UNL A   1      40.122  28.289  32.532  1.00  0.00     0.031 C 
ATOM     19  C   UNL A   1      39.847  28.297  27.724  1.00  0.00     0.029 A 
ATOM     20  N   UNL A   1      41.739  27.786  28.746  1.00  0.00    -0.354 N 
ATOM     21  C   UNL A   1      42.268  28.855  33.053  1.00  0.00     0.074 A 
ATOM     22  C   UNL A   1      40.999  28.378  33.531  1.00  0.00     0.031 C 
ATOM     23  C   UNL A   1      40.479  27.379  26.956  1.00  0.00     0.029 A 
ATOM     24  C   UNL A   1      41.721  26.995  27.603  1.00  0.00     0.049 A 
ATOM     25  H   UNL A   1      42.524  27.852  29.337  1.00  0.00     0.167 HD
ATOM     26  C   UNL A   1      43.524  28.699  33.557  1.00  0.00     0.037 A 
ATOM     27  C   UNL A   1      42.631  26.047  27.257  1.00  0.00     0.037 A 
ATOM     28  C   UNL A   1      44.480  29.483  32.818  1.00  0.00     0.049 A 
ATOM     29  C   UNL A   1      43.864  26.299  28.042  1.00  0.00     0.074 A 
ATOM     30  C   UNL A   1      44.650  30.830  32.563  1.00  0.00     0.029 A 
ATOM     31  N   UNL A   1      45.278  28.834  31.909  1.00  0.00    -0.354 N 
ATOM     32  N   UNL A   1      44.638  27.332  27.870  1.00  0.00    -0.248 NA
ATOM     33  C   UNL A   1      43.981  25.637  29.333  1.00  0.00     0.031 C 
ATOM     34  C   UNL A   1      45.123  30.891  31.220  1.00  0.00     0.029 A 
ATOM     35  C   UNL A   1      45.272  29.581  30.763  1.00  0.00     0.049 A 
ATOM     36  H   UNL A   1      45.765  27.990  32.056  1.00  0.00     0.167 HD
ATOM     37  C   UNL A   1      45.008  27.712  29.151  1.00  0.00     0.074 A 
ATOM     38  C   UNL A   1      44.633  26.587  30.006  1.00  0.00     0.031 C 
ATOM     39  C   UNL A   1      45.318  29.009  29.440  1.00  0.00     0.037 A 
BRANCH  26  40
ATOM     40  C   UNL A   1      43.949  27.542  34.440  1.00  0.00     0.057 A 
ATOM     41  C   UNL A   1      43.806  26.228  33.953  1.00  0.00     0.134 A 
ATOM     42  C   UNL A   1      44.174  27.638  35.828  1.00  0.00     0.134 A 
ATOM     43  F   UNL A   1      43.604  25.992  32.648  1.00  0.00    -0.206 F 
ATOM     44  C   UNL A   1      43.766  25.112  34.798  1.00  0.00     0.040 A 
ATOM     45  C   UNL A   1      44.181  26.525  36.674  1.00  0.00     0.040 A 
ATOM     46  F   UNL A   1      44.302  28.807  36.463  1.00  0.00    -0.206 F 
ATOM     47  C   UNL A   1      43.935  25.260  36.168  1.00  0.00     0.006 A 
ENDBRANCH  26  40
BRANCH  27  48
ATOM     48  C   UNL A   1      42.402  24.757  26.561  1.00  0.00     0.057 A 
ATOM     49  C   UNL A   1      43.173  24.370  25.454  1.00  0.00     0.134 A 
ATOM     50  C   UNL A   1      41.614  23.747  27.142  1.00  0.00     0.134 A 
ATOM     51  F   UNL A   1      43.997  25.246  24.861  1.00  0.00    -0.206 F 
ATOM     52  C   UNL A   1      43.170  23.056  24.963  1.00  0.00     0.040 A 
ATOM     53  C   UNL A   1      41.597  22.433  26.658  1.00  0.00     0.040 A 
ATOM     54  F   UNL A   1      40.902  23.979  28.254  1.00  0.00    -0.206 F 
ATOM     55  C   UNL A   1      42.388  22.080  25.573  1.00  0.00     0.006 A 
ENDBRANCH  27  48
BRANCH  39  56
ATOM     56  C   UNL A   1      45.476  29.970  28.298  1.00  0.00     0.057 A 
ATOM     57  C   UNL A   1      44.418  30.705  27.739  1.00  0.00     0.134 A 
ATOM     58  C   UNL A   1      46.766  30.287  27.861  1.00  0.00     0.134 A 
ATOM     59  F   UNL A   1      43.159  30.544  28.165  1.00  0.00    -0.206 F 
ATOM     60  C   UNL A   1      44.635  31.684  26.764  1.00  0.00     0.040 A 
ATOM     61  C   UNL A   1      46.999  31.285  26.912  1.00  0.00     0.040 A 
ATOM     62  F   UNL A   1      47.830  29.665  28.392  1.00  0.00    -0.206 F 
ATOM     63  C   UNL A   1      45.930  31.982  26.355  1.00  0.00     0.006 A 
ENDBRANCH  39  56
ENDBRANCH  13  14
ENDBRANCH   6   8
ENDBRANCH   3   4
ENDBRANCH   2   3
ENDBRANCH   1   2
BRANCH   1  64
ATOM     64  C   UNL A   1      34.225  28.641  26.396  1.00  0.00     0.116 C 
BRANCH  64  65
ATOM     65  N   UNL A   1      33.988  29.127  25.054  1.00  0.00    -0.356 N 
ATOM     66  C   UNL A   1      33.003  28.852  24.156  1.00  0.00     0.226 C 
ATOM     67  H   UNL A   1      34.661  29.770  24.731  1.00  0.00     0.163 HD
ATOM     68  O   UNL A   1      33.264  29.140  22.986  1.00  0.00    -0.275 OA
BRANCH  66  69
ATOM     69  C   UNL A   1      31.642  28.283  24.582  1.00  0.00     0.122 C 
ATOM     70  C   UNL A   1      31.676  26.756  24.852  1.00  0.00     0.122 C 
ATOM     71  C   UNL A   1      30.751  28.344  23.323  1.00  0.00     0.132 C 
ATOM     72  C   UNL A   1      30.838  26.202  23.666  1.00  0.00     0.132 C 
ATOM     73  C   UNL A   1      29.293  28.001  23.641  1.00  0.00     0.035 C 
ATOM     74  O   UNL A   1      31.172  27.147  22.618  1.00  0.00    -0.373 OA
ATOM     75  C   UNL A   1      29.333  26.476  23.683  1.00  0.00     0.035 C 
BRANCH  70  76
ATOM     76  C   UNL A   1      31.112  26.332  26.205  1.00  0.00     0.226 C 
ATOM     77  O   UNL A   1      30.691  27.143  27.035  1.00  0.00    -0.275 OA
ATOM     78  N   UNL A   1      31.040  25.040  26.599  1.00  0.00    -0.354 N 
ATOM     79  H   UNL A   1      30.634  24.924  27.488  1.00  0.00     0.163 HD
BRANCH  78  80
ATOM     80  C   UNL A   1      31.440  23.794  25.981  1.00  0.00     0.139 C 
BRANCH  80  81
ATOM     81  C   UNL A   1      32.589  23.138  26.739  1.00  0.00     0.165 C 
BRANCH  81  82
ATOM     82  N   UNL A   1      33.937  23.562  26.426  1.00  0.00    -0.269 N 
ATOM     83  C   UNL A   1      35.079  22.890  26.761  1.00  0.00     0.129 A 
ATOM     84  N   UNL A   1      34.128  24.490  25.464  1.00  0.00    -0.180 NA
ATOM     85  C   UNL A   1      36.056  23.365  25.922  1.00  0.00     0.079 A 
ATOM     86  C   UNL A   1      35.418  24.344  25.140  1.00  0.00     0.155 A 
ATOM     87  Cl  UNL A   1      37.664  22.860  25.800  1.00  0.00    -0.081 Cl
ENDBRANCH  81  82
ENDBRANCH  80  81
ENDBRANCH  78  80
ENDBRANCH  70  76
ENDBRANCH  66  69
ENDBRANCH  64  65
ENDBRANCH   1  64
TORSDOF 15
ENDMDL
MODEL 3
REMARK VINA RESULT:     -11.9      2.523      4.114
REMARK SMILES O=C(NCCCCNC(=O)[C@@H]1[C@@H](C(=O)NCCn2cc(Cl)cn2)[C@H]2CC[C@@H]1O2)c1ccc(-c2c3nc(c(-c4c(F)cccc4F)c4ccc([nH]4)c(-c4c(F)cccc4F)c4nc(c(-c5c(F)cccc5F)c5ccc2[nH]5)C=C4)C=C3)cc1
REMARK SMILES IDX 6 1 5 2 4 3 3 4 1 5 2 6 29 8 30 9 82 10 31 11 81 12 32 13
REMARK SMILES IDX 33 14 34 15 75 16 35 17 80 18 74 19 76 20 36 21 79 22 73 23
REMARK SMILES IDX 72 24 37 26 63 27 46 28 62 29 47 30 50 31 61 32 77 33 48 34
REMARK SMILES IDX 49 35 60 37 78 38 51 39 38 40 39 41 44 42 40 43 41 44 43 45
REMARK SMILES IDX 45 46 42 47 64 48 65 49 70 50 66 51 67 52 69 53 71 54 68 55
REMARK SMILES IDX 52 56 53 57 58 58 54 59 55 60 57 61 59 62 56 63 7 64 8 65
REMARK SMILES IDX 9 66 10 68 11 69 12 70 27 71 24 72 26 73 28 74 25 75 13 76
REMARK SMILES IDX 14 77 15 78 16 80 17 81 18 82 19 83 23 84 20 85 22 86 21 87
REMARK H PARENT 3 7 76 25 50 36 8 67 15 79
REMARK Flexibility Score: inf
ROOT
ATOM      1  C   UNL A   1      32.521  30.007  27.134  1.00  0.00     0.023 C 
ENDROOT
BRANCH   1   2
ATOM      2  C   UNL A   1      34.021  30.257  27.267  1.00  0.00     0.023 C 
BRANCH   2   3
ATOM      3  C   UNL A   1      34.394  31.682  27.683  1.00  0.00     0.116 C 
BRANCH   3   4
ATOM      4  N   UNL A   1      34.228  31.947  29.101  1.00  0.00    -0.352 N 
ATOM      5  O   UNL A   1      34.568  32.431  31.220  1.00  0.00    -0.269 OA
ATOM      6  C   UNL A   1      35.040  31.930  30.201  1.00  0.00     0.251 C 
ATOM      7  H   UNL A   1      33.303  32.202  29.324  1.00  0.00     0.163 HD
BRANCH   6   8
ATOM      8  C   UNL A   1      36.390  31.311  30.277  1.00  0.00     0.039 A 
ATOM      9  C   UNL A   1      37.603  31.997  30.241  1.00  0.00     0.014 A 
ATOM     10  C   UNL A   1      36.412  29.902  30.272  1.00  0.00     0.014 A 
ATOM     11  C   UNL A   1      38.800  31.297  30.108  1.00  0.00     0.010 A 
ATOM     12  C   UNL A   1      37.603  29.198  30.148  1.00  0.00     0.010 A 
ATOM     13  C   UNL A   1      38.794  29.902  30.021  1.00  0.00    -0.014 A 
BRANCH  13  14
ATOM     14  C   UNL A   1      40.075  29.201  29.959  1.00  0.00     0.031 A 
ATOM     15  C   UNL A   1      40.736  29.034  31.290  1.00  0.00     0.074 A 
ATOM     16  C   UNL A   1      40.550  28.611  28.843  1.00  0.00     0.049 A 
ATOM     17  N   UNL A   1      41.896  29.458  31.673  1.00  0.00    -0.248 NA
ATOM     18  C   UNL A   1      39.942  28.419  32.369  1.00  0.00     0.031 C 
ATOM     19  C   UNL A   1      39.874  28.440  27.554  1.00  0.00     0.029 A 
ATOM     20  N   UNL A   1      41.725  27.945  28.654  1.00  0.00    -0.354 N 
ATOM     21  C   UNL A   1      42.058  29.004  32.983  1.00  0.00     0.074 A 
ATOM     22  C   UNL A   1      40.774  28.513  33.404  1.00  0.00     0.031 C 
ATOM     23  C   UNL A   1      40.547  27.531  26.811  1.00  0.00     0.029 A 
ATOM     24  C   UNL A   1      41.764  27.157  27.509  1.00  0.00     0.049 A 
ATOM     25  H   UNL A   1      42.483  28.016  29.278  1.00  0.00     0.167 HD
ATOM     26  C   UNL A   1      43.293  28.859  33.540  1.00  0.00     0.037 A 
ATOM     27  C   UNL A   1      42.698  26.219  27.199  1.00  0.00     0.037 A 
ATOM     28  C   UNL A   1      44.272  29.654  32.845  1.00  0.00     0.049 A 
ATOM     29  C   UNL A   1      43.894  26.481  28.038  1.00  0.00     0.074 A 
ATOM     30  C   UNL A   1      44.439  31.003  32.602  1.00  0.00     0.029 A 
ATOM     31  N   UNL A   1      45.115  29.016  31.970  1.00  0.00    -0.354 N 
ATOM     32  N   UNL A   1      44.663  27.522  27.902  1.00  0.00    -0.248 NA
ATOM     33  C   UNL A   1      43.961  25.815  29.331  1.00  0.00     0.031 C 
ATOM     34  C   UNL A   1      44.969  31.074  31.280  1.00  0.00     0.029 A 
ATOM     35  C   UNL A   1      45.150  29.767  30.827  1.00  0.00     0.049 A 
ATOM     36  H   UNL A   1      45.603  28.177  32.135  1.00  0.00     0.167 HD
ATOM     37  C   UNL A   1      44.974  27.901  29.199  1.00  0.00     0.074 A 
ATOM     38  C   UNL A   1      44.574  26.770  30.034  1.00  0.00     0.031 C 
ATOM     39  C   UNL A   1      45.259  29.200  29.505  1.00  0.00     0.037 A 
BRANCH  26  40
ATOM     40  C   UNL A   1      43.691  27.703  34.437  1.00  0.00     0.057 A 
ATOM     41  C   UNL A   1      44.165  27.982  35.735  1.00  0.00     0.134 A 
ATOM     42  C   UNL A   1      43.938  26.391  33.987  1.00  0.00     0.134 A 
ATOM     43  F   UNL A   1      43.981  29.189  36.293  1.00  0.00    -0.206 F 
ATOM     44  C   UNL A   1      44.929  27.068  36.470  1.00  0.00     0.040 A 
ATOM     45  C   UNL A   1      44.661  25.456  34.733  1.00  0.00     0.040 A 
ATOM     46  F   UNL A   1      43.584  25.963  32.771  1.00  0.00    -0.206 F 
ATOM     47  C   UNL A   1      45.197  25.805  35.961  1.00  0.00     0.006 A 
ENDBRANCH  26  40
BRANCH  27  48
ATOM     48  C   UNL A   1      42.512  24.929  26.491  1.00  0.00     0.057 A 
ATOM     49  C   UNL A   1      43.287  24.585  25.373  1.00  0.00     0.134 A 
ATOM     50  C   UNL A   1      41.767  23.884  27.066  1.00  0.00     0.134 A 
ATOM     51  F   UNL A   1      44.072  25.498  24.783  1.00  0.00    -0.206 F 
ATOM     52  C   UNL A   1      43.329  23.277  24.867  1.00  0.00     0.040 A 
ATOM     53  C   UNL A   1      41.796  22.576  26.568  1.00  0.00     0.040 A 
ATOM     54  F   UNL A   1      41.057  24.076  28.187  1.00  0.00    -0.206 F 
ATOM     55  C   UNL A   1      42.591  22.265  25.472  1.00  0.00     0.006 A 
ENDBRANCH  27  48
BRANCH  39  56
ATOM     56  C   UNL A   1      45.456  30.167  28.373  1.00  0.00     0.057 A 
ATOM     57  C   UNL A   1      44.416  30.892  27.772  1.00  0.00     0.134 A 
ATOM     58  C   UNL A   1      46.760  30.498  27.993  1.00  0.00     0.134 A 
ATOM     59  F   UNL A   1      43.141  30.717  28.142  1.00  0.00    -0.206 F 
ATOM     60  C   UNL A   1      44.664  31.877  26.810  1.00  0.00     0.040 A 
ATOM     61  C   UNL A   1      47.024  31.502  27.059  1.00  0.00     0.040 A 
ATOM     62  F   UNL A   1      47.807  29.885  28.568  1.00  0.00    -0.206 F 
ATOM     63  C   UNL A   1      45.973  32.190  26.457  1.00  0.00     0.006 A 
ENDBRANCH  39  56
ENDBRANCH  13  14
ENDBRANCH   6   8
ENDBRANCH   3   4
ENDBRANCH   2   3
ENDBRANCH   1   2
BRANCH   1  64
ATOM     64  C   UNL A   1      31.873  30.239  25.772  1.00  0.00     0.116 C 
BRANCH  64  65
ATOM     65  N   UNL A   1      32.704  29.668  24.733  1.00  0.00    -0.356 N 
ATOM     66  C   UNL A   1      32.942  28.376  24.378  1.00  0.00     0.226 C 
ATOM     67  H   UNL A   1      33.183  30.333  24.186  1.00  0.00     0.163 HD
ATOM     68  O   UNL A   1      33.956  28.198  23.698  1.00  0.00    -0.275 OA
BRANCH  66  69
ATOM     69  C   UNL A   1      31.982  27.236  24.744  1.00  0.00     0.122 C 
ATOM     70  C   UNL A   1      32.667  25.844  24.761  1.00  0.00     0.122 C 
ATOM     71  C   UNL A   1      31.032  27.085  23.536  1.00  0.00     0.132 C 
ATOM     72  C   UNL A   1      32.025  25.154  23.525  1.00  0.00     0.132 C 
ATOM     73  C   UNL A   1      29.881  26.120  23.835  1.00  0.00     0.035 C 
ATOM     74  O   UNL A   1      31.841  26.286  22.635  1.00  0.00    -0.373 OA
ATOM     75  C   UNL A   1      30.549  24.764  23.628  1.00  0.00     0.035 C 
BRANCH  70  76
ATOM     76  C   UNL A   1      32.457  25.043  26.042  1.00  0.00     0.226 C 
ATOM     77  O   UNL A   1      31.508  25.243  26.806  1.00  0.00    -0.275 OA
ATOM     78  N   UNL A   1      33.298  24.061  26.441  1.00  0.00    -0.354 N 
ATOM     79  H   UNL A   1      33.018  23.622  27.277  1.00  0.00     0.163 HD
BRANCH  78  80
ATOM     80  C   UNL A   1      34.524  23.525  25.891  1.00  0.00     0.139 C 
BRANCH  80  81
ATOM     81  C   UNL A   1      34.643  22.026  26.145  1.00  0.00     0.165 C 
BRANCH  81  82
ATOM     82  N   UNL A   1      34.023  21.126  25.196  1.00  0.00    -0.269 N 
ATOM     83  C   UNL A   1      34.486  19.885  24.859  1.00  0.00     0.129 A 
ATOM     84  N   UNL A   1      32.736  21.330  24.840  1.00  0.00    -0.180 NA
ATOM     85  C   UNL A   1      33.417  19.221  24.311  1.00  0.00     0.079 A 
ATOM     86  C   UNL A   1      32.364  20.152  24.327  1.00  0.00     0.155 A 
ATOM     87  Cl  UNL A   1      33.346  17.618  23.777  1.00  0.00    -0.081 Cl
ENDBRANCH  81  82
ENDBRANCH  80  81
ENDBRANCH  78  80
ENDBRANCH  70  76
ENDBRANCH  66  69
ENDBRANCH  64  65
ENDBRANCH   1  64
TORSDOF 15
ENDMDL
