MODEL 1
REMARK VINA RESULT:     -12.1      0.000      0.000
REMARK SMILES O=C(NCCCCNC(=O)c1cc(NC(=O)c2ccccc2Cl)ccc1N1CCC[C@H](C[NH+]2CCCC2)C1)c1ccc(-c2c3nc(c(-c4c(F)cccc4F)c4ccc([nH]4)c(-c4c(F)cccc4F)c4nc(c(-c5c(F)cccc5F)c5ccc2[nH]5)C=C4)C=C3)cc1
REMARK SMILES IDX 6 1 5 2 4 3 3 4 1 5 2 6 39 8 40 9 92 10 41 11 91 12 42 13
REMARK SMILES IDX 43 14 44 15 85 16 45 17 90 18 84 19 86 20 46 21 89 22 83 23
REMARK SMILES IDX 82 24 47 26 73 27 56 28 72 29 57 30 60 31 71 32 87 33 58 34
REMARK SMILES IDX 59 35 70 37 88 38 61 39 48 40 49 41 54 42 50 43 51 44 53 45
REMARK SMILES IDX 55 46 52 47 74 48 75 49 80 50 76 51 77 52 79 53 81 54 78 55
REMARK SMILES IDX 62 56 63 57 68 58 64 59 65 60 67 61 69 62 66 63 7 64 8 65
REMARK SMILES IDX 9 66 10 68 11 69 12 70 26 71 13 72 25 73 24 74 27 75 28 76
REMARK SMILES IDX 38 77 29 78 31 79 30 80 32 81 33 82 34 83 37 84 35 86 36 87
REMARK SMILES IDX 14 88 15 89 16 91 17 92 18 93 22 94 19 95 21 96 23 97 20 98
REMARK H PARENT 3 7 86 25 60 36 8 67 33 85 14 90
REMARK Flexibility Score: inf
ROOT
ATOM      1  C   UNL A   1      37.931  22.483  25.364  1.00  0.00     0.023 C 
ENDROOT
BRANCH   1   2
ATOM      2  C   UNL A   1      38.204  21.038  24.945  1.00  0.00     0.023 C 
BRANCH   2   3
ATOM      3  C   UNL A   1      38.553  20.061  26.063  1.00  0.00     0.116 C 
BRANCH   3   4
ATOM      4  N   UNL A   1      39.763  19.295  25.812  1.00  0.00    -0.352 N 
ATOM      5  O   UNL A   1      41.973  18.908  25.578  1.00  0.00    -0.269 OA
ATOM      6  C   UNL A   1      41.084  19.664  25.948  1.00  0.00     0.251 C 
ATOM      7  H   UNL A   1      39.617  18.374  25.498  1.00  0.00     0.163 HD
BRANCH   6   8
ATOM      8  C   UNL A   1      41.432  20.987  26.517  1.00  0.00     0.039 A 
ATOM      9  C   UNL A   1      41.819  22.044  25.691  1.00  0.00     0.014 A 
ATOM     10  C   UNL A   1      41.349  21.178  27.900  1.00  0.00     0.014 A 
ATOM     11  C   UNL A   1      42.265  23.236  26.252  1.00  0.00     0.010 A 
ATOM     12  C   UNL A   1      41.713  22.409  28.458  1.00  0.00     0.010 A 
ATOM     13  C   UNL A   1      42.197  23.441  27.640  1.00  0.00    -0.014 A 
BRANCH  13  14
ATOM     14  C   UNL A   1      42.538  24.776  28.195  1.00  0.00     0.031 A 
ATOM     15  C   UNL A   1      43.935  25.118  28.629  1.00  0.00     0.074 A 
ATOM     16  C   UNL A   1      41.555  25.694  28.292  1.00  0.00     0.049 A 
ATOM     17  N   UNL A   1      44.386  26.239  29.134  1.00  0.00    -0.248 NA
ATOM     18  C   UNL A   1      44.960  24.071  28.490  1.00  0.00     0.031 C 
ATOM     19  C   UNL A   1      40.155  25.468  27.921  1.00  0.00     0.029 A 
ATOM     20  N   UNL A   1      41.577  26.994  28.724  1.00  0.00    -0.354 N 
ATOM     21  C   UNL A   1      45.735  26.031  29.389  1.00  0.00     0.074 A 
ATOM     22  C   UNL A   1      46.031  24.670  28.997  1.00  0.00     0.031 C 
ATOM     23  C   UNL A   1      39.460  26.599  28.114  1.00  0.00     0.029 A 
ATOM     24  C   UNL A   1      40.349  27.607  28.680  1.00  0.00     0.049 A 
ATOM     25  H   UNL A   1      42.395  27.447  29.035  1.00  0.00     0.167 HD
ATOM     26  C   UNL A   1      46.640  26.901  29.901  1.00  0.00     0.037 A 
ATOM     27  C   UNL A   1      39.966  28.834  29.080  1.00  0.00     0.037 A 
ATOM     28  C   UNL A   1      46.343  28.263  30.263  1.00  0.00     0.049 A 
ATOM     29  C   UNL A   1      40.988  29.761  29.667  1.00  0.00     0.074 A 
ATOM     30  C   UNL A   1      47.214  29.243  30.711  1.00  0.00     0.029 A 
ATOM     31  N   UNL A   1      45.081  28.836  30.234  1.00  0.00    -0.354 N 
ATOM     32  N   UNL A   1      42.273  29.569  29.837  1.00  0.00    -0.248 NA
ATOM     33  C   UNL A   1      40.506  31.069  30.128  1.00  0.00     0.031 C 
ATOM     34  C   UNL A   1      46.471  30.391  31.003  1.00  0.00     0.029 A 
ATOM     35  C   UNL A   1      45.143  30.141  30.695  1.00  0.00     0.049 A 
ATOM     36  H   UNL A   1      44.263  28.382  29.930  1.00  0.00     0.167 HD
ATOM     37  C   UNL A   1      42.754  30.732  30.420  1.00  0.00     0.074 A 
ATOM     38  C   UNL A   1      41.629  31.636  30.546  1.00  0.00     0.031 C 
ATOM     39  C   UNL A   1      44.013  31.022  30.826  1.00  0.00     0.037 A 
BRANCH  26  40
ATOM     40  C   UNL A   1      48.044  26.419  30.117  1.00  0.00     0.057 A 
ATOM     41  C   UNL A   1      48.445  25.815  31.314  1.00  0.00     0.134 A 
ATOM     42  C   UNL A   1      48.976  26.462  29.071  1.00  0.00     0.134 A 
ATOM     43  F   UNL A   1      47.602  25.745  32.355  1.00  0.00    -0.206 F 
ATOM     44  C   UNL A   1      49.723  25.272  31.465  1.00  0.00     0.040 A 
ATOM     45  C   UNL A   1      50.250  25.907  29.203  1.00  0.00     0.040 A 
ATOM     46  F   UNL A   1      48.652  27.019  27.894  1.00  0.00    -0.206 F 
ATOM     47  C   UNL A   1      50.626  25.308  30.403  1.00  0.00     0.006 A 
ENDBRANCH  26  40
BRANCH  27  48
ATOM     48  C   UNL A   1      38.541  29.234  28.978  1.00  0.00     0.057 A 
ATOM     49  C   UNL A   1      37.686  29.173  30.083  1.00  0.00     0.134 A 
ATOM     50  C   UNL A   1      37.998  29.677  27.764  1.00  0.00     0.134 A 
ATOM     51  F   UNL A   1      38.143  28.739  31.267  1.00  0.00    -0.206 F 
ATOM     52  C   UNL A   1      36.338  29.520  29.982  1.00  0.00     0.040 A 
ATOM     53  C   UNL A   1      36.661  30.056  27.657  1.00  0.00     0.040 A 
ATOM     54  F   UNL A   1      38.768  29.766  26.670  1.00  0.00    -0.206 F 
ATOM     55  C   UNL A   1      35.824  29.969  28.766  1.00  0.00     0.006 A 
ENDBRANCH  27  48
BRANCH  39  56
ATOM     56  C   UNL A   1      44.233  32.370  31.443  1.00  0.00     0.057 A 
ATOM     57  C   UNL A   1      44.531  33.492  30.659  1.00  0.00     0.134 A 
ATOM     58  C   UNL A   1      44.124  32.553  32.826  1.00  0.00     0.134 A 
ATOM     59  F   UNL A   1      44.666  33.377  29.330  1.00  0.00    -0.206 F 
ATOM     60  C   UNL A   1      44.735  34.748  31.235  1.00  0.00     0.040 A 
ATOM     61  C   UNL A   1      44.301  33.808  33.410  1.00  0.00     0.040 A 
ATOM     62  F   UNL A   1      43.834  31.520  33.630  1.00  0.00    -0.206 F 
ATOM     63  C   UNL A   1      44.614  34.908  32.614  1.00  0.00     0.006 A 
ENDBRANCH  39  56
ENDBRANCH  13  14
ENDBRANCH   6   8
ENDBRANCH   3   4
ENDBRANCH   2   3
ENDBRANCH   1   2
BRANCH   1  64
ATOM     64  C   UNL A   1      36.470  22.917  25.333  1.00  0.00     0.116 C 
BRANCH  64  65
ATOM     65  N   UNL A   1      35.930  23.217  24.029  1.00  0.00    -0.352 N 
ATOM     66  C   UNL A   1      34.635  23.588  23.732  1.00  0.00     0.253 C 
ATOM     67  H   UNL A   1      36.551  23.148  23.269  1.00  0.00     0.163 HD
ATOM     68  O   UNL A   1      34.374  23.984  22.597  1.00  0.00    -0.269 OA
BRANCH  66  69
ATOM     69  C   UNL A   1      33.531  23.380  24.706  1.00  0.00     0.065 A 
ATOM     70  C   UNL A   1      33.263  24.529  25.480  1.00  0.00     0.042 A 
ATOM     71  C   UNL A   1      32.765  22.212  24.874  1.00  0.00     0.050 A 
ATOM     72  C   UNL A   1      32.174  24.595  26.342  1.00  0.00     0.042 A 
ATOM     73  C   UNL A   1      31.732  22.272  25.831  1.00  0.00     0.029 A 
ATOM     74  C   UNL A   1      31.435  23.436  26.547  1.00  0.00     0.028 A 
BRANCH  71  75
ATOM     75  N   UNL A   1      32.958  20.994  24.227  1.00  0.00    -0.370 N 
ATOM     76  C   UNL A   1      32.240  20.775  22.965  1.00  0.00     0.116 C 
ATOM     77  C   UNL A   1      34.111  20.163  24.583  1.00  0.00     0.126 C 
ATOM     78  C   UNL A   1      32.046  19.300  22.661  1.00  0.00     0.022 C 
ATOM     79  C   UNL A   1      33.794  18.669  24.378  1.00  0.00     0.064 C 
ATOM     80  C   UNL A   1      33.307  18.492  22.933  1.00  0.00     0.013 C 
BRANCH  79  81
ATOM     81  C   UNL A   1      32.820  18.183  25.486  1.00  0.00     0.267 C 
BRANCH  81  82
ATOM     82  N   UNL A   1      33.064  16.917  26.184  1.00  0.00    -0.335 N 
ATOM     83  C   UNL A   1      34.326  16.253  25.875  1.00  0.00     0.262 C 
ATOM     84  C   UNL A   1      32.003  15.917  26.126  1.00  0.00     0.262 C 
ATOM     85  H   UNL A   1      33.103  17.281  27.135  1.00  0.00     0.348 HD
ATOM     86  C   UNL A   1      33.957  15.117  24.942  1.00  0.00     0.067 C 
ATOM     87  C   UNL A   1      32.573  14.701  25.404  1.00  0.00     0.067 C 
ENDBRANCH  81  82
ENDBRANCH  79  81
ENDBRANCH  71  75
BRANCH  72  88
ATOM     88  N   UNL A   1      31.743  25.754  27.016  1.00  0.00    -0.322 N 
ATOM     89  C   UNL A   1      31.358  26.998  26.562  1.00  0.00     0.257 C 
ATOM     90  H   UNL A   1      31.711  25.659  27.996  1.00  0.00     0.170 HD
ATOM     91  O   UNL A   1      31.101  27.898  27.360  1.00  0.00    -0.269 OA
BRANCH  89  92
ATOM     92  C   UNL A   1      31.242  27.285  25.126  1.00  0.00     0.058 A 
ATOM     93  C   UNL A   1      30.041  26.914  24.503  1.00  0.00     0.015 A 
ATOM     94  C   UNL A   1      32.234  27.965  24.408  1.00  0.00     0.053 A 
ATOM     95  C   UNL A   1      29.800  27.300  23.185  1.00  0.00     0.001 A 
ATOM     96  C   UNL A   1      31.978  28.354  23.090  1.00  0.00     0.021 A 
ATOM     97  Cl  UNL A   1      33.761  28.389  25.095  1.00  0.00    -0.083 Cl
ATOM     98  C   UNL A   1      30.758  28.035  22.488  1.00  0.00     0.002 A 
ENDBRANCH  89  92
ENDBRANCH  72  88
ENDBRANCH  66  69
ENDBRANCH  64  65
ENDBRANCH   1  64
TORSDOF 16
ENDMDL
MODEL 2
REMARK VINA RESULT:     -11.7      2.864      8.193
REMARK SMILES O=C(NCCCCNC(=O)c1cc(NC(=O)c2ccccc2Cl)ccc1N1CCC[C@H](C[NH+]2CCCC2)C1)c1ccc(-c2c3nc(c(-c4c(F)cccc4F)c4ccc([nH]4)c(-c4c(F)cccc4F)c4nc(c(-c5c(F)cccc5F)c5ccc2[nH]5)C=C4)C=C3)cc1
REMARK SMILES IDX 6 1 5 2 4 3 3 4 1 5 2 6 39 8 40 9 92 10 41 11 91 12 42 13
REMARK SMILES IDX 43 14 44 15 85 16 45 17 90 18 84 19 86 20 46 21 89 22 83 23
REMARK SMILES IDX 82 24 47 26 73 27 56 28 72 29 57 30 60 31 71 32 87 33 58 34
REMARK SMILES IDX 59 35 70 37 88 38 61 39 48 40 49 41 54 42 50 43 51 44 53 45
REMARK SMILES IDX 55 46 52 47 74 48 75 49 80 50 76 51 77 52 79 53 81 54 78 55
REMARK SMILES IDX 62 56 63 57 68 58 64 59 65 60 67 61 69 62 66 63 7 64 8 65
REMARK SMILES IDX 9 66 10 68 11 69 12 70 26 71 13 72 25 73 24 74 27 75 28 76
REMARK SMILES IDX 38 77 29 78 31 79 30 80 32 81 33 82 34 83 37 84 35 86 36 87
REMARK SMILES IDX 14 88 15 89 16 91 17 92 18 93 22 94 19 95 21 96 23 97 20 98
REMARK H PARENT 3 7 86 25 60 36 8 67 33 85 14 90
REMARK Flexibility Score: inf
ROOT
ATOM      1  C   UNL A   1      34.727  24.464  25.468  1.00  0.00     0.023 C 
ENDROOT
BRANCH   1   2
ATOM      2  C   UNL A   1      36.151  24.208  25.959  1.00  0.00     0.023 C 
BRANCH   2   3
ATOM      3  C   UNL A   1      37.129  23.633  24.938  1.00  0.00     0.116 C 
BRANCH   3   4
ATOM      4  N   UNL A   1      37.981  22.582  25.473  1.00  0.00    -0.352 N 
ATOM      5  O   UNL A   1      39.758  21.672  26.521  1.00  0.00    -0.269 OA
ATOM      6  C   UNL A   1      39.107  22.675  26.261  1.00  0.00     0.251 C 
ATOM      7  H   UNL A   1      37.711  21.666  25.236  1.00  0.00     0.163 HD
BRANCH   6   8
ATOM      8  C   UNL A   1      39.549  23.993  26.775  1.00  0.00     0.039 A 
ATOM      9  C   UNL A   1      39.411  24.319  28.126  1.00  0.00     0.014 A 
ATOM     10  C   UNL A   1      40.131  24.908  25.892  1.00  0.00     0.014 A 
ATOM     11  C   UNL A   1      39.712  25.605  28.563  1.00  0.00     0.010 A 
ATOM     12  C   UNL A   1      40.517  26.173  26.353  1.00  0.00     0.010 A 
ATOM     13  C   UNL A   1      40.288  26.540  27.687  1.00  0.00    -0.014 A 
BRANCH  13  14
ATOM     14  C   UNL A   1      40.736  27.852  28.219  1.00  0.00     0.031 A 
ATOM     15  C   UNL A   1      39.758  28.884  28.706  1.00  0.00     0.074 A 
ATOM     16  C   UNL A   1      42.061  28.100  28.268  1.00  0.00     0.049 A 
ATOM     17  N   UNL A   1      39.998  30.075  29.195  1.00  0.00    -0.248 NA
ATOM     18  C   UNL A   1      38.328  28.546  28.629  1.00  0.00     0.031 C 
ATOM     19  C   UNL A   1      43.105  27.181  27.803  1.00  0.00     0.029 A 
ATOM     20  N   UNL A   1      42.758  29.185  28.731  1.00  0.00    -0.354 N 
ATOM     21  C   UNL A   1      38.756  30.635  29.468  1.00  0.00     0.074 A 
ATOM     22  C   UNL A   1      37.760  29.660  29.077  1.00  0.00     0.031 C 
ATOM     23  C   UNL A   1      44.307  27.729  28.030  1.00  0.00     0.029 A 
ATOM     24  C   UNL A   1      44.119  29.060  28.597  1.00  0.00     0.049 A 
ATOM     25  H   UNL A   1      42.325  29.979  29.122  1.00  0.00     0.167 HD
ATOM     26  C   UNL A   1      38.479  31.851  29.998  1.00  0.00     0.037 A 
ATOM     27  C   UNL A   1      45.110  29.929  28.868  1.00  0.00     0.037 A 
ATOM     28  C   UNL A   1      39.476  32.805  30.410  1.00  0.00     0.049 A 
ATOM     29  C   UNL A   1      44.765  31.277  29.428  1.00  0.00     0.074 A 
ATOM     30  C   UNL A   1      39.290  34.028  31.035  1.00  0.00     0.029 A 
ATOM     31  N   UNL A   1      40.842  32.655  30.229  1.00  0.00    -0.354 N 
ATOM     32  N   UNL A   1      43.590  31.762  29.743  1.00  0.00    -0.248 NA
ATOM     33  C   UNL A   1      45.883  32.201  29.662  1.00  0.00     0.031 C 
ATOM     34  C   UNL A   1      40.539  34.639  31.183  1.00  0.00     0.029 A 
ATOM     35  C   UNL A   1      41.507  33.779  30.691  1.00  0.00     0.049 A 
ATOM     36  H   UNL A   1      41.274  31.865  29.831  1.00  0.00     0.167 HD
ATOM     37  C   UNL A   1      43.824  33.045  30.214  1.00  0.00     0.074 A 
ATOM     38  C   UNL A   1      45.257  33.252  30.175  1.00  0.00     0.031 C 
ATOM     39  C   UNL A   1      42.931  33.973  30.633  1.00  0.00     0.037 A 
BRANCH  26  40
ATOM     40  C   UNL A   1      37.039  32.242  30.163  1.00  0.00     0.057 A 
ATOM     41  C   UNL A   1      36.314  31.931  31.318  1.00  0.00     0.134 A 
ATOM     42  C   UNL A   1      36.408  33.038  29.197  1.00  0.00     0.134 A 
ATOM     43  F   UNL A   1      36.859  31.169  32.278  1.00  0.00    -0.206 F 
ATOM     44  C   UNL A   1      35.010  32.393  31.508  1.00  0.00     0.040 A 
ATOM     45  C   UNL A   1      35.112  33.522  29.383  1.00  0.00     0.040 A 
ATOM     46  F   UNL A   1      37.051  33.382  28.071  1.00  0.00    -0.206 F 
ATOM     47  C   UNL A   1      34.409  33.201  30.543  1.00  0.00     0.006 A 
ENDBRANCH  26  40
BRANCH  27  48
ATOM     48  C   UNL A   1      46.517  29.564  28.568  1.00  0.00     0.057 A 
ATOM     49  C   UNL A   1      47.077  29.793  27.307  1.00  0.00     0.134 A 
ATOM     50  C   UNL A   1      47.332  28.964  29.538  1.00  0.00     0.134 A 
ATOM     51  F   UNL A   1      46.340  30.348  26.332  1.00  0.00    -0.206 F 
ATOM     52  C   UNL A   1      48.389  29.423  27.014  1.00  0.00     0.040 A 
ATOM     53  C   UNL A   1      48.654  28.617  29.267  1.00  0.00     0.040 A 
ATOM     54  F   UNL A   1      46.856  28.724  30.769  1.00  0.00    -0.206 F 
ATOM     55  C   UNL A   1      49.184  28.838  27.998  1.00  0.00     0.006 A 
ENDBRANCH  27  48
BRANCH  39  56
ATOM     56  C   UNL A   1      43.486  35.293  31.078  1.00  0.00     0.057 A 
ATOM     57  C   UNL A   1      43.806  35.536  32.419  1.00  0.00     0.134 A 
ATOM     58  C   UNL A   1      43.721  36.320  30.156  1.00  0.00     0.134 A 
ATOM     59  F   UNL A   1      43.587  34.597  33.352  1.00  0.00    -0.206 F 
ATOM     60  C   UNL A   1      44.322  36.765  32.833  1.00  0.00     0.040 A 
ATOM     61  C   UNL A   1      44.260  37.545  30.554  1.00  0.00     0.040 A 
ATOM     62  F   UNL A   1      43.442  36.148  28.856  1.00  0.00    -0.206 F 
ATOM     63  C   UNL A   1      44.556  37.771  31.897  1.00  0.00     0.006 A 
ENDBRANCH  39  56
ENDBRANCH  13  14
ENDBRANCH   6   8
ENDBRANCH   3   4
ENDBRANCH   2   3
ENDBRANCH   1   2
BRANCH   1  64
ATOM     64  C   UNL A   1      34.412  25.900  25.067  1.00  0.00     0.116 C 
BRANCH  64  65
ATOM     65  N   UNL A   1      34.601  26.221  23.673  1.00  0.00    -0.352 N 
ATOM     66  C   UNL A   1      33.670  26.110  22.662  1.00  0.00     0.253 C 
ATOM     67  H   UNL A   1      35.491  26.554  23.415  1.00  0.00     0.163 HD
ATOM     68  O   UNL A   1      33.926  26.593  21.560  1.00  0.00    -0.269 OA
BRANCH  66  69
ATOM     69  C   UNL A   1      32.436  25.298  22.835  1.00  0.00     0.065 A 
ATOM     70  C   UNL A   1      32.665  23.916  22.675  1.00  0.00     0.042 A 
ATOM     71  C   UNL A   1      31.154  25.776  23.161  1.00  0.00     0.050 A 
ATOM     72  C   UNL A   1      31.679  22.973  22.943  1.00  0.00     0.042 A 
ATOM     73  C   UNL A   1      30.146  24.804  23.324  1.00  0.00     0.029 A 
ATOM     74  C   UNL A   1      30.398  23.433  23.225  1.00  0.00     0.028 A 
BRANCH  71  75
ATOM     75  N   UNL A   1      30.772  27.109  23.287  1.00  0.00    -0.370 N 
ATOM     76  C   UNL A   1      30.446  27.841  22.055  1.00  0.00     0.116 C 
ATOM     77  C   UNL A   1      30.339  27.615  24.591  1.00  0.00     0.126 C 
ATOM     78  C   UNL A   1      30.616  29.341  22.214  1.00  0.00     0.022 C 
ATOM     79  C   UNL A   1      30.667  29.114  24.734  1.00  0.00     0.064 C 
ATOM     80  C   UNL A   1      30.045  29.842  23.534  1.00  0.00     0.013 C 
BRANCH  79  81
ATOM     81  C   UNL A   1      32.198  29.300  24.922  1.00  0.00     0.267 C 
BRANCH  81  82
ATOM     82  N   UNL A   1      32.808  29.127  26.243  1.00  0.00    -0.335 N 
ATOM     83  C   UNL A   1      32.326  30.021  27.290  1.00  0.00     0.262 C 
ATOM     84  C   UNL A   1      34.267  29.114  26.298  1.00  0.00     0.262 C 
ATOM     85  H   UNL A   1      32.477  28.182  26.432  1.00  0.00     0.348 HD
ATOM     86  C   UNL A   1      33.413  31.064  27.452  1.00  0.00     0.067 C 
ATOM     87  C   UNL A   1      34.692  30.306  27.148  1.00  0.00     0.067 C 
ENDBRANCH  81  82
ENDBRANCH  79  81
ENDBRANCH  71  75
BRANCH  72  88
ATOM     88  N   UNL A   1      31.878  21.578  22.971  1.00  0.00    -0.322 N 
ATOM     89  C   UNL A   1      32.433  20.743  23.916  1.00  0.00     0.257 C 
ATOM     90  H   UNL A   1      31.561  21.113  22.163  1.00  0.00     0.170 HD
ATOM     91  O   UNL A   1      32.580  19.544  23.677  1.00  0.00    -0.269 OA
BRANCH  89  92
ATOM     92  C   UNL A   1      32.860  21.249  25.227  1.00  0.00     0.058 A 
ATOM     93  C   UNL A   1      31.910  21.967  25.968  1.00  0.00     0.015 A 
ATOM     94  C   UNL A   1      34.122  20.975  25.769  1.00  0.00     0.053 A 
ATOM     95  C   UNL A   1      32.193  22.336  27.282  1.00  0.00     0.001 A 
ATOM     96  C   UNL A   1      34.393  21.343  27.090  1.00  0.00     0.021 A 
ATOM     97  Cl  UNL A   1      35.361  20.156  24.887  1.00  0.00    -0.083 Cl
ATOM     98  C   UNL A   1      33.424  22.007  27.848  1.00  0.00     0.002 A 
ENDBRANCH  89  92
ENDBRANCH  72  88
ENDBRANCH  66  69
ENDBRANCH  64  65
ENDBRANCH   1  64
TORSDOF 16
ENDMDL
MODEL 3
REMARK VINA RESULT:     -11.6      2.841      5.886
REMARK SMILES O=C(NCCCCNC(=O)c1cc(NC(=O)c2ccccc2Cl)ccc1N1CCC[C@H](C[NH+]2CCCC2)C1)c1ccc(-c2c3nc(c(-c4c(F)cccc4F)c4ccc([nH]4)c(-c4c(F)cccc4F)c4nc(c(-c5c(F)cccc5F)c5ccc2[nH]5)C=C4)C=C3)cc1
REMARK SMILES IDX 6 1 5 2 4 3 3 4 1 5 2 6 39 8 40 9 92 10 41 11 91 12 42 13
REMARK SMILES IDX 43 14 44 15 85 16 45 17 90 18 84 19 86 20 46 21 89 22 83 23
REMARK SMILES IDX 82 24 47 26 73 27 56 28 72 29 57 30 60 31 71 32 87 33 58 34
REMARK SMILES IDX 59 35 70 37 88 38 61 39 48 40 49 41 54 42 50 43 51 44 53 45
REMARK SMILES IDX 55 46 52 47 74 48 75 49 80 50 76 51 77 52 79 53 81 54 78 55
REMARK SMILES IDX 62 56 63 57 68 58 64 59 65 60 67 61 69 62 66 63 7 64 8 65
REMARK SMILES IDX 9 66 10 68 11 69 12 70 26 71 13 72 25 73 24 74 27 75 28 76
REMARK SMILES IDX 38 77 29 78 31 79 30 80 32 81 33 82 34 83 37 84 35 86 36 87
REMARK SMILES IDX 14 88 15 89 16 91 17 92 18 93 22 94 19 95 21 96 23 97 20 98
REMARK H PARENT 3 7 86 25 60 36 8 67 33 85 14 90
REMARK Flexibility Score: inf
ROOT
ATOM      1  C   UNL A   1      34.784  24.556  25.535  1.00  0.00     0.023 C 
ENDROOT
BRANCH   1   2
ATOM      2  C   UNL A   1      36.256  24.366  25.898  1.00  0.00     0.023 C 
BRANCH   2   3
ATOM      3  C   UNL A   1      37.120  23.634  24.875  1.00  0.00     0.116 C 
BRANCH   3   4
ATOM      4  N   UNL A   1      37.923  22.565  25.448  1.00  0.00    -0.352 N 
ATOM      5  O   UNL A   1      39.648  21.615  26.548  1.00  0.00    -0.269 OA
ATOM      6  C   UNL A   1      39.038  22.635  26.255  1.00  0.00     0.251 C 
ATOM      7  H   UNL A   1      37.625  21.654  25.225  1.00  0.00     0.163 HD
BRANCH   6   8
ATOM      8  C   UNL A   1      39.518  23.947  26.749  1.00  0.00     0.039 A 
ATOM      9  C   UNL A   1      39.305  24.336  28.073  1.00  0.00     0.014 A 
ATOM     10  C   UNL A   1      40.211  24.792  25.876  1.00  0.00     0.014 A 
ATOM     11  C   UNL A   1      39.648  25.621  28.482  1.00  0.00     0.010 A 
ATOM     12  C   UNL A   1      40.636  26.052  26.316  1.00  0.00     0.010 A 
ATOM     13  C   UNL A   1      40.336  26.486  27.615  1.00  0.00    -0.014 A 
BRANCH  13  14
ATOM     14  C   UNL A   1      40.821  27.793  28.128  1.00  0.00     0.031 A 
ATOM     15  C   UNL A   1      42.285  28.128  28.178  1.00  0.00     0.074 A 
ATOM     16  C   UNL A   1      39.906  28.692  28.545  1.00  0.00     0.049 A 
ATOM     17  N   UNL A   1      42.861  29.225  28.601  1.00  0.00    -0.248 NA
ATOM     18  C   UNL A   1      43.227  27.103  27.703  1.00  0.00     0.031 C 
ATOM     19  C   UNL A   1      38.457  28.470  28.563  1.00  0.00     0.029 A 
ATOM     20  N   UNL A   1      40.051  29.967  29.026  1.00  0.00    -0.354 N 
ATOM     21  C   UNL A   1      44.228  29.020  28.461  1.00  0.00     0.074 A 
ATOM     22  C   UNL A   1      44.399  27.686  27.926  1.00  0.00     0.031 C 
ATOM     23  C   UNL A   1      37.847  29.579  29.004  1.00  0.00     0.029 A 
ATOM     24  C   UNL A   1      38.860  30.566  29.358  1.00  0.00     0.049 A 
ATOM     25  H   UNL A   1      40.925  30.412  29.124  1.00  0.00     0.167 HD
ATOM     26  C   UNL A   1      45.241  29.872  28.751  1.00  0.00     0.037 A 
ATOM     27  C   UNL A   1      38.607  31.764  29.916  1.00  0.00     0.037 A 
ATOM     28  C   UNL A   1      45.061  31.208  29.257  1.00  0.00     0.049 A 
ATOM     29  C   UNL A   1      39.755  32.670  30.249  1.00  0.00     0.074 A 
ATOM     30  C   UNL A   1      46.026  32.173  29.501  1.00  0.00     0.029 A 
ATOM     31  N   UNL A   1      43.842  31.766  29.610  1.00  0.00    -0.354 N 
ATOM     32  N   UNL A   1      41.036  32.485  30.047  1.00  0.00    -0.248 NA
ATOM     33  C   UNL A   1      39.423  33.945  30.898  1.00  0.00     0.031 C 
ATOM     34  C   UNL A   1      45.396  33.294  30.051  1.00  0.00     0.029 A 
ATOM     35  C   UNL A   1      44.034  33.044  30.109  1.00  0.00     0.049 A 
ATOM     36  H   UNL A   1      42.970  31.319  29.519  1.00  0.00     0.167 HD
ATOM     37  C   UNL A   1      41.663  33.620  30.539  1.00  0.00     0.074 A 
ATOM     38  C   UNL A   1      40.620  34.502  31.021  1.00  0.00     0.031 C 
ATOM     39  C   UNL A   1      42.987  33.903  30.596  1.00  0.00     0.037 A 
BRANCH  26  40
ATOM     40  C   UNL A   1      46.649  29.396  28.543  1.00  0.00     0.057 A 
ATOM     41  C   UNL A   1      47.368  28.744  29.551  1.00  0.00     0.134 A 
ATOM     42  C   UNL A   1      47.251  29.496  27.281  1.00  0.00     0.134 A 
ATOM     43  F   UNL A   1      46.851  28.619  30.783  1.00  0.00    -0.206 F 
ATOM     44  C   UNL A   1      48.636  28.209  29.314  1.00  0.00     0.040 A 
ATOM     45  C   UNL A   1      48.510  28.949  27.026  1.00  0.00     0.040 A 
ATOM     46  F   UNL A   1      46.611  30.101  26.268  1.00  0.00    -0.206 F 
ATOM     47  C   UNL A   1      49.206  28.302  28.044  1.00  0.00     0.006 A 
ENDBRANCH  26  40
BRANCH  27  48
ATOM     48  C   UNL A   1      37.211  32.152  30.235  1.00  0.00     0.057 A 
ATOM     49  C   UNL A   1      36.431  32.877  29.329  1.00  0.00     0.134 A 
ATOM     50  C   UNL A   1      36.628  31.814  31.464  1.00  0.00     0.134 A 
ATOM     51  F   UNL A   1      36.941  33.246  28.144  1.00  0.00    -0.206 F 
ATOM     52  C   UNL A   1      35.128  33.270  29.638  1.00  0.00     0.040 A 
ATOM     53  C   UNL A   1      35.317  32.173  31.774  1.00  0.00     0.040 A 
ATOM     54  F   UNL A   1      37.321  31.112  32.372  1.00  0.00    -0.206 F 
ATOM     55  C   UNL A   1      34.566  32.912  30.863  1.00  0.00     0.006 A 
ENDBRANCH  27  48
BRANCH  39  56
ATOM     56  C   UNL A   1      43.373  35.218  31.203  1.00  0.00     0.057 A 
ATOM     57  C   UNL A   1      43.536  35.364  32.586  1.00  0.00     0.134 A 
ATOM     58  C   UNL A   1      43.603  36.340  30.398  1.00  0.00     0.134 A 
ATOM     59  F   UNL A   1      43.312  34.330  33.410  1.00  0.00    -0.206 F 
ATOM     60  C   UNL A   1      43.895  36.589  33.150  1.00  0.00     0.040 A 
ATOM     61  C   UNL A   1      43.987  37.564  30.949  1.00  0.00     0.040 A 
ATOM     62  F   UNL A   1      43.470  36.264  29.066  1.00  0.00    -0.206 F 
ATOM     63  C   UNL A   1      44.127  37.692  32.330  1.00  0.00     0.006 A 
ENDBRANCH  39  56
ENDBRANCH  13  14
ENDBRANCH   6   8
ENDBRANCH   3   4
ENDBRANCH   2   3
ENDBRANCH   1   2
BRANCH   1  64
ATOM     64  C   UNL A   1      34.385  25.958  25.092  1.00  0.00     0.116 C 
BRANCH  64  65
ATOM     65  N   UNL A   1      34.589  26.261  23.696  1.00  0.00    -0.352 N 
ATOM     66  C   UNL A   1      33.673  26.125  22.675  1.00  0.00     0.253 C 
ATOM     67  H   UNL A   1      35.479  26.600  23.445  1.00  0.00     0.163 HD
ATOM     68  O   UNL A   1      33.938  26.594  21.570  1.00  0.00    -0.269 OA
BRANCH  66  69
ATOM     69  C   UNL A   1      32.446  25.302  22.844  1.00  0.00     0.065 A 
ATOM     70  C   UNL A   1      32.689  23.921  22.693  1.00  0.00     0.042 A 
ATOM     71  C   UNL A   1      31.156  25.770  23.158  1.00  0.00     0.050 A 
ATOM     72  C   UNL A   1      31.710  22.970  22.959  1.00  0.00     0.042 A 
ATOM     73  C   UNL A   1      30.157  24.789  23.320  1.00  0.00     0.029 A 
ATOM     74  C   UNL A   1      30.423  23.419  23.230  1.00  0.00     0.028 A 
BRANCH  71  75
ATOM     75  N   UNL A   1      30.762  27.100  23.274  1.00  0.00    -0.370 N 
ATOM     76  C   UNL A   1      30.618  27.876  22.035  1.00  0.00     0.116 C 
ATOM     77  C   UNL A   1      30.144  27.563  24.519  1.00  0.00     0.126 C 
ATOM     78  C   UNL A   1      30.764  29.368  22.270  1.00  0.00     0.022 C 
ATOM     79  C   UNL A   1      30.449  29.054  24.760  1.00  0.00     0.064 C 
ATOM     80  C   UNL A   1      30.008  29.827  23.509  1.00  0.00     0.013 C 
BRANCH  79  81
ATOM     81  C   UNL A   1      31.936  29.225  25.175  1.00  0.00     0.267 C 
BRANCH  81  82
ATOM     82  N   UNL A   1      32.300  29.367  26.587  1.00  0.00    -0.335 N 
ATOM     83  C   UNL A   1      32.711  30.702  27.008  1.00  0.00     0.262 C 
ATOM     84  C   UNL A   1      33.265  28.410  27.119  1.00  0.00     0.262 C 
ATOM     85  H   UNL A   1      31.389  29.154  26.993  1.00  0.00     0.348 HD
ATOM     86  C   UNL A   1      34.221  30.634  27.120  1.00  0.00     0.067 C 
ATOM     87  C   UNL A   1      34.489  29.205  27.555  1.00  0.00     0.067 C 
ENDBRANCH  81  82
ENDBRANCH  79  81
ENDBRANCH  71  75
BRANCH  72  88
ATOM     88  N   UNL A   1      31.922  21.578  22.996  1.00  0.00    -0.322 N 
ATOM     89  C   UNL A   1      32.492  20.755  23.943  1.00  0.00     0.257 C 
ATOM     90  H   UNL A   1      31.603  21.104  22.194  1.00  0.00     0.170 HD
ATOM     91  O   UNL A   1      32.648  19.556  23.711  1.00  0.00    -0.269 OA
BRANCH  89  92
ATOM     92  C   UNL A   1      32.926  21.275  25.247  1.00  0.00     0.058 A 
ATOM     93  C   UNL A   1      31.979  22.001  25.984  1.00  0.00     0.015 A 
ATOM     94  C   UNL A   1      34.191  21.007  25.785  1.00  0.00     0.053 A 
ATOM     95  C   UNL A   1      32.269  22.384  27.293  1.00  0.00     0.001 A 
ATOM     96  C   UNL A   1      34.468  21.389  27.101  1.00  0.00     0.021 A 
ATOM     97  Cl  UNL A   1      35.425  20.179  24.906  1.00  0.00    -0.083 Cl
ATOM     98  C   UNL A   1      33.503  22.061  27.856  1.00  0.00     0.002 A 
ENDBRANCH  89  92
ENDBRANCH  72  88
ENDBRANCH  66  69
ENDBRANCH  64  65
ENDBRANCH   1  64
TORSDOF 16
ENDMDL
