MODEL 1
REMARK VINA RESULT:     -11.4      0.000      0.000
REMARK SMILES O=C(NCCCCNC(=O)c1cc(Cl)cc(S(=O)(=O)N[C@@H]2CONC2=O)c1F)c1ccc(-c2c3nc(c(-c4c(F)cccc4F)c4ccc([nH]4)c(-c4c(F)cccc4F)c4nc(c(-c5c(F)cccc5F)c5ccc2[nH]5)C=C4)C=C3)cc1
REMARK SMILES IDX 6 1 5 2 4 3 3 4 1 5 2 6 29 8 30 9 82 10 31 11 81 12 32 13
REMARK SMILES IDX 33 14 34 15 75 16 35 17 80 18 74 19 76 20 36 21 79 22 73 23
REMARK SMILES IDX 72 24 37 26 63 27 46 28 62 29 47 30 50 31 61 32 77 33 48 34
REMARK SMILES IDX 49 35 60 37 78 38 51 39 38 40 39 41 44 42 40 43 41 44 43 45
REMARK SMILES IDX 45 46 42 47 64 48 65 49 70 50 66 51 67 52 69 53 71 54 68 55
REMARK SMILES IDX 52 56 53 57 58 58 54 59 55 60 57 61 59 62 56 63 7 64 8 65
REMARK SMILES IDX 9 66 10 68 11 69 12 70 27 71 13 72 16 73 28 74 14 75 15 76
REMARK SMILES IDX 17 77 18 78 19 79 20 80 21 82 22 83 25 84 23 85 24 86 26 87
REMARK H PARENT 3 7 76 25 50 36 8 67 20 81 24 88
REMARK Flexibility Score: inf
ROOT
ATOM      1  C   UNL A   1      38.843  22.584  26.220  1.00  0.00     0.023 C 
ENDROOT
BRANCH   1   2
ATOM      2  C   UNL A   1      38.967  21.226  25.539  1.00  0.00     0.023 C 
BRANCH   2   3
ATOM      3  C   UNL A   1      39.444  20.095  26.438  1.00  0.00     0.116 C 
BRANCH   3   4
ATOM      4  N   UNL A   1      40.600  19.385  25.904  1.00  0.00    -0.352 N 
ATOM      5  O   UNL A   1      42.727  19.115  25.192  1.00  0.00    -0.269 OA
ATOM      6  C   UNL A   1      41.909  19.798  25.800  1.00  0.00     0.251 C 
ATOM      7  H   UNL A   1      40.417  18.478  25.569  1.00  0.00     0.163 HD
BRANCH   6   8
ATOM      8  C   UNL A   1      42.318  21.086  26.399  1.00  0.00     0.039 A 
ATOM      9  C   UNL A   1      42.371  21.227  27.785  1.00  0.00     0.014 A 
ATOM     10  C   UNL A   1      42.620  22.171  25.571  1.00  0.00     0.014 A 
ATOM     11  C   UNL A   1      42.527  22.490  28.340  1.00  0.00     0.010 A 
ATOM     12  C   UNL A   1      42.895  23.421  26.137  1.00  0.00     0.010 A 
ATOM     13  C   UNL A   1      42.809  23.600  27.526  1.00  0.00    -0.014 A 
BRANCH  13  14
ATOM     14  C   UNL A   1      43.067  24.910  28.178  1.00  0.00     0.031 A 
ATOM     15  C   UNL A   1      44.453  25.337  28.574  1.00  0.00     0.074 A 
ATOM     16  C   UNL A   1      42.026  25.751  28.348  1.00  0.00     0.049 A 
ATOM     17  N   UNL A   1      44.845  26.475  29.094  1.00  0.00    -0.248 NA
ATOM     18  C   UNL A   1      45.541  24.369  28.369  1.00  0.00     0.031 C 
ATOM     19  C   UNL A   1      40.632  25.439  28.019  1.00  0.00     0.029 A 
ATOM     20  N   UNL A   1      41.977  27.041  28.806  1.00  0.00    -0.354 N 
ATOM     21  C   UNL A   1      46.216  26.358  29.285  1.00  0.00     0.074 A 
ATOM     22  C   UNL A   1      46.586  25.025  28.858  1.00  0.00     0.031 C 
ATOM     23  C   UNL A   1      39.876  26.525  28.227  1.00  0.00     0.029 A 
ATOM     24  C   UNL A   1      40.716  27.585  28.771  1.00  0.00     0.049 A 
ATOM     25  H   UNL A   1      42.768  27.531  29.128  1.00  0.00     0.167 HD
ATOM     26  C   UNL A   1      47.086  27.282  29.761  1.00  0.00     0.037 A 
ATOM     27  C   UNL A   1      40.274  28.797  29.151  1.00  0.00     0.037 A 
ATOM     28  C   UNL A   1      46.712  28.610  30.183  1.00  0.00     0.049 A 
ATOM     29  C   UNL A   1      41.258  29.791  29.692  1.00  0.00     0.074 A 
ATOM     30  C   UNL A   1      47.522  29.619  30.676  1.00  0.00     0.029 A 
ATOM     31  N   UNL A   1      45.420  29.114  30.159  1.00  0.00    -0.354 N 
ATOM     32  N   UNL A   1      42.554  29.668  29.847  1.00  0.00    -0.248 NA
ATOM     33  C   UNL A   1      40.719  31.090  30.114  1.00  0.00     0.031 C 
ATOM     34  C   UNL A   1      46.715  30.719  30.988  1.00  0.00     0.029 A 
ATOM     35  C   UNL A   1      45.408  30.413  30.643  1.00  0.00     0.049 A 
ATOM     36  H   UNL A   1      44.627  28.621  29.846  1.00  0.00     0.167 HD
ATOM     37  C   UNL A   1      42.987  30.877  30.373  1.00  0.00     0.074 A 
ATOM     38  C   UNL A   1      41.821  31.729  30.479  1.00  0.00     0.031 C 
ATOM     39  C   UNL A   1      44.238  31.246  30.744  1.00  0.00     0.037 A 
BRANCH  26  40
ATOM     40  C   UNL A   1      48.534  26.893  29.858  1.00  0.00     0.057 A 
ATOM     41  C   UNL A   1      49.448  27.193  28.838  1.00  0.00     0.134 A 
ATOM     42  C   UNL A   1      49.036  26.268  31.007  1.00  0.00     0.134 A 
ATOM     43  F   UNL A   1      49.034  27.782  27.706  1.00  0.00    -0.206 F 
ATOM     44  C   UNL A   1      50.802  26.872  28.953  1.00  0.00     0.040 A 
ATOM     45  C   UNL A   1      50.391  25.963  31.143  1.00  0.00     0.040 A 
ATOM     46  F   UNL A   1      48.217  25.960  32.026  1.00  0.00    -0.206 F 
ATOM     47  C   UNL A   1      51.278  26.262  30.111  1.00  0.00     0.006 A 
ENDBRANCH  26  40
BRANCH  27  48
ATOM     48  C   UNL A   1      38.830  29.123  29.050  1.00  0.00     0.057 A 
ATOM     49  C   UNL A   1      38.253  29.517  27.839  1.00  0.00     0.134 A 
ATOM     50  C   UNL A   1      37.992  29.048  30.170  1.00  0.00     0.134 A 
ATOM     51  F   UNL A   1      39.006  29.621  26.733  1.00  0.00    -0.206 F 
ATOM     52  C   UNL A   1      36.900  29.846  27.748  1.00  0.00     0.040 A 
ATOM     53  C   UNL A   1      36.631  29.343  30.087  1.00  0.00     0.040 A 
ATOM     54  F   UNL A   1      38.482  28.665  31.359  1.00  0.00    -0.206 F 
ATOM     55  C   UNL A   1      36.083  29.753  28.875  1.00  0.00     0.006 A 
ENDBRANCH  27  48
BRANCH  39  56
ATOM     56  C   UNL A   1      44.400  32.640  31.275  1.00  0.00     0.057 A 
ATOM     57  C   UNL A   1      44.667  33.725  30.431  1.00  0.00     0.134 A 
ATOM     58  C   UNL A   1      44.287  32.898  32.646  1.00  0.00     0.134 A 
ATOM     59  F   UNL A   1      44.803  33.540  29.109  1.00  0.00    -0.206 F 
ATOM     60  C   UNL A   1      44.849  35.013  30.935  1.00  0.00     0.040 A 
ATOM     61  C   UNL A   1      44.440  34.187  33.160  1.00  0.00     0.040 A 
ATOM     62  F   UNL A   1      44.027  31.903  33.509  1.00  0.00    -0.206 F 
ATOM     63  C   UNL A   1      44.730  35.247  32.304  1.00  0.00     0.006 A 
ENDBRANCH  39  56
ENDBRANCH  13  14
ENDBRANCH   6   8
ENDBRANCH   3   4
ENDBRANCH   2   3
ENDBRANCH   1   2
BRANCH   1  64
ATOM     64  C   UNL A   1      37.662  23.427  25.756  1.00  0.00     0.116 C 
BRANCH  64  65
ATOM     65  N   UNL A   1      37.461  23.383  24.315  1.00  0.00    -0.352 N 
ATOM     66  C   UNL A   1      36.320  23.072  23.615  1.00  0.00     0.254 C 
ATOM     67  H   UNL A   1      38.248  23.606  23.767  1.00  0.00     0.163 HD
ATOM     68  O   UNL A   1      36.335  22.998  22.392  1.00  0.00    -0.269 OA
BRANCH  66  69
ATOM     69  C   UNL A   1      35.062  22.811  24.335  1.00  0.00     0.078 A 
ATOM     70  C   UNL A   1      34.679  21.498  24.608  1.00  0.00     0.037 A 
ATOM     71  C   UNL A   1      34.245  23.876  24.706  1.00  0.00     0.156 A 
ATOM     72  C   UNL A   1      33.504  21.273  25.324  1.00  0.00     0.043 A 
ATOM     73  C   UNL A   1      33.086  23.654  25.428  1.00  0.00     0.120 A 
ATOM     74  F   UNL A   1      34.622  25.107  24.358  1.00  0.00    -0.205 F 
ATOM     75  Cl  UNL A   1      33.031  19.663  25.692  1.00  0.00    -0.084 Cl
ATOM     76  C   UNL A   1      32.711  22.343  25.751  1.00  0.00     0.045 A 
BRANCH  73  77
ATOM     77  S   UNL A   1      32.041  24.975  25.951  1.00  0.00     0.244 S 
ATOM     78  O   UNL A   1      31.327  25.423  24.781  1.00  0.00    -0.207 OA
ATOM     79  O   UNL A   1      31.365  24.490  27.135  1.00  0.00    -0.207 OA
BRANCH  77  80
ATOM     80  N   UNL A   1      33.029  26.224  26.490  1.00  0.00    -0.196 NA
ATOM     81  H   UNL A   1      33.957  26.069  26.097  1.00  0.00     0.142 HD
BRANCH  80  82
ATOM     82  C   UNL A   1      32.629  27.603  26.153  1.00  0.00     0.189 C 
ATOM     83  C   UNL A   1      33.836  28.533  26.038  1.00  0.00     0.224 C 
ATOM     84  C   UNL A   1      31.873  28.347  27.210  1.00  0.00     0.264 C 
ATOM     85  O   UNL A   1      33.317  29.856  26.229  1.00  0.00    -0.271 OA
ATOM     86  N   UNL A   1      32.215  29.675  27.094  1.00  0.00    -0.233 N 
ATOM     87  O   UNL A   1      31.099  27.883  28.029  1.00  0.00    -0.271 OA
ATOM     88  H   UNL A   1      31.749  30.408  27.559  1.00  0.00     0.199 HD
ENDBRANCH  80  82
ENDBRANCH  77  80
ENDBRANCH  73  77
ENDBRANCH  66  69
ENDBRANCH  64  65
ENDBRANCH   1  64
TORSDOF 14
ENDMDL
MODEL 2
REMARK VINA RESULT:     -11.3      2.125      2.654
REMARK SMILES O=C(NCCCCNC(=O)c1cc(Cl)cc(S(=O)(=O)N[C@@H]2CONC2=O)c1F)c1ccc(-c2c3nc(c(-c4c(F)cccc4F)c4ccc([nH]4)c(-c4c(F)cccc4F)c4nc(c(-c5c(F)cccc5F)c5ccc2[nH]5)C=C4)C=C3)cc1
REMARK SMILES IDX 6 1 5 2 4 3 3 4 1 5 2 6 29 8 30 9 82 10 31 11 81 12 32 13
REMARK SMILES IDX 33 14 34 15 75 16 35 17 80 18 74 19 76 20 36 21 79 22 73 23
REMARK SMILES IDX 72 24 37 26 63 27 46 28 62 29 47 30 50 31 61 32 77 33 48 34
REMARK SMILES IDX 49 35 60 37 78 38 51 39 38 40 39 41 44 42 40 43 41 44 43 45
REMARK SMILES IDX 45 46 42 47 64 48 65 49 70 50 66 51 67 52 69 53 71 54 68 55
REMARK SMILES IDX 52 56 53 57 58 58 54 59 55 60 57 61 59 62 56 63 7 64 8 65
REMARK SMILES IDX 9 66 10 68 11 69 12 70 27 71 13 72 16 73 28 74 14 75 15 76
REMARK SMILES IDX 17 77 18 78 19 79 20 80 21 82 22 83 25 84 23 85 24 86 26 87
REMARK H PARENT 3 7 76 25 50 36 8 67 20 81 24 88
REMARK Flexibility Score: inf
ROOT
ATOM      1  C   UNL A   1      36.457  20.613  25.048  1.00  0.00     0.023 C 
ENDROOT
BRANCH   1   2
ATOM      2  C   UNL A   1      37.768  19.902  24.733  1.00  0.00     0.023 C 
BRANCH   2   3
ATOM      3  C   UNL A   1      38.906  20.189  25.704  1.00  0.00     0.116 C 
BRANCH   3   4
ATOM      4  N   UNL A   1      39.909  19.133  25.739  1.00  0.00    -0.352 N 
ATOM      5  O   UNL A   1      41.982  18.237  25.821  1.00  0.00    -0.269 OA
ATOM      6  C   UNL A   1      41.265  19.221  25.967  1.00  0.00     0.251 C 
ATOM      7  H   UNL A   1      39.569  18.224  25.575  1.00  0.00     0.163 HD
BRANCH   6   8
ATOM      8  C   UNL A   1      41.856  20.517  26.361  1.00  0.00     0.039 A 
ATOM      9  C   UNL A   1      41.920  20.878  27.706  1.00  0.00     0.014 A 
ATOM     10  C   UNL A   1      42.320  21.394  25.376  1.00  0.00     0.014 A 
ATOM     11  C   UNL A   1      42.257  22.179  28.051  1.00  0.00     0.010 A 
ATOM     12  C   UNL A   1      42.773  22.668  25.738  1.00  0.00     0.010 A 
ATOM     13  C   UNL A   1      42.706  23.086  27.076  1.00  0.00    -0.014 A 
BRANCH  13  14
ATOM     14  C   UNL A   1      43.150  24.434  27.513  1.00  0.00     0.031 A 
ATOM     15  C   UNL A   1      44.595  24.848  27.457  1.00  0.00     0.074 A 
ATOM     16  C   UNL A   1      42.209  25.318  27.903  1.00  0.00     0.049 A 
ATOM     17  N   UNL A   1      45.128  26.010  27.744  1.00  0.00    -0.248 NA
ATOM     18  C   UNL A   1      45.571  23.833  27.031  1.00  0.00     0.031 C 
ATOM     19  C   UNL A   1      40.777  25.026  28.014  1.00  0.00     0.029 A 
ATOM     20  N   UNL A   1      42.303  26.642  28.244  1.00  0.00    -0.354 N 
ATOM     21  C   UNL A   1      46.495  25.866  27.543  1.00  0.00     0.074 A 
ATOM     22  C   UNL A   1      46.717  24.493  27.143  1.00  0.00     0.031 C 
ATOM     23  C   UNL A   1      40.121  26.148  28.337  1.00  0.00     0.029 A 
ATOM     24  C   UNL A   1      41.090  27.221  28.526  1.00  0.00     0.049 A 
ATOM     25  H   UNL A   1      43.157  27.131  28.282  1.00  0.00     0.167 HD
ATOM     26  C   UNL A   1      47.473  26.797  27.670  1.00  0.00     0.037 A 
ATOM     27  C   UNL A   1      40.785  28.473  28.912  1.00  0.00     0.037 A 
ATOM     28  C   UNL A   1      47.245  28.165  28.067  1.00  0.00     0.049 A 
ATOM     29  C   UNL A   1      41.891  29.474  29.062  1.00  0.00     0.074 A 
ATOM     30  C   UNL A   1      48.170  29.184  28.220  1.00  0.00     0.029 A 
ATOM     31  N   UNL A   1      46.005  28.706  28.372  1.00  0.00    -0.354 N 
ATOM     32  N   UNL A   1      43.175  29.324  28.849  1.00  0.00    -0.248 NA
ATOM     33  C   UNL A   1      41.505  30.819  29.509  1.00  0.00     0.031 C 
ATOM     34  C   UNL A   1      47.495  30.330  28.655  1.00  0.00     0.029 A 
ATOM     35  C   UNL A   1      46.143  30.039  28.726  1.00  0.00     0.049 A 
ATOM     36  H   UNL A   1      45.153  28.215  28.343  1.00  0.00     0.167 HD
ATOM     37  C   UNL A   1      43.750  30.556  29.124  1.00  0.00     0.074 A 
ATOM     38  C   UNL A   1      42.670  31.450  29.487  1.00  0.00     0.031 C 
ATOM     39  C   UNL A   1      45.057  30.914  29.088  1.00  0.00     0.037 A 
BRANCH  26  40
ATOM     40  C   UNL A   1      48.884  26.372  27.380  1.00  0.00     0.057 A 
ATOM     41  C   UNL A   1      49.437  26.475  26.096  1.00  0.00     0.134 A 
ATOM     42  C   UNL A   1      49.722  25.914  28.406  1.00  0.00     0.134 A 
ATOM     43  F   UNL A   1      48.688  26.896  25.066  1.00  0.00    -0.206 F 
ATOM     44  C   UNL A   1      50.763  26.122  25.841  1.00  0.00     0.040 A 
ATOM     45  C   UNL A   1      51.057  25.581  28.168  1.00  0.00     0.040 A 
ATOM     46  F   UNL A   1      49.260  25.799  29.661  1.00  0.00    -0.206 F 
ATOM     47  C   UNL A   1      51.580  25.681  26.880  1.00  0.00     0.006 A 
ENDBRANCH  26  40
BRANCH  27  48
ATOM     48  C   UNL A   1      39.376  28.835  29.202  1.00  0.00     0.057 A 
ATOM     49  C   UNL A   1      38.820  28.645  30.472  1.00  0.00     0.134 A 
ATOM     50  C   UNL A   1      38.551  29.381  28.211  1.00  0.00     0.134 A 
ATOM     51  F   UNL A   1      39.555  28.113  31.459  1.00  0.00    -0.206 F 
ATOM     52  C   UNL A   1      37.487  28.964  30.740  1.00  0.00     0.040 A 
ATOM     53  C   UNL A   1      37.227  29.735  28.473  1.00  0.00     0.040 A 
ATOM     54  F   UNL A   1      39.028  29.599  26.977  1.00  0.00    -0.206 F 
ATOM     55  C   UNL A   1      36.689  29.517  29.739  1.00  0.00     0.006 A 
ENDBRANCH  27  48
BRANCH  39  56
ATOM     56  C   UNL A   1      45.376  32.340  29.430  1.00  0.00     0.057 A 
ATOM     57  C   UNL A   1      45.378  33.349  28.459  1.00  0.00     0.134 A 
ATOM     58  C   UNL A   1      45.683  32.706  30.746  1.00  0.00     0.134 A 
ATOM     59  F   UNL A   1      45.108  33.059  27.177  1.00  0.00    -0.206 F 
ATOM     60  C   UNL A   1      45.707  34.667  28.777  1.00  0.00     0.040 A 
ATOM     61  C   UNL A   1      45.987  34.026  31.082  1.00  0.00     0.040 A 
ATOM     62  F   UNL A   1      45.693  31.788  31.725  1.00  0.00    -0.206 F 
ATOM     63  C   UNL A   1      46.008  35.009  30.095  1.00  0.00     0.006 A 
ENDBRANCH  39  56
ENDBRANCH  13  14
ENDBRANCH   6   8
ENDBRANCH   3   4
ENDBRANCH   2   3
ENDBRANCH   1   2
BRANCH   1  64
ATOM     64  C   UNL A   1      36.552  22.131  25.120  1.00  0.00     0.116 C 
BRANCH  64  65
ATOM     65  N   UNL A   1      35.656  22.712  26.109  1.00  0.00    -0.352 N 
ATOM     66  C   UNL A   1      34.421  23.284  25.920  1.00  0.00     0.254 C 
ATOM     67  H   UNL A   1      35.977  22.692  27.040  1.00  0.00     0.163 HD
ATOM     68  O   UNL A   1      33.823  23.808  26.854  1.00  0.00    -0.269 OA
BRANCH  66  69
ATOM     69  C   UNL A   1      33.807  23.287  24.582  1.00  0.00     0.078 A 
ATOM     70  C   UNL A   1      33.274  22.107  24.061  1.00  0.00     0.037 A 
ATOM     71  C   UNL A   1      33.794  24.459  23.831  1.00  0.00     0.156 A 
ATOM     72  C   UNL A   1      32.663  22.139  22.808  1.00  0.00     0.043 A 
ATOM     73  C   UNL A   1      33.176  24.494  22.593  1.00  0.00     0.120 A 
ATOM     74  F   UNL A   1      34.380  25.541  24.346  1.00  0.00    -0.205 F 
ATOM     75  Cl  UNL A   1      31.979  20.702  22.163  1.00  0.00    -0.084 Cl
ATOM     76  C   UNL A   1      32.595  23.328  22.076  1.00  0.00     0.045 A 
BRANCH  73  77
ATOM     77  S   UNL A   1      33.103  25.965  21.624  1.00  0.00     0.244 S 
ATOM     78  O   UNL A   1      34.233  26.772  22.014  1.00  0.00    -0.207 OA
ATOM     79  O   UNL A   1      32.900  25.523  20.260  1.00  0.00    -0.207 OA
BRANCH  77  80
ATOM     80  N   UNL A   1      31.692  26.779  22.037  1.00  0.00    -0.196 NA
ATOM     81  H   UNL A   1      31.148  26.160  22.638  1.00  0.00     0.142 HD
BRANCH  80  82
ATOM     82  C   UNL A   1      31.829  28.068  22.739  1.00  0.00     0.189 C 
ATOM     83  C   UNL A   1      31.799  27.897  24.257  1.00  0.00     0.224 C 
ATOM     84  C   UNL A   1      30.682  29.021  22.599  1.00  0.00     0.264 C 
ATOM     85  O   UNL A   1      31.423  29.178  24.779  1.00  0.00    -0.271 OA
ATOM     86  N   UNL A   1      30.601  29.734  23.773  1.00  0.00    -0.233 N 
ATOM     87  O   UNL A   1      29.944  29.152  21.637  1.00  0.00    -0.271 OA
ATOM     88  H   UNL A   1      30.039  30.534  23.896  1.00  0.00     0.199 HD
ENDBRANCH  80  82
ENDBRANCH  77  80
ENDBRANCH  73  77
ENDBRANCH  66  69
ENDBRANCH  64  65
ENDBRANCH   1  64
TORSDOF 14
ENDMDL
MODEL 3
REMARK VINA RESULT:     -11.2      0.357      6.143
REMARK SMILES O=C(NCCCCNC(=O)c1cc(Cl)cc(S(=O)(=O)N[C@@H]2CONC2=O)c1F)c1ccc(-c2c3nc(c(-c4c(F)cccc4F)c4ccc([nH]4)c(-c4c(F)cccc4F)c4nc(c(-c5c(F)cccc5F)c5ccc2[nH]5)C=C4)C=C3)cc1
REMARK SMILES IDX 6 1 5 2 4 3 3 4 1 5 2 6 29 8 30 9 82 10 31 11 81 12 32 13
REMARK SMILES IDX 33 14 34 15 75 16 35 17 80 18 74 19 76 20 36 21 79 22 73 23
REMARK SMILES IDX 72 24 37 26 63 27 46 28 62 29 47 30 50 31 61 32 77 33 48 34
REMARK SMILES IDX 49 35 60 37 78 38 51 39 38 40 39 41 44 42 40 43 41 44 43 45
REMARK SMILES IDX 45 46 42 47 64 48 65 49 70 50 66 51 67 52 69 53 71 54 68 55
REMARK SMILES IDX 52 56 53 57 58 58 54 59 55 60 57 61 59 62 56 63 7 64 8 65
REMARK SMILES IDX 9 66 10 68 11 69 12 70 27 71 13 72 16 73 28 74 14 75 15 76
REMARK SMILES IDX 17 77 18 78 19 79 20 80 21 82 22 83 25 84 23 85 24 86 26 87
REMARK H PARENT 3 7 76 25 50 36 8 67 20 81 24 88
REMARK Flexibility Score: inf
ROOT
ATOM      1  C   UNL A   1      38.905  22.561  26.188  1.00  0.00     0.023 C 
ENDROOT
BRANCH   1   2
ATOM      2  C   UNL A   1      39.097  21.211  25.507  1.00  0.00     0.023 C 
BRANCH   2   3
ATOM      3  C   UNL A   1      39.428  20.057  26.443  1.00  0.00     0.116 C 
BRANCH   3   4
ATOM      4  N   UNL A   1      40.580  19.278  26.009  1.00  0.00    -0.352 N 
ATOM      5  O   UNL A   1      42.722  18.895  25.401  1.00  0.00    -0.269 OA
ATOM      6  C   UNL A   1      41.904  19.645  25.923  1.00  0.00     0.251 C 
ATOM      7  H   UNL A   1      40.382  18.352  25.737  1.00  0.00     0.163 HD
BRANCH   6   8
ATOM      8  C   UNL A   1      42.330  20.964  26.438  1.00  0.00     0.039 A 
ATOM      9  C   UNL A   1      42.328  21.214  27.809  1.00  0.00     0.014 A 
ATOM     10  C   UNL A   1      42.703  21.970  25.542  1.00  0.00     0.014 A 
ATOM     11  C   UNL A   1      42.502  22.511  28.269  1.00  0.00     0.010 A 
ATOM     12  C   UNL A   1      42.995  23.252  26.020  1.00  0.00     0.010 A 
ATOM     13  C   UNL A   1      42.857  23.545  27.384  1.00  0.00    -0.014 A 
BRANCH  13  14
ATOM     14  C   UNL A   1      43.130  24.894  27.943  1.00  0.00     0.031 A 
ATOM     15  C   UNL A   1      42.026  25.883  28.199  1.00  0.00     0.074 A 
ATOM     16  C   UNL A   1      44.400  25.194  28.285  1.00  0.00     0.049 A 
ATOM     17  N   UNL A   1      42.100  27.073  28.740  1.00  0.00    -0.248 NA
ATOM     18  C   UNL A   1      40.666  25.494  27.795  1.00  0.00     0.031 C 
ATOM     19  C   UNL A   1      45.557  24.322  28.067  1.00  0.00     0.029 A 
ATOM     20  N   UNL A   1      44.927  26.293  28.913  1.00  0.00    -0.354 N 
ATOM     21  C   UNL A   1      40.806  27.579  28.735  1.00  0.00     0.074 A 
ATOM     22  C   UNL A   1      39.969  26.580  28.104  1.00  0.00     0.031 C 
ATOM     23  C   UNL A   1      46.644  24.889  28.606  1.00  0.00     0.029 A 
ATOM     24  C   UNL A   1      46.277  26.194  29.143  1.00  0.00     0.049 A 
ATOM     25  H   UNL A   1      44.389  27.075  29.175  1.00  0.00     0.167 HD
ATOM     26  C   UNL A   1      40.357  28.762  29.223  1.00  0.00     0.037 A 
ATOM     27  C   UNL A   1      47.136  27.063  29.706  1.00  0.00     0.037 A 
ATOM     28  C   UNL A   1      41.195  29.752  29.852  1.00  0.00     0.049 A 
ATOM     29  C   UNL A   1      46.611  28.371  30.217  1.00  0.00     0.074 A 
ATOM     30  C   UNL A   1      40.832  30.980  30.381  1.00  0.00     0.029 A 
ATOM     31  N   UNL A   1      42.564  29.628  30.040  1.00  0.00    -0.354 N 
ATOM     32  N   UNL A   1      45.381  28.823  30.220  1.00  0.00    -0.248 NA
ATOM     33  C   UNL A   1      47.595  29.291  30.802  1.00  0.00     0.031 C 
ATOM     34  C   UNL A   1      41.987  31.614  30.853  1.00  0.00     0.029 A 
ATOM     35  C   UNL A   1      43.062  30.762  30.663  1.00  0.00     0.049 A 
ATOM     36  H   UNL A   1      43.102  28.850  29.770  1.00  0.00     0.167 HD
ATOM     37  C   UNL A   1      45.440  30.074  30.816  1.00  0.00     0.074 A 
ATOM     38  C   UNL A   1      46.822  30.295  31.190  1.00  0.00     0.031 C 
ATOM     39  C   UNL A   1      44.441  30.966  31.026  1.00  0.00     0.037 A 
BRANCH  26  40
ATOM     40  C   UNL A   1      38.890  29.059  29.093  1.00  0.00     0.057 A 
ATOM     41  C   UNL A   1      38.019  28.964  30.187  1.00  0.00     0.134 A 
ATOM     42  C   UNL A   1      38.351  29.504  27.879  1.00  0.00     0.134 A 
ATOM     43  F   UNL A   1      38.466  28.534  31.376  1.00  0.00    -0.206 F 
ATOM     44  C   UNL A   1      36.665  29.286  30.073  1.00  0.00     0.040 A 
ATOM     45  C   UNL A   1      37.004  29.852  27.758  1.00  0.00     0.040 A 
ATOM     46  F   UNL A   1      39.130  29.627  26.792  1.00  0.00    -0.206 F 
ATOM     47  C   UNL A   1      36.156  29.739  28.858  1.00  0.00     0.006 A 
ENDBRANCH  26  40
BRANCH  27  48
ATOM     48  C   UNL A   1      48.578  26.726  29.793  1.00  0.00     0.057 A 
ATOM     49  C   UNL A   1      49.483  27.132  28.806  1.00  0.00     0.134 A 
ATOM     50  C   UNL A   1      49.085  25.988  30.869  1.00  0.00     0.134 A 
ATOM     51  F   UNL A   1      49.057  27.830  27.744  1.00  0.00    -0.206 F 
ATOM     52  C   UNL A   1      50.836  26.797  28.876  1.00  0.00     0.040 A 
ATOM     53  C   UNL A   1      50.440  25.673  30.968  1.00  0.00     0.040 A 
ATOM     54  F   UNL A   1      48.271  25.580  31.854  1.00  0.00    -0.206 F 
ATOM     55  C   UNL A   1      51.319  26.070  29.963  1.00  0.00     0.006 A 
ENDBRANCH  27  48
BRANCH  39  56
ATOM     56  C   UNL A   1      44.814  32.247  31.713  1.00  0.00     0.057 A 
ATOM     57  C   UNL A   1      45.205  33.383  30.993  1.00  0.00     0.134 A 
ATOM     58  C   UNL A   1      44.779  32.343  33.109  1.00  0.00     0.134 A 
ATOM     59  F   UNL A   1      45.274  33.350  29.654  1.00  0.00    -0.206 F 
ATOM     60  C   UNL A   1      45.582  34.561  31.640  1.00  0.00     0.040 A 
ATOM     61  C   UNL A   1      45.127  33.525  33.766  1.00  0.00     0.040 A 
ATOM     62  F   UNL A   1      44.408  31.293  33.857  1.00  0.00    -0.206 F 
ATOM     63  C   UNL A   1      45.538  34.635  33.031  1.00  0.00     0.006 A 
ENDBRANCH  39  56
ENDBRANCH  13  14
ENDBRANCH   6   8
ENDBRANCH   3   4
ENDBRANCH   2   3
ENDBRANCH   1   2
BRANCH   1  64
ATOM     64  C   UNL A   1      37.654  23.319  25.766  1.00  0.00     0.116 C 
BRANCH  64  65
ATOM     65  N   UNL A   1      37.446  23.319  24.325  1.00  0.00    -0.352 N 
ATOM     66  C   UNL A   1      36.298  23.048  23.621  1.00  0.00     0.254 C 
ATOM     67  H   UNL A   1      38.235  23.544  23.780  1.00  0.00     0.163 HD
ATOM     68  O   UNL A   1      36.307  23.009  22.396  1.00  0.00    -0.269 OA
BRANCH  66  69
ATOM     69  C   UNL A   1      35.038  22.788  24.338  1.00  0.00     0.078 A 
ATOM     70  C   UNL A   1      34.647  21.475  24.601  1.00  0.00     0.037 A 
ATOM     71  C   UNL A   1      34.228  23.855  24.719  1.00  0.00     0.156 A 
ATOM     72  C   UNL A   1      33.471  21.251  25.314  1.00  0.00     0.043 A 
ATOM     73  C   UNL A   1      33.067  23.634  25.438  1.00  0.00     0.120 A 
ATOM     74  F   UNL A   1      34.612  25.087  24.380  1.00  0.00    -0.205 F 
ATOM     75  Cl  UNL A   1      32.989  19.641  25.669  1.00  0.00    -0.084 Cl
ATOM     76  C   UNL A   1      32.685  22.322  25.750  1.00  0.00     0.045 A 
BRANCH  73  77
ATOM     77  S   UNL A   1      32.030  24.956  25.972  1.00  0.00     0.244 S 
ATOM     78  O   UNL A   1      31.368  25.462  24.795  1.00  0.00    -0.207 OA
ATOM     79  O   UNL A   1      31.301  24.443  27.112  1.00  0.00    -0.207 OA
BRANCH  77  80
ATOM     80  N   UNL A   1      33.021  26.163  26.593  1.00  0.00    -0.196 NA
ATOM     81  H   UNL A   1      33.962  26.001  26.233  1.00  0.00     0.142 HD
BRANCH  80  82
ATOM     82  C   UNL A   1      32.667  27.562  26.287  1.00  0.00     0.189 C 
ATOM     83  C   UNL A   1      33.903  28.454  26.189  1.00  0.00     0.224 C 
ATOM     84  C   UNL A   1      31.937  28.307  27.362  1.00  0.00     0.264 C 
ATOM     85  O   UNL A   1      33.428  29.789  26.410  1.00  0.00    -0.271 OA
ATOM     86  N   UNL A   1      32.322  29.625  27.274  1.00  0.00    -0.233 N 
ATOM     87  O   UNL A   1      31.149  27.851  28.173  1.00  0.00    -0.271 OA
ATOM     88  H   UNL A   1      31.881  30.363  27.755  1.00  0.00     0.199 HD
ENDBRANCH  80  82
ENDBRANCH  77  80
ENDBRANCH  73  77
ENDBRANCH  66  69
ENDBRANCH  64  65
ENDBRANCH   1  64
TORSDOF 14
ENDMDL
