MODEL 1
REMARK VINA RESULT:     -11.0      0.000      0.000
REMARK SMILES Cc1ccc(CNC(=O)NC[C@@H](CC(C)C)C(=O)NCCCCNC(=O)c2ccc(-c3c4nc(c(-c5c(F)cccc5F)c5ccc([nH]5)c(-c5c(F)cccc5F)c5nc(c(-c6c(F)cccc6F)c6ccc3[nH]6)C=C5)C=C4)cc2)s1
REMARK SMILES IDX 20 1 19 2 17 3 18 4 12 6 11 7 10 8 7 9 8 10 9 12 6 14 5 15
REMARK SMILES IDX 1 16 2 17 3 18 81 19 4 20 13 21 14 22 15 23 16 24 21 25
REMARK SMILES IDX 22 26 23 27 24 28 25 29 26 31 27 32 28 33 80 34 29 35 79 36
REMARK SMILES IDX 30 37 31 38 32 39 73 40 33 41 78 42 72 43 74 44 34 45 77 46
REMARK SMILES IDX 71 47 70 48 35 50 61 51 44 52 60 53 45 54 48 55 59 56 75 57
REMARK SMILES IDX 46 58 47 59 58 61 76 62 49 63 36 64 37 65 42 66 38 67 39 68
REMARK SMILES IDX 41 69 43 70 40 71 62 72 63 73 68 74 64 75 65 76 67 77 69 78
REMARK SMILES IDX 66 79 50 80 51 81 56 82 52 83 53 84 55 85 57 86 54 87
REMARK H PARENT 19 5 7 11 10 13 24 30 74 49 48 60
REMARK Flexibility Score: inf
ROOT
ATOM      1  C   UNL A   1      36.995  23.018  25.256  1.00  0.00     0.116 C 
ENDROOT
BRANCH   1   2
ATOM      2  N   UNL A   1      36.090  22.863  26.378  1.00  0.00    -0.356 N 
ATOM      3  C   UNL A   1      34.793  23.227  26.549  1.00  0.00     0.224 C 
ATOM      4  O   UNL A   1      34.234  22.803  27.567  1.00  0.00    -0.275 OA
ATOM      5  H   UNL A   1      36.488  22.412  27.157  1.00  0.00     0.163 HD
BRANCH   3   6
ATOM      6  C   UNL A   1      34.009  24.087  25.562  1.00  0.00     0.098 C 
BRANCH   6   7
ATOM      7  C   UNL A   1      33.435  23.314  24.370  1.00  0.00     0.131 C 
BRANCH   7   8
ATOM      8  N   UNL A   1      32.121  22.754  24.644  1.00  0.00    -0.337 N 
ATOM      9  N   UNL A   1      32.574  20.611  25.517  1.00  0.00    -0.333 N 
ATOM     10  C   UNL A   1      31.760  21.659  25.331  1.00  0.00     0.315 C 
ATOM     11  H   UNL A   1      32.346  20.061  26.301  1.00  0.00     0.165 HD
ATOM     12  O   UNL A   1      30.630  21.623  25.819  1.00  0.00    -0.249 OA
ATOM     13  H   UNL A   1      31.371  23.264  24.262  1.00  0.00     0.165 HD
BRANCH   9  14
ATOM     14  C   UNL A   1      33.725  20.134  24.780  1.00  0.00     0.164 C 
BRANCH  14  15
ATOM     15  C   UNL A   1      33.783  18.635  24.805  1.00  0.00     0.024 A 
ATOM     16  C   UNL A   1      32.663  14.926  25.469  1.00  0.00     0.056 C 
ATOM     17  C   UNL A   1      33.313  16.222  25.127  1.00  0.00     0.002 A 
ATOM     18  C   UNL A   1      34.506  16.437  24.470  1.00  0.00     0.015 A 
ATOM     19  S   UNL A   1      32.561  17.695  25.561  1.00  0.00    -0.144 S 
ATOM     20  C   UNL A   1      34.777  17.824  24.287  1.00  0.00     0.017 A 
ENDBRANCH  14  15
ENDBRANCH   9  14
ENDBRANCH   7   8
ENDBRANCH   6   7
BRANCH   6  21
ATOM     21  C   UNL A   1      33.014  25.077  26.216  1.00  0.00     0.018 C 
BRANCH  21  22
ATOM     22  C   UNL A   1      32.781  26.428  25.509  1.00  0.00    -0.017 C 
ATOM     23  C   UNL A   1      33.864  26.715  24.462  1.00  0.00     0.007 C 
ATOM     24  C   UNL A   1      31.416  26.455  24.813  1.00  0.00     0.007 C 
ENDBRANCH  21  22
ENDBRANCH   6  21
ENDBRANCH   3   6
ENDBRANCH   1   2
BRANCH   1  25
ATOM     25  C   UNL A   1      36.955  21.838  24.292  1.00  0.00     0.023 C 
BRANCH  25  26
ATOM     26  C   UNL A   1      37.635  20.567  24.803  1.00  0.00     0.023 C 
BRANCH  26  27
ATOM     27  C   UNL A   1      38.827  20.786  25.733  1.00  0.00     0.116 C 
BRANCH  27  28
ATOM     28  N   UNL A   1      39.784  19.687  25.710  1.00  0.00    -0.352 N 
ATOM     29  C   UNL A   1      41.119  19.678  26.040  1.00  0.00     0.251 C 
ATOM     30  H   UNL A   1      39.421  18.821  25.414  1.00  0.00     0.163 HD
ATOM     31  O   UNL A   1      41.800  18.678  25.851  1.00  0.00    -0.269 OA
BRANCH  29  32
ATOM     32  C   UNL A   1      41.737  20.903  26.584  1.00  0.00     0.039 A 
ATOM     33  C   UNL A   1      42.369  21.784  25.706  1.00  0.00     0.014 A 
ATOM     34  C   UNL A   1      41.630  21.206  27.943  1.00  0.00     0.014 A 
ATOM     35  C   UNL A   1      42.796  23.029  26.172  1.00  0.00     0.010 A 
ATOM     36  C   UNL A   1      41.990  22.472  28.390  1.00  0.00     0.010 A 
ATOM     37  C   UNL A   1      42.552  23.405  27.503  1.00  0.00    -0.014 A 
BRANCH  37  38
ATOM     38  C   UNL A   1      42.828  24.781  27.984  1.00  0.00     0.031 A 
ATOM     39  C   UNL A   1      44.213  25.164  28.416  1.00  0.00     0.074 A 
ATOM     40  C   UNL A   1      41.809  25.654  28.118  1.00  0.00     0.049 A 
ATOM     41  N   UNL A   1      44.620  26.260  29.004  1.00  0.00    -0.248 NA
ATOM     42  C   UNL A   1      45.276  24.175  28.178  1.00  0.00     0.031 C 
ATOM     43  C   UNL A   1      40.412  25.392  27.763  1.00  0.00     0.029 A 
ATOM     44  N   UNL A   1      41.790  26.936  28.608  1.00  0.00    -0.354 N 
ATOM     45  C   UNL A   1      45.982  26.090  29.213  1.00  0.00     0.074 A 
ATOM     46  C   UNL A   1      46.324  24.768  28.732  1.00  0.00     0.031 C 
ATOM     47  C   UNL A   1      39.676  26.481  28.038  1.00  0.00     0.029 A 
ATOM     48  C   UNL A   1      40.537  27.501  28.628  1.00  0.00     0.049 A 
ATOM     49  H   UNL A   1      42.598  27.406  28.917  1.00  0.00     0.167 HD
ATOM     50  C   UNL A   1      46.872  26.965  29.740  1.00  0.00     0.037 A 
ATOM     51  C   UNL A   1      40.126  28.697  29.088  1.00  0.00     0.037 A 
ATOM     52  C   UNL A   1      46.536  28.285  30.203  1.00  0.00     0.049 A 
ATOM     53  C   UNL A   1      41.130  29.635  29.699  1.00  0.00     0.074 A 
ATOM     54  C   UNL A   1      47.374  29.253  30.727  1.00  0.00     0.029 A 
ATOM     55  N   UNL A   1      45.260  28.824  30.190  1.00  0.00    -0.354 N 
ATOM     56  N   UNL A   1      42.421  29.471  29.861  1.00  0.00    -0.248 NA
ATOM     57  C   UNL A   1      40.620  30.920  30.196  1.00  0.00     0.031 C 
ATOM     58  C   UNL A   1      46.600  30.370  31.057  1.00  0.00     0.029 A 
ATOM     59  C   UNL A   1      45.285  30.109  30.706  1.00  0.00     0.049 A 
ATOM     60  H   UNL A   1      44.454  28.363  29.863  1.00  0.00     0.167 HD
ATOM     61  C   UNL A   1      42.878  30.640  30.454  1.00  0.00     0.074 A 
ATOM     62  C   UNL A   1      41.731  31.510  30.609  1.00  0.00     0.031 C 
ATOM     63  C   UNL A   1      44.136  30.964  30.839  1.00  0.00     0.037 A 
BRANCH  50  64
ATOM     64  C   UNL A   1      48.302  26.526  29.825  1.00  0.00     0.057 A 
ATOM     65  C   UNL A   1      49.219  26.829  28.811  1.00  0.00     0.134 A 
ATOM     66  C   UNL A   1      48.779  25.840  30.949  1.00  0.00     0.134 A 
ATOM     67  F   UNL A   1      48.821  27.471  27.703  1.00  0.00    -0.206 F 
ATOM     68  C   UNL A   1      50.560  26.452  28.905  1.00  0.00     0.040 A 
ATOM     69  C   UNL A   1      50.122  25.478  31.064  1.00  0.00     0.040 A 
ATOM     70  F   UNL A   1      47.951  25.524  31.957  1.00  0.00    -0.206 F 
ATOM     71  C   UNL A   1      51.016  25.780  30.038  1.00  0.00     0.006 A 
ENDBRANCH  50  64
BRANCH  51  72
ATOM     72  C   UNL A   1      38.697  29.088  29.000  1.00  0.00     0.057 A 
ATOM     73  C   UNL A   1      38.158  29.578  27.804  1.00  0.00     0.134 A 
ATOM     74  C   UNL A   1      37.849  29.021  30.111  1.00  0.00     0.134 A 
ATOM     75  F   UNL A   1      38.929  29.685  26.712  1.00  0.00    -0.206 F 
ATOM     76  C   UNL A   1      36.835  30.014  27.724  1.00  0.00     0.040 A 
ATOM     77  C   UNL A   1      36.516  29.431  30.038  1.00  0.00     0.040 A 
ATOM     78  F   UNL A   1      38.302  28.555  31.284  1.00  0.00    -0.206 F 
ATOM     79  C   UNL A   1      36.009  29.939  28.844  1.00  0.00     0.006 A 
ENDBRANCH  51  72
BRANCH  63  80
ATOM     80  C   UNL A   1      44.339  32.326  31.432  1.00  0.00     0.057 A 
ATOM     81  C   UNL A   1      44.214  32.556  32.807  1.00  0.00     0.134 A 
ATOM     82  C   UNL A   1      44.698  33.409  30.621  1.00  0.00     0.134 A 
ATOM     83  F   UNL A   1      43.858  31.561  33.633  1.00  0.00    -0.206 F 
ATOM     84  C   UNL A   1      44.419  33.824  33.353  1.00  0.00     0.040 A 
ATOM     85  C   UNL A   1      44.928  34.676  31.158  1.00  0.00     0.040 A 
ATOM     86  F   UNL A   1      44.840  33.251  29.296  1.00  0.00    -0.206 F 
ATOM     87  C   UNL A   1      44.784  34.887  32.528  1.00  0.00     0.006 A 
ENDBRANCH  63  80
ENDBRANCH  37  38
ENDBRANCH  29  32
ENDBRANCH  27  28
ENDBRANCH  26  27
ENDBRANCH  25  26
ENDBRANCH   1  25
TORSDOF 17
ENDMDL
MODEL 2
REMARK VINA RESULT:     -10.9      4.892      9.660
REMARK SMILES Cc1ccc(CNC(=O)NC[C@@H](CC(C)C)C(=O)NCCCCNC(=O)c2ccc(-c3c4nc(c(-c5c(F)cccc5F)c5ccc([nH]5)c(-c5c(F)cccc5F)c5nc(c(-c6c(F)cccc6F)c6ccc3[nH]6)C=C5)C=C4)cc2)s1
REMARK SMILES IDX 20 1 19 2 17 3 18 4 12 6 11 7 10 8 7 9 8 10 9 12 6 14 5 15
REMARK SMILES IDX 1 16 2 17 3 18 81 19 4 20 13 21 14 22 15 23 16 24 21 25
REMARK SMILES IDX 22 26 23 27 24 28 25 29 26 31 27 32 28 33 80 34 29 35 79 36
REMARK SMILES IDX 30 37 31 38 32 39 73 40 33 41 78 42 72 43 74 44 34 45 77 46
REMARK SMILES IDX 71 47 70 48 35 50 61 51 44 52 60 53 45 54 48 55 59 56 75 57
REMARK SMILES IDX 46 58 47 59 58 61 76 62 49 63 36 64 37 65 42 66 38 67 39 68
REMARK SMILES IDX 41 69 43 70 40 71 62 72 63 73 68 74 64 75 65 76 67 77 69 78
REMARK SMILES IDX 66 79 50 80 51 81 56 82 52 83 53 84 55 85 57 86 54 87
REMARK H PARENT 19 5 7 11 10 13 24 30 74 49 48 60
REMARK Flexibility Score: inf
ROOT
ATOM      1  C   UNL A   1      33.718  29.340  26.634  1.00  0.00     0.116 C 
ENDROOT
BRANCH   1   2
ATOM      2  N   UNL A   1      34.003  29.103  25.233  1.00  0.00    -0.356 N 
ATOM      3  C   UNL A   1      33.812  28.015  24.443  1.00  0.00     0.224 C 
ATOM      4  O   UNL A   1      34.003  28.175  23.232  1.00  0.00    -0.275 OA
ATOM      5  H   UNL A   1      34.409  29.871  24.769  1.00  0.00     0.163 HD
BRANCH   3   6
ATOM      6  C   UNL A   1      33.363  26.652  24.961  1.00  0.00     0.098 C 
BRANCH   6   7
ATOM      7  C   UNL A   1      31.859  26.390  24.825  1.00  0.00     0.131 C 
BRANCH   7   8
ATOM      8  N   UNL A   1      31.463  26.091  23.457  1.00  0.00    -0.337 N 
ATOM      9  N   UNL A   1      30.797  28.174  22.577  1.00  0.00    -0.333 N 
ATOM     10  C   UNL A   1      31.195  26.905  22.424  1.00  0.00     0.315 C 
ATOM     11  H   UNL A   1      30.979  28.748  21.797  1.00  0.00     0.165 HD
ATOM     12  O   UNL A   1      31.330  26.461  21.283  1.00  0.00    -0.249 OA
ATOM     13  H   UNL A   1      31.378  25.131  23.256  1.00  0.00     0.165 HD
BRANCH   9  14
ATOM     14  C   UNL A   1      30.148  28.862  23.673  1.00  0.00     0.164 C 
BRANCH  14  15
ATOM     15  C   UNL A   1      29.508  30.132  23.195  1.00  0.00     0.024 A 
ATOM     16  C   UNL A   1      27.796  32.687  20.746  1.00  0.00     0.056 C 
ATOM     17  C   UNL A   1      28.431  31.916  21.852  1.00  0.00     0.002 A 
ATOM     18  C   UNL A   1      28.583  32.279  23.173  1.00  0.00     0.015 A 
ATOM     19  S   UNL A   1      29.086  30.367  21.546  1.00  0.00    -0.144 S 
ATOM     20  C   UNL A   1      29.204  31.254  23.944  1.00  0.00     0.017 A 
ENDBRANCH  14  15
ENDBRANCH   9  14
ENDBRANCH   7   8
ENDBRANCH   6   7
BRANCH   6  21
ATOM     21  C   UNL A   1      34.256  25.466  24.521  1.00  0.00     0.018 C 
BRANCH  21  22
ATOM     22  C   UNL A   1      34.495  24.334  25.540  1.00  0.00    -0.017 C 
ATOM     23  C   UNL A   1      33.634  23.102  25.234  1.00  0.00     0.007 C 
ATOM     24  C   UNL A   1      35.966  23.906  25.550  1.00  0.00     0.007 C 
ENDBRANCH  21  22
ENDBRANCH   6  21
ENDBRANCH   3   6
ENDBRANCH   1   2
BRANCH   1  25
ATOM     25  C   UNL A   1      32.254  29.674  26.895  1.00  0.00     0.023 C 
BRANCH  25  26
ATOM     26  C   UNL A   1      31.928  31.167  26.909  1.00  0.00     0.023 C 
BRANCH  26  27
ATOM     27  C   UNL A   1      33.084  32.091  27.284  1.00  0.00     0.116 C 
BRANCH  27  28
ATOM     28  N   UNL A   1      32.667  33.466  27.530  1.00  0.00    -0.352 N 
ATOM     29  C   UNL A   1      33.165  34.391  28.418  1.00  0.00     0.251 C 
ATOM     30  H   UNL A   1      31.915  33.781  26.978  1.00  0.00     0.163 HD
ATOM     31  O   UNL A   1      32.611  35.472  28.567  1.00  0.00    -0.269 OA
BRANCH  29  32
ATOM     32  C   UNL A   1      34.351  34.049  29.226  1.00  0.00     0.039 A 
ATOM     33  C   UNL A   1      34.186  33.248  30.357  1.00  0.00     0.014 A 
ATOM     34  C   UNL A   1      35.623  34.463  28.826  1.00  0.00     0.014 A 
ATOM     35  C   UNL A   1      35.313  32.765  31.026  1.00  0.00     0.010 A 
ATOM     36  C   UNL A   1      36.744  33.925  29.449  1.00  0.00     0.010 A 
ATOM     37  C   UNL A   1      36.599  33.050  30.538  1.00  0.00    -0.014 A 
BRANCH  37  38
ATOM     38  C   UNL A   1      37.807  32.409  31.114  1.00  0.00     0.031 A 
ATOM     39  C   UNL A   1      38.483  31.286  30.384  1.00  0.00     0.074 A 
ATOM     40  C   UNL A   1      38.235  32.778  32.338  1.00  0.00     0.049 A 
ATOM     41  N   UNL A   1      39.450  30.503  30.789  1.00  0.00    -0.248 NA
ATOM     42  C   UNL A   1      37.992  30.989  29.029  1.00  0.00     0.031 C 
ATOM     43  C   UNL A   1      37.642  33.834  33.164  1.00  0.00     0.029 A 
ATOM     44  N   UNL A   1      39.260  32.291  33.111  1.00  0.00    -0.354 N 
ATOM     45  C   UNL A   1      39.678  29.617  29.745  1.00  0.00     0.074 A 
ATOM     46  C   UNL A   1      38.718  29.928  28.707  1.00  0.00     0.031 C 
ATOM     47  C   UNL A   1      38.320  33.920  34.320  1.00  0.00     0.029 A 
ATOM     48  C   UNL A   1      39.363  32.900  34.338  1.00  0.00     0.049 A 
ATOM     49  H   UNL A   1      39.862  31.572  32.813  1.00  0.00     0.167 HD
ATOM     50  C   UNL A   1      40.616  28.644  29.651  1.00  0.00     0.037 A 
ATOM     51  C   UNL A   1      40.191  32.651  35.369  1.00  0.00     0.037 A 
ATOM     52  C   UNL A   1      41.581  28.345  30.675  1.00  0.00     0.049 A 
ATOM     53  C   UNL A   1      41.201  31.543  35.250  1.00  0.00     0.074 A 
ATOM     54  C   UNL A   1      42.588  27.396  30.660  1.00  0.00     0.029 A 
ATOM     55  N   UNL A   1      41.662  28.996  31.896  1.00  0.00    -0.354 N 
ATOM     56  N   UNL A   1      41.424  30.734  34.243  1.00  0.00    -0.248 NA
ATOM     57  C   UNL A   1      42.069  31.310  36.413  1.00  0.00     0.031 C 
ATOM     58  C   UNL A   1      43.263  27.454  31.883  1.00  0.00     0.029 A 
ATOM     59  C   UNL A   1      42.697  28.463  32.647  1.00  0.00     0.049 A 
ATOM     60  H   UNL A   1      41.072  29.729  32.187  1.00  0.00     0.167 HD
ATOM     61  C   UNL A   1      42.472  29.915  34.642  1.00  0.00     0.074 A 
ATOM     62  C   UNL A   1      42.850  30.335  35.975  1.00  0.00     0.031 C 
ATOM     63  C   UNL A   1      43.067  28.903  33.965  1.00  0.00     0.037 A 
BRANCH  50  64
ATOM     64  C   UNL A   1      40.655  27.844  28.385  1.00  0.00     0.057 A 
ATOM     65  C   UNL A   1      41.404  28.265  27.279  1.00  0.00     0.134 A 
ATOM     66  C   UNL A   1      39.981  26.621  28.285  1.00  0.00     0.134 A 
ATOM     67  F   UNL A   1      42.060  29.434  27.308  1.00  0.00    -0.206 F 
ATOM     68  C   UNL A   1      41.471  27.503  26.111  1.00  0.00     0.040 A 
ATOM     69  C   UNL A   1      40.058  25.840  27.131  1.00  0.00     0.040 A 
ATOM     70  F   UNL A   1      39.249  26.160  29.311  1.00  0.00    -0.206 F 
ATOM     71  C   UNL A   1      40.802  26.283  26.038  1.00  0.00     0.006 A 
ENDBRANCH  50  64
BRANCH  51  72
ATOM     72  C   UNL A   1      40.110  33.457  36.613  1.00  0.00     0.057 A 
ATOM     73  C   UNL A   1      39.209  33.120  37.630  1.00  0.00     0.134 A 
ATOM     74  C   UNL A   1      40.895  34.600  36.798  1.00  0.00     0.134 A 
ATOM     75  F   UNL A   1      38.415  32.047  37.499  1.00  0.00    -0.206 F 
ATOM     76  C   UNL A   1      39.072  33.905  38.775  1.00  0.00     0.040 A 
ATOM     77  C   UNL A   1      40.786  35.382  37.949  1.00  0.00     0.040 A 
ATOM     78  F   UNL A   1      41.781  34.974  35.864  1.00  0.00    -0.206 F 
ATOM     79  C   UNL A   1      39.864  35.041  38.938  1.00  0.00     0.006 A 
ENDBRANCH  51  72
BRANCH  63  80
ATOM     80  C   UNL A   1      44.208  28.207  34.643  1.00  0.00     0.057 A 
ATOM     81  C   UNL A   1      44.015  27.049  35.407  1.00  0.00     0.134 A 
ATOM     82  C   UNL A   1      45.517  28.681  34.501  1.00  0.00     0.134 A 
ATOM     83  F   UNL A   1      42.781  26.556  35.592  1.00  0.00    -0.206 F 
ATOM     84  C   UNL A   1      45.084  26.399  36.023  1.00  0.00     0.040 A 
ATOM     85  C   UNL A   1      46.598  28.025  35.092  1.00  0.00     0.040 A 
ATOM     86  F   UNL A   1      45.769  29.781  33.776  1.00  0.00    -0.206 F 
ATOM     87  C   UNL A   1      46.381  26.883  35.861  1.00  0.00     0.006 A 
ENDBRANCH  63  80
ENDBRANCH  37  38
ENDBRANCH  29  32
ENDBRANCH  27  28
ENDBRANCH  26  27
ENDBRANCH  25  26
ENDBRANCH   1  25
TORSDOF 17
ENDMDL
MODEL 3
REMARK VINA RESULT:     -10.9      2.244      7.518
REMARK SMILES Cc1ccc(CNC(=O)NC[C@@H](CC(C)C)C(=O)NCCCCNC(=O)c2ccc(-c3c4nc(c(-c5c(F)cccc5F)c5ccc([nH]5)c(-c5c(F)cccc5F)c5nc(c(-c6c(F)cccc6F)c6ccc3[nH]6)C=C5)C=C4)cc2)s1
REMARK SMILES IDX 20 1 19 2 17 3 18 4 12 6 11 7 10 8 7 9 8 10 9 12 6 14 5 15
REMARK SMILES IDX 1 16 2 17 3 18 81 19 4 20 13 21 14 22 15 23 16 24 21 25
REMARK SMILES IDX 22 26 23 27 24 28 25 29 26 31 27 32 28 33 80 34 29 35 79 36
REMARK SMILES IDX 30 37 31 38 32 39 73 40 33 41 78 42 72 43 74 44 34 45 77 46
REMARK SMILES IDX 71 47 70 48 35 50 61 51 44 52 60 53 45 54 48 55 59 56 75 57
REMARK SMILES IDX 46 58 47 59 58 61 76 62 49 63 36 64 37 65 42 66 38 67 39 68
REMARK SMILES IDX 41 69 43 70 40 71 62 72 63 73 68 74 64 75 65 76 67 77 69 78
REMARK SMILES IDX 66 79 50 80 51 81 56 82 52 83 53 84 55 85 57 86 54 87
REMARK H PARENT 19 5 7 11 10 13 24 30 74 49 48 60
REMARK Flexibility Score: inf
ROOT
ATOM      1  C   UNL A   1      36.531  23.625  25.304  1.00  0.00     0.116 C 
ENDROOT
BRANCH   1   2
ATOM      2  N   UNL A   1      35.268  23.519  26.008  1.00  0.00    -0.356 N 
ATOM      3  C   UNL A   1      34.021  23.957  25.698  1.00  0.00     0.224 C 
ATOM      4  O   UNL A   1      33.103  23.563  26.426  1.00  0.00    -0.275 OA
ATOM      5  H   UNL A   1      35.325  23.043  26.868  1.00  0.00     0.163 HD
BRANCH   3   6
ATOM      6  C   UNL A   1      33.705  24.865  24.513  1.00  0.00     0.098 C 
BRANCH   6   7
ATOM      7  C   UNL A   1      32.501  24.416  23.677  1.00  0.00     0.131 C 
BRANCH   7   8
ATOM      8  N   UNL A   1      32.684  24.658  22.254  1.00  0.00    -0.337 N 
ATOM      9  N   UNL A   1      31.637  26.737  21.880  1.00  0.00    -0.333 N 
ATOM     10  C   UNL A   1      32.483  25.763  21.520  1.00  0.00     0.315 C 
ATOM     11  H   UNL A   1      31.839  27.612  21.476  1.00  0.00     0.165 HD
ATOM     12  O   UNL A   1      33.115  25.887  20.469  1.00  0.00    -0.249 OA
ATOM     13  H   UNL A   1      33.009  23.881  21.745  1.00  0.00     0.165 HD
BRANCH   9  14
ATOM     14  C   UNL A   1      30.481  26.744  22.750  1.00  0.00     0.164 C 
BRANCH  14  15
ATOM     15  C   UNL A   1      30.092  28.151  23.100  1.00  0.00     0.024 A 
ATOM     16  C   UNL A   1      27.840  31.348  23.501  1.00  0.00     0.056 C 
ATOM     17  C   UNL A   1      28.889  30.292  23.443  1.00  0.00     0.002 A 
ATOM     18  C   UNL A   1      30.184  30.341  23.912  1.00  0.00     0.015 A 
ATOM     19  S   UNL A   1      28.540  28.782  22.721  1.00  0.00    -0.144 S 
ATOM     20  C   UNL A   1      30.876  29.112  23.713  1.00  0.00     0.017 A 
ENDBRANCH  14  15
ENDBRANCH   9  14
ENDBRANCH   7   8
ENDBRANCH   6   7
BRANCH   6  21
ATOM     21  C   UNL A   1      33.723  26.380  24.836  1.00  0.00     0.018 C 
BRANCH  21  22
ATOM     22  C   UNL A   1      33.251  26.817  26.237  1.00  0.00    -0.017 C 
ATOM     23  C   UNL A   1      33.725  28.234  26.580  1.00  0.00     0.007 C 
ATOM     24  C   UNL A   1      31.722  26.781  26.336  1.00  0.00     0.007 C 
ENDBRANCH  21  22
ENDBRANCH   6  21
ENDBRANCH   3   6
ENDBRANCH   1   2
BRANCH   1  25
ATOM     25  C   UNL A   1      36.685  22.586  24.201  1.00  0.00     0.023 C 
BRANCH  25  26
ATOM     26  C   UNL A   1      37.256  21.243  24.656  1.00  0.00     0.023 C 
BRANCH  26  27
ATOM     27  C   UNL A   1      38.462  21.323  25.590  1.00  0.00     0.116 C 
BRANCH  27  28
ATOM     28  N   UNL A   1      39.300  20.131  25.553  1.00  0.00    -0.352 N 
ATOM     29  C   UNL A   1      40.610  19.965  25.937  1.00  0.00     0.251 C 
ATOM     30  H   UNL A   1      38.862  19.323  25.200  1.00  0.00     0.163 HD
ATOM     31  O   UNL A   1      41.191  18.908  25.727  1.00  0.00    -0.269 OA
BRANCH  29  32
ATOM     32  C   UNL A   1      41.327  21.092  26.564  1.00  0.00     0.039 A 
ATOM     33  C   UNL A   1      41.974  22.017  25.745  1.00  0.00     0.014 A 
ATOM     34  C   UNL A   1      41.298  21.265  27.950  1.00  0.00     0.014 A 
ATOM     35  C   UNL A   1      42.498  23.183  26.307  1.00  0.00     0.010 A 
ATOM     36  C   UNL A   1      41.757  22.457  28.499  1.00  0.00     0.010 A 
ATOM     37  C   UNL A   1      42.337  23.439  27.678  1.00  0.00    -0.014 A 
BRANCH  37  38
ATOM     38  C   UNL A   1      42.719  24.742  28.275  1.00  0.00     0.031 A 
ATOM     39  C   UNL A   1      41.685  25.812  28.472  1.00  0.00     0.074 A 
ATOM     40  C   UNL A   1      44.015  24.993  28.549  1.00  0.00     0.049 A 
ATOM     41  N   UNL A   1      41.847  27.060  28.832  1.00  0.00    -0.248 NA
ATOM     42  C   UNL A   1      40.287  25.436  28.207  1.00  0.00     0.031 C 
ATOM     43  C   UNL A   1      45.120  24.047  28.371  1.00  0.00     0.029 A 
ATOM     44  N   UNL A   1      44.626  26.128  29.021  1.00  0.00    -0.354 N 
ATOM     45  C   UNL A   1      40.576  27.619  28.829  1.00  0.00     0.074 A 
ATOM     46  C   UNL A   1      39.660  26.590  28.387  1.00  0.00     0.031 C 
ATOM     47  C   UNL A   1      46.269  24.638  28.738  1.00  0.00     0.029 A 
ATOM     48  C   UNL A   1      45.991  26.015  29.134  1.00  0.00     0.049 A 
ATOM     49  H   UNL A   1      44.132  26.947  29.255  1.00  0.00     0.167 HD
ATOM     50  C   UNL A   1      40.204  28.872  29.183  1.00  0.00     0.037 A 
ATOM     51  C   UNL A   1      46.915  26.923  29.495  1.00  0.00     0.037 A 
ATOM     52  C   UNL A   1      41.112  29.892  29.638  1.00  0.00     0.049 A 
ATOM     53  C   UNL A   1      46.476  28.317  29.850  1.00  0.00     0.074 A 
ATOM     54  C   UNL A   1      40.825  31.183  30.044  1.00  0.00     0.029 A 
ATOM     55  N   UNL A   1      42.484  29.730  29.754  1.00  0.00    -0.354 N 
ATOM     56  N   UNL A   1      45.267  28.822  29.872  1.00  0.00    -0.248 NA
ATOM     57  C   UNL A   1      47.532  29.269  30.225  1.00  0.00     0.031 C 
ATOM     58  C   UNL A   1      42.027  31.813  30.381  1.00  0.00     0.029 A 
ATOM     59  C   UNL A   1      43.059  30.903  30.216  1.00  0.00     0.049 A 
ATOM     60  H   UNL A   1      42.977  28.906  29.539  1.00  0.00     0.167 HD
ATOM     61  C   UNL A   1      45.415  30.139  30.286  1.00  0.00     0.074 A 
ATOM     62  C   UNL A   1      46.828  30.351  30.519  1.00  0.00     0.031 C 
ATOM     63  C   UNL A   1      44.465  31.090  30.455  1.00  0.00     0.037 A 
BRANCH  50  64
ATOM     64  C   UNL A   1      38.745  29.205  29.109  1.00  0.00     0.057 A 
ATOM     65  C   UNL A   1      37.931  29.170  30.247  1.00  0.00     0.134 A 
ATOM     66  C   UNL A   1      38.159  29.611  27.903  1.00  0.00     0.134 A 
ATOM     67  F   UNL A   1      38.429  28.775  31.428  1.00  0.00    -0.206 F 
ATOM     68  C   UNL A   1      36.579  29.513  30.187  1.00  0.00     0.040 A 
ATOM     69  C   UNL A   1      36.815  29.978  27.835  1.00  0.00     0.040 A 
ATOM     70  F   UNL A   1      38.887  29.670  26.777  1.00  0.00    -0.206 F 
ATOM     71  C   UNL A   1      36.020  29.926  28.979  1.00  0.00     0.006 A 
ENDBRANCH  50  64
BRANCH  51  72
ATOM     72  C   UNL A   1      48.353  26.558  29.541  1.00  0.00     0.057 A 
ATOM     73  C   UNL A   1      48.910  25.970  30.683  1.00  0.00     0.134 A 
ATOM     74  C   UNL A   1      49.211  26.824  28.468  1.00  0.00     0.134 A 
ATOM     75  F   UNL A   1      48.141  25.713  31.751  1.00  0.00    -0.206 F 
ATOM     76  C   UNL A   1      50.273  25.685  30.767  1.00  0.00     0.040 A 
ATOM     77  C   UNL A   1      50.572  26.521  28.529  1.00  0.00     0.040 A 
ATOM     78  F   UNL A   1      48.738  27.381  27.343  1.00  0.00    -0.206 F 
ATOM     79  C   UNL A   1      51.109  25.960  29.685  1.00  0.00     0.006 A 
ENDBRANCH  51  72
BRANCH  63  80
ATOM     80  C   UNL A   1      44.921  32.431  30.946  1.00  0.00     0.057 A 
ATOM     81  C   UNL A   1      45.270  33.458  30.061  1.00  0.00     0.134 A 
ATOM     82  C   UNL A   1      44.978  32.706  32.317  1.00  0.00     0.134 A 
ATOM     83  F   UNL A   1      45.250  33.250  28.736  1.00  0.00    -0.206 F 
ATOM     84  C   UNL A   1      45.680  34.709  30.526  1.00  0.00     0.040 A 
ATOM     85  C   UNL A   1      45.363  33.959  32.793  1.00  0.00     0.040 A 
ATOM     86  F   UNL A   1      44.649  31.765  33.215  1.00  0.00    -0.206 F 
ATOM     87  C   UNL A   1      45.721  34.964  31.896  1.00  0.00     0.006 A 
ENDBRANCH  63  80
ENDBRANCH  37  38
ENDBRANCH  29  32
ENDBRANCH  27  28
ENDBRANCH  26  27
ENDBRANCH  25  26
ENDBRANCH   1  25
TORSDOF 17
ENDMDL
