MODEL 1
REMARK VINA RESULT:     -13.6      0.000      0.000
REMARK SMILES Cc1ccc(-c2cc(C(=O)NCCCCNC(=O)c3ccc(-c4c5nc(c(-c6c(F)cccc6F)c6ccc([nH]6)c(-c6c(F)cccc6F)c6nc(c(-c7c(F)cccc7F)c7ccc4[nH]7)C=C6)C=C5)cc3)c3cc(C)ccc3n2)c(C)c1
REMARK SMILES IDX 14 1 13 2 12 3 11 4 9 5 10 6 8 8 6 9 7 10 80 11 79 12 73 13
REMARK SMILES IDX 78 14 74 15 77 16 75 17 76 18 5 19 1 20 2 21 3 22 83 23 4 24
REMARK SMILES IDX 81 25 82 26 15 27 16 28 17 29 18 31 19 32 20 33 72 34 21 35
REMARK SMILES IDX 71 36 22 37 23 38 24 39 65 40 25 41 70 42 64 43 66 44 26 45
REMARK SMILES IDX 69 46 63 47 62 48 27 50 53 51 36 52 52 53 37 54 40 55 51 56
REMARK SMILES IDX 67 57 38 58 39 59 50 61 68 62 41 63 28 64 29 65 34 66 30 67
REMARK SMILES IDX 31 68 33 69 35 70 32 71 54 72 55 73 60 74 56 75 57 76 59 77
REMARK SMILES IDX 61 78 58 79 42 80 43 81 48 82 44 83 45 84 47 85 49 86 46 87
REMARK H PARENT 11 7 16 30 66 49 40 60
REMARK Flexibility Score: inf
ROOT
ATOM      1  C   UNL A   1      31.261  31.758  26.519  1.00  0.00     0.023 C 
ENDROOT
BRANCH   1   2
ATOM      2  C   UNL A   1      31.403  30.520  25.639  1.00  0.00     0.023 C 
BRANCH   2   3
ATOM      3  C   UNL A   1      32.707  29.747  25.749  1.00  0.00     0.116 C 
BRANCH   3   4
ATOM      4  N   UNL A   1      33.471  29.547  24.529  1.00  0.00    -0.352 N 
ATOM      5  C   UNL A   1      33.194  28.752  23.429  1.00  0.00     0.252 C 
ATOM      6  O   UNL A   1      33.958  28.812  22.464  1.00  0.00    -0.269 OA
ATOM      7  H   UNL A   1      34.313  30.053  24.478  1.00  0.00     0.163 HD
BRANCH   5   8
ATOM      8  C   UNL A   1      32.083  27.750  23.401  1.00  0.00     0.051 A 
ATOM      9  C   UNL A   1      31.433  25.499  23.896  1.00  0.00     0.072 A 
ATOM     10  C   UNL A   1      32.437  26.441  23.747  1.00  0.00     0.043 A 
ATOM     11  N   UNL A   1      30.123  25.839  23.852  1.00  0.00    -0.248 NA
ATOM     12  C   UNL A   1      29.784  27.082  23.490  1.00  0.00     0.072 A 
ATOM     13  C   UNL A   1      30.732  28.046  23.115  1.00  0.00     0.013 A 
ATOM     14  C   UNL A   1      28.442  27.437  23.500  1.00  0.00     0.029 A 
ATOM     15  C   UNL A   1      30.270  29.238  22.516  1.00  0.00     0.014 A 
ATOM     16  C   UNL A   1      28.016  28.715  23.126  1.00  0.00     0.005 A 
ATOM     17  C   UNL A   1      28.931  29.623  22.604  1.00  0.00    -0.050 A 
ATOM     18  C   UNL A   1      28.536  31.038  22.301  1.00  0.00     0.044 C 
BRANCH   9  19
ATOM     19  C   UNL A   1      31.704  24.060  24.043  1.00  0.00     0.003 A 
ATOM     20  C   UNL A   1      32.572  19.828  24.444  1.00  0.00     0.044 C 
ATOM     21  C   UNL A   1      32.271  21.289  24.288  1.00  0.00    -0.051 A 
ATOM     22  C   UNL A   1      32.479  21.950  23.076  1.00  0.00     0.004 A 
ATOM     23  C   UNL A   1      31.774  22.014  25.376  1.00  0.00     0.007 A 
ATOM     24  C   UNL A   1      32.200  23.318  22.957  1.00  0.00     0.011 A 
ATOM     25  C   UNL A   1      31.477  23.386  25.267  1.00  0.00    -0.041 A 
ATOM     26  C   UNL A   1      30.958  24.078  26.502  1.00  0.00     0.045 C 
ENDBRANCH   9  19
ENDBRANCH   5   8
ENDBRANCH   3   4
ENDBRANCH   2   3
ENDBRANCH   1   2
BRANCH   1  27
ATOM     27  C   UNL A   1      32.537  32.491  26.925  1.00  0.00     0.116 C 
BRANCH  27  28
ATOM     28  N   UNL A   1      32.331  33.828  27.463  1.00  0.00    -0.352 N 
ATOM     29  C   UNL A   1      33.038  34.529  28.413  1.00  0.00     0.251 C 
ATOM     30  H   UNL A   1      31.558  34.309  27.086  1.00  0.00     0.163 HD
ATOM     31  O   UNL A   1      32.658  35.651  28.745  1.00  0.00    -0.269 OA
BRANCH  29  32
ATOM     32  C   UNL A   1      34.222  33.934  29.074  1.00  0.00     0.039 A 
ATOM     33  C   UNL A   1      34.028  32.943  30.042  1.00  0.00     0.014 A 
ATOM     34  C   UNL A   1      35.519  34.332  28.748  1.00  0.00     0.014 A 
ATOM     35  C   UNL A   1      35.130  32.302  30.617  1.00  0.00     0.010 A 
ATOM     36  C   UNL A   1      36.611  33.619  29.236  1.00  0.00     0.010 A 
ATOM     37  C   UNL A   1      36.433  32.605  30.187  1.00  0.00    -0.014 A 
BRANCH  37  38
ATOM     38  C   UNL A   1      37.614  31.898  30.751  1.00  0.00     0.031 A 
ATOM     39  C   UNL A   1      38.095  32.216  32.143  1.00  0.00     0.074 A 
ATOM     40  C   UNL A   1      38.284  30.999  30.003  1.00  0.00     0.049 A 
ATOM     41  N   UNL A   1      39.104  31.712  32.808  1.00  0.00    -0.248 NA
ATOM     42  C   UNL A   1      37.361  33.261  32.873  1.00  0.00     0.031 C 
ATOM     43  C   UNL A   1      37.962  30.635  28.621  1.00  0.00     0.029 A 
ATOM     44  N   UNL A   1      39.372  30.218  30.304  1.00  0.00    -0.354 N 
ATOM     45  C   UNL A   1      39.129  32.385  34.024  1.00  0.00     0.074 A 
ATOM     46  C   UNL A   1      38.087  33.387  33.972  1.00  0.00     0.031 C 
ATOM     47  C   UNL A   1      38.802  29.671  28.213  1.00  0.00     0.029 A 
ATOM     48  C   UNL A   1      39.740  29.367  29.288  1.00  0.00     0.049 A 
ATOM     49  H   UNL A   1      39.846  30.264  31.166  1.00  0.00     0.167 HD
ATOM     50  C   UNL A   1      39.916  32.167  35.104  1.00  0.00     0.037 A 
ATOM     51  C   UNL A   1      40.714  28.439  29.237  1.00  0.00     0.037 A 
ATOM     52  C   UNL A   1      40.943  31.160  35.164  1.00  0.00     0.049 A 
ATOM     53  C   UNL A   1      41.586  28.219  30.444  1.00  0.00     0.074 A 
ATOM     54  C   UNL A   1      41.775  30.834  36.221  1.00  0.00     0.029 A 
ATOM     55  N   UNL A   1      41.279  30.315  34.117  1.00  0.00    -0.354 N 
ATOM     56  N   UNL A   1      41.552  28.817  31.611  1.00  0.00    -0.248 NA
ATOM     57  C   UNL A   1      42.622  27.184  30.328  1.00  0.00     0.031 C 
ATOM     58  C   UNL A   1      42.641  29.818  35.799  1.00  0.00     0.029 A 
ATOM     59  C   UNL A   1      42.312  29.475  34.497  1.00  0.00     0.049 A 
ATOM     60  H   UNL A   1      40.845  30.312  33.232  1.00  0.00     0.167 HD
ATOM     61  C   UNL A   1      42.530  28.199  32.382  1.00  0.00     0.074 A 
ATOM     62  C   UNL A   1      43.132  27.177  31.551  1.00  0.00     0.031 C 
ATOM     63  C   UNL A   1      42.892  28.452  33.664  1.00  0.00     0.037 A 
BRANCH  50  64
ATOM     64  C   UNL A   1      39.683  33.038  36.307  1.00  0.00     0.057 A 
ATOM     65  C   UNL A   1      38.743  32.699  37.293  1.00  0.00     0.134 A 
ATOM     66  C   UNL A   1      40.393  34.232  36.482  1.00  0.00     0.134 A 
ATOM     67  F   UNL A   1      38.017  31.576  37.182  1.00  0.00    -0.206 F 
ATOM     68  C   UNL A   1      38.488  33.536  38.381  1.00  0.00     0.040 A 
ATOM     69  C   UNL A   1      40.171  35.059  37.584  1.00  0.00     0.040 A 
ATOM     70  F   UNL A   1      41.313  34.615  35.584  1.00  0.00    -0.206 F 
ATOM     71  C   UNL A   1      39.207  34.719  38.530  1.00  0.00     0.006 A 
ENDBRANCH  50  64
BRANCH  51  72
ATOM     72  C   UNL A   1      40.878  27.596  28.025  1.00  0.00     0.057 A 
ATOM     73  C   UNL A   1      40.233  26.357  27.921  1.00  0.00     0.134 A 
ATOM     74  C   UNL A   1      41.687  27.992  26.955  1.00  0.00     0.134 A 
ATOM     75  F   UNL A   1      39.459  25.913  28.923  1.00  0.00    -0.206 F 
ATOM     76  C   UNL A   1      40.403  25.533  26.807  1.00  0.00     0.040 A 
ATOM     77  C   UNL A   1      41.846  27.190  25.823  1.00  0.00     0.040 A 
ATOM     78  F   UNL A   1      42.327  29.170  26.989  1.00  0.00    -0.206 F 
ATOM     79  C   UNL A   1      41.209  25.952  25.751  1.00  0.00     0.006 A 
ENDBRANCH  51  72
BRANCH  63  80
ATOM     80  C   UNL A   1      43.946  27.567  34.266  1.00  0.00     0.057 A 
ATOM     81  C   UNL A   1      45.304  27.912  34.264  1.00  0.00     0.134 A 
ATOM     82  C   UNL A   1      43.590  26.355  34.873  1.00  0.00     0.134 A 
ATOM     83  F   UNL A   1      45.714  29.053  33.689  1.00  0.00    -0.206 F 
ATOM     84  C   UNL A   1      46.272  27.067  34.809  1.00  0.00     0.040 A 
ATOM     85  C   UNL A   1      44.545  25.516  35.449  1.00  0.00     0.040 A 
ATOM     86  F   UNL A   1      42.306  25.967  34.920  1.00  0.00    -0.206 F 
ATOM     87  C   UNL A   1      45.892  25.867  35.408  1.00  0.00     0.006 A 
ENDBRANCH  63  80
ENDBRANCH  37  38
ENDBRANCH  29  32
ENDBRANCH  27  28
ENDBRANCH   1  27
TORSDOF 12
ENDMDL
MODEL 2
REMARK VINA RESULT:     -13.5      4.933     10.174
REMARK SMILES Cc1ccc(-c2cc(C(=O)NCCCCNC(=O)c3ccc(-c4c5nc(c(-c6c(F)cccc6F)c6ccc([nH]6)c(-c6c(F)cccc6F)c6nc(c(-c7c(F)cccc7F)c7ccc4[nH]7)C=C6)C=C5)cc3)c3cc(C)ccc3n2)c(C)c1
REMARK SMILES IDX 14 1 13 2 12 3 11 4 9 5 10 6 8 8 6 9 7 10 80 11 79 12 73 13
REMARK SMILES IDX 78 14 74 15 77 16 75 17 76 18 5 19 1 20 2 21 3 22 83 23 4 24
REMARK SMILES IDX 81 25 82 26 15 27 16 28 17 29 18 31 19 32 20 33 72 34 21 35
REMARK SMILES IDX 71 36 22 37 23 38 24 39 65 40 25 41 70 42 64 43 66 44 26 45
REMARK SMILES IDX 69 46 63 47 62 48 27 50 53 51 36 52 52 53 37 54 40 55 51 56
REMARK SMILES IDX 67 57 38 58 39 59 50 61 68 62 41 63 28 64 29 65 34 66 30 67
REMARK SMILES IDX 31 68 33 69 35 70 32 71 54 72 55 73 60 74 56 75 57 76 59 77
REMARK SMILES IDX 61 78 58 79 42 80 43 81 48 82 44 83 45 84 47 85 49 86 46 87
REMARK H PARENT 11 7 16 30 66 49 40 60
REMARK Flexibility Score: inf
ROOT
ATOM      1  C   UNL A   1      37.805  19.770  24.734  1.00  0.00     0.023 C 
ENDROOT
BRANCH   1   2
ATOM      2  C   UNL A   1      36.421  20.355  25.000  1.00  0.00     0.023 C 
BRANCH   2   3
ATOM      3  C   UNL A   1      36.371  21.742  25.622  1.00  0.00     0.116 C 
BRANCH   3   4
ATOM      4  N   UNL A   1      35.523  21.923  26.788  1.00  0.00    -0.352 N 
ATOM      5  C   UNL A   1      34.142  21.991  26.878  1.00  0.00     0.252 C 
ATOM      6  O   UNL A   1      33.638  22.062  28.000  1.00  0.00    -0.269 OA
ATOM      7  H   UNL A   1      36.003  22.010  27.642  1.00  0.00     0.163 HD
BRANCH   5   8
ATOM      8  C   UNL A   1      33.247  22.094  25.683  1.00  0.00     0.051 A 
ATOM      9  C   UNL A   1      32.173  23.571  24.134  1.00  0.00     0.072 A 
ATOM     10  C   UNL A   1      32.867  23.391  25.319  1.00  0.00     0.043 A 
ATOM     11  N   UNL A   1      31.975  22.555  23.261  1.00  0.00    -0.248 NA
ATOM     12  C   UNL A   1      32.308  21.310  23.623  1.00  0.00     0.072 A 
ATOM     13  C   UNL A   1      32.825  21.004  24.891  1.00  0.00     0.013 A 
ATOM     14  C   UNL A   1      32.152  20.283  22.702  1.00  0.00     0.029 A 
ATOM     15  C   UNL A   1      32.913  19.645  25.265  1.00  0.00     0.014 A 
ATOM     16  C   UNL A   1      32.473  18.959  23.015  1.00  0.00     0.005 A 
ATOM     17  C   UNL A   1      32.833  18.624  24.315  1.00  0.00    -0.050 A 
ATOM     18  C   UNL A   1      33.296  17.240  24.662  1.00  0.00     0.044 C 
BRANCH   9  19
ATOM     19  C   UNL A   1      31.542  24.848  23.765  1.00  0.00     0.003 A 
ATOM     20  C   UNL A   1      29.664  28.625  22.751  1.00  0.00     0.044 C 
ATOM     21  C   UNL A   1      30.297  27.313  23.106  1.00  0.00    -0.051 A 
ATOM     22  C   UNL A   1      29.635  26.375  23.900  1.00  0.00     0.004 A 
ATOM     23  C   UNL A   1      31.581  27.015  22.638  1.00  0.00     0.007 A 
ATOM     24  C   UNL A   1      30.251  25.160  24.225  1.00  0.00     0.011 A 
ATOM     25  C   UNL A   1      32.207  25.792  22.946  1.00  0.00    -0.041 A 
ATOM     26  C   UNL A   1      33.597  25.573  22.403  1.00  0.00     0.045 C 
ENDBRANCH   9  19
ENDBRANCH   5   8
ENDBRANCH   3   4
ENDBRANCH   2   3
ENDBRANCH   1   2
BRANCH   1  27
ATOM     27  C   UNL A   1      38.905  20.059  25.751  1.00  0.00     0.116 C 
BRANCH  27  28
ATOM     28  N   UNL A   1      40.006  19.105  25.751  1.00  0.00    -0.352 N 
ATOM     29  C   UNL A   1      41.339  19.277  26.046  1.00  0.00     0.251 C 
ATOM     30  H   UNL A   1      39.755  18.187  25.498  1.00  0.00     0.163 HD
ATOM     31  O   UNL A   1      42.109  18.323  25.946  1.00  0.00    -0.269 OA
BRANCH  29  32
ATOM     32  C   UNL A   1      41.867  20.604  26.439  1.00  0.00     0.039 A 
ATOM     33  C   UNL A   1      42.157  21.538  25.439  1.00  0.00     0.014 A 
ATOM     34  C   UNL A   1      42.074  20.942  27.777  1.00  0.00     0.014 A 
ATOM     35  C   UNL A   1      42.571  22.828  25.786  1.00  0.00     0.010 A 
ATOM     36  C   UNL A   1      42.378  22.255  28.125  1.00  0.00     0.010 A 
ATOM     37  C   UNL A   1      42.646  23.212  27.135  1.00  0.00    -0.014 A 
BRANCH  37  38
ATOM     38  C   UNL A   1      43.037  24.594  27.522  1.00  0.00     0.031 A 
ATOM     39  C   UNL A   1      44.478  25.024  27.444  1.00  0.00     0.074 A 
ATOM     40  C   UNL A   1      42.108  25.455  27.984  1.00  0.00     0.049 A 
ATOM     41  N   UNL A   1      45.018  26.180  27.740  1.00  0.00    -0.248 NA
ATOM     42  C   UNL A   1      45.448  24.009  27.003  1.00  0.00     0.031 C 
ATOM     43  C   UNL A   1      40.686  25.154  28.164  1.00  0.00     0.029 A 
ATOM     44  N   UNL A   1      42.220  26.765  28.378  1.00  0.00    -0.354 N 
ATOM     45  C   UNL A   1      46.383  26.025  27.530  1.00  0.00     0.074 A 
ATOM     46  C   UNL A   1      46.598  24.643  27.162  1.00  0.00     0.031 C 
ATOM     47  C   UNL A   1      40.052  26.260  28.585  1.00  0.00     0.029 A 
ATOM     48  C   UNL A   1      41.023  27.339  28.736  1.00  0.00     0.049 A 
ATOM     49  H   UNL A   1      43.078  27.249  28.403  1.00  0.00     0.167 HD
ATOM     50  C   UNL A   1      47.367  26.954  27.596  1.00  0.00     0.037 A 
ATOM     51  C   UNL A   1      40.740  28.596  29.126  1.00  0.00     0.037 A 
ATOM     52  C   UNL A   1      47.152  28.333  27.947  1.00  0.00     0.049 A 
ATOM     53  C   UNL A   1      41.849  29.610  29.204  1.00  0.00     0.074 A 
ATOM     54  C   UNL A   1      48.075  29.363  28.010  1.00  0.00     0.029 A 
ATOM     55  N   UNL A   1      45.924  28.875  28.295  1.00  0.00    -0.354 N 
ATOM     56  N   UNL A   1      43.125  29.466  28.936  1.00  0.00    -0.248 NA
ATOM     57  C   UNL A   1      41.473  30.967  29.625  1.00  0.00     0.031 C 
ATOM     58  C   UNL A   1      47.411  30.519  28.437  1.00  0.00     0.029 A 
ATOM     59  C   UNL A   1      46.065  30.222  28.586  1.00  0.00     0.049 A 
ATOM     60  H   UNL A   1      45.075  28.375  28.330  1.00  0.00     0.167 HD
ATOM     61  C   UNL A   1      43.694  30.722  29.112  1.00  0.00     0.074 A 
ATOM     62  C   UNL A   1      42.622  31.614  29.502  1.00  0.00     0.031 C 
ATOM     63  C   UNL A   1      44.987  31.102  28.958  1.00  0.00     0.037 A 
BRANCH  50  64
ATOM     64  C   UNL A   1      48.761  26.495  27.273  1.00  0.00     0.057 A 
ATOM     65  C   UNL A   1      49.257  26.505  25.960  1.00  0.00     0.134 A 
ATOM     66  C   UNL A   1      49.618  26.029  28.277  1.00  0.00     0.134 A 
ATOM     67  F   UNL A   1      48.485  26.925  24.946  1.00  0.00    -0.206 F 
ATOM     68  C   UNL A   1      50.532  26.027  25.653  1.00  0.00     0.040 A 
ATOM     69  C   UNL A   1      50.908  25.581  27.988  1.00  0.00     0.040 A 
ATOM     70  F   UNL A   1      49.215  25.998  29.557  1.00  0.00    -0.206 F 
ATOM     71  C   UNL A   1      51.364  25.567  26.672  1.00  0.00     0.006 A 
ENDBRANCH  50  64
BRANCH  51  72
ATOM     72  C   UNL A   1      39.336  28.991  29.411  1.00  0.00     0.057 A 
ATOM     73  C   UNL A   1      38.792  28.833  30.692  1.00  0.00     0.134 A 
ATOM     74  C   UNL A   1      38.503  29.518  28.419  1.00  0.00     0.134 A 
ATOM     75  F   UNL A   1      39.536  28.315  31.681  1.00  0.00    -0.206 F 
ATOM     76  C   UNL A   1      37.465  29.164  30.971  1.00  0.00     0.040 A 
ATOM     77  C   UNL A   1      37.181  29.878  28.690  1.00  0.00     0.040 A 
ATOM     78  F   UNL A   1      38.965  29.702  27.173  1.00  0.00    -0.206 F 
ATOM     79  C   UNL A   1      36.657  29.694  29.968  1.00  0.00     0.006 A 
ENDBRANCH  51  72
BRANCH  63  80
ATOM     80  C   UNL A   1      45.300  32.558  29.151  1.00  0.00     0.057 A 
ATOM     81  C   UNL A   1      45.200  33.490  28.108  1.00  0.00     0.134 A 
ATOM     82  C   UNL A   1      45.694  33.037  30.407  1.00  0.00     0.134 A 
ATOM     83  F   UNL A   1      44.838  33.096  26.877  1.00  0.00    -0.206 F 
ATOM     84  C   UNL A   1      45.515  34.836  28.300  1.00  0.00     0.040 A 
ATOM     85  C   UNL A   1      45.983  34.386  30.619  1.00  0.00     0.040 A 
ATOM     86  F   UNL A   1      45.801  32.202  31.452  1.00  0.00    -0.206 F 
ATOM     87  C   UNL A   1      45.904  35.288  29.561  1.00  0.00     0.006 A 
ENDBRANCH  63  80
ENDBRANCH  37  38
ENDBRANCH  29  32
ENDBRANCH  27  28
ENDBRANCH   1  27
TORSDOF 12
ENDMDL
MODEL 3
REMARK VINA RESULT:     -13.5      4.746      9.792
REMARK SMILES Cc1ccc(-c2cc(C(=O)NCCCCNC(=O)c3ccc(-c4c5nc(c(-c6c(F)cccc6F)c6ccc([nH]6)c(-c6c(F)cccc6F)c6nc(c(-c7c(F)cccc7F)c7ccc4[nH]7)C=C6)C=C5)cc3)c3cc(C)ccc3n2)c(C)c1
REMARK SMILES IDX 14 1 13 2 12 3 11 4 9 5 10 6 8 8 6 9 7 10 80 11 79 12 73 13
REMARK SMILES IDX 78 14 74 15 77 16 75 17 76 18 5 19 1 20 2 21 3 22 83 23 4 24
REMARK SMILES IDX 81 25 82 26 15 27 16 28 17 29 18 31 19 32 20 33 72 34 21 35
REMARK SMILES IDX 71 36 22 37 23 38 24 39 65 40 25 41 70 42 64 43 66 44 26 45
REMARK SMILES IDX 69 46 63 47 62 48 27 50 53 51 36 52 52 53 37 54 40 55 51 56
REMARK SMILES IDX 67 57 38 58 39 59 50 61 68 62 41 63 28 64 29 65 34 66 30 67
REMARK SMILES IDX 31 68 33 69 35 70 32 71 54 72 55 73 60 74 56 75 57 76 59 77
REMARK SMILES IDX 61 78 58 79 42 80 43 81 48 82 44 83 45 84 47 85 49 86 46 87
REMARK H PARENT 11 7 16 30 66 49 40 60
REMARK Flexibility Score: inf
ROOT
ATOM      1  C   UNL A   1      37.770  19.691  24.781  1.00  0.00     0.023 C 
ENDROOT
BRANCH   1   2
ATOM      2  C   UNL A   1      36.399  20.322  25.001  1.00  0.00     0.023 C 
BRANCH   2   3
ATOM      3  C   UNL A   1      36.375  21.708  25.626  1.00  0.00     0.116 C 
BRANCH   3   4
ATOM      4  N   UNL A   1      35.528  21.903  26.790  1.00  0.00    -0.352 N 
ATOM      5  C   UNL A   1      34.148  21.987  26.879  1.00  0.00     0.252 C 
ATOM      6  O   UNL A   1      33.644  22.069  28.000  1.00  0.00    -0.269 OA
ATOM      7  H   UNL A   1      36.008  21.988  27.645  1.00  0.00     0.163 HD
BRANCH   5   8
ATOM      8  C   UNL A   1      33.255  22.096  25.683  1.00  0.00     0.051 A 
ATOM      9  C   UNL A   1      32.191  23.581  24.134  1.00  0.00     0.072 A 
ATOM     10  C   UNL A   1      32.883  23.396  25.319  1.00  0.00     0.043 A 
ATOM     11  N   UNL A   1      31.988  22.567  23.260  1.00  0.00    -0.248 NA
ATOM     12  C   UNL A   1      32.314  21.320  23.621  1.00  0.00     0.072 A 
ATOM     13  C   UNL A   1      32.827  21.010  24.890  1.00  0.00     0.013 A 
ATOM     14  C   UNL A   1      32.153  20.295  22.699  1.00  0.00     0.029 A 
ATOM     15  C   UNL A   1      32.906  19.650  25.263  1.00  0.00     0.014 A 
ATOM     16  C   UNL A   1      32.465  18.969  23.012  1.00  0.00     0.005 A 
ATOM     17  C   UNL A   1      32.822  18.631  24.312  1.00  0.00    -0.050 A 
ATOM     18  C   UNL A   1      33.276  17.243  24.659  1.00  0.00     0.044 C 
BRANCH   9  19
ATOM     19  C   UNL A   1      31.569  24.862  23.765  1.00  0.00     0.003 A 
ATOM     20  C   UNL A   1      29.714  28.652  22.751  1.00  0.00     0.044 C 
ATOM     21  C   UNL A   1      30.339  27.335  23.106  1.00  0.00    -0.051 A 
ATOM     22  C   UNL A   1      29.671  26.401  23.898  1.00  0.00     0.004 A 
ATOM     23  C   UNL A   1      31.622  27.030  22.639  1.00  0.00     0.007 A 
ATOM     24  C   UNL A   1      30.279  25.182  24.224  1.00  0.00     0.011 A 
ATOM     25  C   UNL A   1      32.241  25.803  22.947  1.00  0.00    -0.041 A 
ATOM     26  C   UNL A   1      33.629  25.576  22.406  1.00  0.00     0.045 C 
ENDBRANCH   9  19
ENDBRANCH   5   8
ENDBRANCH   3   4
ENDBRANCH   2   3
ENDBRANCH   1   2
BRANCH   1  27
ATOM     27  C   UNL A   1      38.891  20.076  25.742  1.00  0.00     0.116 C 
BRANCH  27  28
ATOM     28  N   UNL A   1      40.029  19.167  25.752  1.00  0.00    -0.352 N 
ATOM     29  C   UNL A   1      41.337  19.375  26.126  1.00  0.00     0.251 C 
ATOM     30  H   UNL A   1      39.830  18.255  25.439  1.00  0.00     0.163 HD
ATOM     31  O   UNL A   1      42.151  18.459  26.018  1.00  0.00    -0.269 OA
BRANCH  29  32
ATOM     32  C   UNL A   1      41.789  20.699  26.613  1.00  0.00     0.039 A 
ATOM     33  C   UNL A   1      42.191  21.661  25.681  1.00  0.00     0.014 A 
ATOM     34  C   UNL A   1      41.814  21.007  27.975  1.00  0.00     0.014 A 
ATOM     35  C   UNL A   1      42.536  22.947  26.108  1.00  0.00     0.010 A 
ATOM     36  C   UNL A   1      42.049  22.316  28.388  1.00  0.00     0.010 A 
ATOM     37  C   UNL A   1      42.428  23.299  27.463  1.00  0.00    -0.014 A 
BRANCH  37  38
ATOM     38  C   UNL A   1      42.743  24.676  27.929  1.00  0.00     0.031 A 
ATOM     39  C   UNL A   1      44.175  25.104  28.116  1.00  0.00     0.074 A 
ATOM     40  C   UNL A   1      41.746  25.535  28.225  1.00  0.00     0.049 A 
ATOM     41  N   UNL A   1      44.653  26.257  28.515  1.00  0.00    -0.248 NA
ATOM     42  C   UNL A   1      45.208  24.092  27.845  1.00  0.00     0.031 C 
ATOM     43  C   UNL A   1      40.316  25.234  28.144  1.00  0.00     0.029 A 
ATOM     44  N   UNL A   1      41.786  26.840  28.647  1.00  0.00    -0.354 N 
ATOM     45  C   UNL A   1      46.033  26.101  28.552  1.00  0.00     0.074 A 
ATOM     46  C   UNL A   1      46.311  24.723  28.215  1.00  0.00     0.031 C 
ATOM     47  C   UNL A   1      39.616  26.337  28.456  1.00  0.00     0.029 A 
ATOM     48  C   UNL A   1      40.544  27.412  28.790  1.00  0.00     0.049 A 
ATOM     49  H   UNL A   1      42.625  27.322  28.831  1.00  0.00     0.167 HD
ATOM     50  C   UNL A   1      46.990  27.027  28.804  1.00  0.00     0.037 A 
ATOM     51  C   UNL A   1      40.195  28.666  29.137  1.00  0.00     0.037 A 
ATOM     52  C   UNL A   1      46.716  28.403  29.125  1.00  0.00     0.049 A 
ATOM     53  C   UNL A   1      41.273  29.677  29.423  1.00  0.00     0.074 A 
ATOM     54  C   UNL A   1      47.611  29.431  29.364  1.00  0.00     0.029 A 
ATOM     55  N   UNL A   1      45.445  28.944  29.253  1.00  0.00    -0.354 N 
ATOM     56  N   UNL A   1      42.576  29.533  29.387  1.00  0.00    -0.248 NA
ATOM     57  C   UNL A   1      40.827  31.030  29.784  1.00  0.00     0.031 C 
ATOM     58  C   UNL A   1      46.881  30.584  29.677  1.00  0.00     0.029 A 
ATOM     59  C   UNL A   1      45.531  30.287  29.579  1.00  0.00     0.049 A 
ATOM     60  H   UNL A   1      44.604  28.446  29.130  1.00  0.00     0.167 HD
ATOM     61  C   UNL A   1      43.104  30.786  29.675  1.00  0.00     0.074 A 
ATOM     62  C   UNL A   1      41.979  31.676  29.876  1.00  0.00     0.031 C 
ATOM     63  C   UNL A   1      44.403  31.165  29.760  1.00  0.00     0.037 A 
BRANCH  50  64
ATOM     64  C   UNL A   1      48.420  26.570  28.732  1.00  0.00     0.057 A 
ATOM     65  C   UNL A   1      49.090  26.061  29.855  1.00  0.00     0.134 A 
ATOM     66  C   UNL A   1      49.141  26.644  27.534  1.00  0.00     0.134 A 
ATOM     67  F   UNL A   1      48.463  25.975  31.038  1.00  0.00    -0.206 F 
ATOM     68  C   UNL A   1      50.434  25.688  29.800  1.00  0.00     0.040 A 
ATOM     69  C   UNL A   1      50.476  26.242  27.459  1.00  0.00     0.040 A 
ATOM     70  F   UNL A   1      48.563  27.113  26.418  1.00  0.00    -0.206 F 
ATOM     71  C   UNL A   1      51.130  25.775  28.597  1.00  0.00     0.006 A 
ENDBRANCH  50  64
BRANCH  51  72
ATOM     72  C   UNL A   1      38.763  29.061  29.168  1.00  0.00     0.057 A 
ATOM     73  C   UNL A   1      38.133  29.565  28.023  1.00  0.00     0.134 A 
ATOM     74  C   UNL A   1      37.996  28.961  30.333  1.00  0.00     0.134 A 
ATOM     75  F   UNL A   1      38.822  29.703  26.880  1.00  0.00    -0.206 F 
ATOM     76  C   UNL A   1      36.799  29.976  28.041  1.00  0.00     0.040 A 
ATOM     77  C   UNL A   1      36.653  29.344  30.360  1.00  0.00     0.040 A 
ATOM     78  F   UNL A   1      38.538  28.479  31.462  1.00  0.00    -0.206 F 
ATOM     79  C   UNL A   1      36.054  29.860  29.213  1.00  0.00     0.006 A 
ENDBRANCH  51  72
BRANCH  63  80
ATOM     80  C   UNL A   1      44.677  32.619  30.021  1.00  0.00     0.057 A 
ATOM     81  C   UNL A   1      44.775  33.560  28.987  1.00  0.00     0.134 A 
ATOM     82  C   UNL A   1      44.830  33.086  31.334  1.00  0.00     0.134 A 
ATOM     83  F   UNL A   1      44.649  33.178  27.707  1.00  0.00    -0.206 F 
ATOM     84  C   UNL A   1      45.050  34.904  29.247  1.00  0.00     0.040 A 
ATOM     85  C   UNL A   1      45.075  34.432  31.608  1.00  0.00     0.040 A 
ATOM     86  F   UNL A   1      44.738  32.241  32.373  1.00  0.00    -0.206 F 
ATOM     87  C   UNL A   1      45.197  35.343  30.562  1.00  0.00     0.006 A 
ENDBRANCH  63  80
ENDBRANCH  37  38
ENDBRANCH  29  32
ENDBRANCH  27  28
ENDBRANCH   1  27
TORSDOF 12
ENDMDL
