MODEL 1
REMARK VINA RESULT:     -10.4      0.000      0.000
REMARK SMILES CC(C)(Cn1ccnc1C(N)=S)C(=O)NCCCCNC(=O)c1ccc(-c2c3nc(c(-c4c(F)cccc4F)c4ccc([nH]4)c(-c4c(F)cccc4F)c4nc(c(-c5c(F)cccc5F)c5ccc2[nH]5)C=C4)C=C3)cc1
REMARK SMILES IDX 16 1 15 2 13 3 14 4 2 6 1 7 3 8 4 9 5 10 6 11 9 12 7 13 8 14
REMARK SMILES IDX 10 15 12 16 11 17 17 20 18 21 19 22 20 23 21 24 22 26 23 27
REMARK SMILES IDX 24 28 76 29 25 30 75 31 26 32 27 33 28 34 69 35 29 36 74 37
REMARK SMILES IDX 68 38 70 39 30 40 73 41 67 42 66 43 31 45 57 46 40 47 56 48
REMARK SMILES IDX 41 49 44 50 55 51 71 52 42 53 43 54 54 56 72 57 45 58 32 59
REMARK SMILES IDX 33 60 38 61 34 62 35 63 37 64 39 65 36 66 58 67 59 68 64 69
REMARK SMILES IDX 60 70 61 71 63 72 65 73 62 74 46 75 47 76 52 77 48 78 49 79
REMARK SMILES IDX 51 80 53 81 50 82
REMARK H PARENT 15 5 11 18 11 19 20 25 70 44 44 55
REMARK Flexibility Score: inf
ROOT
ATOM      1  C   UNL A   1      33.488  31.800  27.647  1.00  0.00     0.116 C 
ENDROOT
BRANCH   1   2
ATOM      2  N   UNL A   1      34.411  30.693  27.818  1.00  0.00    -0.356 N 
ATOM      3  C   UNL A   1      34.454  29.422  27.337  1.00  0.00     0.227 C 
ATOM      4  O   UNL A   1      35.465  28.780  27.638  1.00  0.00    -0.274 OA
ATOM      5  H   UNL A   1      35.170  30.909  28.408  1.00  0.00     0.163 HD
BRANCH   3   6
ATOM      6  C   UNL A   1      33.339  28.795  26.478  1.00  0.00     0.061 C 
ATOM      7  C   UNL A   1      32.007  28.894  27.263  1.00  0.00     0.023 C 
ATOM      8  C   UNL A   1      33.573  27.281  26.293  1.00  0.00     0.023 C 
BRANCH   6   9
ATOM      9  C   UNL A   1      33.218  29.507  25.104  1.00  0.00     0.140 C 
BRANCH   9  10
ATOM     10  N   UNL A   1      32.096  29.115  24.261  1.00  0.00    -0.328 N 
ATOM     11  C   UNL A   1      30.815  29.585  24.421  1.00  0.00     0.108 A 
ATOM     12  C   UNL A   1      32.077  28.244  23.185  1.00  0.00     0.167 A 
ATOM     13  C   UNL A   1      30.047  28.883  23.529  1.00  0.00     0.131 A 
ATOM     14  N   UNL A   1      30.824  28.030  22.802  1.00  0.00    -0.235 NA
BRANCH  12  15
ATOM     15  C   UNL A   1      33.152  27.516  22.548  1.00  0.00     0.140 C 
ATOM     16  S   UNL A   1      33.479  25.913  22.845  1.00  0.00    -0.057 S 
BRANCH  15  17
ATOM     17  N   UNL A   1      33.946  28.253  21.714  1.00  0.00    -0.387 N 
ATOM     18  H   UNL A   1      33.848  28.166  20.738  1.00  0.00     0.157 HD
ATOM     19  H   UNL A   1      34.615  28.869  22.088  1.00  0.00     0.157 HD
ENDBRANCH  15  17
ENDBRANCH  12  15
ENDBRANCH   9  10
ENDBRANCH   6   9
ENDBRANCH   3   6
ENDBRANCH   1   2
BRANCH   1  20
ATOM     20  C   UNL A   1      34.086  33.152  28.041  1.00  0.00     0.023 C 
BRANCH  20  21
ATOM     21  C   UNL A   1      33.094  34.230  28.492  1.00  0.00     0.023 C 
BRANCH  21  22
ATOM     22  C   UNL A   1      33.736  35.416  29.200  1.00  0.00     0.116 C 
BRANCH  22  23
ATOM     23  N   UNL A   1      33.097  35.712  30.476  1.00  0.00    -0.352 N 
ATOM     24  C   UNL A   1      33.245  35.055  31.680  1.00  0.00     0.251 C 
ATOM     25  H   UNL A   1      32.480  36.479  30.479  1.00  0.00     0.163 HD
ATOM     26  O   UNL A   1      32.393  35.151  32.549  1.00  0.00    -0.269 OA
BRANCH  24  27
ATOM     27  C   UNL A   1      34.446  34.228  31.903  1.00  0.00     0.039 A 
ATOM     28  C   UNL A   1      34.376  32.842  31.758  1.00  0.00     0.014 A 
ATOM     29  C   UNL A   1      35.647  34.849  32.250  1.00  0.00     0.014 A 
ATOM     30  C   UNL A   1      35.547  32.098  31.869  1.00  0.00     0.010 A 
ATOM     31  C   UNL A   1      36.822  34.127  32.256  1.00  0.00     0.010 A 
ATOM     32  C   UNL A   1      36.778  32.748  32.079  1.00  0.00    -0.014 A 
BRANCH  32  33
ATOM     33  C   UNL A   1      38.026  32.005  31.882  1.00  0.00     0.031 A 
ATOM     34  C   UNL A   1      38.712  31.704  33.166  1.00  0.00     0.074 A 
ATOM     35  C   UNL A   1      38.443  31.468  30.713  1.00  0.00     0.049 A 
ATOM     36  N   UNL A   1      39.788  32.258  33.614  1.00  0.00    -0.248 NA
ATOM     37  C   UNL A   1      38.043  30.833  34.148  1.00  0.00     0.031 C 
ATOM     38  C   UNL A   1      37.710  31.431  29.443  1.00  0.00     0.029 A 
ATOM     39  N   UNL A   1      39.578  30.756  30.423  1.00  0.00    -0.354 N 
ATOM     40  C   UNL A   1      40.082  31.593  34.802  1.00  0.00     0.074 A 
ATOM     41  C   UNL A   1      38.878  30.913  35.189  1.00  0.00     0.031 C 
ATOM     42  C   UNL A   1      38.300  30.554  28.600  1.00  0.00     0.029 A 
ATOM     43  C   UNL A   1      39.544  30.097  29.194  1.00  0.00     0.049 A 
ATOM     44  H   UNL A   1      40.352  30.714  31.030  1.00  0.00     0.167 HD
ATOM     45  C   UNL A   1      41.384  31.378  35.140  1.00  0.00     0.037 A 
ATOM     46  C   UNL A   1      40.473  29.252  28.678  1.00  0.00     0.037 A 
ATOM     47  C   UNL A   1      42.250  32.206  34.335  1.00  0.00     0.049 A 
ATOM     48  C   UNL A   1      41.753  29.531  29.358  1.00  0.00     0.074 A 
ATOM     49  C   UNL A   1      42.581  33.539  34.240  1.00  0.00     0.029 A 
ATOM     50  N   UNL A   1      42.604  31.613  33.155  1.00  0.00    -0.354 N 
ATOM     51  N   UNL A   1      42.446  30.614  29.158  1.00  0.00    -0.248 NA
ATOM     52  C   UNL A   1      42.142  28.739  30.518  1.00  0.00     0.031 C 
ATOM     53  C   UNL A   1      43.031  33.745  32.900  1.00  0.00     0.029 A 
ATOM     54  C   UNL A   1      43.015  32.527  32.227  1.00  0.00     0.049 A 
ATOM     55  H   UNL A   1      42.567  30.643  32.992  1.00  0.00     0.167 HD
ATOM     56  C   UNL A   1      43.007  30.874  30.388  1.00  0.00     0.074 A 
ATOM     57  C   UNL A   1      42.966  29.608  31.108  1.00  0.00     0.031 C 
ATOM     58  C   UNL A   1      43.110  32.158  30.835  1.00  0.00     0.037 A 
BRANCH  45  59
ATOM     59  C   UNL A   1      41.919  30.080  35.726  1.00  0.00     0.057 A 
ATOM     60  C   UNL A   1      42.925  30.155  36.711  1.00  0.00     0.134 A 
ATOM     61  C   UNL A   1      41.757  28.805  35.146  1.00  0.00     0.134 A 
ATOM     62  F   UNL A   1      43.192  31.311  37.336  1.00  0.00    -0.206 F 
ATOM     63  C   UNL A   1      43.757  29.071  37.028  1.00  0.00     0.040 A 
ATOM     64  C   UNL A   1      42.552  27.705  35.488  1.00  0.00     0.040 A 
ATOM     65  F   UNL A   1      40.901  28.566  34.149  1.00  0.00    -0.206 F 
ATOM     66  C   UNL A   1      43.578  27.843  36.407  1.00  0.00     0.006 A 
ENDBRANCH  45  59
BRANCH  46  67
ATOM     67  C   UNL A   1      40.373  28.143  27.702  1.00  0.00     0.057 A 
ATOM     68  C   UNL A   1      41.125  28.149  26.515  1.00  0.00     0.134 A 
ATOM     69  C   UNL A   1      39.792  26.916  28.057  1.00  0.00     0.134 A 
ATOM     70  F   UNL A   1      41.734  29.268  26.096  1.00  0.00    -0.206 F 
ATOM     71  C   UNL A   1      41.340  26.990  25.758  1.00  0.00     0.040 A 
ATOM     72  C   UNL A   1      39.996  25.751  27.308  1.00  0.00     0.040 A 
ATOM     73  F   UNL A   1      39.091  26.791  29.194  1.00  0.00    -0.206 F 
ATOM     74  C   UNL A   1      40.791  25.780  26.167  1.00  0.00     0.006 A 
ENDBRANCH  46  67
BRANCH  58  75
ATOM     75  C   UNL A   1      43.177  33.238  29.804  1.00  0.00     0.057 A 
ATOM     76  C   UNL A   1      42.113  34.073  29.439  1.00  0.00     0.134 A 
ATOM     77  C   UNL A   1      44.409  33.460  29.178  1.00  0.00     0.134 A 
ATOM     78  F   UNL A   1      40.917  33.979  30.035  1.00  0.00    -0.206 F 
ATOM     79  C   UNL A   1      42.263  35.058  28.458  1.00  0.00     0.040 A 
ATOM     80  C   UNL A   1      44.580  34.462  28.224  1.00  0.00     0.040 A 
ATOM     81  F   UNL A   1      45.478  32.715  29.504  1.00  0.00    -0.206 F 
ATOM     82  C   UNL A   1      43.502  35.257  27.851  1.00  0.00     0.006 A 
ENDBRANCH  58  75
ENDBRANCH  32  33
ENDBRANCH  24  27
ENDBRANCH  22  23
ENDBRANCH  21  22
ENDBRANCH  20  21
ENDBRANCH   1  20
TORSDOF 15
ENDMDL
MODEL 2
REMARK VINA RESULT:     -10.3      4.459      9.610
REMARK SMILES CC(C)(Cn1ccnc1C(N)=S)C(=O)NCCCCNC(=O)c1ccc(-c2c3nc(c(-c4c(F)cccc4F)c4ccc([nH]4)c(-c4c(F)cccc4F)c4nc(c(-c5c(F)cccc5F)c5ccc2[nH]5)C=C4)C=C3)cc1
REMARK SMILES IDX 16 1 15 2 13 3 14 4 2 6 1 7 3 8 4 9 5 10 6 11 9 12 7 13 8 14
REMARK SMILES IDX 10 15 12 16 11 17 17 20 18 21 19 22 20 23 21 24 22 26 23 27
REMARK SMILES IDX 24 28 76 29 25 30 75 31 26 32 27 33 28 34 69 35 29 36 74 37
REMARK SMILES IDX 68 38 70 39 30 40 73 41 67 42 66 43 31 45 57 46 40 47 56 48
REMARK SMILES IDX 41 49 44 50 55 51 71 52 42 53 43 54 54 56 72 57 45 58 32 59
REMARK SMILES IDX 33 60 38 61 34 62 35 63 37 64 39 65 36 66 58 67 59 68 64 69
REMARK SMILES IDX 60 70 61 71 63 72 65 73 62 74 46 75 47 76 52 77 48 78 49 79
REMARK SMILES IDX 51 80 53 81 50 82
REMARK H PARENT 15 5 11 18 11 19 20 25 70 44 44 55
REMARK Flexibility Score: inf
ROOT
ATOM      1  C   UNL A   1      38.719  21.898  25.596  1.00  0.00     0.116 C 
ENDROOT
BRANCH   1   2
ATOM      2  N   UNL A   1      37.531  21.066  25.539  1.00  0.00    -0.356 N 
ATOM      3  C   UNL A   1      36.279  21.250  25.042  1.00  0.00     0.227 C 
ATOM      4  O   UNL A   1      35.541  20.261  25.099  1.00  0.00    -0.274 OA
ATOM      5  H   UNL A   1      37.659  20.180  25.948  1.00  0.00     0.163 HD
BRANCH   3   6
ATOM      6  C   UNL A   1      35.783  22.579  24.443  1.00  0.00     0.061 C 
ATOM      7  C   UNL A   1      36.666  22.920  23.217  1.00  0.00     0.023 C 
ATOM      8  C   UNL A   1      36.013  23.746  25.427  1.00  0.00     0.023 C 
BRANCH   6   9
ATOM      9  C   UNL A   1      34.288  22.491  24.033  1.00  0.00     0.140 C 
BRANCH   9  10
ATOM     10  N   UNL A   1      33.435  23.605  24.422  1.00  0.00    -0.328 N 
ATOM     11  C   UNL A   1      33.337  24.780  23.716  1.00  0.00     0.108 A 
ATOM     12  C   UNL A   1      32.592  23.717  25.514  1.00  0.00     0.167 A 
ATOM     13  C   UNL A   1      32.546  25.604  24.473  1.00  0.00     0.131 A 
ATOM     14  N   UNL A   1      32.128  24.958  25.598  1.00  0.00    -0.235 NA
BRANCH  12  15
ATOM     15  C   UNL A   1      32.264  22.761  26.549  1.00  0.00     0.140 C 
ATOM     16  S   UNL A   1      33.365  22.196  27.660  1.00  0.00    -0.057 S 
BRANCH  15  17
ATOM     17  N   UNL A   1      30.983  22.286  26.524  1.00  0.00    -0.387 N 
ATOM     18  H   UNL A   1      30.680  21.650  27.212  1.00  0.00     0.157 HD
ATOM     19  H   UNL A   1      30.363  22.579  25.818  1.00  0.00     0.157 HD
ENDBRANCH  15  17
ENDBRANCH  12  15
ENDBRANCH   9  10
ENDBRANCH   6   9
ENDBRANCH   3   6
ENDBRANCH   1   2
BRANCH   1  20
ATOM     20  C   UNL A   1      39.787  21.362  26.552  1.00  0.00     0.023 C 
BRANCH  20  21
ATOM     21  C   UNL A   1      40.573  20.134  26.076  1.00  0.00     0.023 C 
BRANCH  21  22
ATOM     22  C   UNL A   1      41.831  19.844  26.883  1.00  0.00     0.116 C 
BRANCH  22  23
ATOM     23  N   UNL A   1      42.968  19.506  26.035  1.00  0.00    -0.352 N 
ATOM     24  C   UNL A   1      43.771  20.354  25.302  1.00  0.00     0.251 C 
ATOM     25  H   UNL A   1      43.190  18.549  25.978  1.00  0.00     0.163 HD
ATOM     26  O   UNL A   1      44.422  19.934  24.360  1.00  0.00    -0.269 OA
BRANCH  24  27
ATOM     27  C   UNL A   1      43.828  21.782  25.667  1.00  0.00     0.039 A 
ATOM     28  C   UNL A   1      43.029  22.708  24.995  1.00  0.00     0.014 A 
ATOM     29  C   UNL A   1      44.680  22.190  26.696  1.00  0.00     0.014 A 
ATOM     30  C   UNL A   1      43.024  24.029  25.433  1.00  0.00     0.010 A 
ATOM     31  C   UNL A   1      44.597  23.472  27.195  1.00  0.00     0.010 A 
ATOM     32  C   UNL A   1      43.781  24.402  26.560  1.00  0.00    -0.014 A 
BRANCH  32  33
ATOM     33  C   UNL A   1      43.530  25.697  27.197  1.00  0.00     0.031 A 
ATOM     34  C   UNL A   1      44.524  26.727  26.793  1.00  0.00     0.074 A 
ATOM     35  C   UNL A   1      42.432  26.019  27.918  1.00  0.00     0.049 A 
ATOM     36  N   UNL A   1      45.478  27.205  27.517  1.00  0.00    -0.248 NA
ATOM     37  C   UNL A   1      44.591  27.140  25.380  1.00  0.00     0.031 C 
ATOM     38  C   UNL A   1      41.240  25.192  28.132  1.00  0.00     0.029 A 
ATOM     39  N   UNL A   1      42.099  27.191  28.545  1.00  0.00    -0.354 N 
ATOM     40  C   UNL A   1      46.081  28.189  26.738  1.00  0.00     0.074 A 
ATOM     41  C   UNL A   1      45.660  27.943  25.387  1.00  0.00     0.031 C 
ATOM     42  C   UNL A   1      40.239  25.952  28.632  1.00  0.00     0.029 A 
ATOM     43  C   UNL A   1      40.762  27.272  28.938  1.00  0.00     0.049 A 
ATOM     44  H   UNL A   1      42.747  27.914  28.706  1.00  0.00     0.167 HD
ATOM     45  C   UNL A   1      46.564  29.313  27.338  1.00  0.00     0.037 A 
ATOM     46  C   UNL A   1      40.122  28.332  29.495  1.00  0.00     0.037 A 
ATOM     47  C   UNL A   1      46.660  29.111  28.765  1.00  0.00     0.049 A 
ATOM     48  C   UNL A   1      41.149  29.201  30.103  1.00  0.00     0.074 A 
ATOM     49  C   UNL A   1      47.452  28.403  29.639  1.00  0.00     0.029 A 
ATOM     50  N   UNL A   1      45.503  29.424  29.424  1.00  0.00    -0.354 N 
ATOM     51  N   UNL A   1      41.811  28.878  31.176  1.00  0.00    -0.248 NA
ATOM     52  C   UNL A   1      41.682  30.328  29.348  1.00  0.00     0.031 C 
ATOM     53  C   UNL A   1      46.664  28.193  30.812  1.00  0.00     0.029 A 
ATOM     54  C   UNL A   1      45.434  28.822  30.647  1.00  0.00     0.049 A 
ATOM     55  H   UNL A   1      44.803  30.013  29.060  1.00  0.00     0.167 HD
ATOM     56  C   UNL A   1      43.058  29.426  30.966  1.00  0.00     0.074 A 
ATOM     57  C   UNL A   1      42.861  30.460  29.958  1.00  0.00     0.031 C 
ATOM     58  C   UNL A   1      44.176  28.748  31.350  1.00  0.00     0.037 A 
BRANCH  45  59
ATOM     59  C   UNL A   1      46.400  30.721  26.788  1.00  0.00     0.057 A 
ATOM     60  C   UNL A   1      47.506  31.594  26.843  1.00  0.00     0.134 A 
ATOM     61  C   UNL A   1      45.164  31.353  26.541  1.00  0.00     0.134 A 
ATOM     62  F   UNL A   1      48.741  31.126  27.083  1.00  0.00    -0.206 F 
ATOM     63  C   UNL A   1      47.378  32.987  26.746  1.00  0.00     0.040 A 
ATOM     64  C   UNL A   1      45.031  32.739  26.397  1.00  0.00     0.040 A 
ATOM     65  F   UNL A   1      44.003  30.693  26.525  1.00  0.00    -0.206 F 
ATOM     66  C   UNL A   1      46.134  33.564  26.532  1.00  0.00     0.006 A 
ENDBRANCH  45  59
BRANCH  46  67
ATOM     67  C   UNL A   1      38.700  28.745  29.495  1.00  0.00     0.057 A 
ATOM     68  C   UNL A   1      37.933  28.711  30.673  1.00  0.00     0.134 A 
ATOM     69  C   UNL A   1      38.159  29.478  28.429  1.00  0.00     0.134 A 
ATOM     70  F   UNL A   1      38.370  28.050  31.755  1.00  0.00    -0.206 F 
ATOM     71  C   UNL A   1      36.729  29.415  30.803  1.00  0.00     0.040 A 
ATOM     72  C   UNL A   1      36.955  30.184  28.545  1.00  0.00     0.040 A 
ATOM     73  F   UNL A   1      38.830  29.610  27.275  1.00  0.00    -0.206 F 
ATOM     74  C   UNL A   1      36.248  30.173  29.742  1.00  0.00     0.006 A 
ENDBRANCH  46  67
BRANCH  58  75
ATOM     75  C   UNL A   1      44.032  27.771  32.472  1.00  0.00     0.057 A 
ATOM     76  C   UNL A   1      43.901  28.110  33.826  1.00  0.00     0.134 A 
ATOM     77  C   UNL A   1      43.987  26.411  32.147  1.00  0.00     0.134 A 
ATOM     78  F   UNL A   1      43.863  29.389  34.224  1.00  0.00    -0.206 F 
ATOM     79  C   UNL A   1      43.775  27.128  34.813  1.00  0.00     0.040 A 
ATOM     80  C   UNL A   1      43.826  25.425  33.119  1.00  0.00     0.040 A 
ATOM     81  F   UNL A   1      44.076  26.020  30.864  1.00  0.00    -0.206 F 
ATOM     82  C   UNL A   1      43.733  25.781  34.460  1.00  0.00     0.006 A 
ENDBRANCH  58  75
ENDBRANCH  32  33
ENDBRANCH  24  27
ENDBRANCH  22  23
ENDBRANCH  21  22
ENDBRANCH  20  21
ENDBRANCH   1  20
TORSDOF 15
ENDMDL
MODEL 3
REMARK VINA RESULT:     -10.2      4.701      9.472
REMARK SMILES CC(C)(Cn1ccnc1C(N)=S)C(=O)NCCCCNC(=O)c1ccc(-c2c3nc(c(-c4c(F)cccc4F)c4ccc([nH]4)c(-c4c(F)cccc4F)c4nc(c(-c5c(F)cccc5F)c5ccc2[nH]5)C=C4)C=C3)cc1
REMARK SMILES IDX 16 1 15 2 13 3 14 4 2 6 1 7 3 8 4 9 5 10 6 11 9 12 7 13 8 14
REMARK SMILES IDX 10 15 12 16 11 17 17 20 18 21 19 22 20 23 21 24 22 26 23 27
REMARK SMILES IDX 24 28 76 29 25 30 75 31 26 32 27 33 28 34 69 35 29 36 74 37
REMARK SMILES IDX 68 38 70 39 30 40 73 41 67 42 66 43 31 45 57 46 40 47 56 48
REMARK SMILES IDX 41 49 44 50 55 51 71 52 42 53 43 54 54 56 72 57 45 58 32 59
REMARK SMILES IDX 33 60 38 61 34 62 35 63 37 64 39 65 36 66 58 67 59 68 64 69
REMARK SMILES IDX 60 70 61 71 63 72 65 73 62 74 46 75 47 76 52 77 48 78 49 79
REMARK SMILES IDX 51 80 53 81 50 82
REMARK H PARENT 15 5 11 18 11 19 20 25 70 44 44 55
REMARK Flexibility Score: inf
ROOT
ATOM      1  C   UNL A   1      38.131  23.105  26.047  1.00  0.00     0.116 C 
ENDROOT
BRANCH   1   2
ATOM      2  N   UNL A   1      37.745  23.138  24.648  1.00  0.00    -0.356 N 
ATOM      3  C   UNL A   1      36.632  22.745  23.972  1.00  0.00     0.227 C 
ATOM      4  O   UNL A   1      36.625  23.018  22.767  1.00  0.00    -0.274 OA
ATOM      5  H   UNL A   1      38.435  23.528  24.064  1.00  0.00     0.163 HD
BRANCH   3   6
ATOM      6  C   UNL A   1      35.447  22.011  24.627  1.00  0.00     0.061 C 
ATOM      7  C   UNL A   1      35.151  22.686  25.990  1.00  0.00     0.023 C 
ATOM      8  C   UNL A   1      35.829  20.559  24.985  1.00  0.00     0.023 C 
BRANCH   6   9
ATOM      9  C   UNL A   1      34.190  22.043  23.718  1.00  0.00     0.140 C 
BRANCH   9  10
ATOM     10  N   UNL A   1      32.896  22.057  24.388  1.00  0.00    -0.328 N 
ATOM     11  C   UNL A   1      32.121  23.182  24.537  1.00  0.00     0.108 A 
ATOM     12  C   UNL A   1      32.211  21.011  24.981  1.00  0.00     0.167 A 
ATOM     13  C   UNL A   1      31.066  22.805  25.326  1.00  0.00     0.131 A 
ATOM     14  N   UNL A   1      31.152  21.478  25.631  1.00  0.00    -0.235 NA
BRANCH  12  15
ATOM     15  C   UNL A   1      32.536  19.604  25.066  1.00  0.00     0.140 C 
ATOM     16  S   UNL A   1      32.509  18.575  23.761  1.00  0.00    -0.057 S 
BRANCH  15  17
ATOM     17  N   UNL A   1      32.813  19.141  26.322  1.00  0.00    -0.387 N 
ATOM     18  H   UNL A   1      33.747  19.076  26.628  1.00  0.00     0.157 HD
ATOM     19  H   UNL A   1      32.080  18.871  26.920  1.00  0.00     0.157 HD
ENDBRANCH  15  17
ENDBRANCH  12  15
ENDBRANCH   9  10
ENDBRANCH   6   9
ENDBRANCH   3   6
ENDBRANCH   1   2
BRANCH   1  20
ATOM     20  C   UNL A   1      39.371  22.247  26.310  1.00  0.00     0.023 C 
BRANCH  20  21
ATOM     21  C   UNL A   1      39.437  20.903  25.577  1.00  0.00     0.023 C 
BRANCH  21  22
ATOM     22  C   UNL A   1      40.003  19.761  26.411  1.00  0.00     0.116 C 
BRANCH  22  23
ATOM     23  N   UNL A   1      41.247  19.236  25.860  1.00  0.00    -0.352 N 
ATOM     24  C   UNL A   1      42.445  19.895  25.672  1.00  0.00     0.251 C 
ATOM     25  H   UNL A   1      41.230  18.291  25.588  1.00  0.00     0.163 HD
ATOM     26  O   UNL A   1      43.266  19.475  24.873  1.00  0.00    -0.269 OA
BRANCH  24  27
ATOM     27  C   UNL A   1      42.719  21.121  26.445  1.00  0.00     0.039 A 
ATOM     28  C   UNL A   1      43.039  22.308  25.784  1.00  0.00     0.014 A 
ATOM     29  C   UNL A   1      42.644  21.080  27.839  1.00  0.00     0.014 A 
ATOM     30  C   UNL A   1      43.186  23.471  26.532  1.00  0.00     0.010 A 
ATOM     31  C   UNL A   1      42.687  22.248  28.569  1.00  0.00     0.010 A 
ATOM     32  C   UNL A   1      42.971  23.448  27.923  1.00  0.00    -0.014 A 
BRANCH  32  33
ATOM     33  C   UNL A   1      42.818  24.712  28.649  1.00  0.00     0.031 A 
ATOM     34  C   UNL A   1      41.566  25.425  28.282  1.00  0.00     0.074 A 
ATOM     35  C   UNL A   1      43.593  25.126  29.677  1.00  0.00     0.049 A 
ATOM     36  N   UNL A   1      41.468  26.492  27.563  1.00  0.00    -0.248 NA
ATOM     37  C   UNL A   1      40.268  24.794  28.581  1.00  0.00     0.031 C 
ATOM     38  C   UNL A   1      44.668  24.375  30.334  1.00  0.00     0.029 A 
ATOM     39  N   UNL A   1      43.533  26.275  30.421  1.00  0.00    -0.354 N 
ATOM     40  C   UNL A   1      40.116  26.822  27.567  1.00  0.00     0.074 A 
ATOM     41  C   UNL A   1      39.417  25.642  27.995  1.00  0.00     0.031 C 
ATOM     42  C   UNL A   1      44.999  24.976  31.499  1.00  0.00     0.029 A 
ATOM     43  C   UNL A   1      44.291  26.240  31.592  1.00  0.00     0.049 A 
ATOM     44  H   UNL A   1      43.001  27.059  30.153  1.00  0.00     0.167 HD
ATOM     45  C   UNL A   1      39.749  28.134  27.571  1.00  0.00     0.037 A 
ATOM     46  C   UNL A   1      44.360  27.184  32.567  1.00  0.00     0.037 A 
ATOM     47  C   UNL A   1      40.876  28.965  27.220  1.00  0.00     0.049 A 
ATOM     48  C   UNL A   1      43.932  28.466  31.973  1.00  0.00     0.074 A 
ATOM     49  C   UNL A   1      41.611  29.259  26.094  1.00  0.00     0.029 A 
ATOM     50  N   UNL A   1      41.633  29.318  28.303  1.00  0.00    -0.354 N 
ATOM     51  N   UNL A   1      44.647  29.127  31.110  1.00  0.00    -0.248 NA
ATOM     52  C   UNL A   1      42.544  28.893  32.101  1.00  0.00     0.031 C 
ATOM     53  C   UNL A   1      42.895  29.684  26.553  1.00  0.00     0.029 A 
ATOM     54  C   UNL A   1      42.896  29.690  27.945  1.00  0.00     0.049 A 
ATOM     55  H   UNL A   1      41.307  29.303  29.232  1.00  0.00     0.167 HD
ATOM     56  C   UNL A   1      43.710  29.699  30.279  1.00  0.00     0.074 A 
ATOM     57  C   UNL A   1      42.468  29.702  31.041  1.00  0.00     0.031 C 
ATOM     58  C   UNL A   1      43.940  29.774  28.938  1.00  0.00     0.037 A 
BRANCH  45  59
ATOM     59  C   UNL A   1      38.625  28.712  28.416  1.00  0.00     0.057 A 
ATOM     60  C   UNL A   1      37.815  29.721  27.855  1.00  0.00     0.134 A 
ATOM     61  C   UNL A   1      38.519  28.586  29.817  1.00  0.00     0.134 A 
ATOM     62  F   UNL A   1      37.826  29.957  26.534  1.00  0.00    -0.206 F 
ATOM     63  C   UNL A   1      37.036  30.588  28.633  1.00  0.00     0.040 A 
ATOM     64  C   UNL A   1      37.709  29.416  30.599  1.00  0.00     0.040 A 
ATOM     65  F   UNL A   1      39.263  27.731  30.525  1.00  0.00    -0.206 F 
ATOM     66  C   UNL A   1      36.989  30.443  30.013  1.00  0.00     0.006 A 
ENDBRANCH  45  59
BRANCH  46  67
ATOM     67  C   UNL A   1      44.676  27.098  34.010  1.00  0.00     0.057 A 
ATOM     68  C   UNL A   1      45.731  27.842  34.568  1.00  0.00     0.134 A 
ATOM     69  C   UNL A   1      43.765  26.544  34.920  1.00  0.00     0.134 A 
ATOM     70  F   UNL A   1      46.646  28.427  33.782  1.00  0.00    -0.206 F 
ATOM     71  C   UNL A   1      45.836  28.074  35.946  1.00  0.00     0.040 A 
ATOM     72  C   UNL A   1      43.861  26.766  36.300  1.00  0.00     0.040 A 
ATOM     73  F   UNL A   1      42.698  25.853  34.491  1.00  0.00    -0.206 F 
ATOM     74  C   UNL A   1      44.886  27.552  36.814  1.00  0.00     0.006 A 
ENDBRANCH  46  67
BRANCH  58  75
ATOM     75  C   UNL A   1      45.365  29.797  28.489  1.00  0.00     0.057 A 
ATOM     76  C   UNL A   1      46.129  28.667  28.167  1.00  0.00     0.134 A 
ATOM     77  C   UNL A   1      45.979  31.046  28.341  1.00  0.00     0.134 A 
ATOM     78  F   UNL A   1      45.604  27.435  28.212  1.00  0.00    -0.206 F 
ATOM     79  C   UNL A   1      47.461  28.780  27.758  1.00  0.00     0.040 A 
ATOM     80  C   UNL A   1      47.294  31.174  27.901  1.00  0.00     0.040 A 
ATOM     81  F   UNL A   1      45.292  32.171  28.604  1.00  0.00    -0.206 F 
ATOM     82  C   UNL A   1      48.045  30.038  27.620  1.00  0.00     0.006 A 
ENDBRANCH  58  75
ENDBRANCH  32  33
ENDBRANCH  24  27
ENDBRANCH  22  23
ENDBRANCH  21  22
ENDBRANCH  20  21
ENDBRANCH   1  20
TORSDOF 15
ENDMDL
