MODEL 1
REMARK VINA RESULT:      -9.8      0.000      0.000
REMARK SMILES O=C(Cc1ccn(C(F)F)c(=O)c1)NCCCCNC(=O)c1ccc(-c2c3nc(c(-c4c(F)cccc4F)c4ccc([nH]4)c(-c4c(F)cccc4F)c4nc(c(-c5c(F)cccc5F)c5ccc2[nH]5)C=C4)C=C3)cc1
REMARK SMILES IDX 16 1 15 2 14 3 1 4 2 5 3 7 4 8 5 9 13 10 6 11 11 12 7 13
REMARK SMILES IDX 12 14 8 15 9 16 10 17 17 18 18 19 19 20 20 21 21 23 22 24
REMARK SMILES IDX 23 25 75 26 24 27 74 28 25 29 26 30 27 31 68 32 28 33 73 34
REMARK SMILES IDX 67 35 69 36 29 37 72 38 66 39 65 40 30 42 56 43 39 44 55 45
REMARK SMILES IDX 40 46 43 47 54 48 70 49 41 50 42 51 53 53 71 54 44 55 31 56
REMARK SMILES IDX 32 57 37 58 33 59 34 60 36 61 38 62 35 63 57 64 58 65 63 66
REMARK SMILES IDX 59 67 60 68 62 69 64 70 61 71 45 72 46 73 51 74 47 75 48 76
REMARK SMILES IDX 50 77 52 78 49 79
REMARK H PARENT 14 6 19 22 69 41 43 52
REMARK Flexibility Score: inf
ROOT
ATOM      1  C   UNL A   1      34.527  35.762  33.522  1.00  0.00     0.023 C 
ENDROOT
BRANCH   1   2
ATOM      2  C   UNL A   1      34.744  34.324  33.995  1.00  0.00     0.116 C 
BRANCH   2   3
ATOM      3  N   UNL A   1      36.147  33.968  34.049  1.00  0.00    -0.356 N 
ATOM      4  O   UNL A   1      36.176  33.358  36.269  1.00  0.00    -0.275 OA
ATOM      5  C   UNL A   1      36.754  33.495  35.196  1.00  0.00     0.224 C 
ATOM      6  H   UNL A   1      36.691  34.067  33.234  1.00  0.00     0.163 HD
BRANCH   5   7
ATOM      7  C   UNL A   1      38.222  33.131  35.003  1.00  0.00     0.135 C 
BRANCH   7   8
ATOM      8  C   UNL A   1      38.351  31.801  34.310  1.00  0.00    -0.032 A 
ATOM      9  C   UNL A   1      39.599  31.074  34.435  1.00  0.00     0.022 A 
ATOM     10  C   UNL A   1      37.373  31.289  33.543  1.00  0.00     0.076 A 
ATOM     11  C   UNL A   1      39.776  29.918  33.784  1.00  0.00     0.095 A 
ATOM     12  C   UNL A   1      37.536  29.978  32.855  1.00  0.00     0.255 A 
ATOM     13  N   UNL A   1      38.773  29.375  33.000  1.00  0.00    -0.258 N 
ATOM     14  O   UNL A   1      36.585  29.536  32.219  1.00  0.00    -0.269 OA
BRANCH  13  15
ATOM     15  C   UNL A   1      38.974  28.127  32.309  1.00  0.00     0.451 C 
ATOM     16  F   UNL A   1      40.259  27.712  32.420  1.00  0.00    -0.185 F 
ATOM     17  F   UNL A   1      38.175  27.157  32.816  1.00  0.00    -0.185 F 
ENDBRANCH  13  15
ENDBRANCH   7   8
ENDBRANCH   5   7
ENDBRANCH   2   3
ENDBRANCH   1   2
BRANCH   1  18
ATOM     18  C   UNL A   1      33.369  35.968  32.541  1.00  0.00     0.023 C 
BRANCH  18  19
ATOM     19  C   UNL A   1      33.763  36.450  31.149  1.00  0.00     0.116 C 
BRANCH  19  20
ATOM     20  N   UNL A   1      32.908  35.917  30.100  1.00  0.00    -0.352 N 
ATOM     21  C   UNL A   1      33.147  34.892  29.213  1.00  0.00     0.251 C 
ATOM     22  H   UNL A   1      32.031  36.354  30.010  1.00  0.00     0.163 HD
ATOM     23  O   UNL A   1      32.355  34.672  28.300  1.00  0.00    -0.269 OA
BRANCH  21  24
ATOM     24  C   UNL A   1      34.382  34.080  29.325  1.00  0.00     0.039 A 
ATOM     25  C   UNL A   1      34.548  33.159  30.361  1.00  0.00     0.014 A 
ATOM     26  C   UNL A   1      35.404  34.266  28.388  1.00  0.00     0.014 A 
ATOM     27  C   UNL A   1      35.791  32.564  30.565  1.00  0.00     0.010 A 
ATOM     28  C   UNL A   1      36.626  33.604  28.548  1.00  0.00     0.010 A 
ATOM     29  C   UNL A   1      36.851  32.794  29.673  1.00  0.00    -0.014 A 
BRANCH  29  30
ATOM     30  C   UNL A   1      38.191  32.210  29.956  1.00  0.00     0.031 A 
ATOM     31  C   UNL A   1      39.154  32.913  30.879  1.00  0.00     0.074 A 
ATOM     32  C   UNL A   1      38.524  31.016  29.428  1.00  0.00     0.049 A 
ATOM     33  N   UNL A   1      40.352  32.543  31.264  1.00  0.00    -0.248 NA
ATOM     34  C   UNL A   1      38.722  34.202  31.444  1.00  0.00     0.031 C 
ATOM     35  C   UNL A   1      37.681  30.226  28.527  1.00  0.00     0.029 A 
ATOM     36  N   UNL A   1      39.649  30.248  29.590  1.00  0.00    -0.354 N 
ATOM     37  C   UNL A   1      40.820  33.556  32.091  1.00  0.00     0.074 A 
ATOM     38  C   UNL A   1      39.790  34.572  32.136  1.00  0.00     0.031 C 
ATOM     39  C   UNL A   1      38.299  29.066  28.255  1.00  0.00     0.029 A 
ATOM     40  C   UNL A   1      39.599  29.052  28.916  1.00  0.00     0.049 A 
ATOM     41  H   UNL A   1      40.419  30.528  30.138  1.00  0.00     0.167 HD
ATOM     42  C   UNL A   1      41.993  33.630  32.765  1.00  0.00     0.037 A 
ATOM     43  C   UNL A   1      40.505  28.060  28.830  1.00  0.00     0.037 A 
ATOM     44  C   UNL A   1      43.007  32.607  32.754  1.00  0.00     0.049 A 
ATOM     45  C   UNL A   1      41.814  28.191  29.556  1.00  0.00     0.074 A 
ATOM     46  C   UNL A   1      44.207  32.575  33.444  1.00  0.00     0.029 A 
ATOM     47  N   UNL A   1      42.939  31.436  32.017  1.00  0.00    -0.354 N 
ATOM     48  N   UNL A   1      42.226  29.141  30.358  1.00  0.00    -0.248 NA
ATOM     49  C   UNL A   1      42.790  27.110  29.353  1.00  0.00     0.031 C 
ATOM     50  C   UNL A   1      44.885  31.403  33.092  1.00  0.00     0.029 A 
ATOM     51  C   UNL A   1      44.088  30.686  32.215  1.00  0.00     0.049 A 
ATOM     52  H   UNL A   1      42.187  31.175  31.439  1.00  0.00     0.167 HD
ATOM     53  C   UNL A   1      43.496  28.763  30.773  1.00  0.00     0.074 A 
ATOM     54  C   UNL A   1      43.779  27.488  30.150  1.00  0.00     0.031 C 
ATOM     55  C   UNL A   1      44.354  29.416  31.593  1.00  0.00     0.037 A 
BRANCH  42  56
ATOM     56  C   UNL A   1      42.257  34.867  33.572  1.00  0.00     0.057 A 
ATOM     57  C   UNL A   1      41.849  34.943  34.911  1.00  0.00     0.134 A 
ATOM     58  C   UNL A   1      42.858  36.003  33.014  1.00  0.00     0.134 A 
ATOM     59  F   UNL A   1      41.261  33.894  35.504  1.00  0.00    -0.206 F 
ATOM     60  C   UNL A   1      42.022  36.107  35.661  1.00  0.00     0.040 A 
ATOM     61  C   UNL A   1      43.055  37.165  33.761  1.00  0.00     0.040 A 
ATOM     62  F   UNL A   1      43.281  35.991  31.741  1.00  0.00    -0.206 F 
ATOM     63  C   UNL A   1      42.630  37.222  35.088  1.00  0.00     0.006 A 
ENDBRANCH  42  56
BRANCH  43  64
ATOM     64  C   UNL A   1      40.221  26.853  28.014  1.00  0.00     0.057 A 
ATOM     65  C   UNL A   1      40.745  26.704  26.725  1.00  0.00     0.134 A 
ATOM     66  C   UNL A   1      39.459  25.797  28.527  1.00  0.00     0.134 A 
ATOM     67  F   UNL A   1      41.485  27.680  26.178  1.00  0.00    -0.206 F 
ATOM     68  C   UNL A   1      40.521  25.551  25.974  1.00  0.00     0.040 A 
ATOM     69  C   UNL A   1      39.248  24.626  27.798  1.00  0.00     0.040 A 
ATOM     70  F   UNL A   1      38.951  25.871  29.767  1.00  0.00    -0.206 F 
ATOM     71  C   UNL A   1      39.779  24.502  26.515  1.00  0.00     0.006 A 
ENDBRANCH  43  64
BRANCH  55  72
ATOM     72  C   UNL A   1      45.662  28.744  31.881  1.00  0.00     0.057 A 
ATOM     73  C   UNL A   1      46.783  28.989  31.078  1.00  0.00     0.134 A 
ATOM     74  C   UNL A   1      45.811  27.850  32.949  1.00  0.00     0.134 A 
ATOM     75  F   UNL A   1      46.705  29.829  30.036  1.00  0.00    -0.206 F 
ATOM     76  C   UNL A   1      48.008  28.371  31.331  1.00  0.00     0.040 A 
ATOM     77  C   UNL A   1      47.039  27.245  33.226  1.00  0.00     0.040 A 
ATOM     78  F   UNL A   1      44.780  27.587  33.765  1.00  0.00    -0.206 F 
ATOM     79  C   UNL A   1      48.140  27.502  32.412  1.00  0.00     0.006 A 
ENDBRANCH  55  72
ENDBRANCH  29  30
ENDBRANCH  21  24
ENDBRANCH  19  20
ENDBRANCH  18  19
ENDBRANCH   1  18
TORSDOF 13
ENDMDL
MODEL 2
REMARK VINA RESULT:      -8.4      5.779     11.317
REMARK SMILES O=C(Cc1ccn(C(F)F)c(=O)c1)NCCCCNC(=O)c1ccc(-c2c3nc(c(-c4c(F)cccc4F)c4ccc([nH]4)c(-c4c(F)cccc4F)c4nc(c(-c5c(F)cccc5F)c5ccc2[nH]5)C=C4)C=C3)cc1
REMARK SMILES IDX 16 1 15 2 14 3 1 4 2 5 3 7 4 8 5 9 13 10 6 11 11 12 7 13
REMARK SMILES IDX 12 14 8 15 9 16 10 17 17 18 18 19 19 20 20 21 21 23 22 24
REMARK SMILES IDX 23 25 75 26 24 27 74 28 25 29 26 30 27 31 68 32 28 33 73 34
REMARK SMILES IDX 67 35 69 36 29 37 72 38 66 39 65 40 30 42 56 43 39 44 55 45
REMARK SMILES IDX 40 46 43 47 54 48 70 49 41 50 42 51 53 53 71 54 44 55 31 56
REMARK SMILES IDX 32 57 37 58 33 59 34 60 36 61 38 62 35 63 57 64 58 65 63 66
REMARK SMILES IDX 59 67 60 68 62 69 64 70 61 71 45 72 46 73 51 74 47 75 48 76
REMARK SMILES IDX 50 77 52 78 49 79
REMARK H PARENT 14 6 19 22 69 41 43 52
REMARK Flexibility Score: inf
ROOT
ATOM      1  C   UNL A   1      37.121  21.209  24.576  1.00  0.00     0.023 C 
ENDROOT
BRANCH   1   2
ATOM      2  C   UNL A   1      35.911  21.547  25.448  1.00  0.00     0.116 C 
BRANCH   2   3
ATOM      3  N   UNL A   1      34.690  21.658  24.677  1.00  0.00    -0.356 N 
ATOM      4  O   UNL A   1      33.875  19.563  25.173  1.00  0.00    -0.275 OA
ATOM      5  C   UNL A   1      33.753  20.647  24.612  1.00  0.00     0.224 C 
ATOM      6  H   UNL A   1      34.522  22.490  24.177  1.00  0.00     0.163 HD
BRANCH   5   7
ATOM      7  C   UNL A   1      32.522  21.008  23.787  1.00  0.00     0.135 C 
BRANCH   7   8
ATOM      8  C   UNL A   1      31.855  22.238  24.343  1.00  0.00    -0.032 A 
ATOM      9  C   UNL A   1      31.776  23.419  23.508  1.00  0.00     0.022 A 
ATOM     10  C   UNL A   1      31.375  22.294  25.598  1.00  0.00     0.076 A 
ATOM     11  C   UNL A   1      31.247  24.552  23.987  1.00  0.00     0.095 A 
ATOM     12  C   UNL A   1      30.736  23.530  26.127  1.00  0.00     0.255 A 
ATOM     13  N   UNL A   1      30.740  24.619  25.273  1.00  0.00    -0.258 N 
ATOM     14  O   UNL A   1      30.264  23.498  27.258  1.00  0.00    -0.269 OA
BRANCH  13  15
ATOM     15  C   UNL A   1      30.167  25.841  25.775  1.00  0.00     0.451 C 
ATOM     16  F   UNL A   1      30.726  26.921  25.177  1.00  0.00    -0.185 F 
ATOM     17  F   UNL A   1      28.832  25.882  25.548  1.00  0.00    -0.185 F 
ENDBRANCH  13  15
ENDBRANCH   7   8
ENDBRANCH   5   7
ENDBRANCH   2   3
ENDBRANCH   1   2
BRANCH   1  18
ATOM     18  C   UNL A   1      37.921  19.975  25.006  1.00  0.00     0.023 C 
BRANCH  18  19
ATOM     19  C   UNL A   1      39.134  20.250  25.887  1.00  0.00     0.116 C 
BRANCH  19  20
ATOM     20  N   UNL A   1      40.119  19.181  25.848  1.00  0.00    -0.352 N 
ATOM     21  C   UNL A   1      41.480  19.238  26.049  1.00  0.00     0.251 C 
ATOM     22  H   UNL A   1      39.762  18.287  25.648  1.00  0.00     0.163 HD
ATOM     23  O   UNL A   1      42.175  18.247  25.838  1.00  0.00    -0.269 OA
BRANCH  21  24
ATOM     24  C   UNL A   1      42.120  20.506  26.473  1.00  0.00     0.039 A 
ATOM     25  C   UNL A   1      42.162  20.879  27.818  1.00  0.00     0.014 A 
ATOM     26  C   UNL A   1      42.665  21.350  25.500  1.00  0.00     0.014 A 
ATOM     27  C   UNL A   1      42.578  22.160  28.168  1.00  0.00     0.010 A 
ATOM     28  C   UNL A   1      43.158  22.607  25.864  1.00  0.00     0.010 A 
ATOM     29  C   UNL A   1      43.063  23.048  27.194  1.00  0.00    -0.014 A 
BRANCH  29  30
ATOM     30  C   UNL A   1      43.428  24.438  27.580  1.00  0.00     0.031 A 
ATOM     31  C   UNL A   1      44.861  24.905  27.505  1.00  0.00     0.074 A 
ATOM     32  C   UNL A   1      42.464  25.304  27.946  1.00  0.00     0.049 A 
ATOM     33  N   UNL A   1      45.362  26.086  27.775  1.00  0.00    -0.248 NA
ATOM     34  C   UNL A   1      45.865  23.919  27.074  1.00  0.00     0.031 C 
ATOM     35  C   UNL A   1      41.038  24.986  28.052  1.00  0.00     0.029 A 
ATOM     36  N   UNL A   1      42.532  26.635  28.275  1.00  0.00    -0.354 N 
ATOM     37  C   UNL A   1      46.732  25.978  27.568  1.00  0.00     0.074 A 
ATOM     38  C   UNL A   1      46.991  24.609  27.175  1.00  0.00     0.031 C 
ATOM     39  C   UNL A   1      40.363  26.101  28.373  1.00  0.00     0.029 A 
ATOM     40  C   UNL A   1      41.309  27.197  28.549  1.00  0.00     0.049 A 
ATOM     41  H   UNL A   1      43.378  27.139  28.311  1.00  0.00     0.167 HD
ATOM     42  C   UNL A   1      47.687  26.933  27.681  1.00  0.00     0.037 A 
ATOM     43  C   UNL A   1      40.987  28.452  28.912  1.00  0.00     0.037 A 
ATOM     44  C   UNL A   1      47.432  28.304  28.037  1.00  0.00     0.049 A 
ATOM     45  C   UNL A   1      42.074  29.477  29.070  1.00  0.00     0.074 A 
ATOM     46  C   UNL A   1      48.332  29.353  28.130  1.00  0.00     0.029 A 
ATOM     47  N   UNL A   1      46.186  28.819  28.357  1.00  0.00    -0.354 N 
ATOM     48  N   UNL A   1      43.358  29.365  28.840  1.00  0.00    -0.248 NA
ATOM     49  C   UNL A   1      41.662  30.805  29.549  1.00  0.00     0.031 C 
ATOM     50  C   UNL A   1      47.636  30.493  28.547  1.00  0.00     0.029 A 
ATOM     51  C   UNL A   1      46.297  30.163  28.674  1.00  0.00     0.049 A 
ATOM     52  H   UNL A   1      45.346  28.306  28.359  1.00  0.00     0.167 HD
ATOM     53  C   UNL A   1      43.903  30.610  29.123  1.00  0.00     0.074 A 
ATOM     54  C   UNL A   1      42.809  31.468  29.522  1.00  0.00     0.031 C 
ATOM     55  C   UNL A   1      45.198  31.007  29.064  1.00  0.00     0.037 A 
BRANCH  42  56
ATOM     56  C   UNL A   1      49.110  26.530  27.426  1.00  0.00     0.057 A 
ATOM     57  C   UNL A   1      49.629  26.541  26.124  1.00  0.00     0.134 A 
ATOM     58  C   UNL A   1      49.947  26.073  28.452  1.00  0.00     0.134 A 
ATOM     59  F   UNL A   1      48.877  26.960  25.095  1.00  0.00    -0.206 F 
ATOM     60  C   UNL A   1      50.927  26.106  25.852  1.00  0.00     0.040 A 
ATOM     61  C   UNL A   1      51.254  25.655  28.194  1.00  0.00     0.040 A 
ATOM     62  F   UNL A   1      49.514  26.047  29.721  1.00  0.00    -0.206 F 
ATOM     63  C   UNL A   1      51.745  25.664  26.890  1.00  0.00     0.006 A 
ENDBRANCH  42  56
BRANCH  43  64
ATOM     64  C   UNL A   1      39.571  28.819  29.170  1.00  0.00     0.057 A 
ATOM     65  C   UNL A   1      38.736  29.270  28.142  1.00  0.00     0.134 A 
ATOM     66  C   UNL A   1      39.009  28.678  30.444  1.00  0.00     0.134 A 
ATOM     67  F   UNL A   1      39.215  29.425  26.899  1.00  0.00    -0.206 F 
ATOM     68  C   UNL A   1      37.393  29.570  28.370  1.00  0.00     0.040 A 
ATOM     69  C   UNL A   1      37.661  28.948  30.682  1.00  0.00     0.040 A 
ATOM     70  F   UNL A   1      39.753  28.224  31.465  1.00  0.00    -0.206 F 
ATOM     71  C   UNL A   1      36.849  29.398  29.641  1.00  0.00     0.006 A 
ENDBRANCH  43  64
BRANCH  55  72
ATOM     72  C   UNL A   1      45.487  32.436  29.410  1.00  0.00     0.057 A 
ATOM     73  C   UNL A   1      45.815  32.800  30.722  1.00  0.00     0.134 A 
ATOM     74  C   UNL A   1      45.435  33.452  28.448  1.00  0.00     0.134 A 
ATOM     75  F   UNL A   1      45.875  31.876  31.692  1.00  0.00    -0.206 F 
ATOM     76  C   UNL A   1      46.085  34.126  31.063  1.00  0.00     0.040 A 
ATOM     77  C   UNL A   1      45.728  34.778  28.773  1.00  0.00     0.040 A 
ATOM     78  F   UNL A   1      45.144  33.165  27.171  1.00  0.00    -0.206 F 
ATOM     79  C   UNL A   1      46.049  35.118  30.085  1.00  0.00     0.006 A 
ENDBRANCH  55  72
ENDBRANCH  29  30
ENDBRANCH  21  24
ENDBRANCH  19  20
ENDBRANCH  18  19
ENDBRANCH   1  18
TORSDOF 13
ENDMDL
MODEL 3
REMARK VINA RESULT:      -8.4      2.476      3.944
REMARK SMILES O=C(Cc1ccn(C(F)F)c(=O)c1)NCCCCNC(=O)c1ccc(-c2c3nc(c(-c4c(F)cccc4F)c4ccc([nH]4)c(-c4c(F)cccc4F)c4nc(c(-c5c(F)cccc5F)c5ccc2[nH]5)C=C4)C=C3)cc1
REMARK SMILES IDX 16 1 15 2 14 3 1 4 2 5 3 7 4 8 5 9 13 10 6 11 11 12 7 13
REMARK SMILES IDX 12 14 8 15 9 16 10 17 17 18 18 19 19 20 20 21 21 23 22 24
REMARK SMILES IDX 23 25 75 26 24 27 74 28 25 29 26 30 27 31 68 32 28 33 73 34
REMARK SMILES IDX 67 35 69 36 29 37 72 38 66 39 65 40 30 42 56 43 39 44 55 45
REMARK SMILES IDX 40 46 43 47 54 48 70 49 41 50 42 51 53 53 71 54 44 55 31 56
REMARK SMILES IDX 32 57 37 58 33 59 34 60 36 61 38 62 35 63 57 64 58 65 63 66
REMARK SMILES IDX 59 67 60 68 62 69 64 70 61 71 45 72 46 73 51 74 47 75 48 76
REMARK SMILES IDX 50 77 52 78 49 79
REMARK H PARENT 14 6 19 22 69 41 43 52
REMARK Flexibility Score: inf
ROOT
ATOM      1  C   UNL A   1      33.515  34.673  29.010  1.00  0.00     0.023 C 
ENDROOT
BRANCH   1   2
ATOM      2  C   UNL A   1      32.915  35.721  29.948  1.00  0.00     0.116 C 
BRANCH   2   3
ATOM      3  N   UNL A   1      33.800  36.049  31.047  1.00  0.00    -0.356 N 
ATOM      4  O   UNL A   1      32.963  34.497  32.528  1.00  0.00    -0.275 OA
ATOM      5  C   UNL A   1      33.759  35.391  32.260  1.00  0.00     0.224 C 
ATOM      6  H   UNL A   1      34.458  36.771  30.924  1.00  0.00     0.163 HD
BRANCH   5   7
ATOM      7  C   UNL A   1      34.821  35.866  33.247  1.00  0.00     0.135 C 
BRANCH   7   8
ATOM      8  C   UNL A   1      35.868  34.804  33.449  1.00  0.00    -0.032 A 
ATOM      9  C   UNL A   1      36.796  34.534  32.368  1.00  0.00     0.022 A 
ATOM     10  C   UNL A   1      35.942  34.067  34.570  1.00  0.00     0.076 A 
ATOM     11  C   UNL A   1      37.702  33.555  32.484  1.00  0.00     0.095 A 
ATOM     12  C   UNL A   1      36.979  33.010  34.734  1.00  0.00     0.255 A 
ATOM     13  N   UNL A   1      37.795  32.797  33.637  1.00  0.00    -0.258 N 
ATOM     14  O   UNL A   1      37.032  32.414  35.805  1.00  0.00    -0.269 OA
BRANCH  13  15
ATOM     15  C   UNL A   1      38.778  31.750  33.753  1.00  0.00     0.451 C 
ATOM     16  F   UNL A   1      38.607  30.815  32.787  1.00  0.00    -0.185 F 
ATOM     17  F   UNL A   1      40.034  32.248  33.636  1.00  0.00    -0.185 F 
ENDBRANCH  13  15
ENDBRANCH   7   8
ENDBRANCH   5   7
ENDBRANCH   2   3
ENDBRANCH   1   2
BRANCH   1  18
ATOM     18  C   UNL A   1      34.977  34.303  29.281  1.00  0.00     0.023 C 
BRANCH  18  19
ATOM     19  C   UNL A   1      35.238  32.834  29.591  1.00  0.00     0.116 C 
BRANCH  19  20
ATOM     20  N   UNL A   1      34.325  31.936  28.901  1.00  0.00    -0.352 N 
ATOM     21  C   UNL A   1      34.576  30.721  28.304  1.00  0.00     0.251 C 
ATOM     22  H   UNL A   1      33.391  32.242  28.854  1.00  0.00     0.163 HD
ATOM     23  O   UNL A   1      33.700  30.167  27.646  1.00  0.00    -0.269 OA
BRANCH  21  24
ATOM     24  C   UNL A   1      35.917  30.099  28.413  1.00  0.00     0.039 A 
ATOM     25  C   UNL A   1      36.319  29.448  29.580  1.00  0.00     0.014 A 
ATOM     26  C   UNL A   1      36.799  30.194  27.330  1.00  0.00     0.014 A 
ATOM     27  C   UNL A   1      37.646  29.057  29.733  1.00  0.00     0.010 A 
ATOM     28  C   UNL A   1      38.111  29.727  27.457  1.00  0.00     0.010 A 
ATOM     29  C   UNL A   1      38.564  29.209  28.681  1.00  0.00    -0.014 A 
BRANCH  29  30
ATOM     30  C   UNL A   1      39.995  28.857  28.895  1.00  0.00     0.031 A 
ATOM     31  C   UNL A   1      40.911  29.793  29.643  1.00  0.00     0.074 A 
ATOM     32  C   UNL A   1      40.461  27.668  28.467  1.00  0.00     0.049 A 
ATOM     33  N   UNL A   1      42.177  29.644  29.948  1.00  0.00    -0.248 NA
ATOM     34  C   UNL A   1      40.336  31.066  30.106  1.00  0.00     0.031 C 
ATOM     35  C   UNL A   1      39.679  26.666  27.739  1.00  0.00     0.029 A 
ATOM     36  N   UNL A   1      41.698  27.091  28.601  1.00  0.00    -0.354 N 
ATOM     37  C   UNL A   1      42.551  30.804  30.616  1.00  0.00     0.074 A 
ATOM     38  C   UNL A   1      41.387  31.663  30.650  1.00  0.00     0.031 C 
ATOM     39  C   UNL A   1      40.440  25.580  27.534  1.00  0.00     0.029 A 
ATOM     40  C   UNL A   1      41.776  25.828  28.065  1.00  0.00     0.049 A 
ATOM     41  H   UNL A   1      42.458  27.538  29.041  1.00  0.00     0.167 HD
ATOM     42  C   UNL A   1      43.750  31.121  31.163  1.00  0.00     0.037 A 
ATOM     43  C   UNL A   1      42.811  24.970  27.999  1.00  0.00     0.037 A 
ATOM     44  C   UNL A   1      44.901  30.257  31.163  1.00  0.00     0.049 A 
ATOM     45  C   UNL A   1      44.139  25.369  28.579  1.00  0.00     0.074 A 
ATOM     46  C   UNL A   1      46.144  30.476  31.736  1.00  0.00     0.029 A 
ATOM     47  N   UNL A   1      44.953  29.009  30.565  1.00  0.00    -0.354 N 
ATOM     48  N   UNL A   1      44.465  26.456  29.233  1.00  0.00    -0.248 NA
ATOM     49  C   UNL A   1      45.247  24.420  28.399  1.00  0.00     0.031 C 
ATOM     50  C   UNL A   1      46.960  29.377  31.447  1.00  0.00     0.029 A 
ATOM     51  C   UNL A   1      46.213  28.457  30.730  1.00  0.00     0.049 A 
ATOM     52  H   UNL A   1      44.205  28.578  30.092  1.00  0.00     0.167 HD
ATOM     53  C   UNL A   1      45.806  26.312  29.563  1.00  0.00     0.074 A 
ATOM     54  C   UNL A   1      46.227  25.024  29.054  1.00  0.00     0.031 C 
ATOM     55  C   UNL A   1      46.618  27.172  30.224  1.00  0.00     0.037 A 
BRANCH  42  56
ATOM     56  C   UNL A   1      43.887  32.470  31.806  1.00  0.00     0.057 A 
ATOM     57  C   UNL A   1      43.526  32.659  33.147  1.00  0.00     0.134 A 
ATOM     58  C   UNL A   1      44.316  33.593  31.087  1.00  0.00     0.134 A 
ATOM     59  F   UNL A   1      43.100  31.626  33.889  1.00  0.00    -0.206 F 
ATOM     60  C   UNL A   1      43.581  33.918  33.747  1.00  0.00     0.040 A 
ATOM     61  C   UNL A   1      44.395  34.854  31.684  1.00  0.00     0.040 A 
ATOM     62  F   UNL A   1      44.687  33.478  29.803  1.00  0.00    -0.206 F 
ATOM     63  C   UNL A   1      44.019  35.019  33.016  1.00  0.00     0.006 A 
ENDBRANCH  42  56
BRANCH  43  64
ATOM     64  C   UNL A   1      42.649  23.647  27.347  1.00  0.00     0.057 A 
ATOM     65  C   UNL A   1      42.849  23.483  25.971  1.00  0.00     0.134 A 
ATOM     66  C   UNL A   1      42.338  22.505  28.095  1.00  0.00     0.134 A 
ATOM     67  F   UNL A   1      43.150  24.538  25.200  1.00  0.00    -0.206 F 
ATOM     68  C   UNL A   1      42.745  22.232  25.362  1.00  0.00     0.040 A 
ATOM     69  C   UNL A   1      42.257  21.244  27.504  1.00  0.00     0.040 A 
ATOM     70  F   UNL A   1      42.161  22.595  29.422  1.00  0.00    -0.206 F 
ATOM     71  C   UNL A   1      42.459  21.106  26.131  1.00  0.00     0.006 A 
ENDBRANCH  43  64
BRANCH  55  72
ATOM     72  C   UNL A   1      48.031  26.729  30.455  1.00  0.00     0.057 A 
ATOM     73  C   UNL A   1      49.045  27.079  29.556  1.00  0.00     0.134 A 
ATOM     74  C   UNL A   1      48.387  25.953  31.565  1.00  0.00     0.134 A 
ATOM     75  F   UNL A   1      48.770  27.815  28.469  1.00  0.00    -0.206 F 
ATOM     76  C   UNL A   1      50.366  26.674  29.754  1.00  0.00     0.040 A 
ATOM     77  C   UNL A   1      49.709  25.563  31.788  1.00  0.00     0.040 A 
ATOM     78  F   UNL A   1      47.464  25.601  32.473  1.00  0.00    -0.206 F 
ATOM     79  C   UNL A   1      50.702  25.921  30.877  1.00  0.00     0.006 A 
ENDBRANCH  55  72
ENDBRANCH  29  30
ENDBRANCH  21  24
ENDBRANCH  19  20
ENDBRANCH  18  19
ENDBRANCH   1  18
TORSDOF 13
ENDMDL
