MODEL 1
REMARK VINA RESULT:     -11.7      0.000      0.000
REMARK SMILES O=C(NCCCCNC(=O)[C@H]1C=C[C@@H](NC(=O)c2cn3ccccc3n2)C1)c1ccc(-c2c3nc(c(-c4c(F)cccc4F)c4ccc([nH]4)c(-c4c(F)cccc4F)c4nc(c(-c5c(F)cccc5F)c5ccc2[nH]5)C=C4)C=C3)cc1
REMARK SMILES IDX 5 1 4 2 3 3 1 4 2 5 28 7 29 8 81 9 30 10 80 11 31 12 32 13
REMARK SMILES IDX 33 14 74 15 34 16 79 17 73 18 75 19 35 20 78 21 72 22 71 23
REMARK SMILES IDX 36 25 62 26 45 27 61 28 46 29 49 30 60 31 76 32 47 33 48 34
REMARK SMILES IDX 59 36 77 37 50 38 37 39 38 40 43 41 39 42 40 43 42 44 44 45
REMARK SMILES IDX 41 46 63 47 64 48 69 49 65 50 66 51 68 52 70 53 67 54 51 55
REMARK SMILES IDX 52 56 57 57 53 58 54 59 56 60 58 61 55 62 6 63 7 64 8 65
REMARK SMILES IDX 9 66 10 68 11 69 12 70 27 71 13 72 14 73 15 74 16 75 17 77
REMARK SMILES IDX 18 78 19 79 26 80 20 81 25 82 21 83 24 84 22 85 23 86
REMARK H PARENT 3 6 75 24 49 35 8 67 15 76
REMARK Flexibility Score: inf
ROOT
ATOM      1  C   UNL A   1      38.272  19.775  24.851  1.00  0.00     0.023 C 
ENDROOT
BRANCH   1   2
ATOM      2  C   UNL A   1      39.229  19.914  26.027  1.00  0.00     0.116 C 
BRANCH   2   3
ATOM      3  N   UNL A   1      40.465  19.166  25.849  1.00  0.00    -0.352 N 
ATOM      4  O   UNL A   1      42.697  18.870  25.693  1.00  0.00    -0.269 OA
ATOM      5  C   UNL A   1      41.760  19.597  26.008  1.00  0.00     0.251 C 
ATOM      6  H   UNL A   1      40.357  18.226  25.578  1.00  0.00     0.163 HD
BRANCH   5   7
ATOM      7  C   UNL A   1      42.017  20.954  26.534  1.00  0.00     0.039 A 
ATOM      8  C   UNL A   1      42.257  22.020  25.664  1.00  0.00     0.014 A 
ATOM      9  C   UNL A   1      42.028  21.156  27.917  1.00  0.00     0.014 A 
ATOM     10  C   UNL A   1      42.639  23.254  26.175  1.00  0.00     0.010 A 
ATOM     11  C   UNL A   1      42.334  22.419  28.430  1.00  0.00     0.010 A 
ATOM     12  C   UNL A   1      42.669  23.470  27.562  1.00  0.00    -0.014 A 
BRANCH  12  13
ATOM     13  C   UNL A   1      42.990  24.824  28.078  1.00  0.00     0.031 A 
ATOM     14  C   UNL A   1      44.403  25.228  28.384  1.00  0.00     0.074 A 
ATOM     15  C   UNL A   1      41.982  25.699  28.255  1.00  0.00     0.049 A 
ATOM     16  N   UNL A   1      44.853  26.374  28.833  1.00  0.00    -0.248 NA
ATOM     17  C   UNL A   1      45.450  24.218  28.167  1.00  0.00     0.031 C 
ATOM     18  C   UNL A   1      40.566  25.410  28.010  1.00  0.00     0.029 A 
ATOM     19  N   UNL A   1      41.988  27.005  28.671  1.00  0.00    -0.354 N 
ATOM     20  C   UNL A   1      46.225  26.218  28.970  1.00  0.00     0.074 A 
ATOM     21  C   UNL A   1      46.536  24.859  28.578  1.00  0.00     0.031 C 
ATOM     22  C   UNL A   1      39.846  26.517  28.243  1.00  0.00     0.029 A 
ATOM     23  C   UNL A   1      40.738  27.572  28.710  1.00  0.00     0.049 A 
ATOM     24  H   UNL A   1      42.810  27.489  28.916  1.00  0.00     0.167 HD
ATOM     25  C   UNL A   1      47.142  27.129  29.378  1.00  0.00     0.037 A 
ATOM     26  C   UNL A   1      40.348  28.799  29.096  1.00  0.00     0.037 A 
ATOM     27  C   UNL A   1      46.828  28.486  29.752  1.00  0.00     0.049 A 
ATOM     28  C   UNL A   1      41.381  29.782  29.558  1.00  0.00     0.074 A 
ATOM     29  C   UNL A   1      47.692  29.497  30.133  1.00  0.00     0.029 A 
ATOM     30  N   UNL A   1      45.548  29.017  29.798  1.00  0.00    -0.354 N 
ATOM     31  N   UNL A   1      42.681  29.634  29.641  1.00  0.00    -0.248 NA
ATOM     32  C   UNL A   1      40.895  31.101  29.983  1.00  0.00     0.031 C 
ATOM     33  C   UNL A   1      46.931  30.627  30.453  1.00  0.00     0.029 A 
ATOM     34  C   UNL A   1      45.597  30.335  30.226  1.00  0.00     0.049 A 
ATOM     35  H   UNL A   1      44.725  28.530  29.560  1.00  0.00     0.167 HD
ATOM     36  C   UNL A   1      43.171  30.842  30.115  1.00  0.00     0.074 A 
ATOM     37  C   UNL A   1      42.029  31.719  30.281  1.00  0.00     0.031 C 
ATOM     38  C   UNL A   1      44.450  31.192  30.392  1.00  0.00     0.037 A 
BRANCH  25  39
ATOM     39  C   UNL A   1      48.575  26.687  29.460  1.00  0.00     0.057 A 
ATOM     40  C   UNL A   1      49.477  26.892  28.408  1.00  0.00     0.134 A 
ATOM     41  C   UNL A   1      49.070  26.089  30.627  1.00  0.00     0.134 A 
ATOM     42  F   UNL A   1      49.066  27.449  27.259  1.00  0.00    -0.206 F 
ATOM     43  C   UNL A   1      50.814  26.499  28.506  1.00  0.00     0.040 A 
ATOM     44  C   UNL A   1      50.409  25.714  30.745  1.00  0.00     0.040 A 
ATOM     45  F   UNL A   1      48.262  25.871  31.676  1.00  0.00    -0.206 F 
ATOM     46  C   UNL A   1      51.284  25.914  29.679  1.00  0.00     0.006 A 
ENDBRANCH  25  39
BRANCH  26  47
ATOM     47  C   UNL A   1      38.908  29.150  29.069  1.00  0.00     0.057 A 
ATOM     48  C   UNL A   1      38.286  29.567  27.887  1.00  0.00     0.134 A 
ATOM     49  C   UNL A   1      38.114  29.050  30.218  1.00  0.00     0.134 A 
ATOM     50  F   UNL A   1      38.997  29.696  26.759  1.00  0.00    -0.206 F 
ATOM     51  C   UNL A   1      36.926  29.882  27.851  1.00  0.00     0.040 A 
ATOM     52  C   UNL A   1      36.749  29.336  30.191  1.00  0.00     0.040 A 
ATOM     53  F   UNL A   1      38.651  28.646  31.378  1.00  0.00    -0.206 F 
ATOM     54  C   UNL A   1      36.153  29.759  29.005  1.00  0.00     0.006 A 
ENDBRANCH  26  47
BRANCH  38  55
ATOM     55  C   UNL A   1      44.680  32.589  30.886  1.00  0.00     0.057 A 
ATOM     56  C   UNL A   1      44.707  32.892  32.253  1.00  0.00     0.134 A 
ATOM     57  C   UNL A   1      44.896  33.638  29.985  1.00  0.00     0.134 A 
ATOM     58  F   UNL A   1      44.489  31.932  33.166  1.00  0.00    -0.206 F 
ATOM     59  C   UNL A   1      44.920  34.194  32.707  1.00  0.00     0.040 A 
ATOM     60  C   UNL A   1      45.135  34.940  30.426  1.00  0.00     0.040 A 
ATOM     61  F   UNL A   1      44.888  33.414  28.662  1.00  0.00    -0.206 F 
ATOM     62  C   UNL A   1      45.141  35.222  31.791  1.00  0.00     0.006 A 
ENDBRANCH  38  55
ENDBRANCH  12  13
ENDBRANCH   5   7
ENDBRANCH   2   3
ENDBRANCH   1   2
BRANCH   1  63
ATOM     63  C   UNL A   1      37.360  20.981  24.607  1.00  0.00     0.023 C 
BRANCH  63  64
ATOM     64  C   UNL A   1      36.141  21.047  25.526  1.00  0.00     0.116 C 
BRANCH  64  65
ATOM     65  N   UNL A   1      35.118  20.100  25.123  1.00  0.00    -0.356 N 
ATOM     66  C   UNL A   1      33.871  20.316  24.613  1.00  0.00     0.227 C 
ATOM     67  H   UNL A   1      35.363  19.152  25.236  1.00  0.00     0.163 HD
ATOM     68  O   UNL A   1      33.155  19.334  24.408  1.00  0.00    -0.274 OA
BRANCH  66  69
ATOM     69  C   UNL A   1      33.443  21.735  24.261  1.00  0.00     0.103 C 
ATOM     70  C   UNL A   1      32.379  21.710  23.197  1.00  0.00    -0.016 C 
ATOM     71  C   UNL A   1      32.720  22.443  25.413  1.00  0.00     0.047 C 
ATOM     72  C   UNL A   1      31.410  22.594  23.461  1.00  0.00    -0.006 C 
ATOM     73  C   UNL A   1      31.699  23.346  24.717  1.00  0.00     0.106 C 
BRANCH  73  74
ATOM     74  N   UNL A   1      30.484  23.507  25.470  1.00  0.00    -0.344 N 
ATOM     75  C   UNL A   1      30.075  24.595  26.206  1.00  0.00     0.271 C 
ATOM     76  H   UNL A   1      29.867  22.741  25.457  1.00  0.00     0.164 HD
ATOM     77  O   UNL A   1      29.094  24.472  26.943  1.00  0.00    -0.267 OA
BRANCH  75  78
ATOM     78  C   UNL A   1      30.818  25.850  26.090  1.00  0.00     0.147 A 
ATOM     79  C   UNL A   1      30.637  26.848  25.145  1.00  0.00     0.127 A 
ATOM     80  N   UNL A   1      31.828  26.213  26.967  1.00  0.00    -0.223 NA
ATOM     81  N   UNL A   1      31.599  27.789  25.399  1.00  0.00    -0.306 N 
ATOM     82  C   UNL A   1      32.282  27.370  26.535  1.00  0.00     0.137 A 
ATOM     83  C   UNL A   1      31.909  28.950  24.697  1.00  0.00     0.093 A 
ATOM     84  C   UNL A   1      33.327  28.212  27.009  1.00  0.00     0.048 A 
ATOM     85  C   UNL A   1      32.916  29.729  25.132  1.00  0.00     0.018 A 
ATOM     86  C   UNL A   1      33.634  29.340  26.338  1.00  0.00     0.005 A 
ENDBRANCH  75  78
ENDBRANCH  73  74
ENDBRANCH  66  69
ENDBRANCH  64  65
ENDBRANCH  63  64
ENDBRANCH   1  63
TORSDOF 13
ENDMDL
MODEL 2
REMARK VINA RESULT:     -11.7      0.361      6.238
REMARK SMILES O=C(NCCCCNC(=O)[C@H]1C=C[C@@H](NC(=O)c2cn3ccccc3n2)C1)c1ccc(-c2c3nc(c(-c4c(F)cccc4F)c4ccc([nH]4)c(-c4c(F)cccc4F)c4nc(c(-c5c(F)cccc5F)c5ccc2[nH]5)C=C4)C=C3)cc1
REMARK SMILES IDX 5 1 4 2 3 3 1 4 2 5 28 7 29 8 81 9 30 10 80 11 31 12 32 13
REMARK SMILES IDX 33 14 74 15 34 16 79 17 73 18 75 19 35 20 78 21 72 22 71 23
REMARK SMILES IDX 36 25 62 26 45 27 61 28 46 29 49 30 60 31 76 32 47 33 48 34
REMARK SMILES IDX 59 36 77 37 50 38 37 39 38 40 43 41 39 42 40 43 42 44 44 45
REMARK SMILES IDX 41 46 63 47 64 48 69 49 65 50 66 51 68 52 70 53 67 54 51 55
REMARK SMILES IDX 52 56 57 57 53 58 54 59 56 60 58 61 55 62 6 63 7 64 8 65
REMARK SMILES IDX 9 66 10 68 11 69 12 70 27 71 13 72 14 73 15 74 16 75 17 77
REMARK SMILES IDX 18 78 19 79 26 80 20 81 25 82 21 83 24 84 22 85 23 86
REMARK H PARENT 3 6 75 24 49 35 8 67 15 76
REMARK Flexibility Score: inf
ROOT
ATOM      1  C   UNL A   1      38.105  19.612  24.753  1.00  0.00     0.023 C 
ENDROOT
BRANCH   1   2
ATOM      2  C   UNL A   1      39.074  19.925  25.887  1.00  0.00     0.116 C 
BRANCH   2   3
ATOM      3  N   UNL A   1      40.272  19.100  25.858  1.00  0.00    -0.352 N 
ATOM      4  O   UNL A   1      42.487  18.672  25.913  1.00  0.00    -0.269 OA
ATOM      5  C   UNL A   1      41.573  19.467  26.106  1.00  0.00     0.251 C 
ATOM      6  H   UNL A   1      40.131  18.153  25.631  1.00  0.00     0.163 HD
BRANCH   5   7
ATOM      7  C   UNL A   1      41.866  20.836  26.577  1.00  0.00     0.039 A 
ATOM      8  C   UNL A   1      42.222  21.839  25.672  1.00  0.00     0.014 A 
ATOM      9  C   UNL A   1      41.794  21.114  27.945  1.00  0.00     0.014 A 
ATOM     10  C   UNL A   1      42.635  23.079  26.144  1.00  0.00     0.010 A 
ATOM     11  C   UNL A   1      42.133  22.387  28.411  1.00  0.00     0.010 A 
ATOM     12  C   UNL A   1      42.582  23.370  27.517  1.00  0.00    -0.014 A 
BRANCH  12  13
ATOM     13  C   UNL A   1      42.940  24.732  27.983  1.00  0.00     0.031 A 
ATOM     14  C   UNL A   1      41.885  25.762  28.269  1.00  0.00     0.074 A 
ATOM     15  C   UNL A   1      44.241  25.028  28.162  1.00  0.00     0.049 A 
ATOM     16  N   UNL A   1      42.030  26.994  28.691  1.00  0.00    -0.248 NA
ATOM     17  C   UNL A   1      40.486  25.365  28.049  1.00  0.00     0.031 C 
ATOM     18  C   UNL A   1      45.355  24.114  27.897  1.00  0.00     0.029 A 
ATOM     19  N   UNL A   1      44.848  26.170  28.615  1.00  0.00    -0.354 N 
ATOM     20  C   UNL A   1      40.749  27.524  28.767  1.00  0.00     0.074 A 
ATOM     21  C   UNL A   1      39.838  26.488  28.328  1.00  0.00     0.031 C 
ATOM     22  C   UNL A   1      46.506  24.717  28.227  1.00  0.00     0.029 A 
ATOM     23  C   UNL A   1      46.217  26.076  28.670  1.00  0.00     0.049 A 
ATOM     24  H   UNL A   1      44.351  26.978  28.877  1.00  0.00     0.167 HD
ATOM     25  C   UNL A   1      40.370  28.760  29.175  1.00  0.00     0.037 A 
ATOM     26  C   UNL A   1      47.143  26.987  29.019  1.00  0.00     0.037 A 
ATOM     27  C   UNL A   1      41.282  29.782  29.626  1.00  0.00     0.049 A 
ATOM     28  C   UNL A   1      46.696  28.352  29.451  1.00  0.00     0.074 A 
ATOM     29  C   UNL A   1      40.991  31.048  30.104  1.00  0.00     0.029 A 
ATOM     30  N   UNL A   1      42.663  29.655  29.648  1.00  0.00    -0.354 N 
ATOM     31  N   UNL A   1      45.478  28.825  29.560  1.00  0.00    -0.248 NA
ATOM     32  C   UNL A   1      47.750  29.310  29.805  1.00  0.00     0.031 C 
ATOM     33  C   UNL A   1      42.197  31.703  30.372  1.00  0.00     0.029 A 
ATOM     34  C   UNL A   1      43.239  30.830  30.107  1.00  0.00     0.049 A 
ATOM     35  H   UNL A   1      43.161  28.849  29.379  1.00  0.00     0.167 HD
ATOM     36  C   UNL A   1      45.617  30.130  30.006  1.00  0.00     0.074 A 
ATOM     37  C   UNL A   1      47.037  30.367  30.168  1.00  0.00     0.031 C 
ATOM     38  C   UNL A   1      44.655  31.051  30.256  1.00  0.00     0.037 A 
BRANCH  25  39
ATOM     39  C   UNL A   1      38.905  29.087  29.137  1.00  0.00     0.057 A 
ATOM     40  C   UNL A   1      38.092  28.985  30.273  1.00  0.00     0.134 A 
ATOM     41  C   UNL A   1      38.310  29.555  27.957  1.00  0.00     0.134 A 
ATOM     42  F   UNL A   1      38.595  28.535  31.431  1.00  0.00    -0.206 F 
ATOM     43  C   UNL A   1      36.735  29.317  30.231  1.00  0.00     0.040 A 
ATOM     44  C   UNL A   1      36.961  29.910  27.909  1.00  0.00     0.040 A 
ATOM     45  F   UNL A   1      39.033  29.683  26.835  1.00  0.00    -0.206 F 
ATOM     46  C   UNL A   1      36.168  29.787  29.049  1.00  0.00     0.006 A 
ENDBRANCH  25  39
BRANCH  26  47
ATOM     47  C   UNL A   1      48.580  26.630  28.959  1.00  0.00     0.057 A 
ATOM     48  C   UNL A   1      49.228  26.048  30.054  1.00  0.00     0.134 A 
ATOM     49  C   UNL A   1      49.332  26.836  27.796  1.00  0.00     0.134 A 
ATOM     50  F   UNL A   1      48.564  25.840  31.199  1.00  0.00    -0.206 F 
ATOM     51  C   UNL A   1      50.577  25.693  29.997  1.00  0.00     0.040 A 
ATOM     52  C   UNL A   1      50.673  26.462  27.716  1.00  0.00     0.040 A 
ATOM     53  F   UNL A   1      48.763  27.380  26.710  1.00  0.00    -0.206 F 
ATOM     54  C   UNL A   1      51.301  25.893  28.822  1.00  0.00     0.006 A 
ENDBRANCH  26  47
BRANCH  38  55
ATOM     55  C   UNL A   1      45.111  32.393  30.747  1.00  0.00     0.057 A 
ATOM     56  C   UNL A   1      45.297  32.654  32.110  1.00  0.00     0.134 A 
ATOM     57  C   UNL A   1      45.387  33.428  29.845  1.00  0.00     0.134 A 
ATOM     58  F   UNL A   1      45.033  31.708  33.025  1.00  0.00    -0.206 F 
ATOM     59  C   UNL A   1      45.720  33.904  32.562  1.00  0.00     0.040 A 
ATOM     60  C   UNL A   1      45.835  34.675  30.282  1.00  0.00     0.040 A 
ATOM     61  F   UNL A   1      45.234  33.241  28.525  1.00  0.00    -0.206 F 
ATOM     62  C   UNL A   1      45.996  34.918  31.645  1.00  0.00     0.006 A 
ENDBRANCH  38  55
ENDBRANCH  12  13
ENDBRANCH   5   7
ENDBRANCH   2   3
ENDBRANCH   1   2
BRANCH   1  63
ATOM     63  C   UNL A   1      37.064  20.697  24.468  1.00  0.00     0.023 C 
BRANCH  63  64
ATOM     64  C   UNL A   1      35.889  20.718  25.446  1.00  0.00     0.116 C 
BRANCH  64  65
ATOM     65  N   UNL A   1      34.799  19.877  24.986  1.00  0.00    -0.356 N 
ATOM     66  C   UNL A   1      33.576  20.218  24.487  1.00  0.00     0.227 C 
ATOM     67  H   UNL A   1      34.970  18.909  25.044  1.00  0.00     0.163 HD
ATOM     68  O   UNL A   1      32.788  19.308  24.223  1.00  0.00    -0.274 OA
BRANCH  66  69
ATOM     69  C   UNL A   1      33.261  21.684  24.218  1.00  0.00     0.103 C 
ATOM     70  C   UNL A   1      32.230  21.803  23.127  1.00  0.00    -0.016 C 
ATOM     71  C   UNL A   1      32.555  22.368  25.395  1.00  0.00     0.047 C 
ATOM     72  C   UNL A   1      31.319  22.737  23.423  1.00  0.00    -0.006 C 
ATOM     73  C   UNL A   1      31.622  23.385  24.732  1.00  0.00     0.106 C 
BRANCH  73  74
ATOM     74  N   UNL A   1      30.399  23.586  25.463  1.00  0.00    -0.344 N 
ATOM     75  C   UNL A   1      30.008  24.691  26.183  1.00  0.00     0.271 C 
ATOM     76  H   UNL A   1      29.761  22.837  25.446  1.00  0.00     0.164 HD
ATOM     77  O   UNL A   1      29.010  24.602  26.903  1.00  0.00    -0.267 OA
BRANCH  75  78
ATOM     78  C   UNL A   1      30.787  25.924  26.070  1.00  0.00     0.147 A 
ATOM     79  C   UNL A   1      30.644  26.923  25.119  1.00  0.00     0.127 A 
ATOM     80  N   UNL A   1      31.798  26.262  26.955  1.00  0.00    -0.223 NA
ATOM     81  N   UNL A   1      31.629  27.838  25.380  1.00  0.00    -0.306 N 
ATOM     82  C   UNL A   1      32.289  27.404  26.523  1.00  0.00     0.137 A 
ATOM     83  C   UNL A   1      31.979  28.987  24.676  1.00  0.00     0.093 A 
ATOM     84  C   UNL A   1      33.352  28.218  27.005  1.00  0.00     0.048 A 
ATOM     85  C   UNL A   1      33.002  29.739  25.118  1.00  0.00     0.018 A 
ATOM     86  C   UNL A   1      33.698  29.334  26.333  1.00  0.00     0.005 A 
ENDBRANCH  75  78
ENDBRANCH  73  74
ENDBRANCH  66  69
ENDBRANCH  64  65
ENDBRANCH  63  64
ENDBRANCH   1  63
TORSDOF 13
ENDMDL
MODEL 3
REMARK VINA RESULT:     -11.7      3.531      9.092
REMARK SMILES O=C(NCCCCNC(=O)[C@H]1C=C[C@@H](NC(=O)c2cn3ccccc3n2)C1)c1ccc(-c2c3nc(c(-c4c(F)cccc4F)c4ccc([nH]4)c(-c4c(F)cccc4F)c4nc(c(-c5c(F)cccc5F)c5ccc2[nH]5)C=C4)C=C3)cc1
REMARK SMILES IDX 5 1 4 2 3 3 1 4 2 5 28 7 29 8 81 9 30 10 80 11 31 12 32 13
REMARK SMILES IDX 33 14 74 15 34 16 79 17 73 18 75 19 35 20 78 21 72 22 71 23
REMARK SMILES IDX 36 25 62 26 45 27 61 28 46 29 49 30 60 31 76 32 47 33 48 34
REMARK SMILES IDX 59 36 77 37 50 38 37 39 38 40 43 41 39 42 40 43 42 44 44 45
REMARK SMILES IDX 41 46 63 47 64 48 69 49 65 50 66 51 68 52 70 53 67 54 51 55
REMARK SMILES IDX 52 56 57 57 53 58 54 59 56 60 58 61 55 62 6 63 7 64 8 65
REMARK SMILES IDX 9 66 10 68 11 69 12 70 27 71 13 72 14 73 15 74 16 75 17 77
REMARK SMILES IDX 18 78 19 79 26 80 20 81 25 82 21 83 24 84 22 85 23 86
REMARK H PARENT 3 6 75 24 49 35 8 67 15 76
REMARK Flexibility Score: inf
ROOT
ATOM      1  C   UNL A   1      31.485  31.968  26.890  1.00  0.00     0.023 C 
ENDROOT
BRANCH   1   2
ATOM      2  C   UNL A   1      32.733  32.816  27.101  1.00  0.00     0.116 C 
BRANCH   2   3
ATOM      3  N   UNL A   1      32.456  34.087  27.754  1.00  0.00    -0.352 N 
ATOM      4  O   UNL A   1      32.723  35.725  29.284  1.00  0.00    -0.269 OA
ATOM      5  C   UNL A   1      33.165  34.712  28.752  1.00  0.00     0.251 C 
ATOM      6  H   UNL A   1      31.653  34.561  27.438  1.00  0.00     0.163 HD
BRANCH   5   7
ATOM      7  C   UNL A   1      34.451  34.138  29.200  1.00  0.00     0.039 A 
ATOM      8  C   UNL A   1      35.627  34.387  28.488  1.00  0.00     0.014 A 
ATOM      9  C   UNL A   1      34.474  33.331  30.341  1.00  0.00     0.014 A 
ATOM     10  C   UNL A   1      36.797  33.724  28.838  1.00  0.00     0.010 A 
ATOM     11  C   UNL A   1      35.671  32.728  30.738  1.00  0.00     0.010 A 
ATOM     12  C   UNL A   1      36.835  32.899  29.973  1.00  0.00    -0.014 A 
BRANCH  12  13
ATOM     13  C   UNL A   1      38.120  32.278  30.376  1.00  0.00     0.031 A 
ATOM     14  C   UNL A   1      39.016  32.925  31.393  1.00  0.00     0.074 A 
ATOM     15  C   UNL A   1      38.467  31.102  29.819  1.00  0.00     0.049 A 
ATOM     16  N   UNL A   1      40.167  32.509  31.860  1.00  0.00    -0.248 NA
ATOM     17  C   UNL A   1      38.569  34.208  31.956  1.00  0.00     0.031 C 
ATOM     18  C   UNL A   1      37.686  30.389  28.805  1.00  0.00     0.029 A 
ATOM     19  N   UNL A   1      39.555  30.295  30.029  1.00  0.00    -0.354 N 
ATOM     20  C   UNL A   1      40.591  33.483  32.753  1.00  0.00     0.074 A 
ATOM     21  C   UNL A   1      39.585  34.525  32.748  1.00  0.00     0.031 C 
ATOM     22  C   UNL A   1      38.300  29.235  28.509  1.00  0.00     0.029 A 
ATOM     23  C   UNL A   1      39.544  29.153  29.266  1.00  0.00     0.049 A 
ATOM     24  H   UNL A   1      40.273  30.513  30.666  1.00  0.00     0.167 HD
ATOM     25  C   UNL A   1      41.713  33.502  33.513  1.00  0.00     0.037 A 
ATOM     26  C   UNL A   1      40.443  28.158  29.169  1.00  0.00     0.037 A 
ATOM     27  C   UNL A   1      42.703  32.453  33.525  1.00  0.00     0.049 A 
ATOM     28  C   UNL A   1      41.684  28.212  30.009  1.00  0.00     0.074 A 
ATOM     29  C   UNL A   1      43.849  32.358  34.294  1.00  0.00     0.029 A 
ATOM     30  N   UNL A   1      42.666  31.322  32.723  1.00  0.00    -0.354 N 
ATOM     31  N   UNL A   1      42.050  29.119  30.882  1.00  0.00    -0.248 NA
ATOM     32  C   UNL A   1      42.637  27.107  29.850  1.00  0.00     0.031 C 
ATOM     33  C   UNL A   1      44.529  31.192  33.926  1.00  0.00     0.029 A 
ATOM     34  C   UNL A   1      43.783  30.536  32.961  1.00  0.00     0.049 A 
ATOM     35  H   UNL A   1      41.951  31.108  32.079  1.00  0.00     0.167 HD
ATOM     36  C   UNL A   1      43.269  28.690  31.385  1.00  0.00     0.074 A 
ATOM     37  C   UNL A   1      43.569  27.430  30.736  1.00  0.00     0.031 C 
ATOM     38  C   UNL A   1      44.070  29.288  32.300  1.00  0.00     0.037 A 
BRANCH  25  39
ATOM     39  C   UNL A   1      41.944  34.702  34.386  1.00  0.00     0.057 A 
ATOM     40  C   UNL A   1      41.553  34.728  35.730  1.00  0.00     0.134 A 
ATOM     41  C   UNL A   1      42.610  35.829  33.885  1.00  0.00     0.134 A 
ATOM     42  F   UNL A   1      40.903  33.687  36.270  1.00  0.00    -0.206 F 
ATOM     43  C   UNL A   1      41.797  35.841  36.539  1.00  0.00     0.040 A 
ATOM     44  C   UNL A   1      42.879  36.937  34.689  1.00  0.00     0.040 A 
ATOM     45  F   UNL A   1      43.018  35.867  32.608  1.00  0.00    -0.206 F 
ATOM     46  C   UNL A   1      42.467  36.947  36.021  1.00  0.00     0.006 A 
ENDBRANCH  25  39
BRANCH  26  47
ATOM     47  C   UNL A   1      40.196  27.039  28.229  1.00  0.00     0.057 A 
ATOM     48  C   UNL A   1      40.722  27.052  26.933  1.00  0.00     0.134 A 
ATOM     49  C   UNL A   1      39.451  25.918  28.614  1.00  0.00     0.134 A 
ATOM     50  F   UNL A   1      41.431  28.104  26.502  1.00  0.00    -0.206 F 
ATOM     51  C   UNL A   1      40.509  25.992  26.049  1.00  0.00     0.040 A 
ATOM     52  C   UNL A   1      39.252  24.841  27.752  1.00  0.00     0.040 A 
ATOM     53  F   UNL A   1      38.930  25.843  29.848  1.00  0.00    -0.206 F 
ATOM     54  C   UNL A   1      39.777  24.879  26.462  1.00  0.00     0.006 A 
ENDBRANCH  26  47
BRANCH  38  55
ATOM     55  C   UNL A   1      45.337  28.573  32.663  1.00  0.00     0.057 A 
ATOM     56  C   UNL A   1      46.545  28.838  32.006  1.00  0.00     0.134 A 
ATOM     57  C   UNL A   1      45.353  27.626  33.694  1.00  0.00     0.134 A 
ATOM     58  F   UNL A   1      46.591  29.722  30.997  1.00  0.00    -0.206 F 
ATOM     59  C   UNL A   1      47.722  28.169  32.346  1.00  0.00     0.040 A 
ATOM     60  C   UNL A   1      46.528  26.969  34.061  1.00  0.00     0.040 A 
ATOM     61  F   UNL A   1      44.231  27.331  34.366  1.00  0.00    -0.206 F 
ATOM     62  C   UNL A   1      47.715  27.235  33.381  1.00  0.00     0.006 A 
ENDBRANCH  38  55
ENDBRANCH  12  13
ENDBRANCH   5   7
ENDBRANCH   2   3
ENDBRANCH   1   2
BRANCH   1  63
ATOM     63  C   UNL A   1      31.732  30.461  26.785  1.00  0.00     0.023 C 
BRANCH  63  64
ATOM     64  C   UNL A   1      32.164  29.987  25.397  1.00  0.00     0.116 C 
BRANCH  64  65
ATOM     65  N   UNL A   1      31.040  29.932  24.480  1.00  0.00    -0.356 N 
ATOM     66  C   UNL A   1      30.464  28.863  23.858  1.00  0.00     0.227 C 
ATOM     67  H   UNL A   1      30.629  30.804  24.276  1.00  0.00     0.163 HD
ATOM     68  O   UNL A   1      29.549  29.084  23.064  1.00  0.00    -0.274 OA
BRANCH  66  69
ATOM     69  C   UNL A   1      30.924  27.455  24.214  1.00  0.00     0.103 C 
ATOM     70  C   UNL A   1      29.792  26.478  24.040  1.00  0.00    -0.016 C 
ATOM     71  C   UNL A   1      31.970  26.904  23.237  1.00  0.00     0.047 C 
ATOM     72  C   UNL A   1      30.213  25.349  23.458  1.00  0.00    -0.006 C 
ATOM     73  C   UNL A   1      31.679  25.402  23.185  1.00  0.00     0.106 C 
BRANCH  73  74
ATOM     74  N   UNL A   1      31.948  24.822  21.896  1.00  0.00    -0.344 N 
ATOM     75  C   UNL A   1      32.991  24.001  21.532  1.00  0.00     0.271 C 
ATOM     76  H   UNL A   1      31.305  25.039  21.184  1.00  0.00     0.164 HD
ATOM     77  O   UNL A   1      33.162  23.763  20.334  1.00  0.00    -0.267 OA
BRANCH  75  78
ATOM     78  C   UNL A   1      33.855  23.446  22.574  1.00  0.00     0.147 A 
ATOM     79  C   UNL A   1      33.627  22.310  23.337  1.00  0.00     0.127 A 
ATOM     80  N   UNL A   1      35.071  24.009  22.926  1.00  0.00    -0.223 NA
ATOM     81  N   UNL A   1      34.674  22.228  24.215  1.00  0.00    -0.306 N 
ATOM     82  C   UNL A   1      35.541  23.270  23.908  1.00  0.00     0.137 A 
ATOM     83  C   UNL A   1      34.891  21.324  25.252  1.00  0.00     0.093 A 
ATOM     84  C   UNL A   1      36.728  23.375  24.685  1.00  0.00     0.048 A 
ATOM     85  C   UNL A   1      36.001  21.443  26.002  1.00  0.00     0.018 A 
ATOM     86  C   UNL A   1      36.950  22.504  25.689  1.00  0.00     0.005 A 
ENDBRANCH  75  78
ENDBRANCH  73  74
ENDBRANCH  66  69
ENDBRANCH  64  65
ENDBRANCH  63  64
ENDBRANCH   1  63
TORSDOF 13
ENDMDL
