MODEL 1
REMARK VINA RESULT:     -10.8      0.000      0.000
REMARK SMILES CC(C)(C)N(CC(=O)NCCCCNC(=O)c1ccc(-c2c3nc(c(-c4c(F)cccc4F)c4ccc([nH]4)c(-c4c(F)cccc4F)c4nc(c(-c5c(F)cccc5F)c5ccc2[nH]5)C=C4)C=C3)cc1)C(=O)C[NH2+]C1CCCC1
REMARK SMILES IDX 10 1 9 2 7 3 8 4 6 6 5 7 2 8 1 9 3 10 4 11 71 12 72 13 73 14
REMARK SMILES IDX 74 15 75 18 76 19 79 20 77 21 78 22 11 23 12 24 13 25 14 26
REMARK SMILES IDX 15 27 16 29 17 30 18 31 70 32 19 33 69 34 20 35 21 36 22 37
REMARK SMILES IDX 63 38 23 39 68 40 62 41 64 42 24 43 67 44 61 45 60 46 25 48
REMARK SMILES IDX 51 49 34 50 50 51 35 52 38 53 49 54 65 55 36 56 37 57 48 59
REMARK SMILES IDX 66 60 39 61 26 62 27 63 32 64 28 65 29 66 31 67 33 68 30 69
REMARK SMILES IDX 52 70 53 71 58 72 54 73 55 74 57 75 59 76 56 77 40 78 41 79
REMARK SMILES IDX 46 80 42 81 43 82 45 83 47 84 44 85
REMARK H PARENT 9 5 74 16 74 17 14 28 64 47 38 58
REMARK Flexibility Score: inf
ROOT
ATOM      1  C   UNL A   1      33.442  29.666  26.420  1.00  0.00     0.116 C 
ENDROOT
BRANCH   1   2
ATOM      2  N   UNL A   1      33.486  29.591  24.980  1.00  0.00    -0.355 N 
ATOM      3  C   UNL A   1      33.124  28.551  24.174  1.00  0.00     0.239 C 
ATOM      4  O   UNL A   1      32.995  28.790  22.970  1.00  0.00    -0.273 OA
ATOM      5  H   UNL A   1      33.822  30.395  24.519  1.00  0.00     0.163 HD
BRANCH   3   6
ATOM      6  C   UNL A   1      32.742  27.178  24.769  1.00  0.00     0.220 C 
BRANCH   6   7
ATOM      7  N   UNL A   1      31.691  26.391  24.074  1.00  0.00    -0.324 N 
BRANCH   7   8
ATOM      8  C   UNL A   1      32.067  25.212  23.195  1.00  0.00     0.035 C 
ATOM      9  C   UNL A   1      31.036  24.053  23.200  1.00  0.00     0.034 C 
ATOM     10  C   UNL A   1      33.412  24.582  23.630  1.00  0.00     0.034 C 
ATOM     11  C   UNL A   1      32.173  25.658  21.716  1.00  0.00     0.034 C 
ENDBRANCH   7   8
BRANCH   7  12
ATOM     12  C   UNL A   1      30.346  26.497  24.495  1.00  0.00     0.278 C 
ATOM     13  O   UNL A   1      29.951  26.032  25.570  1.00  0.00    -0.268 OA
BRANCH  12  14
ATOM     14  C   UNL A   1      29.310  27.218  23.611  1.00  0.00     0.362 C 
BRANCH  14  15
ATOM     15  N   UNL A   1      29.988  28.068  22.620  1.00  0.00    -0.336 N 
ATOM     16  H   UNL A   1      29.909  27.629  21.702  1.00  0.00     0.346 HD
ATOM     17  H   UNL A   1      30.964  28.162  22.902  1.00  0.00     0.346 HD
BRANCH  15  18
ATOM     18  C   UNL A   1      29.406  29.403  22.554  1.00  0.00     0.182 C 
ATOM     19  C   UNL A   1      27.886  29.429  22.710  1.00  0.00     0.065 C 
ATOM     20  C   UNL A   1      29.859  30.259  23.738  1.00  0.00     0.065 C 
ATOM     21  C   UNL A   1      27.588  30.879  23.076  1.00  0.00     0.006 C 
ATOM     22  C   UNL A   1      28.828  31.384  23.816  1.00  0.00     0.006 C 
ENDBRANCH  15  18
ENDBRANCH  14  15
ENDBRANCH  12  14
ENDBRANCH   7  12
ENDBRANCH   6   7
ENDBRANCH   3   6
ENDBRANCH   1   2
BRANCH   1  23
ATOM     23  C   UNL A   1      32.099  30.162  26.942  1.00  0.00     0.023 C 
BRANCH  23  24
ATOM     24  C   UNL A   1      31.855  31.660  26.760  1.00  0.00     0.023 C 
BRANCH  24  25
ATOM     25  C   UNL A   1      32.920  32.570  27.363  1.00  0.00     0.116 C 
BRANCH  25  26
ATOM     26  N   UNL A   1      32.462  33.927  27.626  1.00  0.00    -0.352 N 
ATOM     27  C   UNL A   1      32.982  34.852  28.503  1.00  0.00     0.251 C 
ATOM     28  H   UNL A   1      31.677  34.222  27.109  1.00  0.00     0.163 HD
ATOM     29  O   UNL A   1      32.439  35.941  28.661  1.00  0.00    -0.269 OA
BRANCH  27  30
ATOM     30  C   UNL A   1      34.178  34.496  29.290  1.00  0.00     0.039 A 
ATOM     31  C   UNL A   1      34.009  33.971  30.573  1.00  0.00     0.014 A 
ATOM     32  C   UNL A   1      35.453  34.612  28.731  1.00  0.00     0.014 A 
ATOM     33  C   UNL A   1      35.116  33.477  31.264  1.00  0.00     0.010 A 
ATOM     34  C   UNL A   1      36.541  34.052  29.388  1.00  0.00     0.010 A 
ATOM     35  C   UNL A   1      36.382  33.469  30.656  1.00  0.00    -0.014 A 
BRANCH  35  36
ATOM     36  C   UNL A   1      37.553  32.842  31.314  1.00  0.00     0.031 A 
ATOM     37  C   UNL A   1      38.228  31.660  30.682  1.00  0.00     0.074 A 
ATOM     38  C   UNL A   1      37.943  33.275  32.529  1.00  0.00     0.049 A 
ATOM     39  N   UNL A   1      39.194  30.911  31.150  1.00  0.00    -0.248 NA
ATOM     40  C   UNL A   1      37.723  31.239  29.366  1.00  0.00     0.031 C 
ATOM     41  C   UNL A   1      37.324  34.369  33.279  1.00  0.00     0.029 A 
ATOM     42  N   UNL A   1      38.945  32.830  33.355  1.00  0.00    -0.354 N 
ATOM     43  C   UNL A   1      39.392  29.917  30.201  1.00  0.00     0.074 A 
ATOM     44  C   UNL A   1      38.415  30.130  29.154  1.00  0.00     0.031 C 
ATOM     45  C   UNL A   1      37.970  34.523  34.447  1.00  0.00     0.029 A 
ATOM     46  C   UNL A   1      39.026  33.520  34.540  1.00  0.00     0.049 A 
ATOM     47  H   UNL A   1      39.547  32.088  33.120  1.00  0.00     0.167 HD
ATOM     48  C   UNL A   1      40.316  28.928  30.192  1.00  0.00     0.037 A 
ATOM     49  C   UNL A   1      39.857  33.358  35.586  1.00  0.00     0.037 A 
ATOM     50  C   UNL A   1      41.313  28.746  31.213  1.00  0.00     0.049 A 
ATOM     51  C   UNL A   1      40.904  32.283  35.536  1.00  0.00     0.074 A 
ATOM     52  C   UNL A   1      42.352  27.832  31.250  1.00  0.00     0.029 A 
ATOM     53  N   UNL A   1      41.396  29.496  32.376  1.00  0.00    -0.354 N 
ATOM     54  N   UNL A   1      41.132  31.397  34.596  1.00  0.00    -0.248 NA
ATOM     55  C   UNL A   1      41.814  32.187  36.686  1.00  0.00     0.031 C 
ATOM     56  C   UNL A   1      43.044  28.009  32.454  1.00  0.00     0.029 A 
ATOM     57  C   UNL A   1      42.458  29.055  33.148  1.00  0.00     0.049 A 
ATOM     58  H   UNL A   1      40.789  30.233  32.618  1.00  0.00     0.167 HD
ATOM     59  C   UNL A   1      42.220  30.653  35.031  1.00  0.00     0.074 A 
ATOM     60  C   UNL A   1      42.615  31.199  36.314  1.00  0.00     0.031 C 
ATOM     61  C   UNL A   1      42.837  29.611  34.422  1.00  0.00     0.037 A 
BRANCH  48  62
ATOM     62  C   UNL A   1      40.287  27.974  29.035  1.00  0.00     0.057 A 
ATOM     63  C   UNL A   1      41.006  28.218  27.857  1.00  0.00     0.134 A 
ATOM     64  C   UNL A   1      39.536  26.794  29.102  1.00  0.00     0.134 A 
ATOM     65  F   UNL A   1      41.732  29.339  27.725  1.00  0.00    -0.206 F 
ATOM     66  C   UNL A   1      40.951  27.340  26.774  1.00  0.00     0.040 A 
ATOM     67  C   UNL A   1      39.495  25.896  28.035  1.00  0.00     0.040 A 
ATOM     68  F   UNL A   1      38.829  26.497  30.202  1.00  0.00    -0.206 F 
ATOM     69  C   UNL A   1      40.197  26.172  26.864  1.00  0.00     0.006 A 
ENDBRANCH  48  62
BRANCH  49  70
ATOM     70  C   UNL A   1      39.750  34.263  36.757  1.00  0.00     0.057 A 
ATOM     71  C   UNL A   1      38.992  33.902  37.877  1.00  0.00     0.134 A 
ATOM     72  C   UNL A   1      40.414  35.494  36.793  1.00  0.00     0.134 A 
ATOM     73  F   UNL A   1      38.321  32.742  37.890  1.00  0.00    -0.206 F 
ATOM     74  C   UNL A   1      38.890  34.738  38.990  1.00  0.00     0.040 A 
ATOM     75  C   UNL A   1      40.338  36.331  37.908  1.00  0.00     0.040 A 
ATOM     76  F   UNL A   1      41.162  35.891  35.754  1.00  0.00    -0.206 F 
ATOM     77  C   UNL A   1      39.571  35.954  39.009  1.00  0.00     0.006 A 
ENDBRANCH  49  70
BRANCH  61  78
ATOM     78  C   UNL A   1      44.014  29.007  35.126  1.00  0.00     0.057 A 
ATOM     79  C   UNL A   1      43.868  27.941  36.021  1.00  0.00     0.134 A 
ATOM     80  C   UNL A   1      45.311  29.469  34.871  1.00  0.00     0.134 A 
ATOM     81  F   UNL A   1      42.649  27.463  36.317  1.00  0.00    -0.206 F 
ATOM     82  C   UNL A   1      44.972  27.365  36.652  1.00  0.00     0.040 A 
ATOM     83  C   UNL A   1      46.424  28.887  35.479  1.00  0.00     0.040 A 
ATOM     84  F   UNL A   1      45.517  30.483  34.018  1.00  0.00    -0.206 F 
ATOM     85  C   UNL A   1      46.255  27.834  36.376  1.00  0.00     0.006 A 
ENDBRANCH  61  78
ENDBRANCH  35  36
ENDBRANCH  27  30
ENDBRANCH  25  26
ENDBRANCH  24  25
ENDBRANCH  23  24
ENDBRANCH   1  23
TORSDOF 17
ENDMDL
MODEL 2
REMARK VINA RESULT:     -10.7      0.314      1.707
REMARK SMILES CC(C)(C)N(CC(=O)NCCCCNC(=O)c1ccc(-c2c3nc(c(-c4c(F)cccc4F)c4ccc([nH]4)c(-c4c(F)cccc4F)c4nc(c(-c5c(F)cccc5F)c5ccc2[nH]5)C=C4)C=C3)cc1)C(=O)C[NH2+]C1CCCC1
REMARK SMILES IDX 10 1 9 2 7 3 8 4 6 6 5 7 2 8 1 9 3 10 4 11 71 12 72 13 73 14
REMARK SMILES IDX 74 15 75 18 76 19 79 20 77 21 78 22 11 23 12 24 13 25 14 26
REMARK SMILES IDX 15 27 16 29 17 30 18 31 70 32 19 33 69 34 20 35 21 36 22 37
REMARK SMILES IDX 63 38 23 39 68 40 62 41 64 42 24 43 67 44 61 45 60 46 25 48
REMARK SMILES IDX 51 49 34 50 50 51 35 52 38 53 49 54 65 55 36 56 37 57 48 59
REMARK SMILES IDX 66 60 39 61 26 62 27 63 32 64 28 65 29 66 31 67 33 68 30 69
REMARK SMILES IDX 52 70 53 71 58 72 54 73 55 74 57 75 59 76 56 77 40 78 41 79
REMARK SMILES IDX 46 80 42 81 43 82 45 83 47 84 44 85
REMARK H PARENT 9 5 74 16 74 17 14 28 64 47 38 58
REMARK Flexibility Score: inf
ROOT
ATOM      1  C   UNL A   1      33.494  29.764  26.457  1.00  0.00     0.116 C 
ENDROOT
BRANCH   1   2
ATOM      2  N   UNL A   1      33.645  29.728  25.021  1.00  0.00    -0.355 N 
ATOM      3  C   UNL A   1      33.241  28.757  24.151  1.00  0.00     0.239 C 
ATOM      4  O   UNL A   1      33.234  29.045  22.951  1.00  0.00    -0.273 OA
ATOM      5  H   UNL A   1      34.098  30.505  24.619  1.00  0.00     0.163 HD
BRANCH   3   6
ATOM      6  C   UNL A   1      32.672  27.416  24.662  1.00  0.00     0.220 C 
BRANCH   6   7
ATOM      7  N   UNL A   1      31.709  26.696  23.790  1.00  0.00    -0.324 N 
BRANCH   7   8
ATOM      8  C   UNL A   1      32.164  25.516  22.951  1.00  0.00     0.035 C 
ATOM      9  C   UNL A   1      32.287  25.816  21.434  1.00  0.00     0.034 C 
ATOM     10  C   UNL A   1      31.185  24.323  23.066  1.00  0.00     0.034 C 
ATOM     11  C   UNL A   1      33.574  25.055  23.393  1.00  0.00     0.034 C 
ENDBRANCH   7   8
BRANCH   7  12
ATOM     12  C   UNL A   1      30.321  26.862  23.997  1.00  0.00     0.278 C 
ATOM     13  O   UNL A   1      29.736  26.389  24.978  1.00  0.00    -0.268 OA
BRANCH  12  14
ATOM     14  C   UNL A   1      29.476  27.663  22.986  1.00  0.00     0.362 C 
BRANCH  14  15
ATOM     15  N   UNL A   1      30.333  28.575  22.214  1.00  0.00    -0.336 N 
ATOM     16  H   UNL A   1      30.324  28.285  21.236  1.00  0.00     0.346 HD
ATOM     17  H   UNL A   1      31.274  28.529  22.605  1.00  0.00     0.346 HD
BRANCH  15  18
ATOM     18  C   UNL A   1      29.876  29.958  22.299  1.00  0.00     0.182 C 
ATOM     19  C   UNL A   1      28.509  30.203  21.662  1.00  0.00     0.065 C 
ATOM     20  C   UNL A   1      29.625  30.366  23.751  1.00  0.00     0.065 C 
ATOM     21  C   UNL A   1      28.061  31.526  22.273  1.00  0.00     0.006 C 
ATOM     22  C   UNL A   1      28.712  31.587  23.656  1.00  0.00     0.006 C 
ENDBRANCH  15  18
ENDBRANCH  14  15
ENDBRANCH  12  14
ENDBRANCH   7  12
ENDBRANCH   6   7
ENDBRANCH   3   6
ENDBRANCH   1   2
BRANCH   1  23
ATOM     23  C   UNL A   1      32.103  30.210  26.890  1.00  0.00     0.023 C 
BRANCH  23  24
ATOM     24  C   UNL A   1      31.838  31.708  26.749  1.00  0.00     0.023 C 
BRANCH  24  25
ATOM     25  C   UNL A   1      32.899  32.617  27.364  1.00  0.00     0.116 C 
BRANCH  25  26
ATOM     26  N   UNL A   1      32.436  33.969  27.640  1.00  0.00    -0.352 N 
ATOM     27  C   UNL A   1      32.959  34.892  28.518  1.00  0.00     0.251 C 
ATOM     28  H   UNL A   1      31.644  34.262  27.133  1.00  0.00     0.163 HD
ATOM     29  O   UNL A   1      32.410  35.976  28.688  1.00  0.00    -0.269 OA
BRANCH  27  30
ATOM     30  C   UNL A   1      34.164  34.538  29.291  1.00  0.00     0.039 A 
ATOM     31  C   UNL A   1      34.012  34.059  30.594  1.00  0.00     0.014 A 
ATOM     32  C   UNL A   1      35.429  34.610  28.702  1.00  0.00     0.014 A 
ATOM     33  C   UNL A   1      35.125  33.566  31.277  1.00  0.00     0.010 A 
ATOM     34  C   UNL A   1      36.520  34.050  29.355  1.00  0.00     0.010 A 
ATOM     35  C   UNL A   1      36.376  33.513  30.644  1.00  0.00    -0.014 A 
BRANCH  35  36
ATOM     36  C   UNL A   1      37.549  32.885  31.298  1.00  0.00     0.031 A 
ATOM     37  C   UNL A   1      38.212  31.692  30.671  1.00  0.00     0.074 A 
ATOM     38  C   UNL A   1      37.952  33.326  32.505  1.00  0.00     0.049 A 
ATOM     39  N   UNL A   1      39.177  30.942  31.137  1.00  0.00    -0.248 NA
ATOM     40  C   UNL A   1      37.693  31.263  29.363  1.00  0.00     0.031 C 
ATOM     41  C   UNL A   1      37.346  34.430  33.251  1.00  0.00     0.029 A 
ATOM     42  N   UNL A   1      38.958  32.882  33.327  1.00  0.00    -0.354 N 
ATOM     43  C   UNL A   1      39.361  29.939  30.196  1.00  0.00     0.074 A 
ATOM     44  C   UNL A   1      38.377  30.148  29.156  1.00  0.00     0.031 C 
ATOM     45  C   UNL A   1      38.003  34.590  34.412  1.00  0.00     0.029 A 
ATOM     46  C   UNL A   1      39.054  33.582  34.505  1.00  0.00     0.049 A 
ATOM     47  H   UNL A   1      39.554  32.135  33.094  1.00  0.00     0.167 HD
ATOM     48  C   UNL A   1      40.279  28.944  30.188  1.00  0.00     0.037 A 
ATOM     49  C   UNL A   1      39.892  33.425  35.546  1.00  0.00     0.037 A 
ATOM     50  C   UNL A   1      41.284  28.765  31.202  1.00  0.00     0.049 A 
ATOM     51  C   UNL A   1      40.932  32.342  35.497  1.00  0.00     0.074 A 
ATOM     52  C   UNL A   1      42.317  27.845  31.240  1.00  0.00     0.029 A 
ATOM     53  N   UNL A   1      41.381  29.525  32.358  1.00  0.00    -0.354 N 
ATOM     54  N   UNL A   1      41.147  31.447  34.563  1.00  0.00    -0.248 NA
ATOM     55  C   UNL A   1      41.850  32.251  36.641  1.00  0.00     0.031 C 
ATOM     56  C   UNL A   1      43.020  28.028  32.436  1.00  0.00     0.029 A 
ATOM     57  C   UNL A   1      42.446  29.084  33.125  1.00  0.00     0.049 A 
ATOM     58  H   UNL A   1      40.780  30.268  32.599  1.00  0.00     0.167 HD
ATOM     59  C   UNL A   1      42.234  30.700  34.996  1.00  0.00     0.074 A 
ATOM     60  C   UNL A   1      42.643  31.255  36.270  1.00  0.00     0.031 C 
ATOM     61  C   UNL A   1      42.839  29.649  34.391  1.00  0.00     0.037 A 
BRANCH  48  62
ATOM     62  C   UNL A   1      40.235  27.979  29.041  1.00  0.00     0.057 A 
ATOM     63  C   UNL A   1      39.498  26.789  29.105  1.00  0.00     0.134 A 
ATOM     64  C   UNL A   1      40.933  28.246  27.857  1.00  0.00     0.134 A 
ATOM     65  F   UNL A   1      38.821  26.467  30.218  1.00  0.00    -0.206 F 
ATOM     66  C   UNL A   1      39.485  25.881  28.044  1.00  0.00     0.040 A 
ATOM     67  C   UNL A   1      40.905  27.358  26.780  1.00  0.00     0.040 A 
ATOM     68  F   UNL A   1      41.654  29.369  27.728  1.00  0.00    -0.206 F 
ATOM     69  C   UNL A   1      40.187  26.168  26.876  1.00  0.00     0.006 A 
ENDBRANCH  48  62
BRANCH  49  70
ATOM     70  C   UNL A   1      39.800  34.341  36.709  1.00  0.00     0.057 A 
ATOM     71  C   UNL A   1      40.443  35.584  36.696  1.00  0.00     0.134 A 
ATOM     72  C   UNL A   1      39.056  34.008  37.847  1.00  0.00     0.134 A 
ATOM     73  F   UNL A   1      41.184  35.948  35.639  1.00  0.00    -0.206 F 
ATOM     74  C   UNL A   1      40.358  36.462  37.777  1.00  0.00     0.040 A 
ATOM     75  C   UNL A   1      38.946  34.886  38.927  1.00  0.00     0.040 A 
ATOM     76  F   UNL A   1      38.411  32.835  37.915  1.00  0.00    -0.206 F 
ATOM     77  C   UNL A   1      39.601  36.114  38.895  1.00  0.00     0.006 A 
ENDBRANCH  49  70
BRANCH  61  78
ATOM     78  C   UNL A   1      44.018  29.044  35.090  1.00  0.00     0.057 A 
ATOM     79  C   UNL A   1      45.324  29.492  34.853  1.00  0.00     0.134 A 
ATOM     80  C   UNL A   1      43.842  28.033  36.043  1.00  0.00     0.134 A 
ATOM     81  F   UNL A   1      45.559  30.449  33.941  1.00  0.00    -0.206 F 
ATOM     82  C   UNL A   1      46.415  28.944  35.528  1.00  0.00     0.040 A 
ATOM     83  C   UNL A   1      44.922  27.493  36.741  1.00  0.00     0.040 A 
ATOM     84  F   UNL A   1      42.615  27.566  36.320  1.00  0.00    -0.206 F 
ATOM     85  C   UNL A   1      46.214  27.946  36.480  1.00  0.00     0.006 A 
ENDBRANCH  61  78
ENDBRANCH  35  36
ENDBRANCH  27  30
ENDBRANCH  25  26
ENDBRANCH  24  25
ENDBRANCH  23  24
ENDBRANCH   1  23
TORSDOF 17
ENDMDL
MODEL 3
REMARK VINA RESULT:     -10.6      5.874     10.874
REMARK SMILES CC(C)(C)N(CC(=O)NCCCCNC(=O)c1ccc(-c2c3nc(c(-c4c(F)cccc4F)c4ccc([nH]4)c(-c4c(F)cccc4F)c4nc(c(-c5c(F)cccc5F)c5ccc2[nH]5)C=C4)C=C3)cc1)C(=O)C[NH2+]C1CCCC1
REMARK SMILES IDX 10 1 9 2 7 3 8 4 6 6 5 7 2 8 1 9 3 10 4 11 71 12 72 13 73 14
REMARK SMILES IDX 74 15 75 18 76 19 79 20 77 21 78 22 11 23 12 24 13 25 14 26
REMARK SMILES IDX 15 27 16 29 17 30 18 31 70 32 19 33 69 34 20 35 21 36 22 37
REMARK SMILES IDX 63 38 23 39 68 40 62 41 64 42 24 43 67 44 61 45 60 46 25 48
REMARK SMILES IDX 51 49 34 50 50 51 35 52 38 53 49 54 65 55 36 56 37 57 48 59
REMARK SMILES IDX 66 60 39 61 26 62 27 63 32 64 28 65 29 66 31 67 33 68 30 69
REMARK SMILES IDX 52 70 53 71 58 72 54 73 55 74 57 75 59 76 56 77 40 78 41 79
REMARK SMILES IDX 46 80 42 81 43 82 45 83 47 84 44 85
REMARK H PARENT 9 5 74 16 74 17 14 28 64 47 38 58
REMARK Flexibility Score: inf
ROOT
ATOM      1  C   UNL A   1      36.657  22.621  25.741  1.00  0.00     0.116 C 
ENDROOT
BRANCH   1   2
ATOM      2  N   UNL A   1      35.753  21.999  26.679  1.00  0.00    -0.355 N 
ATOM      3  C   UNL A   1      34.447  22.306  26.929  1.00  0.00     0.239 C 
ATOM      4  O   UNL A   1      33.790  21.486  27.575  1.00  0.00    -0.273 OA
ATOM      5  H   UNL A   1      36.129  21.258  27.207  1.00  0.00     0.163 HD
BRANCH   3   6
ATOM      6  C   UNL A   1      33.786  23.549  26.295  1.00  0.00     0.220 C 
BRANCH   6   7
ATOM      7  N   UNL A   1      32.857  23.335  25.156  1.00  0.00    -0.324 N 
BRANCH   7   8
ATOM      8  C   UNL A   1      33.089  24.036  23.830  1.00  0.00     0.035 C 
ATOM      9  C   UNL A   1      31.808  24.625  23.183  1.00  0.00     0.034 C 
ATOM     10  C   UNL A   1      33.692  23.078  22.775  1.00  0.00     0.034 C 
ATOM     11  C   UNL A   1      34.041  25.242  24.021  1.00  0.00     0.034 C 
ENDBRANCH   7   8
BRANCH   7  12
ATOM     12  C   UNL A   1      31.977  22.229  25.172  1.00  0.00     0.278 C 
ATOM     13  O   UNL A   1      30.880  22.265  25.740  1.00  0.00    -0.268 OA
BRANCH  12  14
ATOM     14  C   UNL A   1      32.364  20.918  24.460  1.00  0.00     0.362 C 
BRANCH  14  15
ATOM     15  N   UNL A   1      32.387  19.803  25.420  1.00  0.00    -0.336 N 
ATOM     16  H   UNL A   1      31.468  19.727  25.856  1.00  0.00     0.346 HD
ATOM     17  H   UNL A   1      33.110  20.000  26.112  1.00  0.00     0.346 HD
BRANCH  15  18
ATOM     18  C   UNL A   1      32.711  18.535  24.777  1.00  0.00     0.182 C 
ATOM     19  C   UNL A   1      32.371  18.486  23.289  1.00  0.00     0.065 C 
ATOM     20  C   UNL A   1      34.221  18.294  24.765  1.00  0.00     0.065 C 
ATOM     21  C   UNL A   1      33.200  17.315  22.771  1.00  0.00     0.006 C 
ATOM     22  C   UNL A   1      34.435  17.251  23.670  1.00  0.00     0.006 C 
ENDBRANCH  15  18
ENDBRANCH  14  15
ENDBRANCH  12  14
ENDBRANCH   7  12
ENDBRANCH   6   7
ENDBRANCH   3   6
ENDBRANCH   1   2
BRANCH   1  23
ATOM     23  C   UNL A   1      37.035  21.697  24.590  1.00  0.00     0.023 C 
BRANCH  23  24
ATOM     24  C   UNL A   1      37.732  20.404  25.009  1.00  0.00     0.023 C 
BRANCH  24  25
ATOM     25  C   UNL A   1      39.053  20.588  25.750  1.00  0.00     0.116 C 
BRANCH  25  26
ATOM     26  N   UNL A   1      39.893  19.399  25.770  1.00  0.00    -0.352 N 
ATOM     27  C   UNL A   1      41.239  19.305  26.045  1.00  0.00     0.251 C 
ATOM     28  H   UNL A   1      39.439  18.550  25.561  1.00  0.00     0.163 HD
ATOM     29  O   UNL A   1      41.823  18.230  25.956  1.00  0.00    -0.269 OA
BRANCH  27  30
ATOM     30  C   UNL A   1      41.982  20.529  26.400  1.00  0.00     0.039 A 
ATOM     31  C   UNL A   1      42.469  21.343  25.375  1.00  0.00     0.014 A 
ATOM     32  C   UNL A   1      42.130  20.905  27.737  1.00  0.00     0.014 A 
ATOM     33  C   UNL A   1      43.026  22.583  25.689  1.00  0.00     0.010 A 
ATOM     34  C   UNL A   1      42.615  22.169  28.043  1.00  0.00     0.010 A 
ATOM     35  C   UNL A   1      43.058  23.025  27.022  1.00  0.00    -0.014 A 
BRANCH  35  36
ATOM     36  C   UNL A   1      43.533  24.385  27.375  1.00  0.00     0.031 A 
ATOM     37  C   UNL A   1      42.555  25.427  27.837  1.00  0.00     0.074 A 
ATOM     38  C   UNL A   1      44.826  24.708  27.182  1.00  0.00     0.049 A 
ATOM     39  N   UNL A   1      42.756  26.694  28.090  1.00  0.00    -0.248 NA
ATOM     40  C   UNL A   1      41.159  24.993  27.997  1.00  0.00     0.031 C 
ATOM     41  C   UNL A   1      45.860  23.806  26.672  1.00  0.00     0.029 A 
ATOM     42  N   UNL A   1      45.488  25.895  27.376  1.00  0.00    -0.354 N 
ATOM     43  C   UNL A   1      41.510  27.215  28.411  1.00  0.00     0.074 A 
ATOM     44  C   UNL A   1      40.552  26.138  28.275  1.00  0.00     0.031 C 
ATOM     45  C   UNL A   1      47.028  24.465  26.610  1.00  0.00     0.029 A 
ATOM     46  C   UNL A   1      46.819  25.842  27.046  1.00  0.00     0.049 A 
ATOM     47  H   UNL A   1      45.049  26.706  27.720  1.00  0.00     0.167 HD
ATOM     48  C   UNL A   1      41.193  28.472  28.803  1.00  0.00     0.037 A 
ATOM     49  C   UNL A   1      47.765  26.799  27.085  1.00  0.00     0.037 A 
ATOM     50  C   UNL A   1      42.154  29.528  28.979  1.00  0.00     0.049 A 
ATOM     51  C   UNL A   1      47.402  28.175  27.565  1.00  0.00     0.074 A 
ATOM     52  C   UNL A   1      41.948  30.809  29.460  1.00  0.00     0.029 A 
ATOM     53  N   UNL A   1      43.504  29.423  28.681  1.00  0.00    -0.354 N 
ATOM     54  N   UNL A   1      46.233  28.635  27.942  1.00  0.00    -0.248 NA
ATOM     55  C   UNL A   1      48.487  29.163  27.633  1.00  0.00     0.031 C 
ATOM     56  C   UNL A   1      43.170  31.490  29.422  1.00  0.00     0.029 A 
ATOM     57  C   UNL A   1      44.142  30.622  28.951  1.00  0.00     0.049 A 
ATOM     58  H   UNL A   1      43.945  28.616  28.328  1.00  0.00     0.167 HD
ATOM     59  C   UNL A   1      46.444  29.957  28.308  1.00  0.00     0.074 A 
ATOM     60  C   UNL A   1      47.856  30.222  28.122  1.00  0.00     0.031 C 
ATOM     61  C   UNL A   1      45.548  30.868  28.760  1.00  0.00     0.037 A 
BRANCH  48  62
ATOM     62  C   UNL A   1      39.747  28.763  29.070  1.00  0.00     0.057 A 
ATOM     63  C   UNL A   1      38.878  29.184  28.054  1.00  0.00     0.134 A 
ATOM     64  C   UNL A   1      39.215  28.614  30.356  1.00  0.00     0.134 A 
ATOM     65  F   UNL A   1      39.330  29.361  26.803  1.00  0.00    -0.206 F 
ATOM     66  C   UNL A   1      37.540  29.481  28.316  1.00  0.00     0.040 A 
ATOM     67  C   UNL A   1      37.872  28.883  30.624  1.00  0.00     0.040 A 
ATOM     68  F   UNL A   1      39.990  28.209  31.373  1.00  0.00    -0.206 F 
ATOM     69  C   UNL A   1      37.033  29.327  29.604  1.00  0.00     0.006 A 
ENDBRANCH  48  62
BRANCH  49  70
ATOM     70  C   UNL A   1      49.157  26.474  26.688  1.00  0.00     0.057 A 
ATOM     71  C   UNL A   1      50.050  25.904  27.603  1.00  0.00     0.134 A 
ATOM     72  C   UNL A   1      49.620  26.704  25.388  1.00  0.00     0.134 A 
ATOM     73  F   UNL A   1      49.665  25.676  28.867  1.00  0.00    -0.206 F 
ATOM     74  C   UNL A   1      51.359  25.582  27.242  1.00  0.00     0.040 A 
ATOM     75  C   UNL A   1      50.921  26.368  25.008  1.00  0.00     0.040 A 
ATOM     76  F   UNL A   1      48.809  27.240  24.465  1.00  0.00    -0.206 F 
ATOM     77  C   UNL A   1      51.795  25.809  25.938  1.00  0.00     0.006 A 
ENDBRANCH  49  70
BRANCH  61  78
ATOM     78  C   UNL A   1      46.073  32.230  29.102  1.00  0.00     0.057 A 
ATOM     79  C   UNL A   1      46.088  33.269  28.164  1.00  0.00     0.134 A 
ATOM     80  C   UNL A   1      46.527  32.516  30.395  1.00  0.00     0.134 A 
ATOM     81  F   UNL A   1      45.678  33.054  26.903  1.00  0.00    -0.206 F 
ATOM     82  C   UNL A   1      46.552  34.542  28.496  1.00  0.00     0.040 A 
ATOM     83  C   UNL A   1      46.973  33.790  30.746  1.00  0.00     0.040 A 
ATOM     84  F   UNL A   1      46.531  31.564  31.340  1.00  0.00    -0.206 F 
ATOM     85  C   UNL A   1      46.990  34.807  29.793  1.00  0.00     0.006 A 
ENDBRANCH  61  78
ENDBRANCH  35  36
ENDBRANCH  27  30
ENDBRANCH  25  26
ENDBRANCH  24  25
ENDBRANCH  23  24
ENDBRANCH   1  23
TORSDOF 17
ENDMDL
