MODEL 1
REMARK VINA RESULT:     -11.1      0.000      0.000
REMARK SMILES C[C@H](CNC(=O)N1C[C@H]2CCCC[N@@H+]2C[C@@H]1C)C(=O)NCCCCNC(=O)c1ccc(-c2c3nc(c(-c4c(F)cccc4F)c4ccc([nH]4)c(-c4c(F)cccc4F)c4nc(c(-c5c(F)cccc5F)c5ccc2[nH]5)C=C4)C=C3)cc1
REMARK SMILES IDX 22 1 21 2 20 3 18 4 19 5 2 7 1 8 3 9 4 10 5 11 6 13 7 14
REMARK SMILES IDX 8 15 16 16 9 17 15 18 17 19 10 20 14 21 11 22 13 23 12 25
REMARK SMILES IDX 23 26 24 27 25 28 26 29 27 31 28 32 29 33 81 34 30 35 80 36
REMARK SMILES IDX 31 37 32 38 33 39 74 40 34 41 79 42 73 43 75 44 35 45 78 46
REMARK SMILES IDX 72 47 71 48 36 50 62 51 45 52 61 53 46 54 49 55 60 56 76 57
REMARK SMILES IDX 47 58 48 59 59 61 77 62 50 63 37 64 38 65 43 66 39 67 40 68
REMARK SMILES IDX 42 69 44 70 41 71 63 72 64 73 69 74 65 75 66 76 68 77 70 78
REMARK SMILES IDX 67 79 51 80 52 81 57 82 53 83 54 84 56 85 58 86 55 87
REMARK H PARENT 20 6 4 12 14 24 25 30 75 49 49 60
REMARK Flexibility Score: inf
ROOT
ATOM      1  C   UNL A   1      34.002  27.191  25.176  1.00  0.00     0.023 C 
ENDROOT
BRANCH   1   2
ATOM      2  C   UNL A   1      32.942  26.232  25.719  1.00  0.00     0.116 C 
BRANCH   2   3
ATOM      3  N   UNL A   1      31.726  26.268  24.926  1.00  0.00    -0.356 N 
ATOM      4  C   UNL A   1      31.448  25.773  23.687  1.00  0.00     0.224 C 
ATOM      5  O   UNL A   1      30.319  25.980  23.236  1.00  0.00    -0.275 OA
ATOM      6  H   UNL A   1      30.972  26.730  25.358  1.00  0.00     0.163 HD
BRANCH   4   7
ATOM      7  C   UNL A   1      32.476  24.991  22.876  1.00  0.00     0.094 C 
ATOM      8  C   UNL A   1      32.664  25.594  21.486  1.00  0.00     0.020 C 
BRANCH   7   9
ATOM      9  C   UNL A   1      32.152  23.497  22.928  1.00  0.00     0.130 C 
BRANCH   9  10
ATOM     10  N   UNL A   1      31.376  23.083  24.083  1.00  0.00    -0.337 N 
ATOM     11  C   UNL A   1      31.709  22.292  25.134  1.00  0.00     0.318 C 
ATOM     12  H   UNL A   1      30.456  23.434  24.108  1.00  0.00     0.165 HD
ATOM     13  O   UNL A   1      30.809  21.912  25.879  1.00  0.00    -0.249 OA
BRANCH  11  14
ATOM     14  N   UNL A   1      33.017  21.907  25.257  1.00  0.00    -0.311 N 
ATOM     15  C   UNL A   1      33.920  22.698  26.096  1.00  0.00     0.186 C 
ATOM     16  C   UNL A   1      33.377  20.480  25.196  1.00  0.00     0.139 C 
ATOM     17  C   UNL A   1      35.349  22.603  25.547  1.00  0.00     0.203 C 
ATOM     18  C   UNL A   1      34.918  20.267  25.004  1.00  0.00     0.287 C 
ATOM     19  C   UNL A   1      32.682  19.744  24.038  1.00  0.00     0.037 C 
ATOM     20  C   UNL A   1      36.284  23.570  26.284  1.00  0.00     0.067 C 
ATOM     21  N   UNL A   1      35.844  21.215  25.669  1.00  0.00    -0.329 N 
ATOM     22  C   UNL A   1      37.697  23.485  25.714  1.00  0.00     0.012 C 
ATOM     23  C   UNL A   1      37.184  21.095  25.066  1.00  0.00     0.262 C 
ATOM     24  H   UNL A   1      35.897  20.984  26.662  1.00  0.00     0.348 HD
ATOM     25  C   UNL A   1      38.192  22.044  25.716  1.00  0.00     0.062 C 
ENDBRANCH  11  14
ENDBRANCH   9  10
ENDBRANCH   7   9
ENDBRANCH   4   7
ENDBRANCH   2   3
ENDBRANCH   1   2
BRANCH   1  26
ATOM     26  C   UNL A   1      33.945  28.601  25.763  1.00  0.00     0.023 C 
BRANCH  26  27
ATOM     27  C   UNL A   1      33.692  28.663  27.263  1.00  0.00     0.116 C 
BRANCH  27  28
ATOM     28  N   UNL A   1      33.665  30.020  27.787  1.00  0.00    -0.352 N 
ATOM     29  C   UNL A   1      34.674  30.718  28.406  1.00  0.00     0.251 C 
ATOM     30  H   UNL A   1      32.813  30.502  27.684  1.00  0.00     0.163 HD
ATOM     31  O   UNL A   1      34.458  31.822  28.894  1.00  0.00    -0.269 OA
BRANCH  29  32
ATOM     32  C   UNL A   1      36.012  30.105  28.513  1.00  0.00     0.039 A 
ATOM     33  C   UNL A   1      36.874  30.173  27.416  1.00  0.00     0.014 A 
ATOM     34  C   UNL A   1      36.429  29.511  29.707  1.00  0.00     0.014 A 
ATOM     35  C   UNL A   1      38.183  29.708  27.541  1.00  0.00     0.010 A 
ATOM     36  C   UNL A   1      37.754  29.119  29.853  1.00  0.00     0.010 A 
ATOM     37  C   UNL A   1      38.645  29.215  28.773  1.00  0.00    -0.014 A 
BRANCH  37  38
ATOM     38  C   UNL A   1      40.056  28.796  28.953  1.00  0.00     0.031 A 
ATOM     39  C   UNL A   1      41.065  29.768  29.499  1.00  0.00     0.074 A 
ATOM     40  C   UNL A   1      40.443  27.567  28.561  1.00  0.00     0.049 A 
ATOM     41  N   UNL A   1      42.355  29.617  29.657  1.00  0.00    -0.248 NA
ATOM     42  C   UNL A   1      40.562  31.095  29.890  1.00  0.00     0.031 C 
ATOM     43  C   UNL A   1      39.569  26.553  27.968  1.00  0.00     0.029 A 
ATOM     44  N   UNL A   1      41.676  26.966  28.590  1.00  0.00    -0.354 N 
ATOM     45  C   UNL A   1      42.817  30.828  30.155  1.00  0.00     0.074 A 
ATOM     46  C   UNL A   1      41.681  31.723  30.216  1.00  0.00     0.031 C 
ATOM     47  C   UNL A   1      40.289  25.449  27.709  1.00  0.00     0.029 A 
ATOM     48  C   UNL A   1      41.679  25.690  28.081  1.00  0.00     0.049 A 
ATOM     49  H   UNL A   1      42.483  27.408  28.943  1.00  0.00     0.167 HD
ATOM     50  C   UNL A   1      44.070  31.159  30.549  1.00  0.00     0.037 A 
ATOM     51  C   UNL A   1      42.692  24.816  27.925  1.00  0.00     0.037 A 
ATOM     52  C   UNL A   1      45.193  30.261  30.509  1.00  0.00     0.049 A 
ATOM     53  C   UNL A   1      44.074  25.208  28.369  1.00  0.00     0.074 A 
ATOM     54  C   UNL A   1      46.491  30.482  30.936  1.00  0.00     0.029 A 
ATOM     55  N   UNL A   1      45.151  28.967  30.009  1.00  0.00    -0.354 N 
ATOM     56  N   UNL A   1      44.484  26.335  28.898  1.00  0.00    -0.248 NA
ATOM     57  C   UNL A   1      45.134  24.204  28.198  1.00  0.00     0.031 C 
ATOM     58  C   UNL A   1      47.244  29.337  30.657  1.00  0.00     0.029 A 
ATOM     59  C   UNL A   1      46.405  28.385  30.101  1.00  0.00     0.049 A 
ATOM     60  H   UNL A   1      44.349  28.528  29.644  1.00  0.00     0.167 HD
ATOM     61  C   UNL A   1      45.840  26.166  29.151  1.00  0.00     0.074 A 
ATOM     62  C   UNL A   1      46.179  24.823  28.729  1.00  0.00     0.031 C 
ATOM     63  C   UNL A   1      46.723  27.044  29.684  1.00  0.00     0.037 A 
BRANCH  50  64
ATOM     64  C   UNL A   1      44.285  32.550  31.069  1.00  0.00     0.057 A 
ATOM     65  C   UNL A   1      44.630  33.610  30.221  1.00  0.00     0.134 A 
ATOM     66  C   UNL A   1      44.115  32.841  32.429  1.00  0.00     0.134 A 
ATOM     67  F   UNL A   1      44.822  33.396  28.910  1.00  0.00    -0.206 F 
ATOM     68  C   UNL A   1      44.826  34.903  30.708  1.00  0.00     0.040 A 
ATOM     69  C   UNL A   1      44.281  34.137  32.924  1.00  0.00     0.040 A 
ATOM     70  F   UNL A   1      43.779  31.875  33.297  1.00  0.00    -0.206 F 
ATOM     71  C   UNL A   1      44.643  35.171  32.064  1.00  0.00     0.006 A 
ENDBRANCH  50  64
BRANCH  51  72
ATOM     72  C   UNL A   1      42.434  23.476  27.341  1.00  0.00     0.057 A 
ATOM     73  C   UNL A   1      42.081  22.390  28.152  1.00  0.00     0.134 A 
ATOM     74  C   UNL A   1      42.543  23.244  25.966  1.00  0.00     0.134 A 
ATOM     75  F   UNL A   1      41.978  22.546  29.480  1.00  0.00    -0.206 F 
ATOM     76  C   UNL A   1      41.867  21.118  27.618  1.00  0.00     0.040 A 
ATOM     77  C   UNL A   1      42.308  21.983  25.416  1.00  0.00     0.040 A 
ATOM     78  F   UNL A   1      42.869  24.245  25.134  1.00  0.00    -0.206 F 
ATOM     79  C   UNL A   1      41.976  20.913  26.245  1.00  0.00     0.006 A 
ENDBRANCH  51  72
BRANCH  63  80
ATOM     80  C   UNL A   1      48.134  26.569  29.873  1.00  0.00     0.057 A 
ATOM     81  C   UNL A   1      49.114  26.752  28.890  1.00  0.00     0.134 A 
ATOM     82  C   UNL A   1      48.524  25.956  31.070  1.00  0.00     0.134 A 
ATOM     83  F   UNL A   1      48.803  27.320  27.715  1.00  0.00    -0.206 F 
ATOM     84  C   UNL A   1      50.429  26.321  29.083  1.00  0.00     0.040 A 
ATOM     85  C   UNL A   1      49.840  25.546  31.286  1.00  0.00     0.040 A 
ATOM     86  F   UNL A   1      47.635  25.759  32.056  1.00  0.00    -0.206 F 
ATOM     87  C   UNL A   1      50.796  25.724  30.288  1.00  0.00     0.006 A 
ENDBRANCH  63  80
ENDBRANCH  37  38
ENDBRANCH  29  32
ENDBRANCH  27  28
ENDBRANCH  26  27
ENDBRANCH   1  26
TORSDOF 14
ENDMDL
MODEL 2
REMARK VINA RESULT:     -10.9      3.766      5.268
REMARK SMILES C[C@H](CNC(=O)N1C[C@H]2CCCC[N@@H+]2C[C@@H]1C)C(=O)NCCCCNC(=O)c1ccc(-c2c3nc(c(-c4c(F)cccc4F)c4ccc([nH]4)c(-c4c(F)cccc4F)c4nc(c(-c5c(F)cccc5F)c5ccc2[nH]5)C=C4)C=C3)cc1
REMARK SMILES IDX 22 1 21 2 20 3 18 4 19 5 2 7 1 8 3 9 4 10 5 11 6 13 7 14
REMARK SMILES IDX 8 15 16 16 9 17 15 18 17 19 10 20 14 21 11 22 13 23 12 25
REMARK SMILES IDX 23 26 24 27 25 28 26 29 27 31 28 32 29 33 81 34 30 35 80 36
REMARK SMILES IDX 31 37 32 38 33 39 74 40 34 41 79 42 73 43 75 44 35 45 78 46
REMARK SMILES IDX 72 47 71 48 36 50 62 51 45 52 61 53 46 54 49 55 60 56 76 57
REMARK SMILES IDX 47 58 48 59 59 61 77 62 50 63 37 64 38 65 43 66 39 67 40 68
REMARK SMILES IDX 42 69 44 70 41 71 63 72 64 73 69 74 65 75 66 76 68 77 70 78
REMARK SMILES IDX 67 79 51 80 52 81 57 82 53 83 54 84 56 85 58 86 55 87
REMARK H PARENT 20 6 4 12 14 24 25 30 75 49 49 60
REMARK Flexibility Score: inf
ROOT
ATOM      1  C   UNL A   1      31.643  30.637  26.323  1.00  0.00     0.023 C 
ENDROOT
BRANCH   1   2
ATOM      2  C   UNL A   1      31.028  30.088  25.036  1.00  0.00     0.116 C 
BRANCH   2   3
ATOM      3  N   UNL A   1      32.043  29.601  24.118  1.00  0.00    -0.356 N 
ATOM      4  C   UNL A   1      32.403  28.334  23.770  1.00  0.00     0.224 C 
ATOM      5  O   UNL A   1      33.338  28.210  22.975  1.00  0.00    -0.275 OA
ATOM      6  H   UNL A   1      32.560  30.309  23.670  1.00  0.00     0.163 HD
BRANCH   4   7
ATOM      7  C   UNL A   1      31.692  27.104  24.328  1.00  0.00     0.094 C 
ATOM      8  C   UNL A   1      30.185  27.180  24.095  1.00  0.00     0.020 C 
BRANCH   7   9
ATOM      9  C   UNL A   1      32.144  26.852  25.767  1.00  0.00     0.130 C 
BRANCH   9  10
ATOM     10  N   UNL A   1      31.331  25.901  26.502  1.00  0.00    -0.337 N 
ATOM     11  C   UNL A   1      31.331  24.544  26.491  1.00  0.00     0.318 C 
ATOM     12  H   UNL A   1      30.671  26.307  27.110  1.00  0.00     0.165 HD
ATOM     13  O   UNL A   1      30.400  23.962  27.042  1.00  0.00    -0.249 OA
BRANCH  11  14
ATOM     14  N   UNL A   1      32.330  23.909  25.804  1.00  0.00    -0.311 N 
ATOM     15  C   UNL A   1      33.570  23.561  26.501  1.00  0.00     0.186 C 
ATOM     16  C   UNL A   1      32.000  22.985  24.705  1.00  0.00     0.139 C 
ATOM     17  C   UNL A   1      34.741  23.582  25.511  1.00  0.00     0.203 C 
ATOM     18  C   UNL A   1      33.252  22.638  23.829  1.00  0.00     0.287 C 
ATOM     19  C   UNL A   1      30.938  23.557  23.751  1.00  0.00     0.037 C 
ATOM     20  C   UNL A   1      36.079  23.412  26.242  1.00  0.00     0.067 C 
ATOM     21  N   UNL A   1      34.567  22.513  24.503  1.00  0.00    -0.329 N 
ATOM     22  C   UNL A   1      37.238  23.458  25.251  1.00  0.00     0.012 C 
ATOM     23  C   UNL A   1      35.642  22.578  23.497  1.00  0.00     0.262 C 
ATOM     24  H   UNL A   1      34.607  21.614  24.985  1.00  0.00     0.348 HD
ATOM     25  C   UNL A   1      37.028  22.447  24.130  1.00  0.00     0.062 C 
ENDBRANCH  11  14
ENDBRANCH   9  10
ENDBRANCH   7   9
ENDBRANCH   4   7
ENDBRANCH   2   3
ENDBRANCH   1   2
BRANCH   1  26
ATOM     26  C   UNL A   1      31.495  32.147  26.505  1.00  0.00     0.023 C 
BRANCH  26  27
ATOM     27  C   UNL A   1      32.639  32.820  27.251  1.00  0.00     0.116 C 
BRANCH  27  28
ATOM     28  N   UNL A   1      32.351  34.196  27.626  1.00  0.00    -0.352 N 
ATOM     29  C   UNL A   1      32.978  34.974  28.571  1.00  0.00     0.251 C 
ATOM     30  H   UNL A   1      31.611  34.626  27.141  1.00  0.00     0.163 HD
ATOM     31  O   UNL A   1      32.541  36.086  28.850  1.00  0.00    -0.269 OA
BRANCH  29  32
ATOM     32  C   UNL A   1      34.159  34.438  29.275  1.00  0.00     0.039 A 
ATOM     33  C   UNL A   1      33.975  33.766  30.485  1.00  0.00     0.014 A 
ATOM     34  C   UNL A   1      35.434  34.558  28.715  1.00  0.00     0.014 A 
ATOM     35  C   UNL A   1      35.065  33.149  31.099  1.00  0.00     0.010 A 
ATOM     36  C   UNL A   1      36.502  33.878  29.289  1.00  0.00     0.010 A 
ATOM     37  C   UNL A   1      36.328  33.166  30.485  1.00  0.00    -0.014 A 
BRANCH  37  38
ATOM     38  C   UNL A   1      37.480  32.443  31.077  1.00  0.00     0.031 A 
ATOM     39  C   UNL A   1      38.106  32.939  32.351  1.00  0.00     0.074 A 
ATOM     40  C   UNL A   1      38.005  31.384  30.433  1.00  0.00     0.049 A 
ATOM     41  N   UNL A   1      39.163  32.492  32.981  1.00  0.00    -0.248 NA
ATOM     42  C   UNL A   1      37.480  34.111  32.983  1.00  0.00     0.031 C 
ATOM     43  C   UNL A   1      37.520  30.839  29.163  1.00  0.00     0.029 A 
ATOM     44  N   UNL A   1      39.073  30.582  30.750  1.00  0.00    -0.354 N 
ATOM     45  C   UNL A   1      39.332  33.331  34.074  1.00  0.00     0.074 A 
ATOM     46  C   UNL A   1      38.308  34.349  33.990  1.00  0.00     0.031 C 
ATOM     47  C   UNL A   1      38.275  29.781  28.821  1.00  0.00     0.029 A 
ATOM     48  C   UNL A   1      39.317  29.597  29.825  1.00  0.00     0.049 A 
ATOM     49  H   UNL A   1      39.612  30.702  31.565  1.00  0.00     0.167 HD
ATOM     50  C   UNL A   1      40.243  33.247  35.072  1.00  0.00     0.037 A 
ATOM     51  C   UNL A   1      40.278  28.655  29.788  1.00  0.00     0.037 A 
ATOM     52  C   UNL A   1      41.247  32.220  35.166  1.00  0.00     0.049 A 
ATOM     53  C   UNL A   1      41.280  28.584  30.907  1.00  0.00     0.074 A 
ATOM     54  C   UNL A   1      42.182  32.017  36.165  1.00  0.00     0.029 A 
ATOM     55  N   UNL A   1      41.447  31.224  34.221  1.00  0.00    -0.354 N 
ATOM     56  N   UNL A   1      41.388  29.345  31.968  1.00  0.00    -0.248 NA
ATOM     57  C   UNL A   1      42.291  27.519  30.825  1.00  0.00     0.031 C 
ATOM     58  C   UNL A   1      42.974  30.922  35.806  1.00  0.00     0.029 A 
ATOM     59  C   UNL A   1      42.503  30.414  34.606  1.00  0.00     0.049 A 
ATOM     60  H   UNL A   1      40.917  31.110  33.399  1.00  0.00     0.167 HD
ATOM     61  C   UNL A   1      42.457  28.835  32.695  1.00  0.00     0.074 A 
ATOM     62  C   UNL A   1      42.954  27.692  31.959  1.00  0.00     0.031 C 
ATOM     63  C   UNL A   1      42.979  29.274  33.865  1.00  0.00     0.037 A 
BRANCH  50  64
ATOM     64  C   UNL A   1      40.186  34.291  36.148  1.00  0.00     0.057 A 
ATOM     65  C   UNL A   1      40.917  35.483  36.060  1.00  0.00     0.134 A 
ATOM     66  C   UNL A   1      39.367  34.118  37.271  1.00  0.00     0.134 A 
ATOM     67  F   UNL A   1      41.732  35.705  35.017  1.00  0.00    -0.206 F 
ATOM     68  C   UNL A   1      40.858  36.453  37.062  1.00  0.00     0.040 A 
ATOM     69  C   UNL A   1      39.278  35.094  38.266  1.00  0.00     0.040 A 
ATOM     70  F   UNL A   1      38.635  33.003  37.417  1.00  0.00    -0.206 F 
ATOM     71  C   UNL A   1      40.029  36.263  38.166  1.00  0.00     0.006 A 
ENDBRANCH  50  64
BRANCH  51  72
ATOM     72  C   UNL A   1      40.329  27.688  28.662  1.00  0.00     0.057 A 
ATOM     73  C   UNL A   1      41.073  27.962  27.508  1.00  0.00     0.134 A 
ATOM     74  C   UNL A   1      39.629  26.477  28.705  1.00  0.00     0.134 A 
ATOM     75  F   UNL A   1      41.750  29.114  27.399  1.00  0.00    -0.206 F 
ATOM     76  C   UNL A   1      41.103  27.075  26.429  1.00  0.00     0.040 A 
ATOM     77  C   UNL A   1      39.670  25.571  27.645  1.00  0.00     0.040 A 
ATOM     78  F   UNL A   1      38.905  26.152  29.786  1.00  0.00    -0.206 F 
ATOM     79  C   UNL A   1      40.402  25.873  26.499  1.00  0.00     0.006 A 
ENDBRANCH  51  72
BRANCH  63  80
ATOM     80  C   UNL A   1      44.126  28.496  34.441  1.00  0.00     0.057 A 
ATOM     81  C   UNL A   1      45.458  28.838  34.177  1.00  0.00     0.134 A 
ATOM     82  C   UNL A   1      43.892  27.416  35.301  1.00  0.00     0.134 A 
ATOM     83  F   UNL A   1      45.750  29.854  33.351  1.00  0.00    -0.206 F 
ATOM     84  C   UNL A   1      46.519  28.118  34.732  1.00  0.00     0.040 A 
ATOM     85  C   UNL A   1      44.943  26.706  35.883  1.00  0.00     0.040 A 
ATOM     86  F   UNL A   1      42.639  27.043  35.601  1.00  0.00    -0.206 F 
ATOM     87  C   UNL A   1      46.261  27.053  35.594  1.00  0.00     0.006 A 
ENDBRANCH  63  80
ENDBRANCH  37  38
ENDBRANCH  29  32
ENDBRANCH  27  28
ENDBRANCH  26  27
ENDBRANCH   1  26
TORSDOF 14
ENDMDL
MODEL 3
REMARK VINA RESULT:     -10.8      2.738      7.337
REMARK SMILES C[C@H](CNC(=O)N1C[C@H]2CCCC[N@@H+]2C[C@@H]1C)C(=O)NCCCCNC(=O)c1ccc(-c2c3nc(c(-c4c(F)cccc4F)c4ccc([nH]4)c(-c4c(F)cccc4F)c4nc(c(-c5c(F)cccc5F)c5ccc2[nH]5)C=C4)C=C3)cc1
REMARK SMILES IDX 22 1 21 2 20 3 18 4 19 5 2 7 1 8 3 9 4 10 5 11 6 13 7 14
REMARK SMILES IDX 8 15 16 16 9 17 15 18 17 19 10 20 14 21 11 22 13 23 12 25
REMARK SMILES IDX 23 26 24 27 25 28 26 29 27 31 28 32 29 33 81 34 30 35 80 36
REMARK SMILES IDX 31 37 32 38 33 39 74 40 34 41 79 42 73 43 75 44 35 45 78 46
REMARK SMILES IDX 72 47 71 48 36 50 62 51 45 52 61 53 46 54 49 55 60 56 76 57
REMARK SMILES IDX 47 58 48 59 59 61 77 62 50 63 37 64 38 65 43 66 39 67 40 68
REMARK SMILES IDX 42 69 44 70 41 71 63 72 64 73 69 74 65 75 66 76 68 77 70 78
REMARK SMILES IDX 67 79 51 80 52 81 57 82 53 83 54 84 56 85 58 86 55 87
REMARK H PARENT 20 6 4 12 14 24 25 30 75 49 49 60
REMARK Flexibility Score: inf
ROOT
ATOM      1  C   UNL A   1      31.753  29.189  27.223  1.00  0.00     0.023 C 
ENDROOT
BRANCH   1   2
ATOM      2  C   UNL A   1      31.881  28.065  26.195  1.00  0.00     0.116 C 
BRANCH   2   3
ATOM      3  N   UNL A   1      31.053  26.923  26.539  1.00  0.00    -0.356 N 
ATOM      4  C   UNL A   1      30.220  26.158  25.779  1.00  0.00     0.224 C 
ATOM      5  O   UNL A   1      29.604  25.254  26.349  1.00  0.00    -0.275 OA
ATOM      6  H   UNL A   1      31.102  26.654  27.485  1.00  0.00     0.163 HD
BRANCH   4   7
ATOM      7  C   UNL A   1      30.041  26.394  24.282  1.00  0.00     0.094 C 
ATOM      8  C   UNL A   1      28.615  26.828  23.953  1.00  0.00     0.020 C 
BRANCH   7   9
ATOM      9  C   UNL A   1      30.582  25.196  23.500  1.00  0.00     0.130 C 
BRANCH   9  10
ATOM     10  N   UNL A   1      31.546  25.529  22.467  1.00  0.00    -0.337 N 
ATOM     11  C   UNL A   1      32.793  25.048  22.233  1.00  0.00     0.318 C 
ATOM     12  H   UNL A   1      31.244  26.217  21.830  1.00  0.00     0.165 HD
ATOM     13  O   UNL A   1      33.499  25.643  21.423  1.00  0.00    -0.249 OA
BRANCH  11  14
ATOM     14  N   UNL A   1      33.213  23.973  22.969  1.00  0.00    -0.311 N 
ATOM     15  C   UNL A   1      33.057  22.625  22.420  1.00  0.00     0.186 C 
ATOM     16  C   UNL A   1      34.367  24.103  23.877  1.00  0.00     0.139 C 
ATOM     17  C   UNL A   1      32.862  21.622  23.565  1.00  0.00     0.203 C 
ATOM     18  C   UNL A   1      34.473  22.898  24.873  1.00  0.00     0.287 C 
ATOM     19  C   UNL A   1      34.303  25.380  24.733  1.00  0.00     0.037 C 
ATOM     20  C   UNL A   1      32.503  20.233  23.021  1.00  0.00     0.067 C 
ATOM     21  N   UNL A   1      34.090  21.551  24.387  1.00  0.00    -0.329 N 
ATOM     22  C   UNL A   1      32.287  19.250  24.167  1.00  0.00     0.012 C 
ATOM     23  C   UNL A   1      33.882  20.654  25.539  1.00  0.00     0.262 C 
ATOM     24  H   UNL A   1      34.841  21.184  23.802  1.00  0.00     0.348 HD
ATOM     25  C   UNL A   1      33.491  19.242  25.103  1.00  0.00     0.062 C 
ENDBRANCH  11  14
ENDBRANCH   9  10
ENDBRANCH   7   9
ENDBRANCH   4   7
ENDBRANCH   2   3
ENDBRANCH   1   2
BRANCH   1  26
ATOM     26  C   UNL A   1      31.668  30.592  26.624  1.00  0.00     0.023 C 
BRANCH  26  27
ATOM     27  C   UNL A   1      32.820  31.518  26.992  1.00  0.00     0.116 C 
BRANCH  27  28
ATOM     28  N   UNL A   1      32.386  32.857  27.360  1.00  0.00    -0.352 N 
ATOM     29  C   UNL A   1      33.026  33.774  28.160  1.00  0.00     0.251 C 
ATOM     30  H   UNL A   1      31.522  33.145  26.988  1.00  0.00     0.163 HD
ATOM     31  O   UNL A   1      32.473  34.825  28.467  1.00  0.00    -0.269 OA
BRANCH  29  32
ATOM     32  C   UNL A   1      34.372  33.460  28.678  1.00  0.00     0.039 A 
ATOM     33  C   UNL A   1      34.489  32.902  29.953  1.00  0.00     0.014 A 
ATOM     34  C   UNL A   1      35.505  33.671  27.888  1.00  0.00     0.014 A 
ATOM     35  C   UNL A   1      35.742  32.487  30.408  1.00  0.00     0.010 A 
ATOM     36  C   UNL A   1      36.737  33.188  28.312  1.00  0.00     0.010 A 
ATOM     37  C   UNL A   1      36.868  32.590  29.574  1.00  0.00    -0.014 A 
BRANCH  37  38
ATOM     38  C   UNL A   1      38.191  32.076  30.004  1.00  0.00     0.031 A 
ATOM     39  C   UNL A   1      38.690  30.756  29.486  1.00  0.00     0.074 A 
ATOM     40  C   UNL A   1      38.911  32.763  30.911  1.00  0.00     0.049 A 
ATOM     41  N   UNL A   1      39.780  30.103  29.800  1.00  0.00    -0.248 NA
ATOM     42  C   UNL A   1      37.835  30.063  28.508  1.00  0.00     0.031 C 
ATOM     43  C   UNL A   1      38.511  34.029  31.528  1.00  0.00     0.029 A 
ATOM     44  N   UNL A   1      40.127  32.485  31.484  1.00  0.00    -0.354 N 
ATOM     45  C   UNL A   1      39.736  28.924  29.069  1.00  0.00     0.074 A 
ATOM     46  C   UNL A   1      38.486  28.922  28.341  1.00  0.00     0.031 C 
ATOM     47  C   UNL A   1      39.473  34.428  32.377  1.00  0.00     0.029 A 
ATOM     48  C   UNL A   1      40.537  33.430  32.393  1.00  0.00     0.049 A 
ATOM     49  H   UNL A   1      40.655  31.683  31.264  1.00  0.00     0.167 HD
ATOM     50  C   UNL A   1      40.665  27.942  28.990  1.00  0.00     0.037 A 
ATOM     51  C   UNL A   1      41.643  33.481  33.158  1.00  0.00     0.037 A 
ATOM     52  C   UNL A   1      41.919  27.957  29.697  1.00  0.00     0.049 A 
ATOM     53  C   UNL A   1      42.659  32.378  33.055  1.00  0.00     0.074 A 
ATOM     54  C   UNL A   1      42.950  27.036  29.643  1.00  0.00     0.029 A 
ATOM     55  N   UNL A   1      42.309  28.944  30.590  1.00  0.00    -0.354 N 
ATOM     56  N   UNL A   1      42.635  31.299  32.309  1.00  0.00    -0.248 NA
ATOM     57  C   UNL A   1      43.859  32.500  33.895  1.00  0.00     0.031 C 
ATOM     58  C   UNL A   1      43.947  27.445  30.534  1.00  0.00     0.029 A 
ATOM     59  C   UNL A   1      43.558  28.645  31.107  1.00  0.00     0.049 A 
ATOM     60  H   UNL A   1      41.776  29.740  30.821  1.00  0.00     0.167 HD
ATOM     61  C   UNL A   1      43.826  30.631  32.568  1.00  0.00     0.074 A 
ATOM     62  C   UNL A   1      44.554  31.433  33.528  1.00  0.00     0.031 C 
ATOM     63  C   UNL A   1      44.274  29.459  32.056  1.00  0.00     0.037 A 
BRANCH  50  64
ATOM     64  C   UNL A   1      40.361  26.774  28.098  1.00  0.00     0.057 A 
ATOM     65  C   UNL A   1      40.912  26.664  26.814  1.00  0.00     0.134 A 
ATOM     66  C   UNL A   1      39.535  25.732  28.537  1.00  0.00     0.134 A 
ATOM     67  F   UNL A   1      41.701  27.634  26.327  1.00  0.00    -0.206 F 
ATOM     68  C   UNL A   1      40.630  25.574  25.989  1.00  0.00     0.040 A 
ATOM     69  C   UNL A   1      39.268  24.623  27.731  1.00  0.00     0.040 A 
ATOM     70  F   UNL A   1      38.979  25.771  29.758  1.00  0.00    -0.206 F 
ATOM     71  C   UNL A   1      39.811  24.545  26.451  1.00  0.00     0.006 A 
ENDBRANCH  50  64
BRANCH  51  72
ATOM     72  C   UNL A   1      41.861  34.629  34.075  1.00  0.00     0.057 A 
ATOM     73  C   UNL A   1      41.465  34.566  35.417  1.00  0.00     0.134 A 
ATOM     74  C   UNL A   1      42.456  35.815  33.633  1.00  0.00     0.134 A 
ATOM     75  F   UNL A   1      40.872  33.462  35.894  1.00  0.00    -0.206 F 
ATOM     76  C   UNL A   1      41.635  35.650  36.281  1.00  0.00     0.040 A 
ATOM     77  C   UNL A   1      42.655  36.897  34.493  1.00  0.00     0.040 A 
ATOM     78  F   UNL A   1      42.866  35.936  32.362  1.00  0.00    -0.206 F 
ATOM     79  C   UNL A   1      42.236  36.819  35.819  1.00  0.00     0.006 A 
ENDBRANCH  51  72
BRANCH  63  80
ATOM     80  C   UNL A   1      45.629  28.991  32.498  1.00  0.00     0.057 A 
ATOM     81  C   UNL A   1      45.796  28.136  33.594  1.00  0.00     0.134 A 
ATOM     82  C   UNL A   1      46.777  29.370  31.791  1.00  0.00     0.134 A 
ATOM     83  F   UNL A   1      44.737  27.747  34.321  1.00  0.00    -0.206 F 
ATOM     84  C   UNL A   1      47.060  27.692  33.986  1.00  0.00     0.040 A 
ATOM     85  C   UNL A   1      48.044  28.912  32.157  1.00  0.00     0.040 A 
ATOM     86  F   UNL A   1      46.686  30.181  30.726  1.00  0.00    -0.206 F 
ATOM     87  C   UNL A   1      48.188  28.075  33.261  1.00  0.00     0.006 A 
ENDBRANCH  63  80
ENDBRANCH  37  38
ENDBRANCH  29  32
ENDBRANCH  27  28
ENDBRANCH  26  27
ENDBRANCH   1  26
TORSDOF 14
ENDMDL
