MODEL 1
REMARK VINA RESULT:     -13.6      0.000      0.000
REMARK SMILES Cc1c(C(=O)NCCCCNC(=O)c2ccc(-c3c4nc(c(-c5c(F)cccc5F)c5ccc([nH]5)c(-c5c(F)cccc5F)c5nc(c(-c6c(F)cccc6F)c6ccc3[nH]6)C=C5)C=C4)cc2)oc2c1/C(=N/NC(=O)C(c1ccccc1)c1ccccc1)CCC2
REMARK SMILES IDX 8 1 7 2 6 3 4 4 5 5 3 7 1 8 2 9 70 10 68 11 69 12 71 13
REMARK SMILES IDX 91 14 72 15 89 16 90 17 73 18 74 19 75 21 76 22 77 23 78 24
REMARK SMILES IDX 82 25 79 26 81 27 80 28 83 29 84 30 88 31 85 32 87 33 86 34
REMARK SMILES IDX 9 35 10 36 11 37 12 38 13 40 14 41 15 42 67 43 16 44 66 45
REMARK SMILES IDX 17 46 18 47 19 48 60 49 20 50 65 51 59 52 61 53 21 54 64 55
REMARK SMILES IDX 58 56 57 57 22 59 48 60 31 61 47 62 32 63 35 64 46 65 62 66
REMARK SMILES IDX 33 67 34 68 45 70 63 71 36 72 23 73 24 74 29 75 25 76 26 77
REMARK SMILES IDX 28 78 30 79 27 80 49 81 50 82 55 83 51 84 52 85 54 86 56 87
REMARK SMILES IDX 53 88 37 89 38 90 43 91 39 92 40 93 42 94 44 95 41 96
REMARK H PARENT 6 6 73 20 11 39 61 58 35 69
REMARK Flexibility Score: inf
ROOT
ATOM      1  C   UNL A   1      36.855  19.973  25.225  1.00  0.00     0.023 C 
ENDROOT
BRANCH   1   2
ATOM      2  C   UNL A   1      35.746  19.500  24.267  1.00  0.00     0.116 C 
BRANCH   2   3
ATOM      3  N   UNL A   1      34.612  18.844  24.939  1.00  0.00    -0.349 N 
ATOM      4  C   UNL A   1      33.356  19.331  25.325  1.00  0.00     0.287 C 
ATOM      5  O   UNL A   1      32.530  18.523  25.724  1.00  0.00    -0.266 OA
ATOM      6  H   UNL A   1      34.763  17.896  25.155  1.00  0.00     0.163 HD
BRANCH   4   7
ATOM      7  C   UNL A   1      33.092  20.752  25.175  1.00  0.00     0.195 A 
ATOM      8  C   UNL A   1      31.787  21.199  22.964  1.00  0.00     0.049 C 
ATOM      9  C   UNL A   1      32.505  21.586  24.205  1.00  0.00     0.010 A 
ATOM     10  C   UNL A   1      32.914  22.917  24.565  1.00  0.00     0.043 A 
ATOM     11  O   UNL A   1      33.591  21.514  26.172  1.00  0.00    -0.455 OA
ATOM     12  C   UNL A   1      33.680  22.741  25.700  1.00  0.00     0.114 A 
ATOM     13  C   UNL A   1      32.893  24.255  23.970  1.00  0.00     0.072 C 
ATOM     14  C   UNL A   1      34.681  23.603  26.350  1.00  0.00     0.076 C 
ATOM     15  N   UNL A   1      31.984  24.610  23.111  1.00  0.00    -0.177 NA
ATOM     16  C   UNL A   1      34.080  25.026  24.439  1.00  0.00     0.059 C 
ATOM     17  C   UNL A   1      34.361  25.005  25.935  1.00  0.00     0.014 C 
BRANCH  15  18
ATOM     18  N   UNL A   1      31.749  25.817  22.448  1.00  0.00    -0.246 N 
ATOM     19  C   UNL A   1      31.082  27.030  22.565  1.00  0.00     0.252 C 
ATOM     20  H   UNL A   1      32.229  25.803  21.588  1.00  0.00     0.193 HD
ATOM     21  O   UNL A   1      31.043  27.713  21.523  1.00  0.00    -0.272 OA
BRANCH  19  22
ATOM     22  C   UNL A   1      30.427  27.646  23.848  1.00  0.00     0.140 C 
BRANCH  22  23
ATOM     23  C   UNL A   1      31.549  27.809  24.946  1.00  0.00    -0.031 A 
ATOM     24  C   UNL A   1      31.401  27.437  26.290  1.00  0.00     0.005 A 
ATOM     25  C   UNL A   1      32.803  28.389  24.606  1.00  0.00     0.005 A 
ATOM     26  C   UNL A   1      32.385  27.774  27.249  1.00  0.00     0.000 A 
ATOM     27  C   UNL A   1      33.761  28.758  25.554  1.00  0.00     0.000 A 
ATOM     28  C   UNL A   1      33.543  28.467  26.888  1.00  0.00     0.000 A 
ENDBRANCH  22  23
BRANCH  22  29
ATOM     29  C   UNL A   1      29.467  28.816  23.348  1.00  0.00    -0.031 A 
ATOM     30  C   UNL A   1      29.885  30.155  23.578  1.00  0.00     0.005 A 
ATOM     31  C   UNL A   1      28.130  28.648  22.937  1.00  0.00     0.005 A 
ATOM     32  C   UNL A   1      28.971  31.201  23.724  1.00  0.00     0.000 A 
ATOM     33  C   UNL A   1      27.213  29.717  23.047  1.00  0.00     0.000 A 
ATOM     34  C   UNL A   1      27.623  30.971  23.504  1.00  0.00     0.000 A 
ENDBRANCH  22  29
ENDBRANCH  19  22
ENDBRANCH  15  18
ENDBRANCH   4   7
ENDBRANCH   2   3
ENDBRANCH   1   2
BRANCH   1  35
ATOM     35  C   UNL A   1      38.213  19.284  25.028  1.00  0.00     0.023 C 
BRANCH  35  36
ATOM     36  C   UNL A   1      39.359  19.879  25.840  1.00  0.00     0.116 C 
BRANCH  36  37
ATOM     37  N   UNL A   1      40.558  19.037  25.876  1.00  0.00    -0.352 N 
ATOM     38  C   UNL A   1      41.883  19.449  25.897  1.00  0.00     0.251 C 
ATOM     39  H   UNL A   1      40.405  18.064  25.887  1.00  0.00     0.163 HD
ATOM     40  O   UNL A   1      42.780  18.725  25.492  1.00  0.00    -0.269 OA
BRANCH  38  41
ATOM     41  C   UNL A   1      42.195  20.773  26.466  1.00  0.00     0.039 A 
ATOM     42  C   UNL A   1      42.738  21.816  25.706  1.00  0.00     0.014 A 
ATOM     43  C   UNL A   1      41.916  20.949  27.817  1.00  0.00     0.014 A 
ATOM     44  C   UNL A   1      42.937  23.058  26.312  1.00  0.00     0.010 A 
ATOM     45  C   UNL A   1      41.938  22.204  28.356  1.00  0.00     0.010 A 
ATOM     46  C   UNL A   1      42.527  23.238  27.639  1.00  0.00    -0.014 A 
BRANCH  46  47
ATOM     47  C   UNL A   1      42.555  24.533  28.308  1.00  0.00     0.031 A 
ATOM     48  C   UNL A   1      41.303  25.316  28.127  1.00  0.00     0.074 A 
ATOM     49  C   UNL A   1      43.476  24.803  29.263  1.00  0.00     0.049 A 
ATOM     50  N   UNL A   1      41.145  26.434  27.499  1.00  0.00    -0.248 NA
ATOM     51  C   UNL A   1      40.032  24.689  28.538  1.00  0.00     0.031 C 
ATOM     52  C   UNL A   1      44.538  23.920  29.765  1.00  0.00     0.029 A 
ATOM     53  N   UNL A   1      43.577  25.877  30.095  1.00  0.00    -0.354 N 
ATOM     54  C   UNL A   1      39.801  26.766  27.665  1.00  0.00     0.074 A 
ATOM     55  C   UNL A   1      39.141  25.553  28.053  1.00  0.00     0.031 C 
ATOM     56  C   UNL A   1      45.010  24.391  30.940  1.00  0.00     0.029 A 
ATOM     57  C   UNL A   1      44.400  25.679  31.208  1.00  0.00     0.049 A 
ATOM     58  H   UNL A   1      43.109  26.727  29.924  1.00  0.00     0.167 HD
ATOM     59  C   UNL A   1      39.414  28.067  27.791  1.00  0.00     0.037 A 
ATOM     60  C   UNL A   1      44.513  26.508  32.280  1.00  0.00     0.037 A 
ATOM     61  C   UNL A   1      40.465  28.950  27.333  1.00  0.00     0.049 A 
ATOM     62  C   UNL A   1      43.940  27.818  31.876  1.00  0.00     0.074 A 
ATOM     63  C   UNL A   1      41.172  29.094  26.154  1.00  0.00     0.029 A 
ATOM     64  N   UNL A   1      41.213  29.592  28.291  1.00  0.00    -0.354 N 
ATOM     65  N   UNL A   1      44.488  28.608  30.997  1.00  0.00    -0.248 NA
ATOM     66  C   UNL A   1      42.513  28.008  32.090  1.00  0.00     0.031 C 
ATOM     67  C   UNL A   1      42.514  29.360  26.560  1.00  0.00     0.029 A 
ATOM     68  C   UNL A   1      42.533  29.461  27.949  1.00  0.00     0.049 A 
ATOM     69  H   UNL A   1      40.861  30.062  29.082  1.00  0.00     0.167 HD
ATOM     70  C   UNL A   1      43.426  29.064  30.231  1.00  0.00     0.074 A 
ATOM     71  C   UNL A   1      42.227  28.712  30.992  1.00  0.00     0.031 C 
ATOM     72  C   UNL A   1      43.600  29.401  28.919  1.00  0.00     0.037 A 
BRANCH  59  73
ATOM     73  C   UNL A   1      38.306  28.553  28.713  1.00  0.00     0.057 A 
ATOM     74  C   UNL A   1      37.399  29.513  28.222  1.00  0.00     0.134 A 
ATOM     75  C   UNL A   1      38.254  28.363  30.111  1.00  0.00     0.134 A 
ATOM     76  F   UNL A   1      37.326  29.785  26.910  1.00  0.00    -0.206 F 
ATOM     77  C   UNL A   1      36.600  30.300  29.061  1.00  0.00     0.040 A 
ATOM     78  C   UNL A   1      37.422  29.110  30.952  1.00  0.00     0.040 A 
ATOM     79  F   UNL A   1      39.052  27.519  30.768  1.00  0.00    -0.206 F 
ATOM     80  C   UNL A   1      36.621  30.110  30.434  1.00  0.00     0.006 A 
ENDBRANCH  59  73
BRANCH  60  81
ATOM     81  C   UNL A   1      44.791  26.208  33.709  1.00  0.00     0.057 A 
ATOM     82  C   UNL A   1      45.631  27.041  34.469  1.00  0.00     0.134 A 
ATOM     83  C   UNL A   1      44.015  25.294  34.439  1.00  0.00     0.134 A 
ATOM     84  F   UNL A   1      46.393  27.969  33.871  1.00  0.00    -0.206 F 
ATOM     85  C   UNL A   1      45.660  27.001  35.871  1.00  0.00     0.040 A 
ATOM     86  C   UNL A   1      44.039  25.239  35.839  1.00  0.00     0.040 A 
ATOM     87  F   UNL A   1      43.137  24.487  33.826  1.00  0.00    -0.206 F 
ATOM     88  C   UNL A   1      44.848  26.108  36.561  1.00  0.00     0.006 A 
ENDBRANCH  60  81
BRANCH  72  89
ATOM     89  C   UNL A   1      45.008  29.506  28.395  1.00  0.00     0.057 A 
ATOM     90  C   UNL A   1      45.734  28.443  27.835  1.00  0.00     0.134 A 
ATOM     91  C   UNL A   1      45.596  30.773  28.327  1.00  0.00     0.134 A 
ATOM     92  F   UNL A   1      45.216  27.210  27.758  1.00  0.00    -0.206 F 
ATOM     93  C   UNL A   1      47.006  28.626  27.281  1.00  0.00     0.040 A 
ATOM     94  C   UNL A   1      46.847  30.977  27.742  1.00  0.00     0.040 A 
ATOM     95  F   UNL A   1      44.940  31.848  28.792  1.00  0.00    -0.206 F 
ATOM     96  C   UNL A   1      47.563  29.900  27.229  1.00  0.00     0.006 A 
ENDBRANCH  72  89
ENDBRANCH  46  47
ENDBRANCH  38  41
ENDBRANCH  36  37
ENDBRANCH  35  36
ENDBRANCH   1  35
TORSDOF 15
ENDMDL
MODEL 2
REMARK VINA RESULT:     -13.1      1.254      2.533
REMARK SMILES Cc1c(C(=O)NCCCCNC(=O)c2ccc(-c3c4nc(c(-c5c(F)cccc5F)c5ccc([nH]5)c(-c5c(F)cccc5F)c5nc(c(-c6c(F)cccc6F)c6ccc3[nH]6)C=C5)C=C4)cc2)oc2c1/C(=N/NC(=O)C(c1ccccc1)c1ccccc1)CCC2
REMARK SMILES IDX 8 1 7 2 6 3 4 4 5 5 3 7 1 8 2 9 70 10 68 11 69 12 71 13
REMARK SMILES IDX 91 14 72 15 89 16 90 17 73 18 74 19 75 21 76 22 77 23 78 24
REMARK SMILES IDX 82 25 79 26 81 27 80 28 83 29 84 30 88 31 85 32 87 33 86 34
REMARK SMILES IDX 9 35 10 36 11 37 12 38 13 40 14 41 15 42 67 43 16 44 66 45
REMARK SMILES IDX 17 46 18 47 19 48 60 49 20 50 65 51 59 52 61 53 21 54 64 55
REMARK SMILES IDX 58 56 57 57 22 59 48 60 31 61 47 62 32 63 35 64 46 65 62 66
REMARK SMILES IDX 33 67 34 68 45 70 63 71 36 72 23 73 24 74 29 75 25 76 26 77
REMARK SMILES IDX 28 78 30 79 27 80 49 81 50 82 55 83 51 84 52 85 54 86 56 87
REMARK SMILES IDX 53 88 37 89 38 90 43 91 39 92 40 93 42 94 44 95 41 96
REMARK H PARENT 6 6 73 20 11 39 61 58 35 69
REMARK Flexibility Score: inf
ROOT
ATOM      1  C   UNL A   1      36.977  20.922  24.321  1.00  0.00     0.023 C 
ENDROOT
BRANCH   1   2
ATOM      2  C   UNL A   1      35.482  20.858  24.686  1.00  0.00     0.116 C 
BRANCH   2   3
ATOM      3  N   UNL A   1      35.211  20.972  26.128  1.00  0.00    -0.349 N 
ATOM      4  C   UNL A   1      34.412  21.867  26.854  1.00  0.00     0.287 C 
ATOM      5  O   UNL A   1      34.232  21.635  28.041  1.00  0.00    -0.266 OA
ATOM      6  H   UNL A   1      35.672  20.301  26.682  1.00  0.00     0.163 HD
BRANCH   4   7
ATOM      7  C   UNL A   1      33.801  22.977  26.144  1.00  0.00     0.195 A 
ATOM      8  C   UNL A   1      31.356  23.341  26.967  1.00  0.00     0.049 C 
ATOM      9  C   UNL A   1      32.537  23.593  26.103  1.00  0.00     0.010 A 
ATOM     10  C   UNL A   1      32.556  24.398  24.911  1.00  0.00     0.043 A 
ATOM     11  O   UNL A   1      34.602  23.545  25.217  1.00  0.00    -0.455 OA
ATOM     12  C   UNL A   1      33.814  24.189  24.380  1.00  0.00     0.114 A 
ATOM     13  C   UNL A   1      31.598  25.145  24.093  1.00  0.00     0.072 C 
ATOM     14  C   UNL A   1      34.352  24.396  23.026  1.00  0.00     0.076 C 
ATOM     15  N   UNL A   1      30.520  25.665  24.601  1.00  0.00    -0.177 NA
ATOM     16  C   UNL A   1      32.029  25.110  22.666  1.00  0.00     0.059 C 
ATOM     17  C   UNL A   1      33.489  25.437  22.384  1.00  0.00     0.014 C 
BRANCH  15  18
ATOM     18  N   UNL A   1      29.498  26.430  24.035  1.00  0.00    -0.246 N 
ATOM     19  C   UNL A   1      29.214  27.692  23.526  1.00  0.00     0.252 C 
ATOM     20  H   UNL A   1      28.686  25.876  23.973  1.00  0.00     0.193 HD
ATOM     21  O   UNL A   1      28.005  27.919  23.323  1.00  0.00    -0.272 OA
BRANCH  19  22
ATOM     22  C   UNL A   1      30.228  28.823  23.143  1.00  0.00     0.140 C 
BRANCH  22  23
ATOM     23  C   UNL A   1      29.406  30.088  22.682  1.00  0.00    -0.031 A 
ATOM     24  C   UNL A   1      28.976  30.316  21.366  1.00  0.00     0.005 A 
ATOM     25  C   UNL A   1      29.074  31.105  23.620  1.00  0.00     0.005 A 
ATOM     26  C   UNL A   1      28.397  31.553  20.997  1.00  0.00     0.000 A 
ATOM     27  C   UNL A   1      28.538  32.342  23.253  1.00  0.00     0.000 A 
ATOM     28  C   UNL A   1      28.215  32.577  21.929  1.00  0.00     0.000 A 
ENDBRANCH  22  23
BRANCH  22  29
ATOM     29  C   UNL A   1      31.348  28.830  24.278  1.00  0.00    -0.031 A 
ATOM     30  C   UNL A   1      32.702  28.699  23.867  1.00  0.00     0.005 A 
ATOM     31  C   UNL A   1      31.104  28.692  25.658  1.00  0.00     0.005 A 
ATOM     32  C   UNL A   1      33.677  28.139  24.698  1.00  0.00     0.000 A 
ATOM     33  C   UNL A   1      32.102  28.163  26.506  1.00  0.00     0.000 A 
ATOM     34  C   UNL A   1      33.363  27.826  26.009  1.00  0.00     0.000 A 
ENDBRANCH  22  29
ENDBRANCH  19  22
ENDBRANCH  15  18
ENDBRANCH   4   7
ENDBRANCH   2   3
ENDBRANCH   1   2
BRANCH   1  35
ATOM     35  C   UNL A   1      37.823  19.765  24.873  1.00  0.00     0.023 C 
BRANCH  35  36
ATOM     36  C   UNL A   1      38.940  20.183  25.824  1.00  0.00     0.116 C 
BRANCH  36  37
ATOM     37  N   UNL A   1      40.033  19.211  25.915  1.00  0.00    -0.352 N 
ATOM     38  C   UNL A   1      41.394  19.471  25.986  1.00  0.00     0.251 C 
ATOM     39  H   UNL A   1      39.771  18.261  25.925  1.00  0.00     0.163 HD
ATOM     40  O   UNL A   1      42.219  18.647  25.623  1.00  0.00    -0.269 OA
BRANCH  38  41
ATOM     41  C   UNL A   1      41.831  20.758  26.559  1.00  0.00     0.039 A 
ATOM     42  C   UNL A   1      42.555  21.707  25.826  1.00  0.00     0.014 A 
ATOM     43  C   UNL A   1      41.481  20.999  27.883  1.00  0.00     0.014 A 
ATOM     44  C   UNL A   1      42.867  22.928  26.428  1.00  0.00     0.010 A 
ATOM     45  C   UNL A   1      41.624  22.253  28.405  1.00  0.00     0.010 A 
ATOM     46  C   UNL A   1      42.390  23.188  27.719  1.00  0.00    -0.014 A 
BRANCH  46  47
ATOM     47  C   UNL A   1      42.535  24.484  28.370  1.00  0.00     0.031 A 
ATOM     48  C   UNL A   1      41.383  25.395  28.132  1.00  0.00     0.074 A 
ATOM     49  C   UNL A   1      43.445  24.670  29.356  1.00  0.00     0.049 A 
ATOM     50  N   UNL A   1      41.371  26.512  27.483  1.00  0.00    -0.248 NA
ATOM     51  C   UNL A   1      40.037  24.916  28.504  1.00  0.00     0.031 C 
ATOM     52  C   UNL A   1      44.385  23.685  29.910  1.00  0.00     0.029 A 
ATOM     53  N   UNL A   1      43.633  25.741  30.176  1.00  0.00    -0.354 N 
ATOM     54  C   UNL A   1      40.065  26.991  27.594  1.00  0.00     0.074 A 
ATOM     55  C   UNL A   1      39.263  25.863  27.974  1.00  0.00     0.031 C 
ATOM     56  C   UNL A   1      44.864  24.124  31.095  1.00  0.00     0.029 A 
ATOM     57  C   UNL A   1      44.389  25.475  31.322  1.00  0.00     0.049 A 
ATOM     58  H   UNL A   1      43.266  26.633  29.976  1.00  0.00     0.167 HD
ATOM     59  C   UNL A   1      39.818  28.328  27.687  1.00  0.00     0.037 A 
ATOM     60  C   UNL A   1      44.553  26.306  32.386  1.00  0.00     0.037 A 
ATOM     61  C   UNL A   1      40.975  29.083  27.257  1.00  0.00     0.049 A 
ATOM     62  C   UNL A   1      44.141  27.663  31.943  1.00  0.00     0.074 A 
ATOM     63  C   UNL A   1      41.736  29.129  26.103  1.00  0.00     0.029 A 
ATOM     64  N   UNL A   1      41.754  29.658  28.233  1.00  0.00    -0.354 N 
ATOM     65  N   UNL A   1      44.803  28.373  31.074  1.00  0.00    -0.248 NA
ATOM     66  C   UNL A   1      42.736  28.010  32.100  1.00  0.00     0.031 C 
ATOM     67  C   UNL A   1      43.083  29.255  26.556  1.00  0.00     0.029 A 
ATOM     68  C   UNL A   1      43.063  29.379  27.943  1.00  0.00     0.049 A 
ATOM     69  H   UNL A   1      41.427  30.177  29.004  1.00  0.00     0.167 HD
ATOM     70  C   UNL A   1      43.825  28.928  30.262  1.00  0.00     0.074 A 
ATOM     71  C   UNL A   1      42.568  28.721  30.983  1.00  0.00     0.031 C 
ATOM     72  C   UNL A   1      44.082  29.221  28.953  1.00  0.00     0.037 A 
BRANCH  59  73
ATOM     73  C   UNL A   1      38.738  28.947  28.560  1.00  0.00     0.057 A 
ATOM     74  C   UNL A   1      37.878  29.904  27.984  1.00  0.00     0.134 A 
ATOM     75  C   UNL A   1      38.679  28.884  29.969  1.00  0.00     0.134 A 
ATOM     76  F   UNL A   1      37.816  30.063  26.653  1.00  0.00    -0.206 F 
ATOM     77  C   UNL A   1      37.121  30.801  28.749  1.00  0.00     0.040 A 
ATOM     78  C   UNL A   1      37.887  29.743  30.739  1.00  0.00     0.040 A 
ATOM     79  F   UNL A   1      39.436  28.063  30.700  1.00  0.00    -0.206 F 
ATOM     80  C   UNL A   1      37.135  30.731  30.133  1.00  0.00     0.006 A 
ENDBRANCH  59  73
BRANCH  60  81
ATOM     81  C   UNL A   1      44.746  26.003  33.828  1.00  0.00     0.057 A 
ATOM     82  C   UNL A   1      45.963  26.293  34.468  1.00  0.00     0.134 A 
ATOM     83  C   UNL A   1      43.664  25.715  34.676  1.00  0.00     0.134 A 
ATOM     84  F   UNL A   1      47.052  26.609  33.751  1.00  0.00    -0.206 F 
ATOM     85  C   UNL A   1      46.086  26.341  35.864  1.00  0.00     0.040 A 
ATOM     86  C   UNL A   1      43.774  25.754  36.072  1.00  0.00     0.040 A 
ATOM     87  F   UNL A   1      42.441  25.479  34.181  1.00  0.00    -0.206 F 
ATOM     88  C   UNL A   1      44.983  26.088  36.672  1.00  0.00     0.006 A 
ENDBRANCH  60  81
BRANCH  72  89
ATOM     89  C   UNL A   1      45.510  29.163  28.481  1.00  0.00     0.057 A 
ATOM     90  C   UNL A   1      46.131  28.022  27.946  1.00  0.00     0.134 A 
ATOM     91  C   UNL A   1      46.242  30.354  28.437  1.00  0.00     0.134 A 
ATOM     92  F   UNL A   1      45.478  26.856  27.848  1.00  0.00    -0.206 F 
ATOM     93  C   UNL A   1      47.434  28.058  27.439  1.00  0.00     0.040 A 
ATOM     94  C   UNL A   1      47.529  30.412  27.899  1.00  0.00     0.040 A 
ATOM     95  F   UNL A   1      45.696  31.498  28.879  1.00  0.00    -0.206 F 
ATOM     96  C   UNL A   1      48.135  29.260  27.409  1.00  0.00     0.006 A 
ENDBRANCH  72  89
ENDBRANCH  46  47
ENDBRANCH  38  41
ENDBRANCH  36  37
ENDBRANCH  35  36
ENDBRANCH   1  35
TORSDOF 15
ENDMDL
MODEL 3
REMARK VINA RESULT:     -13.1      1.966      5.637
REMARK SMILES Cc1c(C(=O)NCCCCNC(=O)c2ccc(-c3c4nc(c(-c5c(F)cccc5F)c5ccc([nH]5)c(-c5c(F)cccc5F)c5nc(c(-c6c(F)cccc6F)c6ccc3[nH]6)C=C5)C=C4)cc2)oc2c1/C(=N/NC(=O)C(c1ccccc1)c1ccccc1)CCC2
REMARK SMILES IDX 8 1 7 2 6 3 4 4 5 5 3 7 1 8 2 9 70 10 68 11 69 12 71 13
REMARK SMILES IDX 91 14 72 15 89 16 90 17 73 18 74 19 75 21 76 22 77 23 78 24
REMARK SMILES IDX 82 25 79 26 81 27 80 28 83 29 84 30 88 31 85 32 87 33 86 34
REMARK SMILES IDX 9 35 10 36 11 37 12 38 13 40 14 41 15 42 67 43 16 44 66 45
REMARK SMILES IDX 17 46 18 47 19 48 60 49 20 50 65 51 59 52 61 53 21 54 64 55
REMARK SMILES IDX 58 56 57 57 22 59 48 60 31 61 47 62 32 63 35 64 46 65 62 66
REMARK SMILES IDX 33 67 34 68 45 70 63 71 36 72 23 73 24 74 29 75 25 76 26 77
REMARK SMILES IDX 28 78 30 79 27 80 49 81 50 82 55 83 51 84 52 85 54 86 56 87
REMARK SMILES IDX 53 88 37 89 38 90 43 91 39 92 40 93 42 94 44 95 41 96
REMARK H PARENT 6 6 73 20 11 39 61 58 35 69
REMARK Flexibility Score: inf
ROOT
ATOM      1  C   UNL A   1      35.835  20.726  25.438  1.00  0.00     0.023 C 
ENDROOT
BRANCH   1   2
ATOM      2  C   UNL A   1      35.474  19.535  24.532  1.00  0.00     0.116 C 
BRANCH   2   3
ATOM      3  N   UNL A   1      34.297  18.774  24.983  1.00  0.00    -0.349 N 
ATOM      4  C   UNL A   1      32.965  19.159  25.185  1.00  0.00     0.287 C 
ATOM      5  O   UNL A   1      32.146  18.280  25.409  1.00  0.00    -0.266 OA
ATOM      6  H   UNL A   1      34.478  17.826  25.177  1.00  0.00     0.163 HD
BRANCH   4   7
ATOM      7  C   UNL A   1      32.629  20.568  25.059  1.00  0.00     0.195 A 
ATOM      8  C   UNL A   1      32.161  21.164  22.566  1.00  0.00     0.049 C 
ATOM      9  C   UNL A   1      32.346  21.461  24.010  1.00  0.00     0.010 A 
ATOM     10  C   UNL A   1      32.462  22.769  24.596  1.00  0.00     0.043 A 
ATOM     11  O   UNL A   1      32.659  21.248  26.225  1.00  0.00    -0.455 OA
ATOM     12  C   UNL A   1      32.786  22.522  25.915  1.00  0.00     0.114 A 
ATOM     13  C   UNL A   1      32.519  24.159  24.140  1.00  0.00     0.072 C 
ATOM     14  C   UNL A   1      33.395  23.373  26.951  1.00  0.00     0.076 C 
ATOM     15  N   UNL A   1      31.945  24.545  23.039  1.00  0.00    -0.177 NA
ATOM     16  C   UNL A   1      33.375  24.953  25.068  1.00  0.00     0.059 C 
ATOM     17  C   UNL A   1      33.104  24.788  26.557  1.00  0.00     0.014 C 
BRANCH  15  18
ATOM     18  N   UNL A   1      31.842  25.798  22.431  1.00  0.00    -0.246 N 
ATOM     19  C   UNL A   1      31.258  27.051  22.576  1.00  0.00     0.252 C 
ATOM     20  H   UNL A   1      32.373  25.793  21.602  1.00  0.00     0.193 HD
ATOM     21  O   UNL A   1      31.336  27.788  21.573  1.00  0.00    -0.272 OA
BRANCH  19  22
ATOM     22  C   UNL A   1      30.568  27.648  23.849  1.00  0.00     0.140 C 
BRANCH  22  23
ATOM     23  C   UNL A   1      31.695  28.061  24.874  1.00  0.00    -0.031 A 
ATOM     24  C   UNL A   1      33.010  28.392  24.513  1.00  0.00     0.005 A 
ATOM     25  C   UNL A   1      31.417  28.091  26.269  1.00  0.00     0.005 A 
ATOM     26  C   UNL A   1      34.006  28.580  25.500  1.00  0.00     0.000 A 
ATOM     27  C   UNL A   1      32.404  28.239  27.246  1.00  0.00     0.000 A 
ATOM     28  C   UNL A   1      33.712  28.465  26.860  1.00  0.00     0.000 A 
ENDBRANCH  22  23
BRANCH  22  29
ATOM     29  C   UNL A   1      29.415  28.617  23.327  1.00  0.00    -0.031 A 
ATOM     30  C   UNL A   1      29.672  30.014  23.340  1.00  0.00     0.005 A 
ATOM     31  C   UNL A   1      28.077  28.236  23.099  1.00  0.00     0.005 A 
ATOM     32  C   UNL A   1      28.645  30.954  23.464  1.00  0.00     0.000 A 
ATOM     33  C   UNL A   1      27.042  29.193  23.185  1.00  0.00     0.000 A 
ATOM     34  C   UNL A   1      27.326  30.538  23.434  1.00  0.00     0.000 A 
ENDBRANCH  22  29
ENDBRANCH  19  22
ENDBRANCH  15  18
ENDBRANCH   4   7
ENDBRANCH   2   3
ENDBRANCH   1   2
BRANCH   1  35
ATOM     35  C   UNL A   1      36.388  21.953  24.698  1.00  0.00     0.023 C 
BRANCH  35  36
ATOM     36  C   UNL A   1      37.620  22.587  25.337  1.00  0.00     0.116 C 
BRANCH  36  37
ATOM     37  N   UNL A   1      38.436  21.646  26.108  1.00  0.00    -0.352 N 
ATOM     38  C   UNL A   1      39.663  21.884  26.710  1.00  0.00     0.251 C 
ATOM     39  H   UNL A   1      38.071  20.737  26.211  1.00  0.00     0.163 HD
ATOM     40  O   UNL A   1      40.448  20.976  26.936  1.00  0.00    -0.269 OA
BRANCH  38  41
ATOM     41  C   UNL A   1      39.987  23.264  27.118  1.00  0.00     0.039 A 
ATOM     42  C   UNL A   1      39.088  24.328  26.972  1.00  0.00     0.014 A 
ATOM     43  C   UNL A   1      41.246  23.468  27.673  1.00  0.00     0.014 A 
ATOM     44  C   UNL A   1      39.453  25.588  27.450  1.00  0.00     0.010 A 
ATOM     45  C   UNL A   1      41.527  24.648  28.301  1.00  0.00     0.010 A 
ATOM     46  C   UNL A   1      40.677  25.732  28.118  1.00  0.00    -0.014 A 
BRANCH  46  47
ATOM     47  C   UNL A   1      41.077  26.967  28.780  1.00  0.00     0.031 A 
ATOM     48  C   UNL A   1      42.265  27.610  28.158  1.00  0.00     0.074 A 
ATOM     49  C   UNL A   1      40.234  27.608  29.625  1.00  0.00     0.049 A 
ATOM     50  N   UNL A   1      43.438  27.784  28.670  1.00  0.00    -0.248 NA
ATOM     51  C   UNL A   1      42.197  27.939  26.720  1.00  0.00     0.031 C 
ATOM     52  C   UNL A   1      38.872  27.213  30.009  1.00  0.00     0.029 A 
ATOM     53  N   UNL A   1      40.360  28.828  30.218  1.00  0.00    -0.354 N 
ATOM     54  C   UNL A   1      44.167  28.474  27.702  1.00  0.00     0.074 A 
ATOM     55  C   UNL A   1      43.458  28.288  26.468  1.00  0.00     0.031 C 
ATOM     56  C   UNL A   1      38.229  28.264  30.566  1.00  0.00     0.029 A 
ATOM     57  C   UNL A   1      39.167  29.359  30.718  1.00  0.00     0.049 A 
ATOM     58  H   UNL A   1      41.222  29.297  30.290  1.00  0.00     0.167 HD
ATOM     59  C   UNL A   1      45.098  29.403  28.061  1.00  0.00     0.037 A 
ATOM     60  C   UNL A   1      38.982  30.628  31.172  1.00  0.00     0.037 A 
ATOM     61  C   UNL A   1      45.458  29.242  29.452  1.00  0.00     0.049 A 
ATOM     62  C   UNL A   1      40.331  31.200  31.420  1.00  0.00     0.074 A 
ATOM     63  C   UNL A   1      45.951  28.201  30.217  1.00  0.00     0.029 A 
ATOM     64  N   UNL A   1      44.932  30.140  30.350  1.00  0.00    -0.354 N 
ATOM     65  N   UNL A   1      41.123  30.797  32.372  1.00  0.00    -0.248 NA
ATOM     66  C   UNL A   1      40.978  31.871  30.303  1.00  0.00     0.031 C 
ATOM     67  C   UNL A   1      45.251  28.292  31.457  1.00  0.00     0.029 A 
ATOM     68  C   UNL A   1      44.450  29.431  31.419  1.00  0.00     0.049 A 
ATOM     69  H   UNL A   1      44.905  31.119  30.243  1.00  0.00     0.167 HD
ATOM     70  C   UNL A   1      42.377  30.748  31.780  1.00  0.00     0.074 A 
ATOM     71  C   UNL A   1      42.236  31.483  30.523  1.00  0.00     0.031 C 
ATOM     72  C   UNL A   1      43.322  29.859  32.210  1.00  0.00     0.037 A 
BRANCH  59  73
ATOM     73  C   UNL A   1      45.349  30.705  27.315  1.00  0.00     0.057 A 
ATOM     74  C   UNL A   1      46.680  31.058  27.015  1.00  0.00     0.134 A 
ATOM     75  C   UNL A   1      44.415  31.748  27.138  1.00  0.00     0.134 A 
ATOM     76  F   UNL A   1      47.672  30.161  27.121  1.00  0.00    -0.206 F 
ATOM     77  C   UNL A   1      47.062  32.366  26.688  1.00  0.00     0.040 A 
ATOM     78  C   UNL A   1      44.781  33.046  26.763  1.00  0.00     0.040 A 
ATOM     79  F   UNL A   1      43.112  31.620  27.396  1.00  0.00    -0.206 F 
ATOM     80  C   UNL A   1      46.112  33.369  26.577  1.00  0.00     0.006 A 
ENDBRANCH  59  73
BRANCH  60  81
ATOM     81  C   UNL A   1      37.780  31.502  31.135  1.00  0.00     0.057 A 
ATOM     82  C   UNL A   1      37.329  32.054  29.923  1.00  0.00     0.134 A 
ATOM     83  C   UNL A   1      36.879  31.568  32.209  1.00  0.00     0.134 A 
ATOM     84  F   UNL A   1      38.101  32.017  28.827  1.00  0.00    -0.206 F 
ATOM     85  C   UNL A   1      36.043  32.595  29.776  1.00  0.00     0.040 A 
ATOM     86  C   UNL A   1      35.594  32.111  32.078  1.00  0.00     0.040 A 
ATOM     87  F   UNL A   1      37.177  31.025  33.397  1.00  0.00    -0.206 F 
ATOM     88  C   UNL A   1      35.164  32.608  30.853  1.00  0.00     0.006 A 
ENDBRANCH  60  81
BRANCH  72  89
ATOM     89  C   UNL A   1      43.063  29.113  33.492  1.00  0.00     0.057 A 
ATOM     90  C   UNL A   1      43.314  29.620  34.777  1.00  0.00     0.134 A 
ATOM     91  C   UNL A   1      42.399  27.884  33.420  1.00  0.00     0.134 A 
ATOM     92  F   UNL A   1      43.852  30.834  34.954  1.00  0.00    -0.206 F 
ATOM     93  C   UNL A   1      42.964  28.913  35.933  1.00  0.00     0.040 A 
ATOM     94  C   UNL A   1      42.010  27.186  34.565  1.00  0.00     0.040 A 
ATOM     95  F   UNL A   1      42.075  27.361  32.227  1.00  0.00    -0.206 F 
ATOM     96  C   UNL A   1      42.304  27.693  35.826  1.00  0.00     0.006 A 
ENDBRANCH  72  89
ENDBRANCH  46  47
ENDBRANCH  38  41
ENDBRANCH  36  37
ENDBRANCH  35  36
ENDBRANCH   1  35
TORSDOF 15
ENDMDL
