MODEL 1
REMARK VINA RESULT:     -13.4      0.000      0.000
REMARK SMILES CC1(C)O[C@@H]2C[C@@H]3[C@H]4CCC5=CC(=O)C=C[C@@]5(C)[C@]4(F)[C@H](O)C[C@]3(C)[C@]2(C(=O)NCCCCNC(=O)c2ccc(-c3c4nc(c(-c5c(F)cccc5F)c5ccc([nH]5)c(-c5c(F)cccc5F)c5nc(c(-c6c(F)cccc6F)c6ccc3[nH]6)C=C5)C=C4)cc2)O1
REMARK SMILES IDX 32 1 31 2 30 3 29 4 27 5 28 6 26 8 1 9 2 10 4 11 91 12 3 13
REMARK SMILES IDX 5 14 6 15 24 16 7 17 23 18 25 19 8 20 21 21 9 22 19 23 10 24
REMARK SMILES IDX 17 25 20 26 11 27 16 28 18 29 12 30 15 31 13 32 14 33 22 34
REMARK SMILES IDX 33 36 34 37 35 38 36 40 37 41 38 42 90 43 39 44 89 45 40 46
REMARK SMILES IDX 41 47 42 48 83 49 43 50 88 51 82 52 84 53 44 54 87 55 81 56
REMARK SMILES IDX 80 57 45 59 71 60 54 61 70 62 55 63 58 64 69 65 85 66 56 67
REMARK SMILES IDX 57 68 68 70 86 71 59 72 46 73 47 74 52 75 48 76 49 77 51 78
REMARK SMILES IDX 53 79 50 80 72 81 73 82 78 83 74 84 75 85 77 86 79 87 76 88
REMARK SMILES IDX 60 89 61 90 66 91 62 92 63 93 65 94 67 95 64 96
REMARK H PARENT 29 7 22 35 34 39 84 58 58 69
REMARK Flexibility Score: inf
ROOT
ATOM      1  C   UNL A   1      37.414  20.466  24.697  1.00  0.00     0.023 C 
ENDROOT
BRANCH   1   2
ATOM      2  C   UNL A   1      36.567  19.235  25.021  1.00  0.00     0.023 C 
BRANCH   2   3
ATOM      3  C   UNL A   1      35.092  19.403  24.689  1.00  0.00     0.116 C 
BRANCH   3   4
ATOM      4  N   UNL A   1      34.409  20.077  25.761  1.00  0.00    -0.353 N 
ATOM      5  C   UNL A   1      33.907  21.316  25.888  1.00  0.00     0.255 C 
ATOM      6  O   UNL A   1      33.419  21.549  27.004  1.00  0.00    -0.272 OA
ATOM      7  H   UNL A   1      34.287  19.518  26.562  1.00  0.00     0.163 HD
BRANCH   5   8
ATOM      8  C   UNL A   1      33.840  22.365  24.769  1.00  0.00     0.181 C 
ATOM      9  C   UNL A   1      36.165  23.798  26.475  1.00  0.00     0.075 C 
ATOM     10  C   UNL A   1      35.232  24.164  25.330  1.00  0.00     0.164 C 
ATOM     11  O   UNL A   1      35.787  23.637  24.125  1.00  0.00    -0.344 OA
ATOM     12  O   UNL A   1      33.928  23.610  25.559  1.00  0.00    -0.331 OA
ATOM     13  C   UNL A   1      35.127  25.689  25.221  1.00  0.00     0.075 C 
ATOM     14  C   UNL A   1      34.919  22.594  23.660  1.00  0.00     0.164 C 
ATOM     15  C   UNL A   1      34.147  23.146  22.380  1.00  0.00     0.040 C 
ATOM     16  C   UNL A   1      32.481  22.355  23.948  1.00  0.00     0.014 C 
ATOM     17  C   UNL A   1      32.822  23.565  23.030  1.00  0.00     0.008 C 
ATOM     18  C   UNL A   1      31.130  22.497  24.675  1.00  0.00     0.046 C 
ATOM     19  C   UNL A   1      32.350  21.008  23.174  1.00  0.00     0.015 C 
ATOM     20  C   UNL A   1      31.982  24.854  22.985  1.00  0.00     0.035 C 
ATOM     21  C   UNL A   1      30.631  23.909  24.932  1.00  0.00     0.154 C 
ATOM     22  C   UNL A   1      32.029  25.642  21.688  1.00  0.00     0.012 C 
ATOM     23  C   UNL A   1      30.595  24.796  23.639  1.00  0.00     0.152 C 
ATOM     24  C   UNL A   1      31.751  27.107  22.041  1.00  0.00     0.032 C 
ATOM     25  C   UNL A   1      30.053  26.281  23.894  1.00  0.00     0.044 C 
ATOM     26  F   UNL A   1      29.769  24.172  22.736  1.00  0.00    -0.239 F 
ATOM     27  C   UNL A   1      30.445  27.285  22.777  1.00  0.00    -0.053 C 
ATOM     28  C   UNL A   1      28.534  26.290  24.067  1.00  0.00    -0.009 C 
ATOM     29  C   UNL A   1      30.612  26.893  25.212  1.00  0.00     0.024 C 
ATOM     30  C   UNL A   1      29.698  28.379  22.536  1.00  0.00     0.052 C 
ATOM     31  C   UNL A   1      27.783  27.373  23.815  1.00  0.00     0.048 C 
ATOM     32  C   UNL A   1      28.411  28.583  23.238  1.00  0.00     0.178 C 
ATOM     33  O   UNL A   1      27.875  29.680  23.291  1.00  0.00    -0.290 OA
BRANCH  21  34
ATOM     34  O   UNL A   1      31.393  24.447  26.006  1.00  0.00    -0.390 OA
ATOM     35  H   UNL A   1      30.838  24.503  26.801  1.00  0.00     0.211 HD
ENDBRANCH  21  34
ENDBRANCH   5   8
ENDBRANCH   3   4
ENDBRANCH   2   3
ENDBRANCH   1   2
BRANCH   1  36
ATOM     36  C   UNL A   1      38.559  20.715  25.672  1.00  0.00     0.116 C 
BRANCH  36  37
ATOM     37  N   UNL A   1      39.537  19.636  25.666  1.00  0.00    -0.352 N 
ATOM     38  C   UNL A   1      40.874  19.674  25.977  1.00  0.00     0.251 C 
ATOM     39  H   UNL A   1      39.189  18.752  25.403  1.00  0.00     0.163 HD
ATOM     40  O   UNL A   1      41.593  18.715  25.766  1.00  0.00    -0.269 OA
BRANCH  38  41
ATOM     41  C   UNL A   1      41.423  20.919  26.543  1.00  0.00     0.039 A 
ATOM     42  C   UNL A   1      42.016  21.845  25.686  1.00  0.00     0.014 A 
ATOM     43  C   UNL A   1      41.277  21.190  27.906  1.00  0.00     0.014 A 
ATOM     44  C   UNL A   1      42.400  23.087  26.187  1.00  0.00     0.010 A 
ATOM     45  C   UNL A   1      41.581  22.457  28.384  1.00  0.00     0.010 A 
ATOM     46  C   UNL A   1      42.145  23.418  27.529  1.00  0.00    -0.014 A 
BRANCH  46  47
ATOM     47  C   UNL A   1      42.458  24.765  28.061  1.00  0.00     0.031 A 
ATOM     48  C   UNL A   1      43.858  25.091  28.496  1.00  0.00     0.074 A 
ATOM     49  C   UNL A   1      41.469  25.665  28.219  1.00  0.00     0.049 A 
ATOM     50  N   UNL A   1      44.318  26.181  29.054  1.00  0.00    -0.248 NA
ATOM     51  C   UNL A   1      44.871  24.038  28.311  1.00  0.00     0.031 C 
ATOM     52  C   UNL A   1      40.059  25.444  27.888  1.00  0.00     0.029 A 
ATOM     53  N   UNL A   1      41.497  26.945  28.711  1.00  0.00    -0.354 N 
ATOM     54  C   UNL A   1      45.663  25.940  29.300  1.00  0.00     0.074 A 
ATOM     55  C   UNL A   1      45.933  24.581  28.886  1.00  0.00     0.031 C 
ATOM     56  C   UNL A   1      39.364  26.560  28.161  1.00  0.00     0.029 A 
ATOM     57  C   UNL A   1      40.268  27.559  28.719  1.00  0.00     0.049 A 
ATOM     58  H   UNL A   1      42.321  27.382  29.027  1.00  0.00     0.167 HD
ATOM     59  C   UNL A   1      46.594  26.785  29.800  1.00  0.00     0.037 A 
ATOM     60  C   UNL A   1      39.913  28.789  29.136  1.00  0.00     0.037 A 
ATOM     61  C   UNL A   1      46.326  28.145  30.182  1.00  0.00     0.049 A 
ATOM     62  C   UNL A   1      40.968  29.710  29.684  1.00  0.00     0.074 A 
ATOM     63  C   UNL A   1      47.214  29.103  30.637  1.00  0.00     0.029 A 
ATOM     64  N   UNL A   1      45.074  28.740  30.153  1.00  0.00    -0.354 N 
ATOM     65  N   UNL A   1      42.252  29.494  29.840  1.00  0.00    -0.248 NA
ATOM     66  C   UNL A   1      40.526  31.046  30.104  1.00  0.00     0.031 C 
ATOM     67  C   UNL A   1      46.491  30.266  30.923  1.00  0.00     0.029 A 
ATOM     68  C   UNL A   1      45.162  30.047  30.601  1.00  0.00     0.049 A 
ATOM     69  H   UNL A   1      44.245  28.298  29.857  1.00  0.00     0.167 HD
ATOM     70  C   UNL A   1      42.775  30.675  30.352  1.00  0.00     0.074 A 
ATOM     71  C   UNL A   1      41.671  31.606  30.465  1.00  0.00     0.031 C 
ATOM     72  C   UNL A   1      44.054  30.962  30.699  1.00  0.00     0.037 A 
BRANCH  59  73
ATOM     73  C   UNL A   1      47.991  26.258  29.954  1.00  0.00     0.057 A 
ATOM     74  C   UNL A   1      48.915  26.298  28.900  1.00  0.00     0.134 A 
ATOM     75  C   UNL A   1      48.426  25.729  31.175  1.00  0.00     0.134 A 
ATOM     76  F   UNL A   1      48.557  26.778  27.700  1.00  0.00    -0.206 F 
ATOM     77  C   UNL A   1      50.212  25.805  29.049  1.00  0.00     0.040 A 
ATOM     78  C   UNL A   1      49.729  25.259  31.343  1.00  0.00     0.040 A 
ATOM     79  F   UNL A   1      47.594  25.665  32.226  1.00  0.00    -0.206 F 
ATOM     80  C   UNL A   1      50.624  25.290  30.276  1.00  0.00     0.006 A 
ENDBRANCH  59  73
BRANCH  60  81
ATOM     81  C   UNL A   1      38.501  29.232  29.027  1.00  0.00     0.057 A 
ATOM     82  C   UNL A   1      37.985  29.704  27.815  1.00  0.00     0.134 A 
ATOM     83  C   UNL A   1      37.636  29.204  30.128  1.00  0.00     0.134 A 
ATOM     84  F   UNL A   1      38.769  29.771  26.729  1.00  0.00    -0.206 F 
ATOM     85  C   UNL A   1      36.668  30.152  27.704  1.00  0.00     0.040 A 
ATOM     86  C   UNL A   1      36.310  29.626  30.026  1.00  0.00     0.040 A 
ATOM     87  F   UNL A   1      38.067  28.754  31.316  1.00  0.00    -0.206 F 
ATOM     88  C   UNL A   1      35.824  30.110  28.812  1.00  0.00     0.006 A 
ENDBRANCH  60  81
BRANCH  72  89
ATOM     89  C   UNL A   1      44.334  32.349  31.198  1.00  0.00     0.057 A 
ATOM     90  C   UNL A   1      44.316  32.661  32.562  1.00  0.00     0.134 A 
ATOM     91  C   UNL A   1      44.666  33.373  30.302  1.00  0.00     0.134 A 
ATOM     92  F   UNL A   1      43.993  31.727  33.470  1.00  0.00    -0.206 F 
ATOM     93  C   UNL A   1      44.599  33.949  33.017  1.00  0.00     0.040 A 
ATOM     94  C   UNL A   1      44.976  34.658  30.746  1.00  0.00     0.040 A 
ATOM     95  F   UNL A   1      44.709  33.137  28.982  1.00  0.00    -0.206 F 
ATOM     96  C   UNL A   1      44.937  34.951  32.108  1.00  0.00     0.006 A 
ENDBRANCH  72  89
ENDBRANCH  46  47
ENDBRANCH  38  41
ENDBRANCH  36  37
ENDBRANCH   1  36
TORSDOF 12
ENDMDL
MODEL 2
REMARK VINA RESULT:     -13.4      4.053      9.134
REMARK SMILES CC1(C)O[C@@H]2C[C@@H]3[C@H]4CCC5=CC(=O)C=C[C@@]5(C)[C@]4(F)[C@H](O)C[C@]3(C)[C@]2(C(=O)NCCCCNC(=O)c2ccc(-c3c4nc(c(-c5c(F)cccc5F)c5ccc([nH]5)c(-c5c(F)cccc5F)c5nc(c(-c6c(F)cccc6F)c6ccc3[nH]6)C=C5)C=C4)cc2)O1
REMARK SMILES IDX 32 1 31 2 30 3 29 4 27 5 28 6 26 8 1 9 2 10 4 11 91 12 3 13
REMARK SMILES IDX 5 14 6 15 24 16 7 17 23 18 25 19 8 20 21 21 9 22 19 23 10 24
REMARK SMILES IDX 17 25 20 26 11 27 16 28 18 29 12 30 15 31 13 32 14 33 22 34
REMARK SMILES IDX 33 36 34 37 35 38 36 40 37 41 38 42 90 43 39 44 89 45 40 46
REMARK SMILES IDX 41 47 42 48 83 49 43 50 88 51 82 52 84 53 44 54 87 55 81 56
REMARK SMILES IDX 80 57 45 59 71 60 54 61 70 62 55 63 58 64 69 65 85 66 56 67
REMARK SMILES IDX 57 68 68 70 86 71 59 72 46 73 47 74 52 75 48 76 49 77 51 78
REMARK SMILES IDX 53 79 50 80 72 81 73 82 78 83 74 84 75 85 77 86 79 87 76 88
REMARK SMILES IDX 60 89 61 90 66 91 62 92 63 93 65 94 67 95 64 96
REMARK H PARENT 29 7 22 35 34 39 84 58 58 69
REMARK Flexibility Score: inf
ROOT
ATOM      1  C   UNL A   1      31.469  32.072  26.748  1.00  0.00     0.023 C 
ENDROOT
BRANCH   1   2
ATOM      2  C   UNL A   1      31.799  30.756  26.042  1.00  0.00     0.023 C 
BRANCH   2   3
ATOM      3  C   UNL A   1      30.822  30.397  24.931  1.00  0.00     0.116 C 
BRANCH   3   4
ATOM      4  N   UNL A   1      31.519  29.794  23.827  1.00  0.00    -0.353 N 
ATOM      5  C   UNL A   1      31.961  28.547  23.596  1.00  0.00     0.255 C 
ATOM      6  O   UNL A   1      32.568  28.419  22.523  1.00  0.00    -0.272 OA
ATOM      7  H   UNL A   1      31.710  30.422  23.093  1.00  0.00     0.163 HD
BRANCH   5   8
ATOM      8  C   UNL A   1      31.700  27.333  24.499  1.00  0.00     0.181 C 
ATOM      9  C   UNL A   1      34.491  28.202  25.850  1.00  0.00     0.075 C 
ATOM     10  C   UNL A   1      33.569  26.992  25.871  1.00  0.00     0.164 C 
ATOM     11  O   UNL A   1      32.500  27.269  26.775  1.00  0.00    -0.344 OA
ATOM     12  O   UNL A   1      33.053  26.742  24.555  1.00  0.00    -0.331 OA
ATOM     13  C   UNL A   1      34.344  25.764  26.357  1.00  0.00     0.075 C 
ATOM     14  C   UNL A   1      31.293  27.383  26.009  1.00  0.00     0.164 C 
ATOM     15  C   UNL A   1      30.422  26.078  26.288  1.00  0.00     0.040 C 
ATOM     16  C   UNL A   1      30.685  26.275  23.890  1.00  0.00     0.014 C 
ATOM     17  C   UNL A   1      30.788  25.245  25.053  1.00  0.00     0.008 C 
ATOM     18  C   UNL A   1      30.941  25.660  22.501  1.00  0.00     0.046 C 
ATOM     19  C   UNL A   1      29.274  26.923  23.758  1.00  0.00     0.015 C 
ATOM     20  C   UNL A   1      31.268  23.795  24.858  1.00  0.00     0.035 C 
ATOM     21  C   UNL A   1      31.819  24.420  22.447  1.00  0.00     0.154 C 
ATOM     22  C   UNL A   1      30.751  22.777  25.859  1.00  0.00     0.012 C 
ATOM     23  C   UNL A   1      31.341  23.282  23.414  1.00  0.00     0.152 C 
ATOM     24  C   UNL A   1      31.796  21.659  25.941  1.00  0.00     0.032 C 
ATOM     25  C   UNL A   1      32.248  21.964  23.353  1.00  0.00     0.044 C 
ATOM     26  F   UNL A   1      30.056  22.952  23.057  1.00  0.00    -0.239 F 
ATOM     27  C   UNL A   1      32.092  21.046  24.594  1.00  0.00    -0.053 C 
ATOM     28  C   UNL A   1      31.957  21.155  22.089  1.00  0.00    -0.009 C 
ATOM     29  C   UNL A   1      33.767  22.298  23.275  1.00  0.00     0.024 C 
ATOM     30  C   UNL A   1      32.336  19.724  24.512  1.00  0.00     0.052 C 
ATOM     31  C   UNL A   1      32.184  19.834  22.006  1.00  0.00     0.048 C 
ATOM     32  C   UNL A   1      32.627  19.090  23.207  1.00  0.00     0.178 C 
ATOM     33  O   UNL A   1      33.155  17.990  23.130  1.00  0.00    -0.290 OA
BRANCH  21  34
ATOM     34  O   UNL A   1      33.167  24.838  22.634  1.00  0.00    -0.390 OA
ATOM     35  H   UNL A   1      33.726  24.061  22.797  1.00  0.00     0.211 HD
ENDBRANCH  21  34
ENDBRANCH   5   8
ENDBRANCH   3   4
ENDBRANCH   2   3
ENDBRANCH   1   2
BRANCH   1  36
ATOM     36  C   UNL A   1      32.682  32.809  27.301  1.00  0.00     0.116 C 
BRANCH  36  37
ATOM     37  N   UNL A   1      32.386  34.198  27.626  1.00  0.00    -0.352 N 
ATOM     38  C   UNL A   1      32.969  35.014  28.565  1.00  0.00     0.251 C 
ATOM     39  H   UNL A   1      31.666  34.611  27.095  1.00  0.00     0.163 HD
ATOM     40  O   UNL A   1      32.497  36.104  28.825  1.00  0.00    -0.269 OA
BRANCH  38  41
ATOM     41  C   UNL A   1      34.164  34.519  29.273  1.00  0.00     0.039 A 
ATOM     42  C   UNL A   1      34.003  33.889  30.506  1.00  0.00     0.014 A 
ATOM     43  C   UNL A   1      35.422  34.618  28.672  1.00  0.00     0.014 A 
ATOM     44  C   UNL A   1      35.105  33.285  31.109  1.00  0.00     0.010 A 
ATOM     45  C   UNL A   1      36.497  33.943  29.232  1.00  0.00     0.010 A 
ATOM     46  C   UNL A   1      36.349  33.271  30.456  1.00  0.00    -0.014 A 
BRANCH  46  47
ATOM     47  C   UNL A   1      37.511  32.555  31.033  1.00  0.00     0.031 A 
ATOM     48  C   UNL A   1      38.130  33.041  32.313  1.00  0.00     0.074 A 
ATOM     49  C   UNL A   1      38.051  31.516  30.368  1.00  0.00     0.049 A 
ATOM     50  N   UNL A   1      39.191  32.600  32.937  1.00  0.00    -0.248 NA
ATOM     51  C   UNL A   1      37.490  34.198  32.959  1.00  0.00     0.031 C 
ATOM     52  C   UNL A   1      37.576  30.989  29.085  1.00  0.00     0.029 A 
ATOM     53  N   UNL A   1      39.129  30.723  30.672  1.00  0.00    -0.354 N 
ATOM     54  C   UNL A   1      39.354  33.433  34.036  1.00  0.00     0.074 A 
ATOM     55  C   UNL A   1      38.320  34.441  33.962  1.00  0.00     0.031 C 
ATOM     56  C   UNL A   1      38.341  29.945  28.729  1.00  0.00     0.029 A 
ATOM     57  C   UNL A   1      39.381  29.752  29.733  1.00  0.00     0.049 A 
ATOM     58  H   UNL A   1      39.670  30.840  31.486  1.00  0.00     0.167 HD
ATOM     59  C   UNL A   1      40.267  33.348  35.031  1.00  0.00     0.037 A 
ATOM     60  C   UNL A   1      40.347  28.815  29.689  1.00  0.00     0.037 A 
ATOM     61  C   UNL A   1      41.274  32.325  35.117  1.00  0.00     0.049 A 
ATOM     62  C   UNL A   1      41.346  28.740  30.810  1.00  0.00     0.074 A 
ATOM     63  C   UNL A   1      42.204  32.113  36.119  1.00  0.00     0.029 A 
ATOM     64  N   UNL A   1      41.483  31.343  34.160  1.00  0.00    -0.354 N 
ATOM     65  N   UNL A   1      41.442  29.488  31.883  1.00  0.00    -0.248 NA
ATOM     66  C   UNL A   1      42.364  27.686  30.718  1.00  0.00     0.031 C 
ATOM     67  C   UNL A   1      43.003  31.026  35.748  1.00  0.00     0.029 A 
ATOM     68  C   UNL A   1      42.540  30.533  34.539  1.00  0.00     0.049 A 
ATOM     69  H   UNL A   1      40.957  31.237  33.334  1.00  0.00     0.167 HD
ATOM     70  C   UNL A   1      42.514  28.979  32.606  1.00  0.00     0.074 A 
ATOM     71  C   UNL A   1      43.024  27.850  31.856  1.00  0.00     0.031 C 
ATOM     72  C   UNL A   1      43.029  29.409  33.783  1.00  0.00     0.037 A 
BRANCH  59  73
ATOM     73  C   UNL A   1      40.208  34.389  36.111  1.00  0.00     0.057 A 
ATOM     74  C   UNL A   1      39.415  34.222  37.255  1.00  0.00     0.134 A 
ATOM     75  C   UNL A   1      40.971  35.559  36.019  1.00  0.00     0.134 A 
ATOM     76  F   UNL A   1      38.648  33.130  37.397  1.00  0.00    -0.206 F 
ATOM     77  C   UNL A   1      39.363  35.193  38.255  1.00  0.00     0.040 A 
ATOM     78  C   UNL A   1      40.949  36.525  37.027  1.00  0.00     0.040 A 
ATOM     79  F   UNL A   1      41.755  35.781  34.954  1.00  0.00    -0.206 F 
ATOM     80  C   UNL A   1      40.137  36.347  38.145  1.00  0.00     0.006 A 
ENDBRANCH  59  73
BRANCH  60  81
ATOM     81  C   UNL A   1      40.401  27.856  28.558  1.00  0.00     0.057 A 
ATOM     82  C   UNL A   1      41.122  28.152  27.395  1.00  0.00     0.134 A 
ATOM     83  C   UNL A   1      39.733  26.627  28.606  1.00  0.00     0.134 A 
ATOM     84  F   UNL A   1      41.770  29.321  27.283  1.00  0.00    -0.206 F 
ATOM     85  C   UNL A   1      41.159  27.273  26.312  1.00  0.00     0.040 A 
ATOM     86  C   UNL A   1      39.780  25.728  27.540  1.00  0.00     0.040 A 
ATOM     87  F   UNL A   1      39.032  26.279  29.696  1.00  0.00    -0.206 F 
ATOM     88  C   UNL A   1      40.489  26.053  26.385  1.00  0.00     0.006 A 
ENDBRANCH  60  81
BRANCH  72  89
ATOM     89  C   UNL A   1      44.181  28.633  34.351  1.00  0.00     0.057 A 
ATOM     90  C   UNL A   1      45.510  28.999  34.107  1.00  0.00     0.134 A 
ATOM     91  C   UNL A   1      43.954  27.532  35.186  1.00  0.00     0.134 A 
ATOM     92  F   UNL A   1      45.794  30.036  33.304  1.00  0.00    -0.206 F 
ATOM     93  C   UNL A   1      46.574  28.283  34.656  1.00  0.00     0.040 A 
ATOM     94  C   UNL A   1      45.009  26.824  35.763  1.00  0.00     0.040 A 
ATOM     95  F   UNL A   1      42.703  27.135  35.467  1.00  0.00    -0.206 F 
ATOM     96  C   UNL A   1      46.325  27.196  35.493  1.00  0.00     0.006 A 
ENDBRANCH  72  89
ENDBRANCH  46  47
ENDBRANCH  38  41
ENDBRANCH  36  37
ENDBRANCH   1  36
TORSDOF 12
ENDMDL
MODEL 3
REMARK VINA RESULT:     -13.4      0.516      5.829
REMARK SMILES CC1(C)O[C@@H]2C[C@@H]3[C@H]4CCC5=CC(=O)C=C[C@@]5(C)[C@]4(F)[C@H](O)C[C@]3(C)[C@]2(C(=O)NCCCCNC(=O)c2ccc(-c3c4nc(c(-c5c(F)cccc5F)c5ccc([nH]5)c(-c5c(F)cccc5F)c5nc(c(-c6c(F)cccc6F)c6ccc3[nH]6)C=C5)C=C4)cc2)O1
REMARK SMILES IDX 32 1 31 2 30 3 29 4 27 5 28 6 26 8 1 9 2 10 4 11 91 12 3 13
REMARK SMILES IDX 5 14 6 15 24 16 7 17 23 18 25 19 8 20 21 21 9 22 19 23 10 24
REMARK SMILES IDX 17 25 20 26 11 27 16 28 18 29 12 30 15 31 13 32 14 33 22 34
REMARK SMILES IDX 33 36 34 37 35 38 36 40 37 41 38 42 90 43 39 44 89 45 40 46
REMARK SMILES IDX 41 47 42 48 83 49 43 50 88 51 82 52 84 53 44 54 87 55 81 56
REMARK SMILES IDX 80 57 45 59 71 60 54 61 70 62 55 63 58 64 69 65 85 66 56 67
REMARK SMILES IDX 57 68 68 70 86 71 59 72 46 73 47 74 52 75 48 76 49 77 51 78
REMARK SMILES IDX 53 79 50 80 72 81 73 82 78 83 74 84 75 85 77 86 79 87 76 88
REMARK SMILES IDX 60 89 61 90 66 91 62 92 63 93 65 94 67 95 64 96
REMARK H PARENT 29 7 22 35 34 39 84 58 58 69
REMARK Flexibility Score: inf
ROOT
ATOM      1  C   UNL A   1      37.427  20.700  24.798  1.00  0.00     0.023 C 
ENDROOT
BRANCH   1   2
ATOM      2  C   UNL A   1      36.672  19.385  24.996  1.00  0.00     0.023 C 
BRANCH   2   3
ATOM      3  C   UNL A   1      35.193  19.472  24.649  1.00  0.00     0.116 C 
BRANCH   3   4
ATOM      4  N   UNL A   1      34.464  20.106  25.714  1.00  0.00    -0.353 N 
ATOM      5  C   UNL A   1      33.916  21.325  25.848  1.00  0.00     0.255 C 
ATOM      6  O   UNL A   1      33.395  21.524  26.955  1.00  0.00    -0.272 OA
ATOM      7  H   UNL A   1      34.343  19.531  26.505  1.00  0.00     0.163 HD
BRANCH   5   8
ATOM      8  C   UNL A   1      33.837  22.387  24.742  1.00  0.00     0.181 C 
ATOM      9  C   UNL A   1      36.143  23.826  26.468  1.00  0.00     0.075 C 
ATOM     10  C   UNL A   1      35.208  24.195  25.327  1.00  0.00     0.164 C 
ATOM     11  O   UNL A   1      35.770  23.691  24.117  1.00  0.00    -0.344 OA
ATOM     12  O   UNL A   1      33.910  23.622  25.548  1.00  0.00    -0.331 OA
ATOM     13  C   UNL A   1      35.085  25.720  25.237  1.00  0.00     0.075 C 
ATOM     14  C   UNL A   1      34.915  22.643  23.637  1.00  0.00     0.164 C 
ATOM     15  C   UNL A   1      34.138  23.202  22.363  1.00  0.00     0.040 C 
ATOM     16  C   UNL A   1      32.480  22.371  23.919  1.00  0.00     0.014 C 
ATOM     17  C   UNL A   1      32.807  23.597  23.017  1.00  0.00     0.008 C 
ATOM     18  C   UNL A   1      31.126  22.488  24.646  1.00  0.00     0.046 C 
ATOM     19  C   UNL A   1      32.365  21.033  23.128  1.00  0.00     0.015 C 
ATOM     20  C   UNL A   1      31.951  24.877  22.988  1.00  0.00     0.035 C 
ATOM     21  C   UNL A   1      30.610  23.891  24.920  1.00  0.00     0.154 C 
ATOM     22  C   UNL A   1      31.991  25.681  21.701  1.00  0.00     0.012 C 
ATOM     23  C   UNL A   1      30.565  24.794  23.639  1.00  0.00     0.152 C 
ATOM     24  C   UNL A   1      31.695  27.138  22.072  1.00  0.00     0.032 C 
ATOM     25  C   UNL A   1      30.005  26.269  23.912  1.00  0.00     0.044 C 
ATOM     26  F   UNL A   1      29.747  24.172  22.727  1.00  0.00    -0.239 F 
ATOM     27  C   UNL A   1      30.387  27.291  22.809  1.00  0.00    -0.053 C 
ATOM     28  C   UNL A   1      28.486  26.257  24.084  1.00  0.00    -0.009 C 
ATOM     29  C   UNL A   1      30.555  26.870  25.239  1.00  0.00     0.024 C 
ATOM     30  C   UNL A   1      29.627  28.380  22.581  1.00  0.00     0.052 C 
ATOM     31  C   UNL A   1      27.722  27.335  23.845  1.00  0.00     0.048 C 
ATOM     32  C   UNL A   1      28.337  28.559  23.284  1.00  0.00     0.178 C 
ATOM     33  O   UNL A   1      27.788  29.649  23.350  1.00  0.00    -0.290 OA
BRANCH  21  34
ATOM     34  O   UNL A   1      31.364  24.424  26.003  1.00  0.00    -0.390 OA
ATOM     35  H   UNL A   1      32.245  24.684  25.687  1.00  0.00     0.211 HD
ENDBRANCH  21  34
ENDBRANCH   5   8
ENDBRANCH   3   4
ENDBRANCH   2   3
ENDBRANCH   1   2
BRANCH   1  36
ATOM     36  C   UNL A   1      38.603  20.898  25.746  1.00  0.00     0.116 C 
BRANCH  36  37
ATOM     37  N   UNL A   1      39.502  19.752  25.761  1.00  0.00    -0.352 N 
ATOM     38  C   UNL A   1      40.842  19.704  26.061  1.00  0.00     0.251 C 
ATOM     39  H   UNL A   1      39.091  18.889  25.524  1.00  0.00     0.163 HD
ATOM     40  O   UNL A   1      41.489  18.691  25.869  1.00  0.00    -0.269 OA
BRANCH  38  41
ATOM     41  C   UNL A   1      41.483  20.921  26.590  1.00  0.00     0.039 A 
ATOM     42  C   UNL A   1      42.035  21.835  25.694  1.00  0.00     0.014 A 
ATOM     43  C   UNL A   1      41.464  21.179  27.963  1.00  0.00     0.014 A 
ATOM     44  C   UNL A   1      42.505  23.057  26.173  1.00  0.00     0.010 A 
ATOM     45  C   UNL A   1      41.854  22.428  28.425  1.00  0.00     0.010 A 
ATOM     46  C   UNL A   1      42.379  23.379  27.534  1.00  0.00    -0.014 A 
BRANCH  46  47
ATOM     47  C   UNL A   1      42.786  24.707  28.051  1.00  0.00     0.031 A 
ATOM     48  C   UNL A   1      41.747  25.760  28.306  1.00  0.00     0.074 A 
ATOM     49  C   UNL A   1      44.092  24.984  28.218  1.00  0.00     0.049 A 
ATOM     50  N   UNL A   1      41.905  27.002  28.685  1.00  0.00    -0.248 NA
ATOM     51  C   UNL A   1      40.345  25.378  28.072  1.00  0.00     0.031 C 
ATOM     52  C   UNL A   1      45.199  24.062  27.947  1.00  0.00     0.029 A 
ATOM     53  N   UNL A   1      44.714  26.130  28.646  1.00  0.00    -0.354 N 
ATOM     54  C   UNL A   1      40.629  27.551  28.718  1.00  0.00     0.074 A 
ATOM     55  C   UNL A   1      39.715  26.527  28.265  1.00  0.00     0.031 C 
ATOM     56  C   UNL A   1      46.359  24.670  28.241  1.00  0.00     0.029 A 
ATOM     57  C   UNL A   1      46.084  26.032  28.684  1.00  0.00     0.049 A 
ATOM     58  H   UNL A   1      44.224  26.945  28.902  1.00  0.00     0.167 HD
ATOM     59  C   UNL A   1      40.253  28.788  29.117  1.00  0.00     0.037 A 
ATOM     60  C   UNL A   1      47.012  26.943  29.033  1.00  0.00     0.037 A 
ATOM     61  C   UNL A   1      41.164  29.793  29.596  1.00  0.00     0.049 A 
ATOM     62  C   UNL A   1      46.567  28.309  29.477  1.00  0.00     0.074 A 
ATOM     63  C   UNL A   1      40.876  31.054  30.086  1.00  0.00     0.029 A 
ATOM     64  N   UNL A   1      42.542  29.649  29.644  1.00  0.00    -0.354 N 
ATOM     65  N   UNL A   1      45.351  28.790  29.576  1.00  0.00    -0.248 NA
ATOM     66  C   UNL A   1      47.621  29.254  29.865  1.00  0.00     0.031 C 
ATOM     67  C   UNL A   1      42.084  31.689  30.391  1.00  0.00     0.029 A 
ATOM     68  C   UNL A   1      43.121  30.806  30.137  1.00  0.00     0.049 A 
ATOM     69  H   UNL A   1      43.036  28.842  29.368  1.00  0.00     0.167 HD
ATOM     70  C   UNL A   1      45.493  30.084  30.062  1.00  0.00     0.074 A 
ATOM     71  C   UNL A   1      46.911  30.305  30.251  1.00  0.00     0.031 C 
ATOM     72  C   UNL A   1      44.534  31.005  30.326  1.00  0.00     0.037 A 
BRANCH  59  73
ATOM     73  C   UNL A   1      38.790  29.116  29.057  1.00  0.00     0.057 A 
ATOM     74  C   UNL A   1      37.962  29.009  30.184  1.00  0.00     0.134 A 
ATOM     75  C   UNL A   1      38.206  29.568  27.868  1.00  0.00     0.134 A 
ATOM     76  F   UNL A   1      38.457  28.567  31.351  1.00  0.00    -0.206 F 
ATOM     77  C   UNL A   1      36.602  29.314  30.122  1.00  0.00     0.040 A 
ATOM     78  C   UNL A   1      36.852  29.903  27.802  1.00  0.00     0.040 A 
ATOM     79  F   UNL A   1      38.941  29.697  26.753  1.00  0.00    -0.206 F 
ATOM     80  C   UNL A   1      36.045  29.769  28.929  1.00  0.00     0.006 A 
ENDBRANCH  59  73
BRANCH  60  81
ATOM     81  C   UNL A   1      48.452  26.587  29.004  1.00  0.00     0.057 A 
ATOM     82  C   UNL A   1      49.235  26.841  27.872  1.00  0.00     0.134 A 
ATOM     83  C   UNL A   1      49.080  25.980  30.098  1.00  0.00     0.134 A 
ATOM     84  F   UNL A   1      48.687  27.407  26.787  1.00  0.00    -0.206 F 
ATOM     85  C   UNL A   1      50.584  26.486  27.819  1.00  0.00     0.040 A 
ATOM     86  C   UNL A   1      50.433  25.640  30.068  1.00  0.00     0.040 A 
ATOM     87  F   UNL A   1      48.387  25.717  31.217  1.00  0.00    -0.206 F 
ATOM     88  C   UNL A   1      51.188  25.887  28.923  1.00  0.00     0.006 A 
ENDBRANCH  60  81
BRANCH  72  89
ATOM     89  C   UNL A   1      44.986  32.323  30.882  1.00  0.00     0.057 A 
ATOM     90  C   UNL A   1      45.139  32.531  32.259  1.00  0.00     0.134 A 
ATOM     91  C   UNL A   1      45.310  33.383  30.026  1.00  0.00     0.134 A 
ATOM     92  F   UNL A   1      44.832  31.560  33.131  1.00  0.00    -0.206 F 
ATOM     93  C   UNL A   1      45.579  33.755  32.765  1.00  0.00     0.040 A 
ATOM     94  C   UNL A   1      45.776  34.603  30.518  1.00  0.00     0.040 A 
ATOM     95  F   UNL A   1      45.193  33.246  28.697  1.00  0.00    -0.206 F 
ATOM     96  C   UNL A   1      45.906  34.793  31.893  1.00  0.00     0.006 A 
ENDBRANCH  72  89
ENDBRANCH  46  47
ENDBRANCH  38  41
ENDBRANCH  36  37
ENDBRANCH   1  36
TORSDOF 12
ENDMDL
