MODEL 1
REMARK VINA RESULT:     -11.0      0.000      0.000
REMARK SMILES O=C(NCCCCNC(=O)c1cc(-n2ccnc2)ccn1)c1ccc(-c2c3nc(c(-c4c(F)cccc4F)c4ccc([nH]4)c(-c4c(F)cccc4F)c4nc(c(-c5c(F)cccc5F)c5ccc2[nH]5)C=C4)C=C3)cc1
REMARK SMILES IDX 5 1 4 2 3 3 1 4 2 5 22 7 23 8 75 9 24 10 74 11 25 12 26 13
REMARK SMILES IDX 27 14 68 15 28 16 73 17 67 18 69 19 29 20 72 21 66 22 65 23
REMARK SMILES IDX 30 25 56 26 39 27 55 28 40 29 43 30 54 31 70 32 41 33 42 34
REMARK SMILES IDX 53 36 71 37 44 38 31 39 32 40 37 41 33 42 34 43 36 44 38 45
REMARK SMILES IDX 35 46 57 47 58 48 63 49 59 50 60 51 62 52 64 53 61 54 45 55
REMARK SMILES IDX 46 56 51 57 47 58 48 59 50 60 52 61 49 62 6 63 7 64 8 65
REMARK SMILES IDX 9 66 10 68 11 69 12 70 21 71 13 72 20 73 19 74 14 75 15 76
REMARK SMILES IDX 18 77 16 78 17 79
REMARK H PARENT 3 6 69 24 43 35 8 67
REMARK Flexibility Score: inf
ROOT
ATOM      1  C   UNL A   1      34.413  35.840  28.368  1.00  0.00     0.023 C 
ENDROOT
BRANCH   1   2
ATOM      2  C   UNL A   1      34.737  34.479  28.989  1.00  0.00     0.116 C 
BRANCH   2   3
ATOM      3  N   UNL A   1      34.135  33.348  28.313  1.00  0.00    -0.352 N 
ATOM      4  O   UNL A   1      33.610  31.319  27.624  1.00  0.00    -0.269 OA
ATOM      5  C   UNL A   1      34.469  32.031  28.152  1.00  0.00     0.251 C 
ATOM      6  H   UNL A   1      33.290  33.581  27.866  1.00  0.00     0.163 HD
BRANCH   5   7
ATOM      7  C   UNL A   1      35.777  31.419  28.518  1.00  0.00     0.039 A 
ATOM      8  C   UNL A   1      36.906  32.111  28.954  1.00  0.00     0.014 A 
ATOM      9  C   UNL A   1      35.873  30.021  28.369  1.00  0.00     0.014 A 
ATOM     10  C   UNL A   1      38.115  31.450  29.158  1.00  0.00     0.010 A 
ATOM     11  C   UNL A   1      37.073  29.349  28.596  1.00  0.00     0.010 A 
ATOM     12  C   UNL A   1      38.206  30.072  28.960  1.00  0.00    -0.014 A 
BRANCH  12  13
ATOM     13  C   UNL A   1      39.494  29.433  29.223  1.00  0.00     0.031 A 
ATOM     14  C   UNL A   1      39.853  29.208  30.656  1.00  0.00     0.074 A 
ATOM     15  C   UNL A   1      40.282  28.922  28.256  1.00  0.00     0.049 A 
ATOM     16  N   UNL A   1      40.925  29.566  31.292  1.00  0.00    -0.248 NA
ATOM     17  C   UNL A   1      38.869  28.507  31.494  1.00  0.00     0.031 C 
ATOM     18  C   UNL A   1      39.965  28.746  26.837  1.00  0.00     0.029 A 
ATOM     19  N   UNL A   1      41.513  28.346  28.379  1.00  0.00    -0.354 N 
ATOM     20  C   UNL A   1      40.830  28.999  32.564  1.00  0.00     0.074 A 
ATOM     21  C   UNL A   1      39.509  28.434  32.661  1.00  0.00     0.031 C 
ATOM     22  C   UNL A   1      40.881  27.923  26.281  1.00  0.00     0.029 A 
ATOM     23  C   UNL A   1      41.908  27.622  27.266  1.00  0.00     0.049 A 
ATOM     24  H   UNL A   1      42.069  28.436  29.185  1.00  0.00     0.167 HD
ATOM     25  C   UNL A   1      41.900  28.884  33.400  1.00  0.00     0.037 A 
ATOM     26  C   UNL A   1      42.962  26.778  27.178  1.00  0.00     0.037 A 
ATOM     27  C   UNL A   1      42.953  29.802  33.062  1.00  0.00     0.049 A 
ATOM     28  C   UNL A   1      43.899  27.079  28.285  1.00  0.00     0.074 A 
ATOM     29  C   UNL A   1      43.062  31.176  32.965  1.00  0.00     0.029 A 
ATOM     30  N   UNL A   1      44.101  29.309  32.498  1.00  0.00    -0.354 N 
ATOM     31  N   UNL A   1      44.639  28.147  28.364  1.00  0.00    -0.248 NA
ATOM     32  C   UNL A   1      43.762  26.322  29.521  1.00  0.00     0.031 C 
ATOM     33  C   UNL A   1      44.009  31.401  31.924  1.00  0.00     0.029 A 
ATOM     34  C   UNL A   1      44.414  30.149  31.464  1.00  0.00     0.049 A 
ATOM     35  H   UNL A   1      44.602  28.510  32.782  1.00  0.00     0.167 HD
ATOM     36  C   UNL A   1      44.723  28.421  29.720  1.00  0.00     0.074 A 
ATOM     37  C   UNL A   1      44.273  27.202  30.382  1.00  0.00     0.031 C 
ATOM     38  C   UNL A   1      44.884  29.696  30.177  1.00  0.00     0.037 A 
BRANCH  25  39
ATOM     39  C   UNL A   1      42.121  27.729  34.349  1.00  0.00     0.057 A 
ATOM     40  C   UNL A   1      41.845  27.888  35.720  1.00  0.00     0.134 A 
ATOM     41  C   UNL A   1      42.865  26.578  34.021  1.00  0.00     0.134 A 
ATOM     42  F   UNL A   1      41.159  28.951  36.167  1.00  0.00    -0.206 F 
ATOM     43  C   UNL A   1      42.337  27.011  36.696  1.00  0.00     0.040 A 
ATOM     44  C   UNL A   1      43.316  25.667  34.983  1.00  0.00     0.040 A 
ATOM     45  F   UNL A   1      43.277  26.326  32.772  1.00  0.00    -0.206 F 
ATOM     46  C   UNL A   1      43.082  25.899  36.329  1.00  0.00     0.006 A 
ENDBRANCH  25  39
BRANCH  26  47
ATOM     47  C   UNL A   1      43.091  25.565  26.344  1.00  0.00     0.057 A 
ATOM     48  C   UNL A   1      44.095  25.448  25.375  1.00  0.00     0.134 A 
ATOM     49  C   UNL A   1      42.383  24.389  26.648  1.00  0.00     0.134 A 
ATOM     50  F   UNL A   1      44.859  26.503  25.053  1.00  0.00    -0.206 F 
ATOM     51  C   UNL A   1      44.384  24.229  24.748  1.00  0.00     0.040 A 
ATOM     52  C   UNL A   1      42.652  23.169  26.023  1.00  0.00     0.040 A 
ATOM     53  F   UNL A   1      41.465  24.365  27.625  1.00  0.00    -0.206 F 
ATOM     54  C   UNL A   1      43.664  23.083  25.075  1.00  0.00     0.006 A 
ENDBRANCH  26  47
BRANCH  38  55
ATOM     55  C   UNL A   1      45.267  30.757  29.188  1.00  0.00     0.057 A 
ATOM     56  C   UNL A   1      44.340  31.430  28.379  1.00  0.00     0.134 A 
ATOM     57  C   UNL A   1      46.587  31.221  29.166  1.00  0.00     0.134 A 
ATOM     58  F   UNL A   1      43.037  31.125  28.418  1.00  0.00    -0.206 F 
ATOM     59  C   UNL A   1      44.722  32.485  27.547  1.00  0.00     0.040 A 
ATOM     60  C   UNL A   1      46.975  32.297  28.363  1.00  0.00     0.040 A 
ATOM     61  F   UNL A   1      47.514  30.667  29.963  1.00  0.00    -0.206 F 
ATOM     62  C   UNL A   1      46.043  32.925  27.541  1.00  0.00     0.006 A 
ENDBRANCH  38  55
ENDBRANCH  12  13
ENDBRANCH   5   7
ENDBRANCH   2   3
ENDBRANCH   1   2
BRANCH   1  63
ATOM     63  C   UNL A   1      33.260  36.607  29.016  1.00  0.00     0.023 C 
BRANCH  63  64
ATOM     64  C   UNL A   1      32.785  36.080  30.364  1.00  0.00     0.116 C 
BRANCH  64  65
ATOM     65  N   UNL A   1      33.104  36.963  31.473  1.00  0.00    -0.351 N 
ATOM     66  C   UNL A   1      33.859  36.702  32.602  1.00  0.00     0.269 C 
ATOM     67  H   UNL A   1      32.732  37.872  31.412  1.00  0.00     0.163 HD
ATOM     68  O   UNL A   1      34.028  37.572  33.441  1.00  0.00    -0.268 OA
BRANCH  66  69
ATOM     69  C   UNL A   1      34.463  35.349  32.765  1.00  0.00     0.130 A 
ATOM     70  C   UNL A   1      35.839  35.197  32.652  1.00  0.00     0.060 A 
ATOM     71  N   UNL A   1      33.589  34.319  32.877  1.00  0.00    -0.251 NA
ATOM     72  C   UNL A   1      36.331  33.897  32.527  1.00  0.00     0.050 A 
ATOM     73  C   UNL A   1      34.109  33.078  32.838  1.00  0.00     0.114 A 
ATOM     74  C   UNL A   1      35.454  32.814  32.630  1.00  0.00     0.047 A 
BRANCH  72  75
ATOM     75  N   UNL A   1      37.696  33.686  32.221  1.00  0.00    -0.306 N 
ATOM     76  C   UNL A   1      38.502  32.658  32.656  1.00  0.00     0.113 A 
ATOM     77  C   UNL A   1      38.510  34.511  31.478  1.00  0.00     0.204 A 
ATOM     78  C   UNL A   1      39.747  32.907  32.131  1.00  0.00     0.131 A 
ATOM     79  N   UNL A   1      39.746  34.068  31.409  1.00  0.00    -0.245 NA
ENDBRANCH  72  75
ENDBRANCH  66  69
ENDBRANCH  64  65
ENDBRANCH  63  64
ENDBRANCH   1  63
TORSDOF 12
ENDMDL
MODEL 2
REMARK VINA RESULT:     -10.9      3.734      6.261
REMARK SMILES O=C(NCCCCNC(=O)c1cc(-n2ccnc2)ccn1)c1ccc(-c2c3nc(c(-c4c(F)cccc4F)c4ccc([nH]4)c(-c4c(F)cccc4F)c4nc(c(-c5c(F)cccc5F)c5ccc2[nH]5)C=C4)C=C3)cc1
REMARK SMILES IDX 5 1 4 2 3 3 1 4 2 5 22 7 23 8 75 9 24 10 74 11 25 12 26 13
REMARK SMILES IDX 27 14 68 15 28 16 73 17 67 18 69 19 29 20 72 21 66 22 65 23
REMARK SMILES IDX 30 25 56 26 39 27 55 28 40 29 43 30 54 31 70 32 41 33 42 34
REMARK SMILES IDX 53 36 71 37 44 38 31 39 32 40 37 41 33 42 34 43 36 44 38 45
REMARK SMILES IDX 35 46 57 47 58 48 63 49 59 50 60 51 62 52 64 53 61 54 45 55
REMARK SMILES IDX 46 56 51 57 47 58 48 59 50 60 52 61 49 62 6 63 7 64 8 65
REMARK SMILES IDX 9 66 10 68 11 69 12 70 21 71 13 72 20 73 19 74 14 75 15 76
REMARK SMILES IDX 18 77 16 78 17 79
REMARK H PARENT 3 6 69 24 43 35 8 67
REMARK Flexibility Score: inf
ROOT
ATOM      1  C   UNL A   1      33.971  30.020  27.357  1.00  0.00     0.023 C 
ENDROOT
BRANCH   1   2
ATOM      2  C   UNL A   1      34.398  31.466  27.625  1.00  0.00     0.116 C 
BRANCH   2   3
ATOM      3  N   UNL A   1      34.282  31.883  29.007  1.00  0.00    -0.352 N 
ATOM      4  O   UNL A   1      34.707  32.473  31.090  1.00  0.00    -0.269 OA
ATOM      5  C   UNL A   1      35.121  31.884  30.088  1.00  0.00     0.251 C 
ATOM      6  H   UNL A   1      33.394  32.251  29.217  1.00  0.00     0.163 HD
BRANCH   5   7
ATOM      7  C   UNL A   1      36.445  31.204  30.155  1.00  0.00     0.039 A 
ATOM      8  C   UNL A   1      37.688  31.835  30.101  1.00  0.00     0.014 A 
ATOM      9  C   UNL A   1      36.418  29.798  30.244  1.00  0.00     0.014 A 
ATOM     10  C   UNL A   1      38.864  31.091  30.054  1.00  0.00     0.010 A 
ATOM     11  C   UNL A   1      37.594  29.049  30.224  1.00  0.00     0.010 A 
ATOM     12  C   UNL A   1      38.818  29.697  30.095  1.00  0.00    -0.014 A 
BRANCH  12  13
ATOM     13  C   UNL A   1      40.090  28.976  30.076  1.00  0.00     0.031 A 
ATOM     14  C   UNL A   1      40.763  28.764  31.394  1.00  0.00     0.074 A 
ATOM     15  C   UNL A   1      40.594  28.386  28.974  1.00  0.00     0.049 A 
ATOM     16  N   UNL A   1      41.975  29.062  31.746  1.00  0.00    -0.248 NA
ATOM     17  C   UNL A   1      39.963  28.155  32.467  1.00  0.00     0.031 C 
ATOM     18  C   UNL A   1      39.942  28.196  27.677  1.00  0.00     0.029 A 
ATOM     19  N   UNL A   1      41.781  27.728  28.830  1.00  0.00    -0.354 N 
ATOM     20  C   UNL A   1      42.148  28.537  33.028  1.00  0.00     0.074 A 
ATOM     21  C   UNL A   1      40.854  28.069  33.454  1.00  0.00     0.031 C 
ATOM     22  C   UNL A   1      40.647  27.296  26.957  1.00  0.00     0.029 A 
ATOM     23  C   UNL A   1      41.857  26.950  27.687  1.00  0.00     0.049 A 
ATOM     24  H   UNL A   1      42.517  27.800  29.479  1.00  0.00     0.167 HD
ATOM     25  C   UNL A   1      43.375  28.369  33.594  1.00  0.00     0.037 A 
ATOM     26  C   UNL A   1      42.806  26.032  27.390  1.00  0.00     0.037 A 
ATOM     27  C   UNL A   1      44.373  29.201  32.981  1.00  0.00     0.049 A 
ATOM     28  C   UNL A   1      43.994  26.295  28.234  1.00  0.00     0.074 A 
ATOM     29  C   UNL A   1      44.542  30.561  32.804  1.00  0.00     0.029 A 
ATOM     30  N   UNL A   1      45.324  28.614  32.186  1.00  0.00    -0.354 N 
ATOM     31  N   UNL A   1      44.797  27.310  28.092  1.00  0.00    -0.248 NA
ATOM     32  C   UNL A   1      44.106  25.582  29.498  1.00  0.00     0.031 C 
ATOM     33  C   UNL A   1      45.228  30.692  31.562  1.00  0.00     0.029 A 
ATOM     34  C   UNL A   1      45.435  29.403  31.073  1.00  0.00     0.049 A 
ATOM     35  H   UNL A   1      45.827  27.790  32.377  1.00  0.00     0.167 HD
ATOM     36  C   UNL A   1      45.216  27.613  29.378  1.00  0.00     0.074 A 
ATOM     37  C   UNL A   1      44.860  26.446  30.178  1.00  0.00     0.031 C 
ATOM     38  C   UNL A   1      45.559  28.885  29.732  1.00  0.00     0.037 A 
BRANCH  25  39
ATOM     39  C   UNL A   1      43.742  27.225  34.513  1.00  0.00     0.057 A 
ATOM     40  C   UNL A   1      43.829  25.917  34.000  1.00  0.00     0.134 A 
ATOM     41  C   UNL A   1      43.721  27.314  35.919  1.00  0.00     0.134 A 
ATOM     42  F   UNL A   1      43.841  25.694  32.677  1.00  0.00    -0.206 F 
ATOM     43  C   UNL A   1      43.819  24.783  34.821  1.00  0.00     0.040 A 
ATOM     44  C   UNL A   1      43.763  26.189  36.750  1.00  0.00     0.040 A 
ATOM     45  F   UNL A   1      43.560  28.479  36.558  1.00  0.00    -0.206 F 
ATOM     46  C   UNL A   1      43.779  24.916  36.202  1.00  0.00     0.006 A 
ENDBRANCH  25  39
BRANCH  26  47
ATOM     47  C   UNL A   1      42.658  24.791  26.600  1.00  0.00     0.057 A 
ATOM     48  C   UNL A   1      43.409  24.571  25.439  1.00  0.00     0.134 A 
ATOM     49  C   UNL A   1      41.956  23.682  27.104  1.00  0.00     0.134 A 
ATOM     50  F   UNL A   1      44.153  25.555  24.911  1.00  0.00    -0.206 F 
ATOM     51  C   UNL A   1      43.463  23.318  24.816  1.00  0.00     0.040 A 
ATOM     52  C   UNL A   1      41.991  22.430  26.486  1.00  0.00     0.040 A 
ATOM     53  F   UNL A   1      41.281  23.756  28.260  1.00  0.00    -0.206 F 
ATOM     54  C   UNL A   1      42.756  22.240  25.343  1.00  0.00     0.006 A 
ENDBRANCH  26  47
BRANCH  38  55
ATOM     55  C   UNL A   1      45.762  29.890  28.637  1.00  0.00     0.057 A 
ATOM     56  C   UNL A   1      46.993  30.097  27.997  1.00  0.00     0.134 A 
ATOM     57  C   UNL A   1      44.650  30.554  28.109  1.00  0.00     0.134 A 
ATOM     58  F   UNL A   1      48.088  29.420  28.366  1.00  0.00    -0.206 F 
ATOM     59  C   UNL A   1      47.118  30.965  26.910  1.00  0.00     0.040 A 
ATOM     60  C   UNL A   1      44.756  31.400  27.002  1.00  0.00     0.040 A 
ATOM     61  F   UNL A   1      43.430  30.352  28.631  1.00  0.00    -0.206 F 
ATOM     62  C   UNL A   1      45.996  31.617  26.406  1.00  0.00     0.006 A 
ENDBRANCH  38  55
ENDBRANCH  12  13
ENDBRANCH   5   7
ENDBRANCH   2   3
ENDBRANCH   1   2
BRANCH   1  63
ATOM     63  C   UNL A   1      32.484  29.811  27.065  1.00  0.00     0.023 C 
BRANCH  63  64
ATOM     64  C   UNL A   1      32.048  30.058  25.627  1.00  0.00     0.116 C 
BRANCH  64  65
ATOM     65  N   UNL A   1      32.915  29.426  24.646  1.00  0.00    -0.351 N 
ATOM     66  C   UNL A   1      32.578  28.842  23.438  1.00  0.00     0.269 C 
ATOM     67  H   UNL A   1      33.872  29.411  24.873  1.00  0.00     0.163 HD
ATOM     68  O   UNL A   1      33.445  28.355  22.730  1.00  0.00    -0.268 OA
BRANCH  66  69
ATOM     69  C   UNL A   1      31.148  28.831  23.020  1.00  0.00     0.130 A 
ATOM     70  C   UNL A   1      30.616  29.939  22.373  1.00  0.00     0.060 A 
ATOM     71  N   UNL A   1      30.417  27.766  23.435  1.00  0.00    -0.251 NA
ATOM     72  C   UNL A   1      29.227  30.005  22.255  1.00  0.00     0.050 A 
ATOM     73  C   UNL A   1      29.089  27.828  23.228  1.00  0.00     0.114 A 
ATOM     74  C   UNL A   1      28.446  28.928  22.682  1.00  0.00     0.047 A 
BRANCH  72  75
ATOM     75  N   UNL A   1      28.616  31.189  21.778  1.00  0.00    -0.306 N 
ATOM     76  C   UNL A   1      28.029  31.390  20.549  1.00  0.00     0.113 A 
ATOM     77  C   UNL A   1      28.548  32.401  22.429  1.00  0.00     0.204 A 
ATOM     78  C   UNL A   1      27.619  32.702  20.538  1.00  0.00     0.131 A 
ATOM     79  N   UNL A   1      27.957  33.326  21.707  1.00  0.00    -0.245 NA
ENDBRANCH  72  75
ENDBRANCH  66  69
ENDBRANCH  64  65
ENDBRANCH  63  64
ENDBRANCH   1  63
TORSDOF 12
ENDMDL
MODEL 3
REMARK VINA RESULT:     -10.7      2.269      6.686
REMARK SMILES O=C(NCCCCNC(=O)c1cc(-n2ccnc2)ccn1)c1ccc(-c2c3nc(c(-c4c(F)cccc4F)c4ccc([nH]4)c(-c4c(F)cccc4F)c4nc(c(-c5c(F)cccc5F)c5ccc2[nH]5)C=C4)C=C3)cc1
REMARK SMILES IDX 5 1 4 2 3 3 1 4 2 5 22 7 23 8 75 9 24 10 74 11 25 12 26 13
REMARK SMILES IDX 27 14 68 15 28 16 73 17 67 18 69 19 29 20 72 21 66 22 65 23
REMARK SMILES IDX 30 25 56 26 39 27 55 28 40 29 43 30 54 31 70 32 41 33 42 34
REMARK SMILES IDX 53 36 71 37 44 38 31 39 32 40 37 41 33 42 34 43 36 44 38 45
REMARK SMILES IDX 35 46 57 47 58 48 63 49 59 50 60 51 62 52 64 53 61 54 45 55
REMARK SMILES IDX 46 56 51 57 47 58 48 59 50 60 52 61 49 62 6 63 7 64 8 65
REMARK SMILES IDX 9 66 10 68 11 69 12 70 21 71 13 72 20 73 19 74 14 75 15 76
REMARK SMILES IDX 18 77 16 78 17 79
REMARK H PARENT 3 6 69 24 43 35 8 67
REMARK Flexibility Score: inf
ROOT
ATOM      1  C   UNL A   1      37.848  32.427  29.081  1.00  0.00     0.023 C 
ENDROOT
BRANCH   1   2
ATOM      2  C   UNL A   1      36.462  32.640  28.467  1.00  0.00     0.116 C 
BRANCH   2   3
ATOM      3  N   UNL A   1      35.727  31.421  28.196  1.00  0.00    -0.352 N 
ATOM      4  O   UNL A   1      35.095  29.314  28.042  1.00  0.00    -0.269 OA
ATOM      5  C   UNL A   1      36.045  30.090  28.168  1.00  0.00     0.251 C 
ATOM      6  H   UNL A   1      34.782  31.589  27.983  1.00  0.00     0.163 HD
BRANCH   5   7
ATOM      7  C   UNL A   1      37.424  29.529  28.234  1.00  0.00     0.039 A 
ATOM      8  C   UNL A   1      37.991  28.890  29.336  1.00  0.00     0.014 A 
ATOM      9  C   UNL A   1      38.220  29.702  27.085  1.00  0.00     0.014 A 
ATOM     10  C   UNL A   1      39.330  28.507  29.327  1.00  0.00     0.010 A 
ATOM     11  C   UNL A   1      39.554  29.297  27.061  1.00  0.00     0.010 A 
ATOM     12  C   UNL A   1      40.119  28.728  28.198  1.00  0.00    -0.014 A 
BRANCH  12  13
ATOM     13  C   UNL A   1      41.507  28.273  28.242  1.00  0.00     0.031 A 
ATOM     14  C   UNL A   1      41.801  26.948  27.615  1.00  0.00     0.074 A 
ATOM     15  C   UNL A   1      42.527  29.037  28.680  1.00  0.00     0.049 A 
ATOM     16  N   UNL A   1      42.398  25.919  28.130  1.00  0.00    -0.248 NA
ATOM     17  C   UNL A   1      41.345  26.743  26.232  1.00  0.00     0.031 C 
ATOM     18  C   UNL A   1      42.502  30.461  29.022  1.00  0.00     0.029 A 
ATOM     19  N   UNL A   1      43.845  28.706  28.804  1.00  0.00    -0.354 N 
ATOM     20  C   UNL A   1      42.540  24.993  27.095  1.00  0.00     0.074 A 
ATOM     21  C   UNL A   1      41.800  25.516  25.976  1.00  0.00     0.031 C 
ATOM     22  C   UNL A   1      43.771  30.916  29.107  1.00  0.00     0.029 A 
ATOM     23  C   UNL A   1      44.686  29.796  28.954  1.00  0.00     0.049 A 
ATOM     24  H   UNL A   1      44.169  27.777  28.789  1.00  0.00     0.167 HD
ATOM     25  C   UNL A   1      43.394  23.935  27.167  1.00  0.00     0.037 A 
ATOM     26  C   UNL A   1      46.038  29.794  28.884  1.00  0.00     0.037 A 
ATOM     27  C   UNL A   1      43.734  23.604  28.524  1.00  0.00     0.049 A 
ATOM     28  C   UNL A   1      46.517  28.407  29.081  1.00  0.00     0.074 A 
ATOM     29  C   UNL A   1      43.025  23.223  29.647  1.00  0.00     0.029 A 
ATOM     30  N   UNL A   1      44.998  23.885  28.975  1.00  0.00    -0.354 N 
ATOM     31  N   UNL A   1      46.480  27.760  30.210  1.00  0.00    -0.248 NA
ATOM     32  C   UNL A   1      46.741  27.587  27.899  1.00  0.00     0.031 C 
ATOM     33  C   UNL A   1      43.747  23.771  30.747  1.00  0.00     0.029 A 
ATOM     34  C   UNL A   1      44.849  24.441  30.216  1.00  0.00     0.049 A 
ATOM     35  H   UNL A   1      45.844  23.719  28.500  1.00  0.00     0.167 HD
ATOM     36  C   UNL A   1      46.266  26.438  29.854  1.00  0.00     0.074 A 
ATOM     37  C   UNL A   1      46.560  26.377  28.426  1.00  0.00     0.031 C 
ATOM     38  C   UNL A   1      45.607  25.577  30.682  1.00  0.00     0.037 A 
BRANCH  25  39
ATOM     39  C   UNL A   1      44.166  23.379  25.992  1.00  0.00     0.057 A 
ATOM     40  C   UNL A   1      44.095  22.004  25.697  1.00  0.00     0.134 A 
ATOM     41  C   UNL A   1      45.195  24.077  25.330  1.00  0.00     0.134 A 
ATOM     42  F   UNL A   1      43.171  21.221  26.274  1.00  0.00    -0.206 F 
ATOM     43  C   UNL A   1      45.023  21.361  24.868  1.00  0.00     0.040 A 
ATOM     44  C   UNL A   1      46.095  23.455  24.458  1.00  0.00     0.040 A 
ATOM     45  F   UNL A   1      45.444  25.372  25.565  1.00  0.00    -0.206 F 
ATOM     46  C   UNL A   1      46.033  22.086  24.250  1.00  0.00     0.006 A 
ENDBRANCH  25  39
BRANCH  26  47
ATOM     47  C   UNL A   1      46.928  30.876  28.413  1.00  0.00     0.057 A 
ATOM     48  C   UNL A   1      46.943  31.277  27.071  1.00  0.00     0.134 A 
ATOM     49  C   UNL A   1      47.605  31.713  29.317  1.00  0.00     0.134 A 
ATOM     50  F   UNL A   1      46.282  30.572  26.141  1.00  0.00    -0.206 F 
ATOM     51  C   UNL A   1      47.590  32.447  26.653  1.00  0.00     0.040 A 
ATOM     52  C   UNL A   1      48.265  32.876  28.912  1.00  0.00     0.040 A 
ATOM     53  F   UNL A   1      47.577  31.475  30.637  1.00  0.00    -0.206 F 
ATOM     54  C   UNL A   1      48.250  33.253  27.576  1.00  0.00     0.006 A 
ENDBRANCH  26  47
BRANCH  38  55
ATOM     55  C   UNL A   1      45.381  26.001  32.103  1.00  0.00     0.057 A 
ATOM     56  C   UNL A   1      44.242  26.697  32.530  1.00  0.00     0.134 A 
ATOM     57  C   UNL A   1      46.264  25.557  33.094  1.00  0.00     0.134 A 
ATOM     58  F   UNL A   1      43.289  27.064  31.663  1.00  0.00    -0.206 F 
ATOM     59  C   UNL A   1      44.016  26.980  33.880  1.00  0.00     0.040 A 
ATOM     60  C   UNL A   1      46.035  25.806  34.449  1.00  0.00     0.040 A 
ATOM     61  F   UNL A   1      47.343  24.828  32.763  1.00  0.00    -0.206 F 
ATOM     62  C   UNL A   1      44.913  26.530  34.845  1.00  0.00     0.006 A 
ENDBRANCH  38  55
ENDBRANCH  12  13
ENDBRANCH   5   7
ENDBRANCH   2   3
ENDBRANCH   1   2
BRANCH   1  63
ATOM     63  C   UNL A   1      38.240  33.403  30.191  1.00  0.00     0.023 C 
BRANCH  63  64
ATOM     64  C   UNL A   1      38.548  32.779  31.546  1.00  0.00     0.116 C 
BRANCH  64  65
ATOM     65  N   UNL A   1      37.894  31.497  31.751  1.00  0.00    -0.351 N 
ATOM     66  C   UNL A   1      36.677  31.229  32.352  1.00  0.00     0.269 C 
ATOM     67  H   UNL A   1      38.385  30.713  31.417  1.00  0.00     0.163 HD
ATOM     68  O   UNL A   1      36.277  30.079  32.437  1.00  0.00    -0.268 OA
BRANCH  66  69
ATOM     69  C   UNL A   1      35.870  32.366  32.877  1.00  0.00     0.130 A 
ATOM     70  C   UNL A   1      35.010  33.046  32.024  1.00  0.00     0.060 A 
ATOM     71  N   UNL A   1      36.143  32.749  34.149  1.00  0.00    -0.251 NA
ATOM     72  C   UNL A   1      34.495  34.263  32.471  1.00  0.00     0.050 A 
ATOM     73  C   UNL A   1      35.560  33.885  34.576  1.00  0.00     0.114 A 
ATOM     74  C   UNL A   1      34.766  34.690  33.774  1.00  0.00     0.047 A 
BRANCH  72  75
ATOM     75  N   UNL A   1      33.769  35.091  31.583  1.00  0.00    -0.306 N 
ATOM     76  C   UNL A   1      33.682  34.974  30.214  1.00  0.00     0.113 A 
ATOM     77  C   UNL A   1      33.058  36.224  31.909  1.00  0.00     0.204 A 
ATOM     78  C   UNL A   1      32.903  36.027  29.796  1.00  0.00     0.131 A 
ATOM     79  N   UNL A   1      32.530  36.806  30.855  1.00  0.00    -0.245 NA
ENDBRANCH  72  75
ENDBRANCH  66  69
ENDBRANCH  64  65
ENDBRANCH  63  64
ENDBRANCH   1  63
TORSDOF 12
ENDMDL
