MODEL 1
REMARK VINA RESULT:     -11.9      0.000      0.000
REMARK SMILES C[C@H]1[C@H](C(=O)NCCCCNC(=O)c2ccc(-c3c4nc(c(-c5c(F)cccc5F)c5ccc([nH]5)c(-c5c(F)cccc5F)c5nc(c(-c6c(F)cccc6F)c6ccc3[nH]6)C=C5)C=C4)cc2)CCN1C(=O)NCc1cnn(C)c1
REMARK SMILES IDX 8 1 7 2 6 3 4 4 5 5 3 7 1 8 2 9 70 10 68 11 69 12 71 13
REMARK SMILES IDX 72 14 73 15 74 17 75 18 76 19 80 20 77 21 78 22 79 23 9 24
REMARK SMILES IDX 10 25 11 26 12 27 13 29 14 30 15 31 67 32 16 33 66 34 17 35
REMARK SMILES IDX 18 36 19 37 60 38 20 39 65 40 59 41 61 42 21 43 64 44 58 45
REMARK SMILES IDX 57 46 22 48 48 49 31 50 47 51 32 52 35 53 46 54 62 55 33 56
REMARK SMILES IDX 34 57 45 59 63 60 36 61 23 62 24 63 29 64 25 65 26 66 28 67
REMARK SMILES IDX 30 68 27 69 49 70 50 71 55 72 51 73 52 74 54 75 56 76 53 77
REMARK SMILES IDX 37 78 38 79 43 80 39 81 40 82 42 83 44 84 41 85
REMARK H PARENT 6 6 73 16 11 28 61 47 35 58
REMARK Flexibility Score: inf
ROOT
ATOM      1  C   UNL A   1      31.608  30.612  26.310  1.00  0.00     0.023 C 
ENDROOT
BRANCH   1   2
ATOM      2  C   UNL A   1      33.050  30.129  26.405  1.00  0.00     0.116 C 
BRANCH   2   3
ATOM      3  N   UNL A   1      33.546  29.655  25.125  1.00  0.00    -0.356 N 
ATOM      4  C   UNL A   1      33.704  28.401  24.631  1.00  0.00     0.225 C 
ATOM      5  O   UNL A   1      34.211  28.300  23.508  1.00  0.00    -0.275 OA
ATOM      6  H   UNL A   1      33.814  30.371  24.505  1.00  0.00     0.163 HD
BRANCH   4   7
ATOM      7  C   UNL A   1      33.317  27.143  25.394  1.00  0.00     0.102 C 
ATOM      8  C   UNL A   1      31.211  26.725  26.704  1.00  0.00     0.032 C 
ATOM      9  C   UNL A   1      31.812  26.836  25.298  1.00  0.00     0.096 C 
ATOM     10  N   UNL A   1      31.724  25.558  24.599  1.00  0.00    -0.321 N 
ATOM     11  C   UNL A   1      34.058  25.877  24.970  1.00  0.00     0.037 C 
ATOM     12  C   UNL A   1      32.977  24.831  24.742  1.00  0.00     0.122 C 
BRANCH  10  13
ATOM     13  C   UNL A   1      30.727  25.000  23.865  1.00  0.00     0.317 C 
ATOM     14  O   UNL A   1      30.882  23.906  23.311  1.00  0.00    -0.249 OA
ATOM     15  N   UNL A   1      29.534  25.572  23.661  1.00  0.00    -0.334 N 
ATOM     16  H   UNL A   1      29.015  25.081  22.983  1.00  0.00     0.165 HD
BRANCH  15  17
ATOM     17  C   UNL A   1      28.793  26.711  24.158  1.00  0.00     0.157 C 
BRANCH  17  18
ATOM     18  C   UNL A   1      28.942  27.850  23.214  1.00  0.00     0.009 A 
ATOM     19  C   UNL A   1      30.115  28.234  22.522  1.00  0.00     0.140 A 
ATOM     20  C   UNL A   1      28.009  28.791  22.822  1.00  0.00     0.113 A 
ATOM     21  N   UNL A   1      29.932  29.299  21.741  1.00  0.00    -0.181 NA
ATOM     22  N   UNL A   1      28.643  29.622  21.943  1.00  0.00    -0.275 N 
ATOM     23  C   UNL A   1      28.079  30.758  21.257  1.00  0.00     0.173 C 
ENDBRANCH  17  18
ENDBRANCH  15  17
ENDBRANCH  10  13
ENDBRANCH   4   7
ENDBRANCH   2   3
ENDBRANCH   1   2
BRANCH   1  24
ATOM     24  C   UNL A   1      31.395  32.087  26.645  1.00  0.00     0.023 C 
BRANCH  24  25
ATOM     25  C   UNL A   1      32.607  32.797  27.233  1.00  0.00     0.116 C 
BRANCH  25  26
ATOM     26  N   UNL A   1      32.337  34.173  27.620  1.00  0.00    -0.352 N 
ATOM     27  C   UNL A   1      32.987  34.949  28.548  1.00  0.00     0.251 C 
ATOM     28  H   UNL A   1      31.585  34.607  27.154  1.00  0.00     0.163 HD
ATOM     29  O   UNL A   1      32.553  36.059  28.846  1.00  0.00    -0.269 OA
BRANCH  27  30
ATOM     30  C   UNL A   1      34.194  34.425  29.219  1.00  0.00     0.039 A 
ATOM     31  C   UNL A   1      34.047  33.732  30.424  1.00  0.00     0.014 A 
ATOM     32  C   UNL A   1      35.459  34.584  28.647  1.00  0.00     0.014 A 
ATOM     33  C   UNL A   1      35.160  33.136  31.017  1.00  0.00     0.010 A 
ATOM     34  C   UNL A   1      36.554  33.925  29.199  1.00  0.00     0.010 A 
ATOM     35  C   UNL A   1      36.415  33.193  30.387  1.00  0.00    -0.014 A 
BRANCH  35  36
ATOM     36  C   UNL A   1      37.592  32.489  30.953  1.00  0.00     0.031 A 
ATOM     37  C   UNL A   1      38.243  32.994  32.210  1.00  0.00     0.074 A 
ATOM     38  C   UNL A   1      38.117  31.435  30.298  1.00  0.00     0.049 A 
ATOM     39  N   UNL A   1      39.316  32.558  32.819  1.00  0.00    -0.248 NA
ATOM     40  C   UNL A   1      37.622  34.163  32.852  1.00  0.00     0.031 C 
ATOM     41  C   UNL A   1      37.610  30.881  29.041  1.00  0.00     0.029 A 
ATOM     42  N   UNL A   1      39.201  30.647  30.595  1.00  0.00    -0.354 N 
ATOM     43  C   UNL A   1      39.507  33.406  33.902  1.00  0.00     0.074 A 
ATOM     44  C   UNL A   1      38.471  34.414  33.837  1.00  0.00     0.031 C 
ATOM     45  C   UNL A   1      38.368  29.830  28.686  1.00  0.00     0.029 A 
ATOM     46  C   UNL A   1      39.432  29.658  29.669  1.00  0.00     0.049 A 
ATOM     47  H   UNL A   1      39.760  30.777  31.394  1.00  0.00     0.167 HD
ATOM     48  C   UNL A   1      40.444  33.337  34.877  1.00  0.00     0.037 A 
ATOM     49  C   UNL A   1      40.399  28.722  29.616  1.00  0.00     0.037 A 
ATOM     50  C   UNL A   1      41.456  32.318  34.954  1.00  0.00     0.049 A 
ATOM     51  C   UNL A   1      41.429  28.666  30.710  1.00  0.00     0.074 A 
ATOM     52  C   UNL A   1      42.412  32.124  35.936  1.00  0.00     0.029 A 
ATOM     53  N   UNL A   1      41.646  31.321  34.009  1.00  0.00    -0.354 N 
ATOM     54  N   UNL A   1      41.553  29.431  31.767  1.00  0.00    -0.248 NA
ATOM     55  C   UNL A   1      42.449  27.614  30.606  1.00  0.00     0.031 C 
ATOM     56  C   UNL A   1      43.207  31.035  35.564  1.00  0.00     0.029 A 
ATOM     57  C   UNL A   1      42.717  30.521  34.374  1.00  0.00     0.049 A 
ATOM     58  H   UNL A   1      41.101  31.199  33.198  1.00  0.00     0.167 HD
ATOM     59  C   UNL A   1      42.646  28.937  32.468  1.00  0.00     0.074 A 
ATOM     60  C   UNL A   1      43.140  27.797  31.723  1.00  0.00     0.031 C 
ATOM     61  C   UNL A   1      43.191  29.386  33.625  1.00  0.00     0.037 A 
BRANCH  48  62
ATOM     62  C   UNL A   1      40.412  34.393  35.943  1.00  0.00     0.057 A 
ATOM     63  C   UNL A   1      39.652  34.239  37.112  1.00  0.00     0.134 A 
ATOM     64  C   UNL A   1      41.169  35.563  35.816  1.00  0.00     0.134 A 
ATOM     65  F   UNL A   1      38.893  33.148  37.290  1.00  0.00    -0.206 F 
ATOM     66  C   UNL A   1      39.627  35.224  38.101  1.00  0.00     0.040 A 
ATOM     67  C   UNL A   1      41.175  36.542  36.811  1.00  0.00     0.040 A 
ATOM     68  F   UNL A   1      41.924  35.772  34.726  1.00  0.00    -0.206 F 
ATOM     69  C   UNL A   1      40.396  36.377  37.954  1.00  0.00     0.006 A 
ENDBRANCH  48  62
BRANCH  49  70
ATOM     70  C   UNL A   1      40.427  27.744  28.499  1.00  0.00     0.057 A 
ATOM     71  C   UNL A   1      41.140  28.010  27.326  1.00  0.00     0.134 A 
ATOM     72  C   UNL A   1      39.737  26.527  28.573  1.00  0.00     0.134 A 
ATOM     73  F   UNL A   1      41.806  29.167  27.189  1.00  0.00    -0.206 F 
ATOM     74  C   UNL A   1      41.153  27.113  26.257  1.00  0.00     0.040 A 
ATOM     75  C   UNL A   1      39.762  25.609  27.521  1.00  0.00     0.040 A 
ATOM     76  F   UNL A   1      39.039  26.209  29.674  1.00  0.00    -0.206 F 
ATOM     77  C   UNL A   1      40.465  25.906  26.356  1.00  0.00     0.006 A 
ENDBRANCH  49  70
BRANCH  61  78
ATOM     78  C   UNL A   1      44.362  28.625  34.172  1.00  0.00     0.057 A 
ATOM     79  C   UNL A   1      44.198  27.519  35.014  1.00  0.00     0.134 A 
ATOM     80  C   UNL A   1      45.670  28.980  33.817  1.00  0.00     0.134 A 
ATOM     81  F   UNL A   1      42.973  27.134  35.401  1.00  0.00    -0.206 F 
ATOM     82  C   UNL A   1      45.294  26.807  35.504  1.00  0.00     0.040 A 
ATOM     83  C   UNL A   1      46.773  28.261  34.280  1.00  0.00     0.040 A 
ATOM     84  F   UNL A   1      45.897  30.025  33.006  1.00  0.00    -0.206 F 
ATOM     85  C   UNL A   1      46.586  27.174  35.131  1.00  0.00     0.006 A 
ENDBRANCH  61  78
ENDBRANCH  35  36
ENDBRANCH  27  30
ENDBRANCH  25  26
ENDBRANCH  24  25
ENDBRANCH   1  24
TORSDOF 14
ENDMDL
MODEL 2
REMARK VINA RESULT:     -11.9      0.746      1.532
REMARK SMILES C[C@H]1[C@H](C(=O)NCCCCNC(=O)c2ccc(-c3c4nc(c(-c5c(F)cccc5F)c5ccc([nH]5)c(-c5c(F)cccc5F)c5nc(c(-c6c(F)cccc6F)c6ccc3[nH]6)C=C5)C=C4)cc2)CCN1C(=O)NCc1cnn(C)c1
REMARK SMILES IDX 8 1 7 2 6 3 4 4 5 5 3 7 1 8 2 9 70 10 68 11 69 12 71 13
REMARK SMILES IDX 72 14 73 15 74 17 75 18 76 19 80 20 77 21 78 22 79 23 9 24
REMARK SMILES IDX 10 25 11 26 12 27 13 29 14 30 15 31 67 32 16 33 66 34 17 35
REMARK SMILES IDX 18 36 19 37 60 38 20 39 65 40 59 41 61 42 21 43 64 44 58 45
REMARK SMILES IDX 57 46 22 48 48 49 31 50 47 51 32 52 35 53 46 54 62 55 33 56
REMARK SMILES IDX 34 57 45 59 63 60 36 61 23 62 24 63 29 64 25 65 26 66 28 67
REMARK SMILES IDX 30 68 27 69 49 70 50 71 55 72 51 73 52 74 54 75 56 76 53 77
REMARK SMILES IDX 37 78 38 79 43 80 39 81 40 82 42 83 44 84 41 85
REMARK H PARENT 6 6 73 16 11 28 61 47 35 58
REMARK Flexibility Score: inf
ROOT
ATOM      1  C   UNL A   1      31.588  30.438  26.073  1.00  0.00     0.023 C 
ENDROOT
BRANCH   1   2
ATOM      2  C   UNL A   1      33.022  29.924  26.087  1.00  0.00     0.116 C 
BRANCH   2   3
ATOM      3  N   UNL A   1      33.469  29.536  24.761  1.00  0.00    -0.356 N 
ATOM      4  C   UNL A   1      33.688  28.316  24.207  1.00  0.00     0.225 C 
ATOM      5  O   UNL A   1      34.129  28.295  23.052  1.00  0.00    -0.275 OA
ATOM      6  H   UNL A   1      33.644  30.292  24.155  1.00  0.00     0.163 HD
BRANCH   4   7
ATOM      7  C   UNL A   1      33.444  27.005  24.940  1.00  0.00     0.102 C 
ATOM      8  C   UNL A   1      31.607  26.475  26.574  1.00  0.00     0.032 C 
ATOM      9  C   UNL A   1      31.947  26.687  25.094  1.00  0.00     0.096 C 
ATOM     10  N   UNL A   1      31.734  25.458  24.337  1.00  0.00    -0.321 N 
ATOM     11  C   UNL A   1      34.097  25.780  24.305  1.00  0.00     0.037 C 
ATOM     12  C   UNL A   1      32.993  24.739  24.204  1.00  0.00     0.122 C 
BRANCH  10  13
ATOM     13  C   UNL A   1      30.621  24.938  23.758  1.00  0.00     0.317 C 
ATOM     14  O   UNL A   1      30.643  23.819  23.234  1.00  0.00    -0.249 OA
ATOM     15  N   UNL A   1      29.446  25.575  23.681  1.00  0.00    -0.334 N 
ATOM     16  H   UNL A   1      28.819  25.094  23.094  1.00  0.00     0.165 HD
BRANCH  15  17
ATOM     17  C   UNL A   1      28.841  26.774  24.220  1.00  0.00     0.157 C 
BRANCH  17  18
ATOM     18  C   UNL A   1      28.984  27.884  23.241  1.00  0.00     0.009 A 
ATOM     19  C   UNL A   1      30.158  28.261  22.547  1.00  0.00     0.140 A 
ATOM     20  C   UNL A   1      28.042  28.801  22.813  1.00  0.00     0.113 A 
ATOM     21  N   UNL A   1      29.967  29.299  21.731  1.00  0.00    -0.181 NA
ATOM     22  N   UNL A   1      28.672  29.611  21.914  1.00  0.00    -0.275 N 
ATOM     23  C   UNL A   1      28.100  30.719  21.188  1.00  0.00     0.173 C 
ENDBRANCH  17  18
ENDBRANCH  15  17
ENDBRANCH  10  13
ENDBRANCH   4   7
ENDBRANCH   2   3
ENDBRANCH   1   2
BRANCH   1  24
ATOM     24  C   UNL A   1      31.412  31.883  26.535  1.00  0.00     0.023 C 
BRANCH  24  25
ATOM     25  C   UNL A   1      32.633  32.499  27.204  1.00  0.00     0.116 C 
BRANCH  25  26
ATOM     26  N   UNL A   1      32.447  33.895  27.570  1.00  0.00    -0.352 N 
ATOM     27  C   UNL A   1      33.133  34.640  28.497  1.00  0.00     0.251 C 
ATOM     28  H   UNL A   1      31.730  34.369  27.089  1.00  0.00     0.163 HD
ATOM     29  O   UNL A   1      32.767  35.779  28.776  1.00  0.00    -0.269 OA
BRANCH  27  30
ATOM     30  C   UNL A   1      34.296  34.048  29.191  1.00  0.00     0.039 A 
ATOM     31  C   UNL A   1      34.070  33.188  30.269  1.00  0.00     0.014 A 
ATOM     32  C   UNL A   1      35.599  34.313  28.761  1.00  0.00     0.014 A 
ATOM     33  C   UNL A   1      35.148  32.534  30.867  1.00  0.00     0.010 A 
ATOM     34  C   UNL A   1      36.664  33.604  29.308  1.00  0.00     0.010 A 
ATOM     35  C   UNL A   1      36.449  32.706  30.364  1.00  0.00    -0.014 A 
BRANCH  35  36
ATOM     36  C   UNL A   1      37.596  31.951  30.927  1.00  0.00     0.031 A 
ATOM     37  C   UNL A   1      38.112  32.273  32.302  1.00  0.00     0.074 A 
ATOM     38  C   UNL A   1      38.217  31.023  30.173  1.00  0.00     0.049 A 
ATOM     39  N   UNL A   1      39.142  31.774  32.936  1.00  0.00    -0.248 NA
ATOM     40  C   UNL A   1      37.391  33.314  33.051  1.00  0.00     0.031 C 
ATOM     41  C   UNL A   1      37.847  30.657  28.804  1.00  0.00     0.029 A 
ATOM     42  N   UNL A   1      39.299  30.225  30.448  1.00  0.00    -0.354 N 
ATOM     43  C   UNL A   1      39.202  32.450  34.149  1.00  0.00     0.074 A 
ATOM     44  C   UNL A   1      38.138  33.431  34.138  1.00  0.00     0.031 C 
ATOM     45  C   UNL A   1      38.672  29.692  28.369  1.00  0.00     0.029 A 
ATOM     46  C   UNL A   1      39.650  29.396  29.411  1.00  0.00     0.049 A 
ATOM     47  H   UNL A   1      39.778  30.244  31.308  1.00  0.00     0.167 HD
ATOM     48  C   UNL A   1      40.050  32.254  35.185  1.00  0.00     0.037 A 
ATOM     49  C   UNL A   1      40.652  28.502  29.309  1.00  0.00     0.037 A 
ATOM     50  C   UNL A   1      41.089  31.259  35.204  1.00  0.00     0.049 A 
ATOM     51  C   UNL A   1      41.581  28.303  30.474  1.00  0.00     0.074 A 
ATOM     52  C   UNL A   1      41.959  30.939  36.232  1.00  0.00     0.029 A 
ATOM     53  N   UNL A   1      41.400  30.424  34.141  1.00  0.00    -0.354 N 
ATOM     54  N   UNL A   1      41.580  28.899  31.642  1.00  0.00    -0.248 NA
ATOM     55  C   UNL A   1      42.645  27.304  30.310  1.00  0.00     0.031 C 
ATOM     56  C   UNL A   1      42.824  29.940  35.776  1.00  0.00     0.029 A 
ATOM     57  C   UNL A   1      42.463  29.604  34.481  1.00  0.00     0.049 A 
ATOM     58  H   UNL A   1      40.935  30.415  33.274  1.00  0.00     0.167 HD
ATOM     59  C   UNL A   1      42.624  28.329  32.360  1.00  0.00     0.074 A 
ATOM     60  C   UNL A   1      43.225  27.330  31.502  1.00  0.00     0.031 C 
ATOM     61  C   UNL A   1      43.046  28.608  33.618  1.00  0.00     0.037 A 
BRANCH  48  62
ATOM     62  C   UNL A   1      39.881  33.133  36.391  1.00  0.00     0.057 A 
ATOM     63  C   UNL A   1      40.605  34.325  36.543  1.00  0.00     0.134 A 
ATOM     64  C   UNL A   1      38.966  32.802  37.397  1.00  0.00     0.134 A 
ATOM     65  F   UNL A   1      41.508  34.693  35.623  1.00  0.00    -0.206 F 
ATOM     66  C   UNL A   1      40.443  35.139  37.665  1.00  0.00     0.040 A 
ATOM     67  C   UNL A   1      38.774  33.622  38.510  1.00  0.00     0.040 A 
ATOM     68  F   UNL A   1      38.236  31.679  37.311  1.00  0.00    -0.206 F 
ATOM     69  C   UNL A   1      39.520  34.791  38.649  1.00  0.00     0.006 A 
ENDBRANCH  48  62
BRANCH  49  70
ATOM     70  C   UNL A   1      40.818  27.708  28.065  1.00  0.00     0.057 A 
ATOM     71  C   UNL A   1      40.220  26.450  27.928  1.00  0.00     0.134 A 
ATOM     72  C   UNL A   1      41.580  28.180  26.990  1.00  0.00     0.134 A 
ATOM     73  F   UNL A   1      39.493  25.936  28.931  1.00  0.00    -0.206 F 
ATOM     74  C   UNL A   1      40.390  25.680  26.777  1.00  0.00     0.040 A 
ATOM     75  C   UNL A   1      41.738  27.432  25.822  1.00  0.00     0.040 A 
ATOM     76  F   UNL A   1      42.174  29.382  27.056  1.00  0.00    -0.206 F 
ATOM     77  C   UNL A   1      41.148  26.174  25.717  1.00  0.00     0.006 A 
ENDBRANCH  49  70
BRANCH  61  78
ATOM     78  C   UNL A   1      44.191  27.800  34.152  1.00  0.00     0.057 A 
ATOM     79  C   UNL A   1      43.997  26.554  34.759  1.00  0.00     0.134 A 
ATOM     80  C   UNL A   1      45.508  28.259  34.021  1.00  0.00     0.134 A 
ATOM     81  F   UNL A   1      42.760  26.063  34.926  1.00  0.00    -0.206 F 
ATOM     82  C   UNL A   1      45.072  25.802  35.238  1.00  0.00     0.040 A 
ATOM     83  C   UNL A   1      46.592  27.505  34.472  1.00  0.00     0.040 A 
ATOM     84  F   UNL A   1      45.763  29.442  33.441  1.00  0.00    -0.206 F 
ATOM     85  C   UNL A   1      46.374  26.275  35.088  1.00  0.00     0.006 A 
ENDBRANCH  61  78
ENDBRANCH  35  36
ENDBRANCH  27  30
ENDBRANCH  25  26
ENDBRANCH  24  25
ENDBRANCH   1  24
TORSDOF 14
ENDMDL
MODEL 3
REMARK VINA RESULT:     -11.8      0.698      6.170
REMARK SMILES C[C@H]1[C@H](C(=O)NCCCCNC(=O)c2ccc(-c3c4nc(c(-c5c(F)cccc5F)c5ccc([nH]5)c(-c5c(F)cccc5F)c5nc(c(-c6c(F)cccc6F)c6ccc3[nH]6)C=C5)C=C4)cc2)CCN1C(=O)NCc1cnn(C)c1
REMARK SMILES IDX 8 1 7 2 6 3 4 4 5 5 3 7 1 8 2 9 70 10 68 11 69 12 71 13
REMARK SMILES IDX 72 14 73 15 74 17 75 18 76 19 80 20 77 21 78 22 79 23 9 24
REMARK SMILES IDX 10 25 11 26 12 27 13 29 14 30 15 31 67 32 16 33 66 34 17 35
REMARK SMILES IDX 18 36 19 37 60 38 20 39 65 40 59 41 61 42 21 43 64 44 58 45
REMARK SMILES IDX 57 46 22 48 48 49 31 50 47 51 32 52 35 53 46 54 62 55 33 56
REMARK SMILES IDX 34 57 45 59 63 60 36 61 23 62 24 63 29 64 25 65 26 66 28 67
REMARK SMILES IDX 30 68 27 69 49 70 50 71 55 72 51 73 52 74 54 75 56 76 53 77
REMARK SMILES IDX 37 78 38 79 43 80 39 81 40 82 42 83 44 84 41 85
REMARK H PARENT 6 6 73 16 11 28 61 47 35 58
REMARK Flexibility Score: inf
ROOT
ATOM      1  C   UNL A   1      31.796  30.474  26.770  1.00  0.00     0.023 C 
ENDROOT
BRANCH   1   2
ATOM      2  C   UNL A   1      33.257  30.056  26.669  1.00  0.00     0.116 C 
BRANCH   2   3
ATOM      3  N   UNL A   1      33.612  29.652  25.321  1.00  0.00    -0.356 N 
ATOM      4  C   UNL A   1      33.682  28.428  24.738  1.00  0.00     0.225 C 
ATOM      5  O   UNL A   1      34.075  28.386  23.567  1.00  0.00    -0.275 OA
ATOM      6  H   UNL A   1      33.843  30.399  24.722  1.00  0.00     0.163 HD
BRANCH   4   7
ATOM      7  C   UNL A   1      33.329  27.134  25.458  1.00  0.00     0.102 C 
ATOM      8  C   UNL A   1      31.233  26.612  26.744  1.00  0.00     0.032 C 
ATOM      9  C   UNL A   1      31.835  26.787  25.345  1.00  0.00     0.096 C 
ATOM     10  N   UNL A   1      31.787  25.531  24.604  1.00  0.00    -0.321 N 
ATOM     11  C   UNL A   1      34.109  25.906  24.995  1.00  0.00     0.037 C 
ATOM     12  C   UNL A   1      33.061  24.837  24.728  1.00  0.00     0.122 C 
BRANCH  10  13
ATOM     13  C   UNL A   1      30.808  24.968  23.848  1.00  0.00     0.317 C 
ATOM     14  O   UNL A   1      30.993  23.890  23.273  1.00  0.00    -0.249 OA
ATOM     15  N   UNL A   1      29.606  25.520  23.644  1.00  0.00    -0.334 N 
ATOM     16  H   UNL A   1      29.105  25.033  22.950  1.00  0.00     0.165 HD
BRANCH  15  17
ATOM     17  C   UNL A   1      28.837  26.633  24.158  1.00  0.00     0.157 C 
BRANCH  17  18
ATOM     18  C   UNL A   1      28.971  27.794  23.239  1.00  0.00     0.009 A 
ATOM     19  C   UNL A   1      30.127  28.182  22.521  1.00  0.00     0.140 A 
ATOM     20  C   UNL A   1      28.038  28.757  22.902  1.00  0.00     0.113 A 
ATOM     21  N   UNL A   1      29.932  29.270  21.774  1.00  0.00    -0.181 NA
ATOM     22  N   UNL A   1      28.654  29.602  22.025  1.00  0.00    -0.275 N 
ATOM     23  C   UNL A   1      28.083  30.763  21.387  1.00  0.00     0.173 C 
ENDBRANCH  17  18
ENDBRANCH  15  17
ENDBRANCH  10  13
ENDBRANCH   4   7
ENDBRANCH   2   3
ENDBRANCH   1   2
BRANCH   1  24
ATOM     24  C   UNL A   1      31.553  31.981  26.818  1.00  0.00     0.023 C 
BRANCH  24  25
ATOM     25  C   UNL A   1      32.747  32.813  27.266  1.00  0.00     0.116 C 
BRANCH  25  26
ATOM     26  N   UNL A   1      32.402  34.189  27.589  1.00  0.00    -0.352 N 
ATOM     27  C   UNL A   1      32.964  35.019  28.527  1.00  0.00     0.251 C 
ATOM     28  H   UNL A   1      31.664  34.577  27.064  1.00  0.00     0.163 HD
ATOM     29  O   UNL A   1      32.471  36.119  28.761  1.00  0.00    -0.269 OA
BRANCH  27  30
ATOM     30  C   UNL A   1      34.147  34.564  29.287  1.00  0.00     0.039 A 
ATOM     31  C   UNL A   1      33.959  34.018  30.560  1.00  0.00     0.014 A 
ATOM     32  C   UNL A   1      35.428  34.643  28.735  1.00  0.00     0.014 A 
ATOM     33  C   UNL A   1      35.049  33.483  31.248  1.00  0.00     0.010 A 
ATOM     34  C   UNL A   1      36.499  34.042  29.389  1.00  0.00     0.010 A 
ATOM     35  C   UNL A   1      36.320  33.454  30.650  1.00  0.00    -0.014 A 
BRANCH  35  36
ATOM     36  C   UNL A   1      37.473  32.809  31.327  1.00  0.00     0.031 A 
ATOM     37  C   UNL A   1      38.140  31.613  30.709  1.00  0.00     0.074 A 
ATOM     38  C   UNL A   1      37.876  33.260  32.532  1.00  0.00     0.049 A 
ATOM     39  N   UNL A   1      39.111  30.873  31.178  1.00  0.00    -0.248 NA
ATOM     40  C   UNL A   1      37.625  31.171  29.403  1.00  0.00     0.031 C 
ATOM     41  C   UNL A   1      37.277  34.379  33.261  1.00  0.00     0.029 A 
ATOM     42  N   UNL A   1      38.879  32.823  33.360  1.00  0.00    -0.354 N 
ATOM     43  C   UNL A   1      39.314  29.873  30.236  1.00  0.00     0.074 A 
ATOM     44  C   UNL A   1      38.328  30.068  29.194  1.00  0.00     0.031 C 
ATOM     45  C   UNL A   1      37.939  34.555  34.416  1.00  0.00     0.029 A 
ATOM     46  C   UNL A   1      38.983  33.542  34.526  1.00  0.00     0.049 A 
ATOM     47  H   UNL A   1      39.469  32.067  33.139  1.00  0.00     0.167 HD
ATOM     48  C   UNL A   1      40.251  28.896  30.226  1.00  0.00     0.037 A 
ATOM     49  C   UNL A   1      39.822  33.395  35.569  1.00  0.00     0.037 A 
ATOM     50  C   UNL A   1      41.247  28.721  31.250  1.00  0.00     0.049 A 
ATOM     51  C   UNL A   1      40.853  32.302  35.535  1.00  0.00     0.074 A 
ATOM     52  C   UNL A   1      42.280  27.801  31.299  1.00  0.00     0.029 A 
ATOM     53  N   UNL A   1      41.332  29.481  32.406  1.00  0.00    -0.354 N 
ATOM     54  N   UNL A   1      41.079  31.408  34.603  1.00  0.00    -0.248 NA
ATOM     55  C   UNL A   1      41.750  32.201  36.694  1.00  0.00     0.031 C 
ATOM     56  C   UNL A   1      42.965  27.978  32.506  1.00  0.00     0.029 A 
ATOM     57  C   UNL A   1      42.388  29.038  33.186  1.00  0.00     0.049 A 
ATOM     58  H   UNL A   1      40.732  30.226  32.638  1.00  0.00     0.167 HD
ATOM     59  C   UNL A   1      42.159  30.657  35.050  1.00  0.00     0.074 A 
ATOM     60  C   UNL A   1      42.552  31.211  36.330  1.00  0.00     0.031 C 
ATOM     61  C   UNL A   1      42.771  29.605  34.454  1.00  0.00     0.037 A 
BRANCH  48  62
ATOM     62  C   UNL A   1      40.245  27.944  29.066  1.00  0.00     0.057 A 
ATOM     63  C   UNL A   1      39.510  26.749  29.094  1.00  0.00     0.134 A 
ATOM     64  C   UNL A   1      40.956  28.236  27.896  1.00  0.00     0.134 A 
ATOM     65  F   UNL A   1      38.818  26.403  30.189  1.00  0.00    -0.206 F 
ATOM     66  C   UNL A   1      39.507  25.869  28.011  1.00  0.00     0.040 A 
ATOM     67  C   UNL A   1      40.937  27.377  26.795  1.00  0.00     0.040 A 
ATOM     68  F   UNL A   1      41.674  29.365  27.799  1.00  0.00    -0.206 F 
ATOM     69  C   UNL A   1      40.217  26.186  26.854  1.00  0.00     0.006 A 
ENDBRANCH  48  62
BRANCH  49  70
ATOM     70  C   UNL A   1      39.738  34.322  36.727  1.00  0.00     0.057 A 
ATOM     71  C   UNL A   1      40.403  35.553  36.714  1.00  0.00     0.134 A 
ATOM     72  C   UNL A   1      39.002  33.997  37.873  1.00  0.00     0.134 A 
ATOM     73  F   UNL A   1      41.139  35.911  35.651  1.00  0.00    -0.206 F 
ATOM     74  C   UNL A   1      40.357  36.421  37.805  1.00  0.00     0.040 A 
ATOM     75  C   UNL A   1      38.927  34.868  38.962  1.00  0.00     0.040 A 
ATOM     76  F   UNL A   1      38.337  32.835  37.945  1.00  0.00    -0.206 F 
ATOM     77  C   UNL A   1      39.612  36.080  38.932  1.00  0.00     0.006 A 
ENDBRANCH  49  70
BRANCH  61  78
ATOM     78  C   UNL A   1      43.948  29.004  35.164  1.00  0.00     0.057 A 
ATOM     79  C   UNL A   1      43.806  27.943  36.065  1.00  0.00     0.134 A 
ATOM     80  C   UNL A   1      45.245  29.470  34.910  1.00  0.00     0.134 A 
ATOM     81  F   UNL A   1      42.591  27.459  36.361  1.00  0.00    -0.206 F 
ATOM     82  C   UNL A   1      44.910  27.380  36.707  1.00  0.00     0.040 A 
ATOM     83  C   UNL A   1      46.359  28.898  35.526  1.00  0.00     0.040 A 
ATOM     84  F   UNL A   1      45.450  30.479  34.049  1.00  0.00    -0.206 F 
ATOM     85  C   UNL A   1      46.192  27.854  36.432  1.00  0.00     0.006 A 
ENDBRANCH  61  78
ENDBRANCH  35  36
ENDBRANCH  27  30
ENDBRANCH  25  26
ENDBRANCH  24  25
ENDBRANCH   1  24
TORSDOF 14
ENDMDL
