MODEL 1
REMARK VINA RESULT:     -10.1      0.000      0.000
REMARK SMILES CCCCC[NH2+][C@](C)(C(=O)NCCCCNC(=O)c1ccc(-c2c3nc(c(-c4c(F)cccc4F)c4ccc([nH]4)c(-c4c(F)cccc4F)c4nc(c(-c5c(F)cccc5F)c5ccc2[nH]5)C=C4)C=C3)cc1)C(F)(F)F
REMARK SMILES IDX 12 1 11 2 9 3 10 4 7 6 8 7 6 8 5 11 4 12 3 13 2 14 1 15
REMARK SMILES IDX 73 16 74 17 75 18 76 19 13 20 14 21 15 22 16 23 17 24 18 26
REMARK SMILES IDX 19 27 20 28 72 29 21 30 71 31 22 32 23 33 24 34 65 35 25 36
REMARK SMILES IDX 70 37 64 38 66 39 26 40 69 41 63 42 62 43 27 45 53 46 36 47
REMARK SMILES IDX 52 48 37 49 40 50 51 51 67 52 38 53 39 54 50 56 68 57 41 58
REMARK SMILES IDX 28 59 29 60 34 61 30 62 31 63 33 64 35 65 32 66 54 67 55 68
REMARK SMILES IDX 60 69 56 70 57 71 59 72 61 73 58 74 42 75 43 76 48 77 44 78
REMARK SMILES IDX 45 79 47 80 49 81 46 82
REMARK H PARENT 11 5 6 9 6 10 16 25 66 44 40 55
REMARK Flexibility Score: inf
ROOT
ATOM      1  C   UNL A   1      36.405  22.031  25.218  1.00  0.00     0.116 C 
ENDROOT
BRANCH   1   2
ATOM      2  N   UNL A   1      35.318  22.615  24.450  1.00  0.00    -0.350 N 
ATOM      3  C   UNL A   1      33.959  22.473  24.578  1.00  0.00     0.290 C 
ATOM      4  O   UNL A   1      33.271  23.140  23.802  1.00  0.00    -0.267 OA
ATOM      5  H   UNL A   1      35.603  23.207  23.717  1.00  0.00     0.163 HD
BRANCH   3   6
ATOM      6  C   UNL A   1      33.350  21.522  25.640  1.00  0.00     0.268 C 
ATOM      7  C   UNL A   1      31.839  21.386  25.369  1.00  0.00     0.101 C 
BRANCH   6   8
ATOM      8  N   UNL A   1      34.124  20.229  25.546  1.00  0.00    -0.326 N 
ATOM      9  H   UNL A   1      35.055  20.446  25.193  1.00  0.00     0.347 HD
ATOM     10  H   UNL A   1      34.119  19.835  26.488  1.00  0.00     0.347 HD
BRANCH   8  11
ATOM     11  C   UNL A   1      33.545  19.207  24.686  1.00  0.00     0.261 C 
BRANCH  11  12
ATOM     12  C   UNL A   1      34.598  18.151  24.323  1.00  0.00     0.061 C 
BRANCH  12  13
ATOM     13  C   UNL A   1      34.051  16.753  24.010  1.00  0.00     0.006 C 
BRANCH  13  14
ATOM     14  C   UNL A   1      33.934  15.813  25.211  1.00  0.00    -0.003 C 
ATOM     15  C   UNL A   1      32.533  15.254  25.404  1.00  0.00     0.004 C 
ENDBRANCH  13  14
ENDBRANCH  12  13
ENDBRANCH  11  12
ENDBRANCH   8  11
ENDBRANCH   6   8
BRANCH   6  16
ATOM     16  C   UNL A   1      33.516  22.229  27.015  1.00  0.00     0.453 C 
ATOM     17  F   UNL A   1      34.331  21.566  27.864  1.00  0.00    -0.164 F 
ATOM     18  F   UNL A   1      34.071  23.461  26.840  1.00  0.00    -0.164 F 
ATOM     19  F   UNL A   1      32.327  22.440  27.626  1.00  0.00    -0.164 F 
ENDBRANCH   6  16
ENDBRANCH   3   6
ENDBRANCH   1   2
BRANCH   1  20
ATOM     20  C   UNL A   1      37.367  21.246  24.332  1.00  0.00     0.023 C 
BRANCH  20  21
ATOM     21  C   UNL A   1      37.976  20.011  24.993  1.00  0.00     0.023 C 
BRANCH  21  22
ATOM     22  C   UNL A   1      39.194  20.279  25.869  1.00  0.00     0.116 C 
BRANCH  22  23
ATOM     23  N   UNL A   1      40.138  19.172  25.892  1.00  0.00    -0.352 N 
ATOM     24  C   UNL A   1      41.499  19.202  26.084  1.00  0.00     0.251 C 
ATOM     25  H   UNL A   1      39.749  18.279  25.750  1.00  0.00     0.163 HD
ATOM     26  O   UNL A   1      42.167  18.181  25.952  1.00  0.00    -0.269 OA
BRANCH  24  27
ATOM     27  C   UNL A   1      42.159  20.482  26.415  1.00  0.00     0.039 A 
ATOM     28  C   UNL A   1      42.649  21.276  25.376  1.00  0.00     0.014 A 
ATOM     29  C   UNL A   1      42.264  20.908  27.741  1.00  0.00     0.014 A 
ATOM     30  C   UNL A   1      43.177  22.536  25.663  1.00  0.00     0.010 A 
ATOM     31  C   UNL A   1      42.722  22.193  28.018  1.00  0.00     0.010 A 
ATOM     32  C   UNL A   1      43.180  23.021  26.981  1.00  0.00    -0.014 A 
BRANCH  32  33
ATOM     33  C   UNL A   1      43.648  24.393  27.297  1.00  0.00     0.031 A 
ATOM     34  C   UNL A   1      42.666  25.443  27.734  1.00  0.00     0.074 A 
ATOM     35  C   UNL A   1      44.944  24.713  27.118  1.00  0.00     0.049 A 
ATOM     36  N   UNL A   1      42.866  26.714  27.975  1.00  0.00    -0.248 NA
ATOM     37  C   UNL A   1      41.268  25.015  27.896  1.00  0.00     0.031 C 
ATOM     38  C   UNL A   1      45.988  23.797  26.653  1.00  0.00     0.029 A 
ATOM     39  N   UNL A   1      45.604  25.904  27.296  1.00  0.00    -0.354 N 
ATOM     40  C   UNL A   1      41.622  27.237  28.300  1.00  0.00     0.074 A 
ATOM     41  C   UNL A   1      40.664  26.160  28.176  1.00  0.00     0.031 C 
ATOM     42  C   UNL A   1      47.158  24.453  26.602  1.00  0.00     0.029 A 
ATOM     43  C   UNL A   1      46.943  25.843  26.994  1.00  0.00     0.049 A 
ATOM     44  H   UNL A   1      45.160  26.724  27.611  1.00  0.00     0.167 HD
ATOM     45  C   UNL A   1      41.309  28.495  28.691  1.00  0.00     0.037 A 
ATOM     46  C   UNL A   1      47.889  26.801  27.021  1.00  0.00     0.037 A 
ATOM     47  C   UNL A   1      42.267  29.559  28.838  1.00  0.00     0.049 A 
ATOM     48  C   UNL A   1      47.513  28.192  27.450  1.00  0.00     0.074 A 
ATOM     49  C   UNL A   1      42.056  30.852  29.285  1.00  0.00     0.029 A 
ATOM     50  N   UNL A   1      43.616  29.453  28.539  1.00  0.00    -0.354 N 
ATOM     51  N   UNL A   1      46.344  28.657  27.819  1.00  0.00    -0.248 NA
ATOM     52  C   UNL A   1      48.591  29.192  27.469  1.00  0.00     0.031 C 
ATOM     53  C   UNL A   1      43.273  31.541  29.217  1.00  0.00     0.029 A 
ATOM     54  C   UNL A   1      44.248  30.663  28.773  1.00  0.00     0.049 A 
ATOM     55  H   UNL A   1      44.060  28.638  28.210  1.00  0.00     0.167 HD
ATOM     56  C   UNL A   1      46.550  29.991  28.142  1.00  0.00     0.074 A 
ATOM     57  C   UNL A   1      47.958  30.259  27.937  1.00  0.00     0.031 C 
ATOM     58  C   UNL A   1      45.653  30.912  28.572  1.00  0.00     0.037 A 
BRANCH  45  59
ATOM     59  C   UNL A   1      39.867  28.787  28.992  1.00  0.00     0.057 A 
ATOM     60  C   UNL A   1      39.343  28.659  30.285  1.00  0.00     0.134 A 
ATOM     61  C   UNL A   1      39.000  29.229  27.985  1.00  0.00     0.134 A 
ATOM     62  F   UNL A   1      40.117  28.229  31.293  1.00  0.00    -0.206 F 
ATOM     63  C   UNL A   1      38.002  28.934  30.561  1.00  0.00     0.040 A 
ATOM     64  C   UNL A   1      37.665  29.532  28.253  1.00  0.00     0.040 A 
ATOM     65  F   UNL A   1      39.439  29.378  26.725  1.00  0.00    -0.206 F 
ATOM     66  C   UNL A   1      37.161  29.379  29.543  1.00  0.00     0.006 A 
ENDBRANCH  45  59
BRANCH  46  67
ATOM     67  C   UNL A   1      49.288  26.474  26.652  1.00  0.00     0.057 A 
ATOM     68  C   UNL A   1      49.755  26.673  25.347  1.00  0.00     0.134 A 
ATOM     69  C   UNL A   1      50.188  25.947  27.585  1.00  0.00     0.134 A 
ATOM     70  F   UNL A   1      48.934  27.158  24.404  1.00  0.00    -0.206 F 
ATOM     71  C   UNL A   1      51.060  26.343  24.978  1.00  0.00     0.040 A 
ATOM     72  C   UNL A   1      51.504  25.635  27.236  1.00  0.00     0.040 A 
ATOM     73  F   UNL A   1      49.806  25.739  28.853  1.00  0.00    -0.206 F 
ATOM     74  C   UNL A   1      51.940  25.827  25.926  1.00  0.00     0.006 A 
ENDBRANCH  46  67
BRANCH  58  75
ATOM     75  C   UNL A   1      46.173  32.284  28.884  1.00  0.00     0.057 A 
ATOM     76  C   UNL A   1      46.667  32.617  30.152  1.00  0.00     0.134 A 
ATOM     77  C   UNL A   1      46.216  33.272  27.892  1.00  0.00     0.134 A 
ATOM     78  F   UNL A   1      46.641  31.721  31.150  1.00  0.00    -0.206 F 
ATOM     79  C   UNL A   1      47.168  33.891  30.426  1.00  0.00     0.040 A 
ATOM     80  C   UNL A   1      46.739  34.540  28.146  1.00  0.00     0.040 A 
ATOM     81  F   UNL A   1      45.766  33.014  26.654  1.00  0.00    -0.206 F 
ATOM     82  C   UNL A   1      47.212  34.854  29.419  1.00  0.00     0.006 A 
ENDBRANCH  58  75
ENDBRANCH  32  33
ENDBRANCH  24  27
ENDBRANCH  22  23
ENDBRANCH  21  22
ENDBRANCH  20  21
ENDBRANCH   1  20
TORSDOF 17
ENDMDL
MODEL 2
REMARK VINA RESULT:     -10.1      0.626      6.462
REMARK SMILES CCCCC[NH2+][C@](C)(C(=O)NCCCCNC(=O)c1ccc(-c2c3nc(c(-c4c(F)cccc4F)c4ccc([nH]4)c(-c4c(F)cccc4F)c4nc(c(-c5c(F)cccc5F)c5ccc2[nH]5)C=C4)C=C3)cc1)C(F)(F)F
REMARK SMILES IDX 12 1 11 2 9 3 10 4 7 6 8 7 6 8 5 11 4 12 3 13 2 14 1 15
REMARK SMILES IDX 73 16 74 17 75 18 76 19 13 20 14 21 15 22 16 23 17 24 18 26
REMARK SMILES IDX 19 27 20 28 72 29 21 30 71 31 22 32 23 33 24 34 65 35 25 36
REMARK SMILES IDX 70 37 64 38 66 39 26 40 69 41 63 42 62 43 27 45 53 46 36 47
REMARK SMILES IDX 52 48 37 49 40 50 51 51 67 52 38 53 39 54 50 56 68 57 41 58
REMARK SMILES IDX 28 59 29 60 34 61 30 62 31 63 33 64 35 65 32 66 54 67 55 68
REMARK SMILES IDX 60 69 56 70 57 71 59 72 61 73 58 74 42 75 43 76 48 77 44 78
REMARK SMILES IDX 45 79 47 80 49 81 46 82
REMARK H PARENT 11 5 6 9 6 10 16 25 66 44 40 55
REMARK Flexibility Score: inf
ROOT
ATOM      1  C   UNL A   1      36.379  21.791  25.280  1.00  0.00     0.116 C 
ENDROOT
BRANCH   1   2
ATOM      2  N   UNL A   1      35.334  22.504  24.564  1.00  0.00    -0.350 N 
ATOM      3  C   UNL A   1      33.972  22.488  24.726  1.00  0.00     0.290 C 
ATOM      4  O   UNL A   1      33.332  23.246  23.994  1.00  0.00    -0.267 OA
ATOM      5  H   UNL A   1      35.657  23.092  23.844  1.00  0.00     0.163 HD
BRANCH   3   6
ATOM      6  C   UNL A   1      33.301  21.561  25.772  1.00  0.00     0.268 C 
ATOM      7  C   UNL A   1      31.803  21.439  25.431  1.00  0.00     0.101 C 
BRANCH   6   8
ATOM      8  N   UNL A   1      34.062  20.257  25.735  1.00  0.00    -0.326 N 
ATOM      9  H   UNL A   1      34.933  20.417  25.230  1.00  0.00     0.347 HD
ATOM     10  H   UNL A   1      34.191  19.984  26.709  1.00  0.00     0.347 HD
BRANCH   8  11
ATOM     11  C   UNL A   1      33.375  19.142  25.099  1.00  0.00     0.261 C 
BRANCH  11  12
ATOM     12  C   UNL A   1      34.365  18.291  24.293  1.00  0.00     0.061 C 
BRANCH  12  13
ATOM     13  C   UNL A   1      33.909  16.859  23.987  1.00  0.00     0.006 C 
BRANCH  13  14
ATOM     14  C   UNL A   1      34.033  15.872  25.148  1.00  0.00    -0.003 C 
ATOM     15  C   UNL A   1      32.767  15.066  25.393  1.00  0.00     0.004 C 
ENDBRANCH  13  14
ENDBRANCH  12  13
ENDBRANCH  11  12
ENDBRANCH   8  11
ENDBRANCH   6   8
BRANCH   6  16
ATOM     16  C   UNL A   1      33.411  22.288  27.142  1.00  0.00     0.453 C 
ATOM     17  F   UNL A   1      34.208  21.649  28.026  1.00  0.00    -0.164 F 
ATOM     18  F   UNL A   1      33.950  23.526  26.970  1.00  0.00    -0.164 F 
ATOM     19  F   UNL A   1      32.199  22.485  27.712  1.00  0.00    -0.164 F 
ENDBRANCH   6  16
ENDBRANCH   3   6
ENDBRANCH   1   2
BRANCH   1  20
ATOM     20  C   UNL A   1      37.355  21.107  24.327  1.00  0.00     0.023 C 
BRANCH  20  21
ATOM     21  C   UNL A   1      38.032  19.862  24.895  1.00  0.00     0.023 C 
BRANCH  21  22
ATOM     22  C   UNL A   1      39.127  20.131  25.919  1.00  0.00     0.116 C 
BRANCH  22  23
ATOM     23  N   UNL A   1      40.154  19.100  25.944  1.00  0.00    -0.352 N 
ATOM     24  C   UNL A   1      41.507  19.235  26.143  1.00  0.00     0.251 C 
ATOM     25  H   UNL A   1      39.836  18.180  25.799  1.00  0.00     0.163 HD
ATOM     26  O   UNL A   1      42.253  18.268  26.012  1.00  0.00    -0.269 OA
BRANCH  24  27
ATOM     27  C   UNL A   1      42.066  20.560  26.479  1.00  0.00     0.039 A 
ATOM     28  C   UNL A   1      42.443  21.416  25.442  1.00  0.00     0.014 A 
ATOM     29  C   UNL A   1      42.185  20.967  27.810  1.00  0.00     0.014 A 
ATOM     30  C   UNL A   1      42.869  22.711  25.738  1.00  0.00     0.010 A 
ATOM     31  C   UNL A   1      42.540  22.281  28.100  1.00  0.00     0.010 A 
ATOM     32  C   UNL A   1      42.882  23.167  27.067  1.00  0.00    -0.014 A 
BRANCH  32  33
ATOM     33  C   UNL A   1      43.240  24.569  27.398  1.00  0.00     0.031 A 
ATOM     34  C   UNL A   1      44.675  25.013  27.345  1.00  0.00     0.074 A 
ATOM     35  C   UNL A   1      42.285  25.421  27.818  1.00  0.00     0.049 A 
ATOM     36  N   UNL A   1      45.197  26.167  27.676  1.00  0.00    -0.248 NA
ATOM     37  C   UNL A   1      45.658  24.019  26.885  1.00  0.00     0.031 C 
ATOM     38  C   UNL A   1      40.863  25.098  27.958  1.00  0.00     0.029 A 
ATOM     39  N   UNL A   1      42.368  26.732  28.216  1.00  0.00    -0.354 N 
ATOM     40  C   UNL A   1      46.564  26.033  27.479  1.00  0.00     0.074 A 
ATOM     41  C   UNL A   1      46.799  24.671  27.051  1.00  0.00     0.031 C 
ATOM     42  C   UNL A   1      40.206  26.186  28.390  1.00  0.00     0.029 A 
ATOM     43  C   UNL A   1      41.161  27.271  28.594  1.00  0.00     0.049 A 
ATOM     44  H   UNL A   1      43.212  27.238  28.230  1.00  0.00     0.167 HD
ATOM     45  C   UNL A   1      47.535  26.967  27.619  1.00  0.00     0.037 A 
ATOM     46  C   UNL A   1      40.861  28.498  29.060  1.00  0.00     0.037 A 
ATOM     47  C   UNL A   1      47.296  28.328  28.022  1.00  0.00     0.049 A 
ATOM     48  C   UNL A   1      41.959  29.514  29.214  1.00  0.00     0.074 A 
ATOM     49  C   UNL A   1      48.206  29.365  28.135  1.00  0.00     0.029 A 
ATOM     50  N   UNL A   1      46.058  28.841  28.378  1.00  0.00    -0.354 N 
ATOM     51  N   UNL A   1      43.239  29.394  28.961  1.00  0.00    -0.248 NA
ATOM     52  C   UNL A   1      41.567  30.839  29.717  1.00  0.00     0.031 C 
ATOM     53  C   UNL A   1      47.524  30.495  28.601  1.00  0.00     0.029 A 
ATOM     54  C   UNL A   1      46.183  30.174  28.732  1.00  0.00     0.049 A 
ATOM     55  H   UNL A   1      45.215  28.332  28.379  1.00  0.00     0.167 HD
ATOM     56  C   UNL A   1      43.801  30.631  29.244  1.00  0.00     0.074 A 
ATOM     57  C   UNL A   1      42.720  31.492  29.677  1.00  0.00     0.031 C 
ATOM     58  C   UNL A   1      45.096  31.020  29.152  1.00  0.00     0.037 A 
BRANCH  45  59
ATOM     59  C   UNL A   1      48.946  26.546  27.329  1.00  0.00     0.057 A 
ATOM     60  C   UNL A   1      49.783  26.033  28.330  1.00  0.00     0.134 A 
ATOM     61  C   UNL A   1      49.465  26.623  26.031  1.00  0.00     0.134 A 
ATOM     62  F   UNL A   1      49.352  25.944  29.598  1.00  0.00    -0.206 F 
ATOM     63  C   UNL A   1      51.094  25.640  28.056  1.00  0.00     0.040 A 
ATOM     64  C   UNL A   1      50.765  26.208  25.740  1.00  0.00     0.040 A 
ATOM     65  F   UNL A   1      48.716  27.099  25.025  1.00  0.00    -0.206 F 
ATOM     66  C   UNL A   1      51.586  25.720  26.755  1.00  0.00     0.006 A 
ENDBRANCH  45  59
BRANCH  46  67
ATOM     67  C   UNL A   1      39.457  28.843  29.392  1.00  0.00     0.057 A 
ATOM     68  C   UNL A   1      38.934  28.586  30.665  1.00  0.00     0.134 A 
ATOM     69  C   UNL A   1      38.602  29.426  28.449  1.00  0.00     0.134 A 
ATOM     70  F   UNL A   1      39.699  28.012  31.605  1.00  0.00    -0.206 F 
ATOM     71  C   UNL A   1      37.607  28.879  30.983  1.00  0.00     0.040 A 
ATOM     72  C   UNL A   1      37.279  29.746  28.761  1.00  0.00     0.040 A 
ATOM     73  F   UNL A   1      39.044  29.703  27.214  1.00  0.00    -0.206 F 
ATOM     74  C   UNL A   1      36.777  29.465  30.031  1.00  0.00     0.006 A 
ENDBRANCH  46  67
BRANCH  58  75
ATOM     75  C   UNL A   1      45.411  32.447  29.491  1.00  0.00     0.057 A 
ATOM     76  C   UNL A   1      45.326  33.470  28.538  1.00  0.00     0.134 A 
ATOM     77  C   UNL A   1      45.763  32.807  30.798  1.00  0.00     0.134 A 
ATOM     78  F   UNL A   1      45.007  33.190  27.265  1.00  0.00    -0.206 F 
ATOM     79  C   UNL A   1      45.600  34.798  28.869  1.00  0.00     0.040 A 
ATOM     80  C   UNL A   1      46.013  34.135  31.147  1.00  0.00     0.040 A 
ATOM     81  F   UNL A   1      45.853  31.876  31.760  1.00  0.00    -0.206 F 
ATOM     82  C   UNL A   1      45.938  35.134  30.179  1.00  0.00     0.006 A 
ENDBRANCH  58  75
ENDBRANCH  32  33
ENDBRANCH  24  27
ENDBRANCH  22  23
ENDBRANCH  21  22
ENDBRANCH  20  21
ENDBRANCH   1  20
TORSDOF 17
ENDMDL
MODEL 3
REMARK VINA RESULT:     -10.1      1.731      6.901
REMARK SMILES CCCCC[NH2+][C@](C)(C(=O)NCCCCNC(=O)c1ccc(-c2c3nc(c(-c4c(F)cccc4F)c4ccc([nH]4)c(-c4c(F)cccc4F)c4nc(c(-c5c(F)cccc5F)c5ccc2[nH]5)C=C4)C=C3)cc1)C(F)(F)F
REMARK SMILES IDX 12 1 11 2 9 3 10 4 7 6 8 7 6 8 5 11 4 12 3 13 2 14 1 15
REMARK SMILES IDX 73 16 74 17 75 18 76 19 13 20 14 21 15 22 16 23 17 24 18 26
REMARK SMILES IDX 19 27 20 28 72 29 21 30 71 31 22 32 23 33 24 34 65 35 25 36
REMARK SMILES IDX 70 37 64 38 66 39 26 40 69 41 63 42 62 43 27 45 53 46 36 47
REMARK SMILES IDX 52 48 37 49 40 50 51 51 67 52 38 53 39 54 50 56 68 57 41 58
REMARK SMILES IDX 28 59 29 60 34 61 30 62 31 63 33 64 35 65 32 66 54 67 55 68
REMARK SMILES IDX 60 69 56 70 57 71 59 72 61 73 58 74 42 75 43 76 48 77 44 78
REMARK SMILES IDX 45 79 47 80 49 81 46 82
REMARK H PARENT 11 5 6 9 6 10 16 25 66 44 40 55
REMARK Flexibility Score: inf
ROOT
ATOM      1  C   UNL A   1      36.639  21.984  25.567  1.00  0.00     0.116 C 
ENDROOT
BRANCH   1   2
ATOM      2  N   UNL A   1      35.625  21.524  26.500  1.00  0.00    -0.350 N 
ATOM      3  C   UNL A   1      34.282  21.801  26.565  1.00  0.00     0.290 C 
ATOM      4  O   UNL A   1      33.653  21.217  27.451  1.00  0.00    -0.267 OA
ATOM      5  H   UNL A   1      35.955  20.916  27.200  1.00  0.00     0.163 HD
BRANCH   3   6
ATOM      6  C   UNL A   1      33.621  22.794  25.576  1.00  0.00     0.268 C 
ATOM      7  C   UNL A   1      32.229  23.175  26.120  1.00  0.00     0.101 C 
BRANCH   6   8
ATOM      8  N   UNL A   1      34.578  23.953  25.434  1.00  0.00    -0.326 N 
ATOM      9  H   UNL A   1      35.339  23.815  26.098  1.00  0.00     0.347 HD
ATOM     10  H   UNL A   1      34.874  23.949  24.458  1.00  0.00     0.347 HD
BRANCH   8  11
ATOM     11  C   UNL A   1      34.011  25.274  25.672  1.00  0.00     0.261 C 
BRANCH  11  12
ATOM     12  C   UNL A   1      33.845  26.032  24.348  1.00  0.00     0.061 C 
BRANCH  12  13
ATOM     13  C   UNL A   1      32.409  26.139  23.823  1.00  0.00     0.006 C 
BRANCH  13  14
ATOM     14  C   UNL A   1      32.074  25.224  22.644  1.00  0.00    -0.003 C 
ATOM     15  C   UNL A   1      32.857  25.555  21.383  1.00  0.00     0.004 C 
ENDBRANCH  13  14
ENDBRANCH  12  13
ENDBRANCH  11  12
ENDBRANCH   8  11
ENDBRANCH   6   8
BRANCH   6  16
ATOM     16  C   UNL A   1      33.407  22.018  24.246  1.00  0.00     0.453 C 
ATOM     17  F   UNL A   1      33.629  20.690  24.358  1.00  0.00    -0.164 F 
ATOM     18  F   UNL A   1      32.116  22.153  23.831  1.00  0.00    -0.164 F 
ATOM     19  F   UNL A   1      34.173  22.506  23.243  1.00  0.00    -0.164 F 
ENDBRANCH   6  16
ENDBRANCH   3   6
ENDBRANCH   1   2
BRANCH   1  20
ATOM     20  C   UNL A   1      36.940  20.940  24.496  1.00  0.00     0.023 C 
BRANCH  20  21
ATOM     21  C   UNL A   1      37.822  19.784  24.963  1.00  0.00     0.023 C 
BRANCH  21  22
ATOM     22  C   UNL A   1      39.047  20.190  25.773  1.00  0.00     0.116 C 
BRANCH  22  23
ATOM     23  N   UNL A   1      40.061  19.149  25.839  1.00  0.00    -0.352 N 
ATOM     24  C   UNL A   1      41.409  19.270  26.075  1.00  0.00     0.251 C 
ATOM     25  H   UNL A   1      39.736  18.230  25.695  1.00  0.00     0.163 HD
ATOM     26  O   UNL A   1      42.147  18.294  25.976  1.00  0.00    -0.269 OA
BRANCH  24  27
ATOM     27  C   UNL A   1      41.973  20.594  26.412  1.00  0.00     0.039 A 
ATOM     28  C   UNL A   1      42.387  21.434  25.376  1.00  0.00     0.014 A 
ATOM     29  C   UNL A   1      42.061  21.013  27.741  1.00  0.00     0.014 A 
ATOM     30  C   UNL A   1      42.818  22.728  25.670  1.00  0.00     0.010 A 
ATOM     31  C   UNL A   1      42.422  22.327  28.027  1.00  0.00     0.010 A 
ATOM     32  C   UNL A   1      42.801  23.198  26.994  1.00  0.00    -0.014 A 
BRANCH  32  33
ATOM     33  C   UNL A   1      43.165  24.600  27.320  1.00  0.00     0.031 A 
ATOM     34  C   UNL A   1      44.606  25.026  27.306  1.00  0.00     0.074 A 
ATOM     35  C   UNL A   1      42.208  25.467  27.700  1.00  0.00     0.049 A 
ATOM     36  N   UNL A   1      45.131  26.178  27.640  1.00  0.00    -0.248 NA
ATOM     37  C   UNL A   1      45.591  24.016  26.890  1.00  0.00     0.031 C 
ATOM     38  C   UNL A   1      40.778  25.163  27.799  1.00  0.00     0.029 A 
ATOM     39  N   UNL A   1      42.294  26.782  28.085  1.00  0.00    -0.354 N 
ATOM     40  C   UNL A   1      46.503  26.026  27.488  1.00  0.00     0.074 A 
ATOM     41  C   UNL A   1      46.735  24.656  27.083  1.00  0.00     0.031 C 
ATOM     42  C   UNL A   1      40.121  26.263  28.197  1.00  0.00     0.029 A 
ATOM     43  C   UNL A   1      41.082  27.339  28.418  1.00  0.00     0.049 A 
ATOM     44  H   UNL A   1      43.142  27.278  28.119  1.00  0.00     0.167 HD
ATOM     45  C   UNL A   1      47.479  26.951  27.648  1.00  0.00     0.037 A 
ATOM     46  C   UNL A   1      40.783  28.575  28.860  1.00  0.00     0.037 A 
ATOM     47  C   UNL A   1      47.244  28.319  28.027  1.00  0.00     0.049 A 
ATOM     48  C   UNL A   1      41.887  29.580  29.038  1.00  0.00     0.074 A 
ATOM     49  C   UNL A   1      48.162  29.347  28.157  1.00  0.00     0.029 A 
ATOM     50  N   UNL A   1      46.002  28.850  28.338  1.00  0.00    -0.354 N 
ATOM     51  N   UNL A   1      43.172  29.442  28.826  1.00  0.00    -0.248 NA
ATOM     52  C   UNL A   1      41.495  30.916  29.513  1.00  0.00     0.031 C 
ATOM     53  C   UNL A   1      47.480  30.490  28.588  1.00  0.00     0.029 A 
ATOM     54  C   UNL A   1      46.132  30.186  28.680  1.00  0.00     0.049 A 
ATOM     55  H   UNL A   1      45.153  28.351  28.319  1.00  0.00     0.167 HD
ATOM     56  C   UNL A   1      43.740  30.677  29.112  1.00  0.00     0.074 A 
ATOM     57  C   UNL A   1      42.657  31.555  29.501  1.00  0.00     0.031 C 
ATOM     58  C   UNL A   1      45.042  31.050  29.056  1.00  0.00     0.037 A 
BRANCH  45  59
ATOM     59  C   UNL A   1      48.894  26.509  27.407  1.00  0.00     0.057 A 
ATOM     60  C   UNL A   1      49.502  26.634  26.151  1.00  0.00     0.134 A 
ATOM     61  C   UNL A   1      49.667  25.983  28.450  1.00  0.00     0.134 A 
ATOM     62  F   UNL A   1      48.812  27.118  25.107  1.00  0.00    -0.206 F 
ATOM     63  C   UNL A   1      50.818  26.224  25.932  1.00  0.00     0.040 A 
ATOM     64  C   UNL A   1      50.993  25.596  28.250  1.00  0.00     0.040 A 
ATOM     65  F   UNL A   1      49.149  25.843  29.679  1.00  0.00    -0.206 F 
ATOM     66  C   UNL A   1      51.570  25.710  26.987  1.00  0.00     0.006 A 
ENDBRANCH  45  59
BRANCH  46  67
ATOM     67  C   UNL A   1      39.373  28.941  29.144  1.00  0.00     0.057 A 
ATOM     68  C   UNL A   1      38.556  29.489  28.148  1.00  0.00     0.134 A 
ATOM     69  C   UNL A   1      38.811  28.764  30.414  1.00  0.00     0.134 A 
ATOM     70  F   UNL A   1      39.043  29.700  26.917  1.00  0.00    -0.206 F 
ATOM     71  C   UNL A   1      37.237  29.865  28.408  1.00  0.00     0.040 A 
ATOM     72  C   UNL A   1      37.485  29.113  30.682  1.00  0.00     0.040 A 
ATOM     73  F   UNL A   1      39.538  28.238  31.410  1.00  0.00    -0.206 F 
ATOM     74  C   UNL A   1      36.697  29.672  29.677  1.00  0.00     0.006 A 
ENDBRANCH  46  67
BRANCH  58  75
ATOM     75  C   UNL A   1      45.363  32.477  29.389  1.00  0.00     0.057 A 
ATOM     76  C   UNL A   1      45.749  32.868  30.677  1.00  0.00     0.134 A 
ATOM     77  C   UNL A   1      45.323  33.465  28.396  1.00  0.00     0.134 A 
ATOM     78  F   UNL A   1      45.793  31.973  31.675  1.00  0.00    -0.206 F 
ATOM     79  C   UNL A   1      46.066  34.196  30.970  1.00  0.00     0.040 A 
ATOM     80  C   UNL A   1      45.664  34.790  28.671  1.00  0.00     0.040 A 
ATOM     81  F   UNL A   1      44.970  33.154  27.140  1.00  0.00    -0.206 F 
ATOM     82  C   UNL A   1      46.031  35.159  29.963  1.00  0.00     0.006 A 
ENDBRANCH  58  75
ENDBRANCH  32  33
ENDBRANCH  24  27
ENDBRANCH  22  23
ENDBRANCH  21  22
ENDBRANCH  20  21
ENDBRANCH   1  20
TORSDOF 17
ENDMDL
