MODEL 1
REMARK VINA RESULT:     -12.1      0.000      0.000
REMARK SMILES Cc1cc(F)cc(N[C@H](C(=O)NCCCCNC(=O)c2ccc(-c3c4nc(c(-c5c(F)cccc5F)c5ccc([nH]5)c(-c5c(F)cccc5F)c5nc(c(-c6c(F)cccc6F)c6ccc3[nH]6)C=C5)C=C4)cc2)c2cc(Br)cs2)c1
REMARK SMILES IDX 14 1 13 2 12 3 10 4 11 5 9 7 8 8 7 10 1 11 2 12 3 13 80 14
REMARK SMILES IDX 4 15 5 16 6 17 74 18 75 19 79 20 76 21 78 22 77 23 15 24
REMARK SMILES IDX 16 25 17 26 18 27 19 29 20 30 21 31 73 32 22 33 72 34 23 35
REMARK SMILES IDX 24 36 25 37 66 38 26 39 71 40 65 41 67 42 27 43 70 44 64 45
REMARK SMILES IDX 63 46 28 48 54 49 37 50 53 51 38 52 41 53 52 54 68 55 39 56
REMARK SMILES IDX 40 57 51 59 69 60 42 61 29 62 30 63 35 64 31 65 32 66 34 67
REMARK SMILES IDX 36 68 33 69 55 70 56 71 61 72 57 73 58 74 60 75 62 76 59 77
REMARK SMILES IDX 43 78 44 79 49 80 45 81 46 82 48 83 50 84 47 85
REMARK H PARENT 12 6 8 9 17 28 67 47 41 58
REMARK Flexibility Score: inf
ROOT
ATOM      1  C   UNL A   1      31.029  30.762  25.417  1.00  0.00     0.023 C 
ENDROOT
BRANCH   1   2
ATOM      2  C   UNL A   1      32.193  29.833  25.751  1.00  0.00     0.116 C 
BRANCH   2   3
ATOM      3  N   UNL A   1      33.139  29.664  24.668  1.00  0.00    -0.354 N 
ATOM      4  C   UNL A   1      33.061  28.847  23.562  1.00  0.00     0.247 C 
ATOM      5  O   UNL A   1      33.987  28.993  22.755  1.00  0.00    -0.272 OA
ATOM      6  H   UNL A   1      33.956  30.211  24.731  1.00  0.00     0.163 HD
BRANCH   4   7
ATOM      7  C   UNL A   1      31.952  27.732  23.425  1.00  0.00     0.210 C 
BRANCH   7   8
ATOM      8  N   UNL A   1      30.980  28.045  22.358  1.00  0.00    -0.369 N 
ATOM      9  H   UNL A   1      31.210  27.743  21.450  1.00  0.00     0.161 HD
BRANCH   8  10
ATOM     10  C   UNL A   1      29.781  28.717  22.502  1.00  0.00     0.038 A 
ATOM     11  C   UNL A   1      28.477  32.204  21.615  1.00  0.00     0.044 C 
ATOM     12  C   UNL A   1      28.520  30.790  22.110  1.00  0.00    -0.046 A 
ATOM     13  C   UNL A   1      27.390  30.206  22.682  1.00  0.00     0.042 A 
ATOM     14  C   UNL A   1      29.707  30.044  22.046  1.00  0.00     0.029 A 
ATOM     15  C   UNL A   1      27.444  28.887  23.110  1.00  0.00     0.125 A 
ATOM     16  F   UNL A   1      26.353  28.324  23.644  1.00  0.00    -0.207 F 
ATOM     17  C   UNL A   1      28.611  28.137  22.995  1.00  0.00     0.065 A 
ENDBRANCH   8  10
ENDBRANCH   7   8
BRANCH   7  18
ATOM     18  C   UNL A   1      32.512  26.301  23.372  1.00  0.00     0.038 A 
ATOM     19  C   UNL A   1      33.730  25.777  23.783  1.00  0.00     0.033 A 
ATOM     20  S   UNL A   1      31.515  25.022  22.742  1.00  0.00    -0.145 S 
ATOM     21  C   UNL A   1      33.901  24.428  23.383  1.00  0.00     0.029 A 
ATOM     22  C   UNL A   1      32.801  23.901  22.760  1.00  0.00     0.080 A 
ATOM     23  Br  UNL A   1      35.516  23.498  23.671  1.00  0.00    -0.050 Br
ENDBRANCH   7  18
ENDBRANCH   4   7
ENDBRANCH   2   3
ENDBRANCH   1   2
BRANCH   1  24
ATOM     24  C   UNL A   1      31.023  32.114  26.133  1.00  0.00     0.023 C 
BRANCH  24  25
ATOM     25  C   UNL A   1      32.329  32.532  26.803  1.00  0.00     0.116 C 
BRANCH  25  26
ATOM     26  N   UNL A   1      32.256  33.825  27.466  1.00  0.00    -0.352 N 
ATOM     27  C   UNL A   1      33.085  34.389  28.411  1.00  0.00     0.251 C 
ATOM     28  H   UNL A   1      31.495  34.388  27.197  1.00  0.00     0.163 HD
ATOM     29  O   UNL A   1      32.795  35.463  28.922  1.00  0.00    -0.269 OA
BRANCH  27  30
ATOM     30  C   UNL A   1      34.310  33.678  28.845  1.00  0.00     0.039 A 
ATOM     31  C   UNL A   1      35.553  34.281  28.632  1.00  0.00     0.014 A 
ATOM     32  C   UNL A   1      34.235  32.435  29.475  1.00  0.00     0.014 A 
ATOM     33  C   UNL A   1      36.711  33.688  29.144  1.00  0.00     0.010 A 
ATOM     34  C   UNL A   1      35.378  31.884  30.052  1.00  0.00     0.010 A 
ATOM     35  C   UNL A   1      36.625  32.512  29.907  1.00  0.00    -0.014 A 
BRANCH  35  36
ATOM     36  C   UNL A   1      37.812  31.930  30.587  1.00  0.00     0.031 A 
ATOM     37  C   UNL A   1      38.624  30.864  29.907  1.00  0.00     0.074 A 
ATOM     38  C   UNL A   1      38.096  32.282  31.857  1.00  0.00     0.049 A 
ATOM     39  N   UNL A   1      39.597  30.131  30.386  1.00  0.00    -0.248 NA
ATOM     40  C   UNL A   1      38.276  30.561  28.510  1.00  0.00     0.031 C 
ATOM     41  C   UNL A   1      37.361  33.271  32.649  1.00  0.00     0.029 A 
ATOM     42  N   UNL A   1      39.069  31.830  32.715  1.00  0.00    -0.354 N 
ATOM     43  C   UNL A   1      39.957  29.264  29.363  1.00  0.00     0.074 A 
ATOM     44  C   UNL A   1      39.072  29.535  28.250  1.00  0.00     0.031 C 
ATOM     45  C   UNL A   1      37.916  33.361  33.868  1.00  0.00     0.029 A 
ATOM     46  C   UNL A   1      39.016  32.406  33.961  1.00  0.00     0.049 A 
ATOM     47  H   UNL A   1      39.740  31.157  32.461  1.00  0.00     0.167 HD
ATOM     48  C   UNL A   1      40.946  28.340  29.344  1.00  0.00     0.037 A 
ATOM     49  C   UNL A   1      39.760  32.181  35.062  1.00  0.00     0.037 A 
ATOM     50  C   UNL A   1      41.849  28.095  30.438  1.00  0.00     0.049 A 
ATOM     51  C   UNL A   1      40.855  31.153  35.015  1.00  0.00     0.074 A 
ATOM     52  C   UNL A   1      42.921  27.221  30.492  1.00  0.00     0.029 A 
ATOM     53  N   UNL A   1      41.786  28.729  31.670  1.00  0.00    -0.354 N 
ATOM     54  N   UNL A   1      41.219  30.378  34.022  1.00  0.00    -0.248 NA
ATOM     55  C   UNL A   1      41.646  30.967  36.240  1.00  0.00     0.031 C 
ATOM     56  C   UNL A   1      43.487  27.302  31.769  1.00  0.00     0.029 A 
ATOM     57  C   UNL A   1      42.793  28.256  32.495  1.00  0.00     0.049 A 
ATOM     58  H   UNL A   1      41.125  29.413  31.920  1.00  0.00     0.167 HD
ATOM     59  C   UNL A   1      42.298  29.640  34.490  1.00  0.00     0.074 A 
ATOM     60  C   UNL A   1      42.535  30.062  35.855  1.00  0.00     0.031 C 
ATOM     61  C   UNL A   1      43.029  28.701  33.845  1.00  0.00     0.037 A 
BRANCH  48  62
ATOM     62  C   UNL A   1      41.107  27.525  28.095  1.00  0.00     0.057 A 
ATOM     63  C   UNL A   1      41.932  27.943  27.043  1.00  0.00     0.134 A 
ATOM     64  C   UNL A   1      40.456  26.292  27.956  1.00  0.00     0.134 A 
ATOM     65  F   UNL A   1      42.574  29.119  27.109  1.00  0.00    -0.206 F 
ATOM     66  C   UNL A   1      42.082  27.178  25.884  1.00  0.00     0.040 A 
ATOM     67  C   UNL A   1      40.619  25.507  26.813  1.00  0.00     0.040 A 
ATOM     68  F   UNL A   1      39.658  25.829  28.930  1.00  0.00    -0.206 F 
ATOM     69  C   UNL A   1      41.428  25.953  25.771  1.00  0.00     0.006 A 
ENDBRANCH  48  62
BRANCH  49  70
ATOM     70  C   UNL A   1      39.509  32.960  36.301  1.00  0.00     0.057 A 
ATOM     71  C   UNL A   1      40.205  34.146  36.556  1.00  0.00     0.134 A 
ATOM     72  C   UNL A   1      38.578  32.538  37.258  1.00  0.00     0.134 A 
ATOM     73  F   UNL A   1      41.124  34.590  35.686  1.00  0.00    -0.206 F 
ATOM     74  C   UNL A   1      40.000  34.877  37.728  1.00  0.00     0.040 A 
ATOM     75  C   UNL A   1      38.345  33.271  38.422  1.00  0.00     0.040 A 
ATOM     76  F   UNL A   1      37.874  31.412  37.068  1.00  0.00    -0.206 F 
ATOM     77  C   UNL A   1      39.063  34.442  38.663  1.00  0.00     0.006 A 
ENDBRANCH  49  70
BRANCH  61  78
ATOM     78  C   UNL A   1      44.186  28.098  34.584  1.00  0.00     0.057 A 
ATOM     79  C   UNL A   1      44.044  26.953  35.375  1.00  0.00     0.134 A 
ATOM     80  C   UNL A   1      45.471  28.642  34.452  1.00  0.00     0.134 A 
ATOM     81  F   UNL A   1      42.838  26.393  35.551  1.00  0.00    -0.206 F 
ATOM     82  C   UNL A   1      45.138  26.375  36.023  1.00  0.00     0.040 A 
ATOM     83  C   UNL A   1      46.575  28.060  35.076  1.00  0.00     0.040 A 
ATOM     84  F   UNL A   1      45.675  29.735  33.702  1.00  0.00    -0.206 F 
ATOM     85  C   UNL A   1      46.410  26.925  35.867  1.00  0.00     0.006 A 
ENDBRANCH  61  78
ENDBRANCH  35  36
ENDBRANCH  27  30
ENDBRANCH  25  26
ENDBRANCH  24  25
ENDBRANCH   1  24
TORSDOF 14
ENDMDL
MODEL 2
REMARK VINA RESULT:     -12.0      5.660      9.709
REMARK SMILES Cc1cc(F)cc(N[C@H](C(=O)NCCCCNC(=O)c2ccc(-c3c4nc(c(-c5c(F)cccc5F)c5ccc([nH]5)c(-c5c(F)cccc5F)c5nc(c(-c6c(F)cccc6F)c6ccc3[nH]6)C=C5)C=C4)cc2)c2cc(Br)cs2)c1
REMARK SMILES IDX 14 1 13 2 12 3 10 4 11 5 9 7 8 8 7 10 1 11 2 12 3 13 80 14
REMARK SMILES IDX 4 15 5 16 6 17 74 18 75 19 79 20 76 21 78 22 77 23 15 24
REMARK SMILES IDX 16 25 17 26 18 27 19 29 20 30 21 31 73 32 22 33 72 34 23 35
REMARK SMILES IDX 24 36 25 37 66 38 26 39 71 40 65 41 67 42 27 43 70 44 64 45
REMARK SMILES IDX 63 46 28 48 54 49 37 50 53 51 38 52 41 53 52 54 68 55 39 56
REMARK SMILES IDX 40 57 51 59 69 60 42 61 29 62 30 63 35 64 31 65 32 66 34 67
REMARK SMILES IDX 36 68 33 69 55 70 56 71 61 72 57 73 58 74 60 75 62 76 59 77
REMARK SMILES IDX 43 78 44 79 49 80 45 81 46 82 48 83 50 84 47 85
REMARK H PARENT 12 6 8 9 17 28 67 47 41 58
REMARK Flexibility Score: inf
ROOT
ATOM      1  C   UNL A   1      36.416  20.328  25.022  1.00  0.00     0.023 C 
ENDROOT
BRANCH   1   2
ATOM      2  C   UNL A   1      36.254  21.752  25.547  1.00  0.00     0.116 C 
BRANCH   2   3
ATOM      3  N   UNL A   1      35.439  21.849  26.740  1.00  0.00    -0.354 N 
ATOM      4  C   UNL A   1      34.068  21.866  26.859  1.00  0.00     0.247 C 
ATOM      5  O   UNL A   1      33.657  21.859  28.025  1.00  0.00    -0.272 OA
ATOM      6  H   UNL A   1      35.936  21.913  27.588  1.00  0.00     0.163 HD
BRANCH   4   7
ATOM      7  C   UNL A   1      33.123  22.021  25.603  1.00  0.00     0.210 C 
BRANCH   7   8
ATOM      8  N   UNL A   1      32.230  20.857  25.434  1.00  0.00    -0.369 N 
ATOM      9  H   UNL A   1      31.359  20.898  25.891  1.00  0.00     0.161 HD
BRANCH   8  10
ATOM     10  C   UNL A   1      32.489  19.715  24.699  1.00  0.00     0.038 A 
ATOM     11  C   UNL A   1      33.679  16.165  25.491  1.00  0.00     0.044 C 
ATOM     12  C   UNL A   1      33.192  17.359  24.730  1.00  0.00    -0.046 A 
ATOM     13  C   UNL A   1      33.016  17.294  23.347  1.00  0.00     0.042 A 
ATOM     14  C   UNL A   1      32.945  18.576  25.385  1.00  0.00     0.029 A 
ATOM     15  C   UNL A   1      32.539  18.404  22.665  1.00  0.00     0.125 A 
ATOM     16  F   UNL A   1      32.355  18.333  21.340  1.00  0.00    -0.207 F 
ATOM     17  C   UNL A   1      32.247  19.591  23.330  1.00  0.00     0.065 A 
ENDBRANCH   8  10
ENDBRANCH   7   8
BRANCH   7  18
ATOM     18  C   UNL A   1      32.412  23.382  25.523  1.00  0.00     0.038 A 
ATOM     19  C   UNL A   1      32.699  24.603  26.117  1.00  0.00     0.033 A 
ATOM     20  S   UNL A   1      31.009  23.549  24.507  1.00  0.00    -0.145 S 
ATOM     21  C   UNL A   1      31.673  25.559  25.912  1.00  0.00     0.029 A 
ATOM     22  C   UNL A   1      30.665  25.110  25.101  1.00  0.00     0.080 A 
ATOM     23  Br  UNL A   1      31.717  27.261  26.723  1.00  0.00    -0.050 Br
ENDBRANCH   7  18
ENDBRANCH   4   7
ENDBRANCH   2   3
ENDBRANCH   1   2
BRANCH   1  24
ATOM     24  C   UNL A   1      37.840  19.906  24.653  1.00  0.00     0.023 C 
BRANCH  24  25
ATOM     25  C   UNL A   1      38.931  20.247  25.664  1.00  0.00     0.116 C 
BRANCH  25  26
ATOM     26  N   UNL A   1      39.931  19.201  25.818  1.00  0.00    -0.352 N 
ATOM     27  C   UNL A   1      41.267  19.288  26.140  1.00  0.00     0.251 C 
ATOM     28  H   UNL A   1      39.601  18.285  25.669  1.00  0.00     0.163 HD
ATOM     29  O   UNL A   1      41.970  18.285  26.126  1.00  0.00    -0.269 OA
BRANCH  27  30
ATOM     30  C   UNL A   1      41.870  20.601  26.466  1.00  0.00     0.039 A 
ATOM     31  C   UNL A   1      42.288  21.431  25.421  1.00  0.00     0.014 A 
ATOM     32  C   UNL A   1      42.004  21.023  27.790  1.00  0.00     0.014 A 
ATOM     33  C   UNL A   1      42.743  22.724  25.700  1.00  0.00     0.010 A 
ATOM     34  C   UNL A   1      42.382  22.336  28.061  1.00  0.00     0.010 A 
ATOM     35  C   UNL A   1      42.740  23.206  27.018  1.00  0.00    -0.014 A 
BRANCH  35  36
ATOM     36  C   UNL A   1      43.079  24.618  27.338  1.00  0.00     0.031 A 
ATOM     37  C   UNL A   1      44.513  25.066  27.344  1.00  0.00     0.074 A 
ATOM     38  C   UNL A   1      42.108  25.468  27.726  1.00  0.00     0.049 A 
ATOM     39  N   UNL A   1      45.023  26.206  27.738  1.00  0.00    -0.248 NA
ATOM     40  C   UNL A   1      45.511  24.093  26.872  1.00  0.00     0.031 C 
ATOM     41  C   UNL A   1      40.681  25.148  27.808  1.00  0.00     0.029 A 
ATOM     42  N   UNL A   1      42.178  26.773  28.149  1.00  0.00    -0.354 N 
ATOM     43  C   UNL A   1      46.398  26.077  27.589  1.00  0.00     0.074 A 
ATOM     44  C   UNL A   1      46.645  24.735  27.106  1.00  0.00     0.031 C 
ATOM     45  C   UNL A   1      40.010  26.229  28.239  1.00  0.00     0.029 A 
ATOM     46  C   UNL A   1      40.961  27.303  28.506  1.00  0.00     0.049 A 
ATOM     47  H   UNL A   1      43.020  27.281  28.191  1.00  0.00     0.167 HD
ATOM     48  C   UNL A   1      47.365  26.997  27.815  1.00  0.00     0.037 A 
ATOM     49  C   UNL A   1      40.647  28.514  29.008  1.00  0.00     0.037 A 
ATOM     50  C   UNL A   1      47.116  28.342  28.261  1.00  0.00     0.049 A 
ATOM     51  C   UNL A   1      41.738  29.520  29.246  1.00  0.00     0.074 A 
ATOM     52  C   UNL A   1      48.026  29.367  28.460  1.00  0.00     0.029 A 
ATOM     53  N   UNL A   1      45.865  28.851  28.573  1.00  0.00    -0.354 N 
ATOM     54  N   UNL A   1      43.029  29.401  29.049  1.00  0.00    -0.248 NA
ATOM     55  C   UNL A   1      41.330  30.830  29.774  1.00  0.00     0.031 C 
ATOM     56  C   UNL A   1      47.329  30.486  28.926  1.00  0.00     0.029 A 
ATOM     57  C   UNL A   1      45.981  30.172  28.977  1.00  0.00     0.049 A 
ATOM     58  H   UNL A   1      45.020  28.349  28.517  1.00  0.00     0.167 HD
ATOM     59  C   UNL A   1      43.581  30.627  29.395  1.00  0.00     0.074 A 
ATOM     60  C   UNL A   1      42.485  31.479  29.811  1.00  0.00     0.031 C 
ATOM     61  C   UNL A   1      44.879  31.013  29.367  1.00  0.00     0.037 A 
BRANCH  48  62
ATOM     62  C   UNL A   1      48.786  26.579  27.577  1.00  0.00     0.057 A 
ATOM     63  C   UNL A   1      49.568  26.014  28.593  1.00  0.00     0.134 A 
ATOM     64  C   UNL A   1      49.369  26.712  26.311  1.00  0.00     0.134 A 
ATOM     65  F   UNL A   1      49.073  25.870  29.832  1.00  0.00    -0.206 F 
ATOM     66  C   UNL A   1      50.889  25.622  28.366  1.00  0.00     0.040 A 
ATOM     67  C   UNL A   1      50.680  26.300  26.065  1.00  0.00     0.040 A 
ATOM     68  F   UNL A   1      48.673  27.237  25.292  1.00  0.00    -0.206 F 
ATOM     69  C   UNL A   1      51.445  25.759  27.097  1.00  0.00     0.006 A 
ENDBRANCH  48  62
BRANCH  49  70
ATOM     70  C   UNL A   1      39.231  28.852  29.301  1.00  0.00     0.057 A 
ATOM     71  C   UNL A   1      38.683  28.614  30.566  1.00  0.00     0.134 A 
ATOM     72  C   UNL A   1      38.393  29.410  28.329  1.00  0.00     0.134 A 
ATOM     73  F   UNL A   1      39.431  28.061  31.533  1.00  0.00    -0.206 F 
ATOM     74  C   UNL A   1      37.347  28.901  30.850  1.00  0.00     0.040 A 
ATOM     75  C   UNL A   1      37.063  29.725  28.605  1.00  0.00     0.040 A 
ATOM     76  F   UNL A   1      38.862  29.668  27.098  1.00  0.00    -0.206 F 
ATOM     77  C   UNL A   1      36.533  29.464  29.869  1.00  0.00     0.006 A 
ENDBRANCH  49  70
BRANCH  61  78
ATOM     78  C   UNL A   1      45.187  32.430  29.748  1.00  0.00     0.057 A 
ATOM     79  C   UNL A   1      45.536  32.786  31.055  1.00  0.00     0.134 A 
ATOM     80  C   UNL A   1      45.188  33.440  28.777  1.00  0.00     0.134 A 
ATOM     81  F   UNL A   1      45.541  31.868  32.033  1.00  0.00    -0.206 F 
ATOM     82  C   UNL A   1      45.863  34.102  31.389  1.00  0.00     0.040 A 
ATOM     83  C   UNL A   1      45.535  34.754  29.093  1.00  0.00     0.040 A 
ATOM     84  F   UNL A   1      44.868  33.162  27.504  1.00  0.00    -0.206 F 
ATOM     85  C   UNL A   1      45.871  35.088  30.403  1.00  0.00     0.006 A 
ENDBRANCH  61  78
ENDBRANCH  35  36
ENDBRANCH  27  30
ENDBRANCH  25  26
ENDBRANCH  24  25
ENDBRANCH   1  24
TORSDOF 14
ENDMDL
MODEL 3
REMARK VINA RESULT:     -12.0      5.781     10.637
REMARK SMILES Cc1cc(F)cc(N[C@H](C(=O)NCCCCNC(=O)c2ccc(-c3c4nc(c(-c5c(F)cccc5F)c5ccc([nH]5)c(-c5c(F)cccc5F)c5nc(c(-c6c(F)cccc6F)c6ccc3[nH]6)C=C5)C=C4)cc2)c2cc(Br)cs2)c1
REMARK SMILES IDX 14 1 13 2 12 3 10 4 11 5 9 7 8 8 7 10 1 11 2 12 3 13 80 14
REMARK SMILES IDX 4 15 5 16 6 17 74 18 75 19 79 20 76 21 78 22 77 23 15 24
REMARK SMILES IDX 16 25 17 26 18 27 19 29 20 30 21 31 73 32 22 33 72 34 23 35
REMARK SMILES IDX 24 36 25 37 66 38 26 39 71 40 65 41 67 42 27 43 70 44 64 45
REMARK SMILES IDX 63 46 28 48 54 49 37 50 53 51 38 52 41 53 52 54 68 55 39 56
REMARK SMILES IDX 40 57 51 59 69 60 42 61 29 62 30 63 35 64 31 65 32 66 34 67
REMARK SMILES IDX 36 68 33 69 55 70 56 71 61 72 57 73 58 74 60 75 62 76 59 77
REMARK SMILES IDX 43 78 44 79 49 80 45 81 46 82 48 83 50 84 47 85
REMARK H PARENT 12 6 8 9 17 28 67 47 41 58
REMARK Flexibility Score: inf
ROOT
ATOM      1  C   UNL A   1      36.486  20.617  25.121  1.00  0.00     0.023 C 
ENDROOT
BRANCH   1   2
ATOM      2  C   UNL A   1      36.215  22.003  25.699  1.00  0.00     0.116 C 
BRANCH   2   3
ATOM      3  N   UNL A   1      35.335  21.998  26.849  1.00  0.00    -0.354 N 
ATOM      4  C   UNL A   1      33.963  21.890  26.896  1.00  0.00     0.247 C 
ATOM      5  O   UNL A   1      33.496  21.818  28.039  1.00  0.00    -0.272 OA
ATOM      6  H   UNL A   1      35.781  22.085  27.723  1.00  0.00     0.163 HD
BRANCH   4   7
ATOM      7  C   UNL A   1      33.073  21.990  25.595  1.00  0.00     0.210 C 
BRANCH   7   8
ATOM      8  N   UNL A   1      32.196  20.814  25.432  1.00  0.00    -0.369 N 
ATOM      9  H   UNL A   1      31.332  20.839  25.903  1.00  0.00     0.161 HD
BRANCH   8  10
ATOM     10  C   UNL A   1      32.461  19.681  24.684  1.00  0.00     0.038 A 
ATOM     11  C   UNL A   1      33.645  16.121  25.441  1.00  0.00     0.044 C 
ATOM     12  C   UNL A   1      33.163  17.326  24.691  1.00  0.00    -0.046 A 
ATOM     13  C   UNL A   1      32.999  17.278  23.306  1.00  0.00     0.042 A 
ATOM     14  C   UNL A   1      32.912  18.534  25.360  1.00  0.00     0.029 A 
ATOM     15  C   UNL A   1      32.528  18.397  22.634  1.00  0.00     0.125 A 
ATOM     16  F   UNL A   1      32.356  18.342  21.307  1.00  0.00    -0.207 F 
ATOM     17  C   UNL A   1      32.230  19.575  23.312  1.00  0.00     0.065 A 
ENDBRANCH   8  10
ENDBRANCH   7   8
BRANCH   7  18
ATOM     18  C   UNL A   1      32.357  23.342  25.434  1.00  0.00     0.038 A 
ATOM     19  C   UNL A   1      32.559  24.566  26.056  1.00  0.00     0.033 A 
ATOM     20  S   UNL A   1      31.077  23.491  24.265  1.00  0.00    -0.145 S 
ATOM     21  C   UNL A   1      31.551  25.509  25.734  1.00  0.00     0.029 A 
ATOM     22  C   UNL A   1      30.648  25.047  24.814  1.00  0.00     0.080 A 
ATOM     23  Br  UNL A   1      31.479  27.210  26.544  1.00  0.00    -0.050 Br
ENDBRANCH   7  18
ENDBRANCH   4   7
ENDBRANCH   2   3
ENDBRANCH   1   2
BRANCH   1  24
ATOM     24  C   UNL A   1      37.930  20.334  24.703  1.00  0.00     0.023 C 
BRANCH  24  25
ATOM     25  C   UNL A   1      38.986  20.447  25.799  1.00  0.00     0.116 C 
BRANCH  25  26
ATOM     26  N   UNL A   1      39.917  19.327  25.829  1.00  0.00    -0.352 N 
ATOM     27  C   UNL A   1      41.263  19.297  26.116  1.00  0.00     0.251 C 
ATOM     28  H   UNL A   1      39.521  18.453  25.611  1.00  0.00     0.163 HD
ATOM     29  O   UNL A   1      41.895  18.256  25.992  1.00  0.00    -0.269 OA
BRANCH  27  30
ATOM     30  C   UNL A   1      41.962  20.534  26.536  1.00  0.00     0.039 A 
ATOM     31  C   UNL A   1      42.522  21.360  25.557  1.00  0.00     0.014 A 
ATOM     32  C   UNL A   1      42.048  20.889  27.884  1.00  0.00     0.014 A 
ATOM     33  C   UNL A   1      43.075  22.592  25.920  1.00  0.00     0.010 A 
ATOM     34  C   UNL A   1      42.528  22.149  28.235  1.00  0.00     0.010 A 
ATOM     35  C   UNL A   1      43.031  23.020  27.257  1.00  0.00    -0.014 A 
BRANCH  35  36
ATOM     36  C   UNL A   1      43.478  24.380  27.659  1.00  0.00     0.031 A 
ATOM     37  C   UNL A   1      42.468  25.422  28.050  1.00  0.00     0.074 A 
ATOM     38  C   UNL A   1      44.782  24.710  27.572  1.00  0.00     0.049 A 
ATOM     39  N   UNL A   1      42.642  26.697  28.288  1.00  0.00    -0.248 NA
ATOM     40  C   UNL A   1      41.070  24.976  28.159  1.00  0.00     0.031 C 
ATOM     41  C   UNL A   1      45.861  23.807  27.164  1.00  0.00     0.029 A 
ATOM     42  N   UNL A   1      45.421  25.904  27.801  1.00  0.00    -0.354 N 
ATOM     43  C   UNL A   1      41.377  27.210  28.545  1.00  0.00     0.074 A 
ATOM     44  C   UNL A   1      40.441  26.117  28.396  1.00  0.00     0.031 C 
ATOM     45  C   UNL A   1      47.026  24.474  27.183  1.00  0.00     0.029 A 
ATOM     46  C   UNL A   1      46.773  25.861  27.562  1.00  0.00     0.049 A 
ATOM     47  H   UNL A   1      44.953  26.714  28.106  1.00  0.00     0.167 HD
ATOM     48  C   UNL A   1      41.029  28.471  28.893  1.00  0.00     0.037 A 
ATOM     49  C   UNL A   1      47.705  26.833  27.625  1.00  0.00     0.037 A 
ATOM     50  C   UNL A   1      41.964  29.550  29.075  1.00  0.00     0.049 A 
ATOM     51  C   UNL A   1      47.294  28.224  28.018  1.00  0.00     0.074 A 
ATOM     52  C   UNL A   1      41.714  30.848  29.486  1.00  0.00     0.029 A 
ATOM     53  N   UNL A   1      43.331  29.454  28.862  1.00  0.00    -0.354 N 
ATOM     54  N   UNL A   1      46.101  28.682  28.312  1.00  0.00    -0.248 NA
ATOM     55  C   UNL A   1      48.359  29.235  28.091  1.00  0.00     0.031 C 
ATOM     56  C   UNL A   1      42.925  31.548  29.488  1.00  0.00     0.029 A 
ATOM     57  C   UNL A   1      43.935  30.674  29.120  1.00  0.00     0.049 A 
ATOM     58  H   UNL A   1      43.802  28.640  28.572  1.00  0.00     0.167 HD
ATOM     59  C   UNL A   1      46.276  30.021  28.635  1.00  0.00     0.074 A 
ATOM     60  C   UNL A   1      47.691  30.302  28.507  1.00  0.00     0.031 C 
ATOM     61  C   UNL A   1      45.348  30.933  29.009  1.00  0.00     0.037 A 
BRANCH  48  62
ATOM     62  C   UNL A   1      39.571  28.753  29.103  1.00  0.00     0.057 A 
ATOM     63  C   UNL A   1      38.963  28.594  30.355  1.00  0.00     0.134 A 
ATOM     64  C   UNL A   1      38.773  29.219  28.051  1.00  0.00     0.134 A 
ATOM     65  F   UNL A   1      39.669  28.140  31.402  1.00  0.00    -0.206 F 
ATOM     66  C   UNL A   1      37.606  28.862  30.547  1.00  0.00     0.040 A 
ATOM     67  C   UNL A   1      37.421  29.515  28.237  1.00  0.00     0.040 A 
ATOM     68  F   UNL A   1      39.295  29.401  26.828  1.00  0.00    -0.206 F 
ATOM     69  C   UNL A   1      36.833  29.330  29.486  1.00  0.00     0.006 A 
ENDBRANCH  48  62
BRANCH  49  70
ATOM     70  C   UNL A   1      49.126  26.520  27.330  1.00  0.00     0.057 A 
ATOM     71  C   UNL A   1      49.979  26.041  28.331  1.00  0.00     0.134 A 
ATOM     72  C   UNL A   1      49.667  26.697  26.051  1.00  0.00     0.134 A 
ATOM     73  F   UNL A   1      49.523  25.870  29.581  1.00  0.00    -0.206 F 
ATOM     74  C   UNL A   1      51.323  25.767  28.077  1.00  0.00     0.040 A 
ATOM     75  C   UNL A   1      51.003  26.404  25.777  1.00  0.00     0.040 A 
ATOM     76  F   UNL A   1      48.898  27.147  25.048  1.00  0.00    -0.206 F 
ATOM     77  C   UNL A   1      51.838  25.943  26.794  1.00  0.00     0.006 A 
ENDBRANCH  49  70
BRANCH  61  78
ATOM     78  C   UNL A   1      45.832  32.309  29.356  1.00  0.00     0.057 A 
ATOM     79  C   UNL A   1      45.904  33.331  28.403  1.00  0.00     0.134 A 
ATOM     80  C   UNL A   1      46.175  32.626  30.677  1.00  0.00     0.134 A 
ATOM     81  F   UNL A   1      45.601  33.087  27.120  1.00  0.00    -0.206 F 
ATOM     82  C   UNL A   1      46.315  34.620  28.748  1.00  0.00     0.040 A 
ATOM     83  C   UNL A   1      46.565  33.916  31.038  1.00  0.00     0.040 A 
ATOM     84  F   UNL A   1      46.121  31.692  31.639  1.00  0.00    -0.206 F 
ATOM     85  C   UNL A   1      46.639  34.917  30.072  1.00  0.00     0.006 A 
ENDBRANCH  61  78
ENDBRANCH  35  36
ENDBRANCH  27  30
ENDBRANCH  25  26
ENDBRANCH  24  25
ENDBRANCH   1  24
TORSDOF 14
ENDMDL
