MODEL 1
REMARK VINA RESULT:     -12.4      0.000      0.000
REMARK SMILES Cc1cc(C(=O)NCCCCNC(=O)c2ccc(-c3c4nc(c(-c5c(F)cccc5F)c5ccc([nH]5)c(-c5c(F)cccc5F)c5nc(c(-c6c(F)cccc6F)c6ccc3[nH]6)C=C5)C=C4)cc2)ccc1N[C@H](C)c1cc(F)cc(F)c1
REMARK SMILES IDX 9 1 8 2 7 3 5 4 6 5 4 7 1 8 2 9 3 10 71 11 70 12 69 13 72 14
REMARK SMILES IDX 73 16 74 17 75 18 76 19 82 20 77 21 80 22 78 23 79 24 81 25
REMARK SMILES IDX 10 26 11 27 12 28 13 29 14 31 15 32 16 33 68 34 17 35 67 36
REMARK SMILES IDX 18 37 19 38 20 39 61 40 21 41 66 42 60 43 62 44 22 45 65 46
REMARK SMILES IDX 59 47 58 48 23 50 49 51 32 52 48 53 33 54 36 55 47 56 63 57
REMARK SMILES IDX 34 58 35 59 46 61 64 62 37 63 24 64 25 65 30 66 26 67 27 68
REMARK SMILES IDX 29 69 31 70 28 71 50 72 51 73 56 74 52 75 53 76 55 77 57 78
REMARK SMILES IDX 54 79 38 80 39 81 44 82 40 83 41 84 43 85 45 86 42 87
REMARK H PARENT 7 6 72 15 12 30 62 49 36 60
REMARK Flexibility Score: inf
ROOT
ATOM      1  C   UNL A   1      34.293  29.120  27.166  1.00  0.00     0.023 C 
ENDROOT
BRANCH   1   2
ATOM      2  C   UNL A   1      32.926  28.431  26.996  1.00  0.00     0.116 C 
BRANCH   2   3
ATOM      3  N   UNL A   1      32.077  29.101  26.018  1.00  0.00    -0.352 N 
ATOM      4  C   UNL A   1      31.383  28.692  24.900  1.00  0.00     0.251 C 
ATOM      5  O   UNL A   1      30.728  29.556  24.313  1.00  0.00    -0.269 OA
ATOM      6  H   UNL A   1      31.978  30.063  26.196  1.00  0.00     0.163 HD
BRANCH   4   7
ATOM      7  C   UNL A   1      31.362  27.297  24.367  1.00  0.00     0.040 A 
ATOM      8  C   UNL A   1      32.551  25.581  21.165  1.00  0.00     0.046 C 
ATOM      9  C   UNL A   1      31.939  25.718  22.535  1.00  0.00    -0.027 A 
ATOM     10  C   UNL A   1      31.926  27.026  23.106  1.00  0.00     0.019 A 
ATOM     11  C   UNL A   1      31.334  24.649  23.222  1.00  0.00     0.037 A 
ATOM     12  C   UNL A   1      30.730  24.977  24.431  1.00  0.00     0.027 A 
ATOM     13  C   UNL A   1      30.784  26.233  25.021  1.00  0.00     0.016 A 
BRANCH  11  14
ATOM     14  N   UNL A   1      31.329  23.336  22.762  1.00  0.00    -0.378 N 
ATOM     15  H   UNL A   1      30.466  22.952  22.487  1.00  0.00     0.161 HD
BRANCH  14  16
ATOM     16  C   UNL A   1      32.529  22.474  22.656  1.00  0.00     0.106 C 
ATOM     17  C   UNL A   1      32.087  21.045  22.315  1.00  0.00     0.036 C 
BRANCH  16  18
ATOM     18  C   UNL A   1      33.402  22.474  23.907  1.00  0.00    -0.020 A 
ATOM     19  C   UNL A   1      34.665  23.104  23.876  1.00  0.00     0.045 A 
ATOM     20  C   UNL A   1      32.927  22.006  25.144  1.00  0.00     0.045 A 
ATOM     21  C   UNL A   1      35.358  23.353  25.062  1.00  0.00     0.126 A 
ATOM     22  C   UNL A   1      33.662  22.231  26.309  1.00  0.00     0.126 A 
ATOM     23  F   UNL A   1      36.480  24.084  25.025  1.00  0.00    -0.207 F 
ATOM     24  C   UNL A   1      34.862  22.928  26.284  1.00  0.00     0.078 A 
ATOM     25  F   UNL A   1      33.171  21.811  27.483  1.00  0.00    -0.207 F 
ENDBRANCH  16  18
ENDBRANCH  14  16
ENDBRANCH  11  14
ENDBRANCH   4   7
ENDBRANCH   2   3
ENDBRANCH   1   2
BRANCH   1  26
ATOM     26  C   UNL A   1      34.197  30.648  27.269  1.00  0.00     0.023 C 
BRANCH  26  27
ATOM     27  C   UNL A   1      34.545  31.170  28.661  1.00  0.00     0.116 C 
BRANCH  27  28
ATOM     28  N   UNL A   1      35.737  32.007  28.733  1.00  0.00    -0.352 N 
ATOM     29  C   UNL A   1      37.071  31.644  28.885  1.00  0.00     0.251 C 
ATOM     30  H   UNL A   1      35.574  32.975  28.661  1.00  0.00     0.163 HD
ATOM     31  O   UNL A   1      37.921  32.506  29.014  1.00  0.00    -0.269 OA
BRANCH  29  32
ATOM     32  C   UNL A   1      37.477  30.219  28.727  1.00  0.00     0.039 A 
ATOM     33  C   UNL A   1      37.567  29.447  29.893  1.00  0.00     0.014 A 
ATOM     34  C   UNL A   1      38.012  29.739  27.538  1.00  0.00     0.014 A 
ATOM     35  C   UNL A   1      38.456  28.377  29.935  1.00  0.00     0.010 A 
ATOM     36  C   UNL A   1      38.981  28.758  27.604  1.00  0.00     0.010 A 
ATOM     37  C   UNL A   1      39.267  28.144  28.828  1.00  0.00    -0.014 A 
BRANCH  37  38
ATOM     38  C   UNL A   1      40.549  27.451  28.918  1.00  0.00     0.031 A 
ATOM     39  C   UNL A   1      40.662  26.012  28.619  1.00  0.00     0.074 A 
ATOM     40  C   UNL A   1      41.661  28.187  29.145  1.00  0.00     0.049 A 
ATOM     41  N   UNL A   1      41.648  25.264  28.983  1.00  0.00    -0.248 NA
ATOM     42  C   UNL A   1      39.620  25.279  27.915  1.00  0.00     0.031 C 
ATOM     43  C   UNL A   1      43.050  27.787  28.938  1.00  0.00     0.029 A 
ATOM     44  N   UNL A   1      41.749  29.417  29.811  1.00  0.00    -0.354 N 
ATOM     45  C   UNL A   1      41.530  24.059  28.325  1.00  0.00     0.074 A 
ATOM     46  C   UNL A   1      40.203  24.088  27.759  1.00  0.00     0.031 C 
ATOM     47  C   UNL A   1      43.843  28.579  29.676  1.00  0.00     0.029 A 
ATOM     48  C   UNL A   1      42.980  29.407  30.499  1.00  0.00     0.049 A 
ATOM     49  H   UNL A   1      41.084  30.143  29.799  1.00  0.00     0.167 HD
ATOM     50  C   UNL A   1      42.630  23.254  28.219  1.00  0.00     0.037 A 
ATOM     51  C   UNL A   1      43.025  29.459  31.863  1.00  0.00     0.037 A 
ATOM     52  C   UNL A   1      43.738  23.778  29.026  1.00  0.00     0.049 A 
ATOM     53  C   UNL A   1      43.668  28.249  32.504  1.00  0.00     0.074 A 
ATOM     54  C   UNL A   1      44.874  24.503  28.705  1.00  0.00     0.029 A 
ATOM     55  N   UNL A   1      43.614  23.839  30.412  1.00  0.00    -0.354 N 
ATOM     56  N   UNL A   1      43.862  27.118  31.886  1.00  0.00    -0.248 NA
ATOM     57  C   UNL A   1      44.108  28.204  33.897  1.00  0.00     0.031 C 
ATOM     58  C   UNL A   1      45.394  25.062  29.900  1.00  0.00     0.029 A 
ATOM     59  C   UNL A   1      44.589  24.658  30.950  1.00  0.00     0.049 A 
ATOM     60  H   UNL A   1      42.929  23.364  30.935  1.00  0.00     0.167 HD
ATOM     61  C   UNL A   1      44.396  26.204  32.756  1.00  0.00     0.074 A 
ATOM     62  C   UNL A   1      44.556  26.939  33.996  1.00  0.00     0.031 C 
ATOM     63  C   UNL A   1      44.641  24.914  32.383  1.00  0.00     0.037 A 
BRANCH  50  64
ATOM     64  C   UNL A   1      42.818  22.185  27.149  1.00  0.00     0.057 A 
ATOM     65  C   UNL A   1      42.059  20.995  27.183  1.00  0.00     0.134 A 
ATOM     66  C   UNL A   1      43.773  22.208  26.119  1.00  0.00     0.134 A 
ATOM     67  F   UNL A   1      41.015  20.844  28.008  1.00  0.00    -0.206 F 
ATOM     68  C   UNL A   1      42.326  19.885  26.365  1.00  0.00     0.040 A 
ATOM     69  C   UNL A   1      44.080  21.095  25.320  1.00  0.00     0.040 A 
ATOM     70  F   UNL A   1      44.419  23.323  25.774  1.00  0.00    -0.206 F 
ATOM     71  C   UNL A   1      43.368  19.917  25.456  1.00  0.00     0.006 A 
ENDBRANCH  50  64
BRANCH  51  72
ATOM     72  C   UNL A   1      41.921  30.256  32.458  1.00  0.00     0.057 A 
ATOM     73  C   UNL A   1      40.788  29.577  32.941  1.00  0.00     0.134 A 
ATOM     74  C   UNL A   1      42.115  31.568  32.899  1.00  0.00     0.134 A 
ATOM     75  F   UNL A   1      40.546  28.313  32.558  1.00  0.00    -0.206 F 
ATOM     76  C   UNL A   1      39.948  30.137  33.907  1.00  0.00     0.040 A 
ATOM     77  C   UNL A   1      41.272  32.143  33.859  1.00  0.00     0.040 A 
ATOM     78  F   UNL A   1      43.186  32.271  32.505  1.00  0.00    -0.206 F 
ATOM     79  C   UNL A   1      40.210  31.414  34.394  1.00  0.00     0.006 A 
ENDBRANCH  51  72
BRANCH  63  80
ATOM     80  C   UNL A   1      45.024  23.788  33.309  1.00  0.00     0.057 A 
ATOM     81  C   UNL A   1      46.298  23.635  33.876  1.00  0.00     0.134 A 
ATOM     82  C   UNL A   1      44.042  22.893  33.786  1.00  0.00     0.134 A 
ATOM     83  F   UNL A   1      47.298  24.478  33.589  1.00  0.00    -0.206 F 
ATOM     84  C   UNL A   1      46.586  22.633  34.813  1.00  0.00     0.040 A 
ATOM     85  C   UNL A   1      44.305  21.924  34.758  1.00  0.00     0.040 A 
ATOM     86  F   UNL A   1      42.776  22.938  33.343  1.00  0.00    -0.206 F 
ATOM     87  C   UNL A   1      45.586  21.782  35.268  1.00  0.00     0.006 A 
ENDBRANCH  63  80
ENDBRANCH  37  38
ENDBRANCH  29  32
ENDBRANCH  27  28
ENDBRANCH  26  27
ENDBRANCH   1  26
TORSDOF 14
ENDMDL
MODEL 2
REMARK VINA RESULT:     -12.3      1.607      2.495
REMARK SMILES Cc1cc(C(=O)NCCCCNC(=O)c2ccc(-c3c4nc(c(-c5c(F)cccc5F)c5ccc([nH]5)c(-c5c(F)cccc5F)c5nc(c(-c6c(F)cccc6F)c6ccc3[nH]6)C=C5)C=C4)cc2)ccc1N[C@H](C)c1cc(F)cc(F)c1
REMARK SMILES IDX 9 1 8 2 7 3 5 4 6 5 4 7 1 8 2 9 3 10 71 11 70 12 69 13 72 14
REMARK SMILES IDX 73 16 74 17 75 18 76 19 82 20 77 21 80 22 78 23 79 24 81 25
REMARK SMILES IDX 10 26 11 27 12 28 13 29 14 31 15 32 16 33 68 34 17 35 67 36
REMARK SMILES IDX 18 37 19 38 20 39 61 40 21 41 66 42 60 43 62 44 22 45 65 46
REMARK SMILES IDX 59 47 58 48 23 50 49 51 32 52 48 53 33 54 36 55 47 56 63 57
REMARK SMILES IDX 34 58 35 59 46 61 64 62 37 63 24 64 25 65 30 66 26 67 27 68
REMARK SMILES IDX 29 69 31 70 28 71 50 72 51 73 56 74 52 75 53 76 55 77 57 78
REMARK SMILES IDX 54 79 38 80 39 81 44 82 40 83 41 84 43 85 45 86 42 87
REMARK H PARENT 7 6 72 15 12 30 62 49 36 60
REMARK Flexibility Score: inf
ROOT
ATOM      1  C   UNL A   1      33.584  29.721  27.000  1.00  0.00     0.023 C 
ENDROOT
BRANCH   1   2
ATOM      2  C   UNL A   1      32.331  28.837  27.141  1.00  0.00     0.116 C 
BRANCH   2   3
ATOM      3  N   UNL A   1      31.534  28.793  25.921  1.00  0.00    -0.352 N 
ATOM      4  C   UNL A   1      31.179  27.801  25.034  1.00  0.00     0.251 C 
ATOM      5  O   UNL A   1      30.446  28.135  24.100  1.00  0.00    -0.269 OA
ATOM      6  H   UNL A   1      31.166  29.671  25.676  1.00  0.00     0.163 HD
BRANCH   4   7
ATOM      7  C   UNL A   1      31.606  26.372  25.129  1.00  0.00     0.040 A 
ATOM      8  C   UNL A   1      30.242  23.223  26.812  1.00  0.00     0.046 C 
ATOM      9  C   UNL A   1      31.166  24.081  25.986  1.00  0.00    -0.027 A 
ATOM     10  C   UNL A   1      30.817  25.457  25.852  1.00  0.00     0.019 A 
ATOM     11  C   UNL A   1      32.362  23.603  25.417  1.00  0.00     0.037 A 
ATOM     12  C   UNL A   1      33.143  24.556  24.771  1.00  0.00     0.027 A 
ATOM     13  C   UNL A   1      32.766  25.879  24.577  1.00  0.00     0.016 A 
BRANCH  11  14
ATOM     14  N   UNL A   1      32.766  22.273  25.464  1.00  0.00    -0.378 N 
ATOM     15  H   UNL A   1      32.324  21.640  24.853  1.00  0.00     0.161 HD
BRANCH  14  16
ATOM     16  C   UNL A   1      33.812  21.740  26.367  1.00  0.00     0.106 C 
ATOM     17  C   UNL A   1      33.748  22.492  27.703  1.00  0.00     0.036 C 
BRANCH  16  18
ATOM     18  C   UNL A   1      35.221  21.809  25.788  1.00  0.00    -0.020 A 
ATOM     19  C   UNL A   1      35.977  22.993  25.935  1.00  0.00     0.045 A 
ATOM     20  C   UNL A   1      35.860  20.679  25.250  1.00  0.00     0.045 A 
ATOM     21  C   UNL A   1      37.345  22.993  25.660  1.00  0.00     0.126 A 
ATOM     22  C   UNL A   1      37.221  20.722  24.944  1.00  0.00     0.126 A 
ATOM     23  F   UNL A   1      38.072  24.081  25.949  1.00  0.00    -0.207 F 
ATOM     24  C   UNL A   1      37.979  21.862  25.171  1.00  0.00     0.078 A 
ATOM     25  F   UNL A   1      37.819  19.621  24.467  1.00  0.00    -0.207 F 
ENDBRANCH  16  18
ENDBRANCH  14  16
ENDBRANCH  11  14
ENDBRANCH   4   7
ENDBRANCH   2   3
ENDBRANCH   1   2
BRANCH   1  26
ATOM     26  C   UNL A   1      33.425  31.109  27.635  1.00  0.00     0.023 C 
BRANCH  26  27
ATOM     27  C   UNL A   1      34.727  31.907  27.648  1.00  0.00     0.116 C 
BRANCH  27  28
ATOM     28  N   UNL A   1      35.212  32.287  28.970  1.00  0.00    -0.352 N 
ATOM     29  C   UNL A   1      36.004  31.576  29.865  1.00  0.00     0.251 C 
ATOM     30  H   UNL A   1      34.939  33.182  29.274  1.00  0.00     0.163 HD
ATOM     31  O   UNL A   1      36.230  32.035  30.970  1.00  0.00    -0.269 OA
BRANCH  29  32
ATOM     32  C   UNL A   1      36.707  30.340  29.418  1.00  0.00     0.039 A 
ATOM     33  C   UNL A   1      36.816  29.296  30.347  1.00  0.00     0.014 A 
ATOM     34  C   UNL A   1      37.462  30.309  28.252  1.00  0.00     0.014 A 
ATOM     35  C   UNL A   1      37.892  28.418  30.261  1.00  0.00     0.010 A 
ATOM     36  C   UNL A   1      38.595  29.521  28.226  1.00  0.00     0.010 A 
ATOM     37  C   UNL A   1      38.856  28.641  29.282  1.00  0.00    -0.014 A 
BRANCH  37  38
ATOM     38  C   UNL A   1      40.232  28.172  29.404  1.00  0.00     0.031 A 
ATOM     39  C   UNL A   1      40.647  26.870  28.850  1.00  0.00     0.074 A 
ATOM     40  C   UNL A   1      41.157  29.018  29.914  1.00  0.00     0.049 A 
ATOM     41  N   UNL A   1      41.719  26.237  29.190  1.00  0.00    -0.248 NA
ATOM     42  C   UNL A   1      39.835  26.140  27.887  1.00  0.00     0.031 C 
ATOM     43  C   UNL A   1      42.610  28.910  29.818  1.00  0.00     0.029 A 
ATOM     44  N   UNL A   1      40.944  30.074  30.810  1.00  0.00    -0.354 N 
ATOM     45  C   UNL A   1      41.897  25.199  28.301  1.00  0.00     0.074 A 
ATOM     46  C   UNL A   1      40.648  25.125  27.582  1.00  0.00     0.031 C 
ATOM     47  C   UNL A   1      43.164  29.648  30.793  1.00  0.00     0.029 A 
ATOM     48  C   UNL A   1      42.084  30.123  31.640  1.00  0.00     0.049 A 
ATOM     49  H   UNL A   1      40.157  30.663  30.852  1.00  0.00     0.167 HD
ATOM     50  C   UNL A   1      43.135  24.631  28.188  1.00  0.00     0.037 A 
ATOM     51  C   UNL A   1      41.990  29.889  32.982  1.00  0.00     0.037 A 
ATOM     52  C   UNL A   1      44.041  25.150  29.220  1.00  0.00     0.049 A 
ATOM     53  C   UNL A   1      42.789  28.695  33.456  1.00  0.00     0.074 A 
ATOM     54  C   UNL A   1      45.043  26.107  29.197  1.00  0.00     0.029 A 
ATOM     55  N   UNL A   1      43.778  24.891  30.562  1.00  0.00    -0.354 N 
ATOM     56  N   UNL A   1      43.254  27.772  32.662  1.00  0.00    -0.248 NA
ATOM     57  C   UNL A   1      43.097  28.428  34.859  1.00  0.00     0.031 C 
ATOM     58  C   UNL A   1      45.331  26.476  30.535  1.00  0.00     0.029 A 
ATOM     59  C   UNL A   1      44.523  25.728  31.373  1.00  0.00     0.049 A 
ATOM     60  H   UNL A   1      43.151  24.207  30.889  1.00  0.00     0.167 HD
ATOM     61  C   UNL A   1      43.868  26.797  33.401  1.00  0.00     0.074 A 
ATOM     62  C   UNL A   1      43.767  27.265  34.770  1.00  0.00     0.031 C 
ATOM     63  C   UNL A   1      44.390  25.676  32.821  1.00  0.00     0.037 A 
BRANCH  50  64
ATOM     64  C   UNL A   1      43.624  23.863  26.966  1.00  0.00     0.057 A 
ATOM     65  C   UNL A   1      44.286  24.534  25.914  1.00  0.00     0.134 A 
ATOM     66  C   UNL A   1      43.408  22.499  26.708  1.00  0.00     0.134 A 
ATOM     67  F   UNL A   1      44.696  25.803  26.031  1.00  0.00    -0.206 F 
ATOM     68  C   UNL A   1      44.570  23.937  24.675  1.00  0.00     0.040 A 
ATOM     69  C   UNL A   1      43.648  21.897  25.463  1.00  0.00     0.040 A 
ATOM     70  F   UNL A   1      43.017  21.649  27.660  1.00  0.00    -0.206 F 
ATOM     71  C   UNL A   1      44.213  22.623  24.430  1.00  0.00     0.006 A 
ENDBRANCH  50  64
BRANCH  51  72
ATOM     72  C   UNL A   1      40.703  30.343  33.569  1.00  0.00     0.057 A 
ATOM     73  C   UNL A   1      40.555  31.704  33.891  1.00  0.00     0.134 A 
ATOM     74  C   UNL A   1      39.535  29.583  33.460  1.00  0.00     0.134 A 
ATOM     75  F   UNL A   1      41.637  32.490  34.008  1.00  0.00    -0.206 F 
ATOM     76  C   UNL A   1      39.299  32.307  33.989  1.00  0.00     0.040 A 
ATOM     77  C   UNL A   1      38.270  30.175  33.567  1.00  0.00     0.040 A 
ATOM     78  F   UNL A   1      39.593  28.285  33.129  1.00  0.00    -0.206 F 
ATOM     79  C   UNL A   1      38.150  31.547  33.792  1.00  0.00     0.006 A 
ENDBRANCH  51  72
BRANCH  63  80
ATOM     80  C   UNL A   1      44.892  24.459  33.555  1.00  0.00     0.057 A 
ATOM     81  C   UNL A   1      46.249  24.173  33.767  1.00  0.00     0.134 A 
ATOM     82  C   UNL A   1      43.986  23.602  34.217  1.00  0.00     0.134 A 
ATOM     83  F   UNL A   1      47.216  24.962  33.282  1.00  0.00    -0.206 F 
ATOM     84  C   UNL A   1      46.674  23.085  34.543  1.00  0.00     0.040 A 
ATOM     85  C   UNL A   1      44.398  22.546  35.034  1.00  0.00     0.040 A 
ATOM     86  F   UNL A   1      42.659  23.769  34.116  1.00  0.00    -0.206 F 
ATOM     87  C   UNL A   1      45.749  22.275  35.190  1.00  0.00     0.006 A 
ENDBRANCH  63  80
ENDBRANCH  37  38
ENDBRANCH  29  32
ENDBRANCH  27  28
ENDBRANCH  26  27
ENDBRANCH   1  26
TORSDOF 14
ENDMDL
MODEL 3
REMARK VINA RESULT:     -12.2      2.234      3.838
REMARK SMILES Cc1cc(C(=O)NCCCCNC(=O)c2ccc(-c3c4nc(c(-c5c(F)cccc5F)c5ccc([nH]5)c(-c5c(F)cccc5F)c5nc(c(-c6c(F)cccc6F)c6ccc3[nH]6)C=C5)C=C4)cc2)ccc1N[C@H](C)c1cc(F)cc(F)c1
REMARK SMILES IDX 9 1 8 2 7 3 5 4 6 5 4 7 1 8 2 9 3 10 71 11 70 12 69 13 72 14
REMARK SMILES IDX 73 16 74 17 75 18 76 19 82 20 77 21 80 22 78 23 79 24 81 25
REMARK SMILES IDX 10 26 11 27 12 28 13 29 14 31 15 32 16 33 68 34 17 35 67 36
REMARK SMILES IDX 18 37 19 38 20 39 61 40 21 41 66 42 60 43 62 44 22 45 65 46
REMARK SMILES IDX 59 47 58 48 23 50 49 51 32 52 48 53 33 54 36 55 47 56 63 57
REMARK SMILES IDX 34 58 35 59 46 61 64 62 37 63 24 64 25 65 30 66 26 67 27 68
REMARK SMILES IDX 29 69 31 70 28 71 50 72 51 73 56 74 52 75 53 76 55 77 57 78
REMARK SMILES IDX 54 79 38 80 39 81 44 82 40 83 41 84 43 85 45 86 42 87
REMARK H PARENT 7 6 72 15 12 30 62 49 36 60
REMARK Flexibility Score: inf
ROOT
ATOM      1  C   UNL A   1      33.026  29.416  26.874  1.00  0.00     0.023 C 
ENDROOT
BRANCH   1   2
ATOM      2  C   UNL A   1      33.128  29.542  25.342  1.00  0.00     0.116 C 
BRANCH   2   3
ATOM      3  N   UNL A   1      31.852  29.870  24.718  1.00  0.00    -0.352 N 
ATOM      4  C   UNL A   1      30.898  29.150  24.033  1.00  0.00     0.251 C 
ATOM      5  O   UNL A   1      29.900  29.773  23.663  1.00  0.00    -0.269 OA
ATOM      6  H   UNL A   1      31.619  30.822  24.807  1.00  0.00     0.163 HD
BRANCH   4   7
ATOM      7  C   UNL A   1      30.985  27.692  23.721  1.00  0.00     0.040 A 
ATOM      8  C   UNL A   1      32.529  25.585  20.931  1.00  0.00     0.046 C 
ATOM      9  C   UNL A   1      31.791  25.891  22.209  1.00  0.00    -0.027 A 
ATOM     10  C   UNL A   1      31.671  27.267  22.568  1.00  0.00     0.019 A 
ATOM     11  C   UNL A   1      31.172  24.905  23.000  1.00  0.00     0.037 A 
ATOM     12  C   UNL A   1      30.449  25.376  24.091  1.00  0.00     0.027 A 
ATOM     13  C   UNL A   1      30.396  26.708  24.481  1.00  0.00     0.016 A 
BRANCH  11  14
ATOM     14  N   UNL A   1      31.265  23.540  22.750  1.00  0.00    -0.378 N 
ATOM     15  H   UNL A   1      30.439  23.064  22.504  1.00  0.00     0.161 HD
BRANCH  14  16
ATOM     16  C   UNL A   1      32.516  22.751  22.825  1.00  0.00     0.106 C 
ATOM     17  C   UNL A   1      32.164  21.257  22.826  1.00  0.00     0.036 C 
BRANCH  16  18
ATOM     18  C   UNL A   1      33.389  23.089  24.029  1.00  0.00    -0.020 A 
ATOM     19  C   UNL A   1      32.927  22.791  25.330  1.00  0.00     0.045 A 
ATOM     20  C   UNL A   1      34.710  23.543  23.885  1.00  0.00     0.045 A 
ATOM     21  C   UNL A   1      33.801  22.838  26.416  1.00  0.00     0.126 A 
ATOM     22  C   UNL A   1      35.551  23.621  24.997  1.00  0.00     0.126 A 
ATOM     23  F   UNL A   1      33.383  22.407  27.614  1.00  0.00    -0.207 F 
ATOM     24  C   UNL A   1      35.117  23.244  26.260  1.00  0.00     0.078 A 
ATOM     25  F   UNL A   1      36.820  24.021  24.831  1.00  0.00    -0.207 F 
ENDBRANCH  16  18
ENDBRANCH  14  16
ENDBRANCH  11  14
ENDBRANCH   4   7
ENDBRANCH   2   3
ENDBRANCH   1   2
BRANCH   1  26
ATOM     26  C   UNL A   1      34.390  29.367  27.574  1.00  0.00     0.023 C 
BRANCH  26  27
ATOM     27  C   UNL A   1      35.079  30.729  27.625  1.00  0.00     0.116 C 
BRANCH  27  28
ATOM     28  N   UNL A   1      34.199  31.863  27.878  1.00  0.00    -0.352 N 
ATOM     29  C   UNL A   1      34.253  32.825  28.881  1.00  0.00     0.251 C 
ATOM     30  H   UNL A   1      33.456  31.966  27.241  1.00  0.00     0.163 HD
ATOM     31  O   UNL A   1      33.364  33.651  28.977  1.00  0.00    -0.269 OA
BRANCH  29  32
ATOM     32  C   UNL A   1      35.472  32.946  29.731  1.00  0.00     0.039 A 
ATOM     33  C   UNL A   1      36.553  33.662  29.200  1.00  0.00     0.014 A 
ATOM     34  C   UNL A   1      35.652  32.166  30.868  1.00  0.00     0.014 A 
ATOM     35  C   UNL A   1      37.846  33.343  29.603  1.00  0.00     0.010 A 
ATOM     36  C   UNL A   1      36.931  31.760  31.187  1.00  0.00     0.010 A 
ATOM     37  C   UNL A   1      38.023  32.282  30.486  1.00  0.00    -0.014 A 
BRANCH  37  38
ATOM     38  C   UNL A   1      39.266  31.521  30.570  1.00  0.00     0.031 A 
ATOM     39  C   UNL A   1      39.426  30.238  29.861  1.00  0.00     0.074 A 
ATOM     40  C   UNL A   1      40.323  32.084  31.200  1.00  0.00     0.049 A 
ATOM     41  N   UNL A   1      40.329  29.357  30.135  1.00  0.00    -0.248 NA
ATOM     42  C   UNL A   1      38.524  29.819  28.799  1.00  0.00     0.031 C 
ATOM     43  C   UNL A   1      41.725  31.686  31.117  1.00  0.00     0.029 A 
ATOM     44  N   UNL A   1      40.294  33.044  32.221  1.00  0.00    -0.354 N 
ATOM     45  C   UNL A   1      40.326  28.421  29.124  1.00  0.00     0.074 A 
ATOM     46  C   UNL A   1      39.122  28.701  28.380  1.00  0.00     0.031 C 
ATOM     47  C   UNL A   1      42.376  32.165  32.188  1.00  0.00     0.029 A 
ATOM     48  C   UNL A   1      41.382  32.751  33.070  1.00  0.00     0.049 A 
ATOM     49  H   UNL A   1      39.644  33.777  32.325  1.00  0.00     0.167 HD
ATOM     50  C   UNL A   1      41.424  27.624  28.960  1.00  0.00     0.037 A 
ATOM     51  C   UNL A   1      41.183  32.380  34.369  1.00  0.00     0.037 A 
ATOM     52  C   UNL A   1      42.372  27.809  30.065  1.00  0.00     0.049 A 
ATOM     53  C   UNL A   1      41.696  30.996  34.699  1.00  0.00     0.074 A 
ATOM     54  C   UNL A   1      43.550  28.529  30.183  1.00  0.00     0.029 A 
ATOM     55  N   UNL A   1      42.002  27.450  31.359  1.00  0.00    -0.354 N 
ATOM     56  N   UNL A   1      41.994  30.100  33.801  1.00  0.00    -0.248 NA
ATOM     57  C   UNL A   1      41.880  30.501  36.062  1.00  0.00     0.031 C 
ATOM     58  C   UNL A   1      43.849  28.664  31.562  1.00  0.00     0.029 A 
ATOM     59  C   UNL A   1      42.867  28.006  32.283  1.00  0.00     0.049 A 
ATOM     60  H   UNL A   1      41.233  26.880  31.584  1.00  0.00     0.167 HD
ATOM     61  C   UNL A   1      42.360  28.934  34.420  1.00  0.00     0.074 A 
ATOM     62  C   UNL A   1      42.298  29.242  35.836  1.00  0.00     0.031 C 
ATOM     63  C   UNL A   1      42.664  27.807  33.710  1.00  0.00     0.037 A 
BRANCH  50  64
ATOM     64  C   UNL A   1      41.797  26.924  27.658  1.00  0.00     0.057 A 
ATOM     65  C   UNL A   1      41.878  25.517  27.597  1.00  0.00     0.134 A 
ATOM     66  C   UNL A   1      42.172  27.557  26.460  1.00  0.00     0.134 A 
ATOM     67  F   UNL A   1      41.436  24.738  28.593  1.00  0.00    -0.206 F 
ATOM     68  C   UNL A   1      42.418  24.820  26.504  1.00  0.00     0.040 A 
ATOM     69  C   UNL A   1      42.751  26.880  25.375  1.00  0.00     0.040 A 
ATOM     70  F   UNL A   1      41.941  28.852  26.238  1.00  0.00    -0.206 F 
ATOM     71  C   UNL A   1      42.896  25.506  25.401  1.00  0.00     0.006 A 
ENDBRANCH  50  64
BRANCH  51  72
ATOM     72  C   UNL A   1      39.993  33.020  34.987  1.00  0.00     0.057 A 
ATOM     73  C   UNL A   1      38.785  32.301  35.020  1.00  0.00     0.134 A 
ATOM     74  C   UNL A   1      40.110  34.110  35.854  1.00  0.00     0.134 A 
ATOM     75  F   UNL A   1      38.609  31.242  34.213  1.00  0.00    -0.206 F 
ATOM     76  C   UNL A   1      37.783  32.582  35.952  1.00  0.00     0.040 A 
ATOM     77  C   UNL A   1      39.107  34.408  36.786  1.00  0.00     0.040 A 
ATOM     78  F   UNL A   1      41.241  34.828  35.901  1.00  0.00    -0.206 F 
ATOM     79  C   UNL A   1      37.959  33.619  36.863  1.00  0.00     0.006 A 
ENDBRANCH  51  72
BRANCH  63  80
ATOM     80  C   UNL A   1      42.871  26.432  34.290  1.00  0.00     0.057 A 
ATOM     81  C   UNL A   1      41.906  25.739  35.036  1.00  0.00     0.134 A 
ATOM     82  C   UNL A   1      44.028  25.690  33.968  1.00  0.00     0.134 A 
ATOM     83  F   UNL A   1      40.719  26.287  35.326  1.00  0.00    -0.206 F 
ATOM     84  C   UNL A   1      42.098  24.421  35.471  1.00  0.00     0.040 A 
ATOM     85  C   UNL A   1      44.208  24.358  34.351  1.00  0.00     0.040 A 
ATOM     86  F   UNL A   1      45.025  26.222  33.245  1.00  0.00    -0.206 F 
ATOM     87  C   UNL A   1      43.245  23.720  35.118  1.00  0.00     0.006 A 
ENDBRANCH  63  80
ENDBRANCH  37  38
ENDBRANCH  29  32
ENDBRANCH  27  28
ENDBRANCH  26  27
ENDBRANCH   1  26
TORSDOF 14
ENDMDL
