MODEL 1
REMARK VINA RESULT:     -13.5      0.000      0.000
REMARK SMILES Cc1ccc(-c2nc(C)cc(N3CCCC[C@H]3C(=O)NCCCCNC(=O)c3ccc(-c4c5nc(c(-c6c(F)cccc6F)c6ccc([nH]6)c(-c6c(F)cccc6F)c6nc(c(-c7c(F)cccc7F)c7ccc4[nH]7)C=C6)C=C5)cc3)n2)cc1
REMARK SMILES IDX 22 1 21 2 20 3 18 4 19 5 17 7 12 8 13 9 14 10 16 11 15 12
REMARK SMILES IDX 11 13 6 14 7 15 82 16 8 17 9 18 10 19 5 20 1 21 2 22 3 23
REMARK SMILES IDX 84 24 4 25 83 26 23 27 24 28 25 29 26 30 27 32 28 33 29 34
REMARK SMILES IDX 81 35 30 36 80 37 31 38 32 39 33 40 74 41 34 42 79 43 73 44
REMARK SMILES IDX 75 45 35 46 78 47 72 48 71 49 36 51 62 52 45 53 61 54 46 55
REMARK SMILES IDX 49 56 60 57 76 58 47 59 48 60 59 62 77 63 50 64 37 65 38 66
REMARK SMILES IDX 43 67 39 68 40 69 42 70 44 71 41 72 63 73 64 74 69 75 65 76
REMARK SMILES IDX 66 77 68 78 70 79 67 80 51 81 52 82 57 83 53 84 54 85 56 86
REMARK SMILES IDX 58 87 55 88
REMARK H PARENT 20 6 25 31 75 50 49 61
REMARK Flexibility Score: inf
ROOT
ATOM      1  C   UNL A   1      31.686  29.420  26.602  1.00  0.00     0.023 C 
ENDROOT
BRANCH   1   2
ATOM      2  C   UNL A   1      31.941  28.274  27.593  1.00  0.00     0.116 C 
BRANCH   2   3
ATOM      3  N   UNL A   1      31.331  27.027  27.180  1.00  0.00    -0.354 N 
ATOM      4  C   UNL A   1      31.765  25.911  26.545  1.00  0.00     0.242 C 
ATOM      5  O   UNL A   1      30.917  25.001  26.500  1.00  0.00    -0.273 OA
ATOM      6  H   UNL A   1      30.376  26.978  27.418  1.00  0.00     0.163 HD
BRANCH   4   7
ATOM      7  C   UNL A   1      33.158  25.670  25.882  1.00  0.00     0.173 C 
ATOM      8  N   UNL A   1      33.051  24.517  24.960  1.00  0.00    -0.344 N 
ATOM      9  C   UNL A   1      32.498  24.778  23.638  1.00  0.00     0.119 C 
ATOM     10  C   UNL A   1      33.305  25.843  22.904  1.00  0.00     0.022 C 
ATOM     11  C   UNL A   1      33.966  26.769  25.185  1.00  0.00     0.035 C 
ATOM     12  C   UNL A   1      33.515  27.088  23.759  1.00  0.00     0.004 C 
BRANCH   8  13
ATOM     13  C   UNL A   1      34.020  23.529  25.069  1.00  0.00     0.133 A 
ATOM     14  C   UNL A   1      34.616  21.316  25.150  1.00  0.00     0.161 A 
ATOM     15  N   UNL A   1      35.912  21.576  25.395  1.00  0.00    -0.233 NA
ATOM     16  N   UNL A   1      33.653  22.241  24.992  1.00  0.00    -0.211 NA
ATOM     17  C   UNL A   1      36.259  22.875  25.451  1.00  0.00     0.043 A 
ATOM     18  C   UNL A   1      37.698  23.172  25.742  1.00  0.00     0.067 C 
ATOM     19  C   UNL A   1      35.339  23.890  25.278  1.00  0.00     0.070 A 
BRANCH  14  20
ATOM     20  C   UNL A   1      34.225  19.910  25.031  1.00  0.00     0.019 A 
ATOM     21  C   UNL A   1      33.071  15.755  24.626  1.00  0.00     0.044 C 
ATOM     22  C   UNL A   1      33.460  17.197  24.767  1.00  0.00    -0.051 A 
ATOM     23  C   UNL A   1      34.776  17.593  24.505  1.00  0.00     0.004 A 
ATOM     24  C   UNL A   1      32.530  18.159  25.170  1.00  0.00     0.004 A 
ATOM     25  C   UNL A   1      35.150  18.936  24.626  1.00  0.00     0.012 A 
ATOM     26  C   UNL A   1      32.911  19.498  25.307  1.00  0.00     0.012 A 
ENDBRANCH  14  20
ENDBRANCH   8  13
ENDBRANCH   4   7
ENDBRANCH   2   3
ENDBRANCH   1   2
BRANCH   1  27
ATOM     27  C   UNL A   1      32.775  30.486  26.505  1.00  0.00     0.023 C 
BRANCH  27  28
ATOM     28  C   UNL A   1      34.047  30.149  27.265  1.00  0.00     0.116 C 
BRANCH  28  29
ATOM     29  N   UNL A   1      34.887  31.270  27.630  1.00  0.00    -0.352 N 
ATOM     30  C   UNL A   1      36.143  31.287  28.253  1.00  0.00     0.251 C 
ATOM     31  H   UNL A   1      34.520  32.155  27.407  1.00  0.00     0.163 HD
ATOM     32  O   UNL A   1      36.619  32.354  28.591  1.00  0.00    -0.269 OA
BRANCH  30  33
ATOM     33  C   UNL A   1      36.957  30.044  28.359  1.00  0.00     0.039 A 
ATOM     34  C   UNL A   1      36.939  29.335  29.573  1.00  0.00     0.014 A 
ATOM     35  C   UNL A   1      37.892  29.699  27.399  1.00  0.00     0.014 A 
ATOM     36  C   UNL A   1      38.010  28.503  29.909  1.00  0.00     0.010 A 
ATOM     37  C   UNL A   1      39.032  29.043  27.790  1.00  0.00     0.010 A 
ATOM     38  C   UNL A   1      39.108  28.472  29.061  1.00  0.00    -0.014 A 
BRANCH  38  39
ATOM     39  C   UNL A   1      40.405  27.884  29.354  1.00  0.00     0.031 A 
ATOM     40  C   UNL A   1      40.701  26.526  28.850  1.00  0.00     0.074 A 
ATOM     41  C   UNL A   1      41.392  28.695  29.794  1.00  0.00     0.049 A 
ATOM     42  N   UNL A   1      41.768  25.865  29.128  1.00  0.00    -0.248 NA
ATOM     43  C   UNL A   1      39.790  25.788  27.979  1.00  0.00     0.031 C 
ATOM     44  C   UNL A   1      42.833  28.484  29.685  1.00  0.00     0.029 A 
ATOM     45  N   UNL A   1      41.271  29.818  30.625  1.00  0.00    -0.354 N 
ATOM     46  C   UNL A   1      41.824  24.770  28.296  1.00  0.00     0.074 A 
ATOM     47  C   UNL A   1      40.548  24.747  27.625  1.00  0.00     0.031 C 
ATOM     48  C   UNL A   1      43.454  29.223  30.616  1.00  0.00     0.029 A 
ATOM     49  C   UNL A   1      42.417  29.793  31.456  1.00  0.00     0.049 A 
ATOM     50  H   UNL A   1      40.545  30.482  30.630  1.00  0.00     0.167 HD
ATOM     51  C   UNL A   1      42.999  24.084  28.204  1.00  0.00     0.037 A 
ATOM     52  C   UNL A   1      42.310  29.575  32.800  1.00  0.00     0.037 A 
ATOM     53  C   UNL A   1      43.973  24.621  29.152  1.00  0.00     0.049 A 
ATOM     54  C   UNL A   1      43.064  28.359  33.287  1.00  0.00     0.074 A 
ATOM     55  C   UNL A   1      45.018  25.523  29.026  1.00  0.00     0.029 A 
ATOM     56  N   UNL A   1      43.734  24.480  30.511  1.00  0.00    -0.354 N 
ATOM     57  N   UNL A   1      43.407  27.359  32.522  1.00  0.00    -0.248 NA
ATOM     58  C   UNL A   1      43.503  28.177  34.667  1.00  0.00     0.031 C 
ATOM     59  C   UNL A   1      45.389  25.946  30.328  1.00  0.00     0.029 A 
ATOM     60  C   UNL A   1      44.583  25.285  31.239  1.00  0.00     0.049 A 
ATOM     61  H   UNL A   1      43.053  23.886  30.901  1.00  0.00     0.167 HD
ATOM     62  C   UNL A   1      44.089  26.422  33.260  1.00  0.00     0.074 A 
ATOM     63  C   UNL A   1      44.134  26.992  34.593  1.00  0.00     0.031 C 
ATOM     64  C   UNL A   1      44.548  25.263  32.695  1.00  0.00     0.037 A 
BRANCH  51  65
ATOM     65  C   UNL A   1      43.360  23.086  27.127  1.00  0.00     0.057 A 
ATOM     66  C   UNL A   1      42.715  21.833  27.069  1.00  0.00     0.134 A 
ATOM     67  C   UNL A   1      44.346  23.266  26.142  1.00  0.00     0.134 A 
ATOM     68  F   UNL A   1      41.693  21.525  27.878  1.00  0.00    -0.206 F 
ATOM     69  C   UNL A   1      43.082  20.819  26.173  1.00  0.00     0.040 A 
ATOM     70  C   UNL A   1      44.756  22.246  25.269  1.00  0.00     0.040 A 
ATOM     71  F   UNL A   1      44.919  24.454  25.921  1.00  0.00    -0.206 F 
ATOM     72  C   UNL A   1      44.130  21.011  25.288  1.00  0.00     0.006 A 
ENDBRANCH  51  65
BRANCH  52  73
ATOM     73  C   UNL A   1      41.030  30.090  33.358  1.00  0.00     0.057 A 
ATOM     74  C   UNL A   1      40.916  31.475  33.574  1.00  0.00     0.134 A 
ATOM     75  C   UNL A   1      39.842  29.364  33.237  1.00  0.00     0.134 A 
ATOM     76  F   UNL A   1      42.021  32.229  33.700  1.00  0.00    -0.206 F 
ATOM     77  C   UNL A   1      39.684  32.130  33.527  1.00  0.00     0.040 A 
ATOM     78  C   UNL A   1      38.599  30.010  33.207  1.00  0.00     0.040 A 
ATOM     79  F   UNL A   1      39.868  28.043  33.007  1.00  0.00    -0.206 F 
ATOM     80  C   UNL A   1      38.522  31.399  33.302  1.00  0.00     0.006 A 
ENDBRANCH  52  73
BRANCH  64  81
ATOM     81  C   UNL A   1      45.063  24.014  33.392  1.00  0.00     0.057 A 
ATOM     82  C   UNL A   1      46.353  23.855  33.915  1.00  0.00     0.134 A 
ATOM     83  C   UNL A   1      44.176  22.949  33.702  1.00  0.00     0.134 A 
ATOM     84  F   UNL A   1      47.287  24.806  33.800  1.00  0.00    -0.206 F 
ATOM     85  C   UNL A   1      46.739  22.722  34.652  1.00  0.00     0.040 A 
ATOM     86  C   UNL A   1      44.532  21.847  34.486  1.00  0.00     0.040 A 
ATOM     87  F   UNL A   1      42.902  22.935  33.282  1.00  0.00    -0.206 F 
ATOM     88  C   UNL A   1      45.824  21.724  34.956  1.00  0.00     0.006 A 
ENDBRANCH  64  81
ENDBRANCH  38  39
ENDBRANCH  30  33
ENDBRANCH  28  29
ENDBRANCH  27  28
ENDBRANCH   1  27
TORSDOF 13
ENDMDL
MODEL 2
REMARK VINA RESULT:     -13.5      3.748      9.373
REMARK SMILES Cc1ccc(-c2nc(C)cc(N3CCCC[C@H]3C(=O)NCCCCNC(=O)c3ccc(-c4c5nc(c(-c6c(F)cccc6F)c6ccc([nH]6)c(-c6c(F)cccc6F)c6nc(c(-c7c(F)cccc7F)c7ccc4[nH]7)C=C6)C=C5)cc3)n2)cc1
REMARK SMILES IDX 22 1 21 2 20 3 18 4 19 5 17 7 12 8 13 9 14 10 16 11 15 12
REMARK SMILES IDX 11 13 6 14 7 15 82 16 8 17 9 18 10 19 5 20 1 21 2 22 3 23
REMARK SMILES IDX 84 24 4 25 83 26 23 27 24 28 25 29 26 30 27 32 28 33 29 34
REMARK SMILES IDX 81 35 30 36 80 37 31 38 32 39 33 40 74 41 34 42 79 43 73 44
REMARK SMILES IDX 75 45 35 46 78 47 72 48 71 49 36 51 62 52 45 53 61 54 46 55
REMARK SMILES IDX 49 56 60 57 76 58 47 59 48 60 59 62 77 63 50 64 37 65 38 66
REMARK SMILES IDX 43 67 39 68 40 69 42 70 44 71 41 72 63 73 64 74 69 75 65 76
REMARK SMILES IDX 66 77 68 78 70 79 67 80 51 81 52 82 57 83 53 84 54 85 56 86
REMARK SMILES IDX 58 87 55 88
REMARK H PARENT 20 6 25 31 75 50 49 61
REMARK Flexibility Score: inf
ROOT
ATOM      1  C   UNL A   1      36.514  20.351  25.017  1.00  0.00     0.023 C 
ENDROOT
BRANCH   1   2
ATOM      2  C   UNL A   1      35.020  20.706  24.980  1.00  0.00     0.116 C 
BRANCH   2   3
ATOM      3  N   UNL A   1      34.662  21.520  23.836  1.00  0.00    -0.354 N 
ATOM      4  C   UNL A   1      34.267  22.805  23.660  1.00  0.00     0.242 C 
ATOM      5  O   UNL A   1      34.179  23.139  22.465  1.00  0.00    -0.273 OA
ATOM      6  H   UNL A   1      34.720  21.024  22.988  1.00  0.00     0.163 HD
BRANCH   4   7
ATOM      7  C   UNL A   1      33.915  23.856  24.760  1.00  0.00     0.173 C 
ATOM      8  N   UNL A   1      32.448  23.861  24.957  1.00  0.00    -0.344 N 
ATOM      9  C   UNL A   1      31.892  22.821  25.811  1.00  0.00     0.119 C 
ATOM     10  C   UNL A   1      32.513  22.861  27.203  1.00  0.00     0.022 C 
ATOM     11  C   UNL A   1      34.585  23.897  26.137  1.00  0.00     0.035 C 
ATOM     12  C   UNL A   1      34.037  22.886  27.146  1.00  0.00     0.004 C 
BRANCH   8  13
ATOM     13  C   UNL A   1      31.814  25.097  24.952  1.00  0.00     0.133 A 
ATOM     14  C   UNL A   1      31.740  27.305  25.563  1.00  0.00     0.161 A 
ATOM     15  N   UNL A   1      30.517  27.506  25.043  1.00  0.00    -0.233 NA
ATOM     16  N   UNL A   1      32.409  26.140  25.549  1.00  0.00    -0.211 NA
ATOM     17  C   UNL A   1      29.947  26.449  24.435  1.00  0.00     0.043 A 
ATOM     18  C   UNL A   1      28.576  26.662  23.869  1.00  0.00     0.067 C 
ATOM     19  C   UNL A   1      30.573  25.222  24.354  1.00  0.00     0.070 A 
BRANCH  14  20
ATOM     20  C   UNL A   1      32.402  28.455  26.182  1.00  0.00     0.019 A 
ATOM     21  C   UNL A   1      34.369  31.878  27.964  1.00  0.00     0.044 C 
ATOM     22  C   UNL A   1      33.697  30.688  27.346  1.00  0.00    -0.051 A 
ATOM     23  C   UNL A   1      32.398  30.803  26.842  1.00  0.00     0.004 A 
ATOM     24  C   UNL A   1      34.345  29.451  27.275  1.00  0.00     0.004 A 
ATOM     25  C   UNL A   1      31.763  29.702  26.257  1.00  0.00     0.012 A 
ATOM     26  C   UNL A   1      33.701  28.346  26.706  1.00  0.00     0.012 A 
ENDBRANCH  14  20
ENDBRANCH   8  13
ENDBRANCH   4   7
ENDBRANCH   2   3
ENDBRANCH   1   2
BRANCH   1  27
ATOM     27  C   UNL A   1      37.486  21.478  24.677  1.00  0.00     0.023 C 
BRANCH  27  28
ATOM     28  C   UNL A   1      37.864  22.354  25.859  1.00  0.00     0.116 C 
BRANCH  28  29
ATOM     29  N   UNL A   1      39.148  22.082  26.469  1.00  0.00    -0.352 N 
ATOM     30  C   UNL A   1      40.121  22.970  26.950  1.00  0.00     0.251 C 
ATOM     31  H   UNL A   1      39.372  21.129  26.560  1.00  0.00     0.163 HD
ATOM     32  O   UNL A   1      41.196  22.529  27.308  1.00  0.00    -0.269 OA
BRANCH  30  33
ATOM     33  C   UNL A   1      39.798  24.408  27.171  1.00  0.00     0.039 A 
ATOM     34  C   UNL A   1      40.317  25.355  26.273  1.00  0.00     0.014 A 
ATOM     35  C   UNL A   1      39.207  24.851  28.341  1.00  0.00     0.014 A 
ATOM     36  C   UNL A   1      40.484  26.682  26.680  1.00  0.00     0.010 A 
ATOM     37  C   UNL A   1      39.538  26.093  28.820  1.00  0.00     0.010 A 
ATOM     38  C   UNL A   1      40.209  27.002  28.001  1.00  0.00    -0.014 A 
BRANCH  38  39
ATOM     39  C   UNL A   1      40.558  28.241  28.677  1.00  0.00     0.031 A 
ATOM     40  C   UNL A   1      39.513  29.272  28.859  1.00  0.00     0.074 A 
ATOM     41  C   UNL A   1      41.711  28.286  29.380  1.00  0.00     0.049 A 
ATOM     42  N   UNL A   1      39.724  30.441  29.347  1.00  0.00    -0.248 NA
ATOM     43  C   UNL A   1      38.117  29.058  28.485  1.00  0.00     0.031 C 
ATOM     44  C   UNL A   1      42.038  29.167  30.497  1.00  0.00     0.029 A 
ATOM     45  N   UNL A   1      42.922  27.646  29.081  1.00  0.00    -0.354 N 
ATOM     46  C   UNL A   1      38.505  31.026  29.605  1.00  0.00     0.074 A 
ATOM     47  C   UNL A   1      37.535  30.138  29.013  1.00  0.00     0.031 C 
ATOM     48  C   UNL A   1      43.372  29.248  30.613  1.00  0.00     0.029 A 
ATOM     49  C   UNL A   1      43.932  28.558  29.466  1.00  0.00     0.049 A 
ATOM     50  H   UNL A   1      43.044  26.751  28.688  1.00  0.00     0.167 HD
ATOM     51  C   UNL A   1      38.472  32.141  30.387  1.00  0.00     0.037 A 
ATOM     52  C   UNL A   1      44.745  29.145  28.537  1.00  0.00     0.037 A 
ATOM     53  C   UNL A   1      39.830  32.571  30.713  1.00  0.00     0.049 A 
ATOM     54  C   UNL A   1      44.671  30.655  28.523  1.00  0.00     0.074 A 
ATOM     55  C   UNL A   1      40.645  32.375  31.817  1.00  0.00     0.029 A 
ATOM     56  N   UNL A   1      40.649  33.033  29.694  1.00  0.00    -0.354 N 
ATOM     57  N   UNL A   1      43.661  31.340  28.985  1.00  0.00    -0.248 NA
ATOM     58  C   UNL A   1      45.730  31.512  28.002  1.00  0.00     0.031 C 
ATOM     59  C   UNL A   1      41.974  32.701  31.443  1.00  0.00     0.029 A 
ATOM     60  C   UNL A   1      41.958  33.111  30.120  1.00  0.00     0.049 A 
ATOM     61  H   UNL A   1      40.339  33.274  28.791  1.00  0.00     0.167 HD
ATOM     62  C   UNL A   1      43.906  32.684  28.838  1.00  0.00     0.074 A 
ATOM     63  C   UNL A   1      45.222  32.736  28.231  1.00  0.00     0.031 C 
ATOM     64  C   UNL A   1      42.990  33.624  29.231  1.00  0.00     0.037 A 
BRANCH  51  65
ATOM     65  C   UNL A   1      37.243  32.725  31.048  1.00  0.00     0.057 A 
ATOM     66  C   UNL A   1      36.869  32.320  32.346  1.00  0.00     0.134 A 
ATOM     67  C   UNL A   1      36.365  33.655  30.466  1.00  0.00     0.134 A 
ATOM     68  F   UNL A   1      37.636  31.502  33.081  1.00  0.00    -0.206 F 
ATOM     69  C   UNL A   1      35.682  32.730  32.968  1.00  0.00     0.040 A 
ATOM     70  C   UNL A   1      35.151  34.040  31.056  1.00  0.00     0.040 A 
ATOM     71  F   UNL A   1      36.661  34.295  29.330  1.00  0.00    -0.206 F 
ATOM     72  C   UNL A   1      34.799  33.570  32.311  1.00  0.00     0.006 A 
ENDBRANCH  51  65
BRANCH  52  73
ATOM     73  C   UNL A   1      44.979  28.271  27.356  1.00  0.00     0.057 A 
ATOM     74  C   UNL A   1      45.904  27.220  27.487  1.00  0.00     0.134 A 
ATOM     75  C   UNL A   1      44.029  28.161  26.335  1.00  0.00     0.134 A 
ATOM     76  F   UNL A   1      46.842  27.266  28.448  1.00  0.00    -0.206 F 
ATOM     77  C   UNL A   1      45.800  26.047  26.736  1.00  0.00     0.040 A 
ATOM     78  C   UNL A   1      43.929  26.997  25.563  1.00  0.00     0.040 A 
ATOM     79  F   UNL A   1      43.100  29.111  26.161  1.00  0.00    -0.206 F 
ATOM     80  C   UNL A   1      44.783  25.918  25.797  1.00  0.00     0.006 A 
ENDBRANCH  52  73
BRANCH  64  81
ATOM     81  C   UNL A   1      42.964  35.107  28.901  1.00  0.00     0.057 A 
ATOM     82  C   UNL A   1      43.191  36.143  29.817  1.00  0.00     0.134 A 
ATOM     83  C   UNL A   1      42.853  35.539  27.552  1.00  0.00     0.134 A 
ATOM     84  F   UNL A   1      43.414  35.906  31.114  1.00  0.00    -0.206 F 
ATOM     85  C   UNL A   1      43.268  37.493  29.433  1.00  0.00     0.040 A 
ATOM     86  C   UNL A   1      42.989  36.872  27.152  1.00  0.00     0.040 A 
ATOM     87  F   UNL A   1      42.634  34.683  26.543  1.00  0.00    -0.206 F 
ATOM     88  C   UNL A   1      43.186  37.859  28.097  1.00  0.00     0.006 A 
ENDBRANCH  64  81
ENDBRANCH  38  39
ENDBRANCH  30  33
ENDBRANCH  28  29
ENDBRANCH  27  28
ENDBRANCH   1  27
TORSDOF 13
ENDMDL
MODEL 3
REMARK VINA RESULT:     -13.5      1.350      2.559
REMARK SMILES Cc1ccc(-c2nc(C)cc(N3CCCC[C@H]3C(=O)NCCCCNC(=O)c3ccc(-c4c5nc(c(-c6c(F)cccc6F)c6ccc([nH]6)c(-c6c(F)cccc6F)c6nc(c(-c7c(F)cccc7F)c7ccc4[nH]7)C=C6)C=C5)cc3)n2)cc1
REMARK SMILES IDX 22 1 21 2 20 3 18 4 19 5 17 7 12 8 13 9 14 10 16 11 15 12
REMARK SMILES IDX 11 13 6 14 7 15 82 16 8 17 9 18 10 19 5 20 1 21 2 22 3 23
REMARK SMILES IDX 84 24 4 25 83 26 23 27 24 28 25 29 26 30 27 32 28 33 29 34
REMARK SMILES IDX 81 35 30 36 80 37 31 38 32 39 33 40 74 41 34 42 79 43 73 44
REMARK SMILES IDX 75 45 35 46 78 47 72 48 71 49 36 51 62 52 45 53 61 54 46 55
REMARK SMILES IDX 49 56 60 57 76 58 47 59 48 60 59 62 77 63 50 64 37 65 38 66
REMARK SMILES IDX 43 67 39 68 40 69 42 70 44 71 41 72 63 73 64 74 69 75 65 76
REMARK SMILES IDX 66 77 68 78 70 79 67 80 51 81 52 82 57 83 53 84 54 85 56 86
REMARK SMILES IDX 58 87 55 88
REMARK H PARENT 20 6 25 31 75 50 49 61
REMARK Flexibility Score: inf
ROOT
ATOM      1  C   UNL A   1      31.867  29.790  25.184  1.00  0.00     0.023 C 
ENDROOT
BRANCH   1   2
ATOM      2  C   UNL A   1      31.272  28.553  24.496  1.00  0.00     0.116 C 
BRANCH   2   3
ATOM      3  N   UNL A   1      31.005  27.469  25.419  1.00  0.00    -0.354 N 
ATOM      4  C   UNL A   1      31.589  26.277  25.694  1.00  0.00     0.242 C 
ATOM      5  O   UNL A   1      31.094  25.693  26.673  1.00  0.00    -0.273 OA
ATOM      6  H   UNL A   1      30.212  27.637  25.978  1.00  0.00     0.163 HD
BRANCH   4   7
ATOM      7  C   UNL A   1      32.764  25.590  24.927  1.00  0.00     0.173 C 
ATOM      8  N   UNL A   1      32.229  24.427  24.184  1.00  0.00    -0.344 N 
ATOM      9  C   UNL A   1      31.588  24.698  22.905  1.00  0.00     0.119 C 
ATOM     10  C   UNL A   1      32.540  25.415  21.954  1.00  0.00     0.022 C 
ATOM     11  C   UNL A   1      33.731  26.343  24.008  1.00  0.00     0.035 C 
ATOM     12  C   UNL A   1      33.189  26.631  22.607  1.00  0.00     0.004 C 
BRANCH   8  13
ATOM     13  C   UNL A   1      32.906  23.223  24.323  1.00  0.00     0.133 A 
ATOM     14  C   UNL A   1      34.827  22.051  24.765  1.00  0.00     0.161 A 
ATOM     15  N   UNL A   1      34.275  20.857  24.488  1.00  0.00    -0.233 NA
ATOM     16  N   UNL A   1      34.196  23.236  24.689  1.00  0.00    -0.211 NA
ATOM     17  C   UNL A   1      32.975  20.868  24.139  1.00  0.00     0.043 A 
ATOM     18  C   UNL A   1      32.359  19.542  23.812  1.00  0.00     0.067 C 
ATOM     19  C   UNL A   1      32.245  22.037  24.058  1.00  0.00     0.070 A 
BRANCH  14  20
ATOM     20  C   UNL A   1      36.225  22.059  25.199  1.00  0.00     0.019 A 
ATOM     21  C   UNL A   1      40.374  22.112  26.442  1.00  0.00     0.044 C 
ATOM     22  C   UNL A   1      38.939  22.085  26.006  1.00  0.00    -0.051 A 
ATOM     23  C   UNL A   1      38.131  23.210  26.194  1.00  0.00     0.004 A 
ATOM     24  C   UNL A   1      38.385  20.942  25.422  1.00  0.00     0.004 A 
ATOM     25  C   UNL A   1      36.793  23.200  25.786  1.00  0.00     0.012 A 
ATOM     26  C   UNL A   1      37.041  20.928  25.030  1.00  0.00     0.012 A 
ENDBRANCH  14  20
ENDBRANCH   8  13
ENDBRANCH   4   7
ENDBRANCH   2   3
ENDBRANCH   1   2
BRANCH   1  27
ATOM     27  C   UNL A   1      33.242  29.613  25.824  1.00  0.00     0.023 C 
BRANCH  27  28
ATOM     28  C   UNL A   1      33.330  30.106  27.259  1.00  0.00     0.116 C 
BRANCH  28  29
ATOM     29  N   UNL A   1      34.077  31.328  27.468  1.00  0.00    -0.352 N 
ATOM     30  C   UNL A   1      35.355  31.520  28.011  1.00  0.00     0.251 C 
ATOM     31  H   UNL A   1      33.617  32.150  27.186  1.00  0.00     0.163 HD
ATOM     32  O   UNL A   1      35.744  32.652  28.220  1.00  0.00    -0.269 OA
BRANCH  30  33
ATOM     33  C   UNL A   1      36.289  30.371  28.186  1.00  0.00     0.039 A 
ATOM     34  C   UNL A   1      36.281  29.684  29.412  1.00  0.00     0.014 A 
ATOM     35  C   UNL A   1      37.303  30.111  27.281  1.00  0.00     0.014 A 
ATOM     36  C   UNL A   1      37.415  28.975  29.819  1.00  0.00     0.010 A 
ATOM     37  C   UNL A   1      38.483  29.586  27.743  1.00  0.00     0.010 A 
ATOM     38  C   UNL A   1      38.552  29.047  29.028  1.00  0.00    -0.014 A 
BRANCH  38  39
ATOM     39  C   UNL A   1      39.887  28.604  29.398  1.00  0.00     0.031 A 
ATOM     40  C   UNL A   1      40.401  27.339  28.830  1.00  0.00     0.074 A 
ATOM     41  C   UNL A   1      40.718  29.493  29.986  1.00  0.00     0.049 A 
ATOM     42  N   UNL A   1      41.518  26.796  29.159  1.00  0.00    -0.248 NA
ATOM     43  C   UNL A   1      39.671  26.567  27.827  1.00  0.00     0.031 C 
ATOM     44  C   UNL A   1      42.178  29.473  29.996  1.00  0.00     0.029 A 
ATOM     45  N   UNL A   1      40.381  30.519  30.879  1.00  0.00    -0.354 N 
ATOM     46  C   UNL A   1      41.788  25.789  28.260  1.00  0.00     0.074 A 
ATOM     47  C   UNL A   1      40.587  25.662  27.474  1.00  0.00     0.031 C 
ATOM     48  C   UNL A   1      42.616  30.206  31.032  1.00  0.00     0.029 A 
ATOM     49  C   UNL A   1      41.447  30.571  31.809  1.00  0.00     0.049 A 
ATOM     50  H   UNL A   1      39.576  31.085  30.863  1.00  0.00     0.167 HD
ATOM     51  C   UNL A   1      43.046  25.265  28.230  1.00  0.00     0.037 A 
ATOM     52  C   UNL A   1      41.258  30.231  33.119  1.00  0.00     0.037 A 
ATOM     53  C   UNL A   1      43.859  25.841  29.300  1.00  0.00     0.049 A 
ATOM     54  C   UNL A   1      42.122  29.083  33.586  1.00  0.00     0.074 A 
ATOM     55  C   UNL A   1      44.782  26.873  29.337  1.00  0.00     0.029 A 
ATOM     56  N   UNL A   1      43.528  25.560  30.618  1.00  0.00    -0.354 N 
ATOM     57  N   UNL A   1      42.657  28.200  32.788  1.00  0.00    -0.248 NA
ATOM     58  C   UNL A   1      42.464  28.845  34.985  1.00  0.00     0.031 C 
ATOM     59  C   UNL A   1      44.984  27.231  30.694  1.00  0.00     0.029 A 
ATOM     60  C   UNL A   1      44.199  26.403  31.478  1.00  0.00     0.049 A 
ATOM     61  H   UNL A   1      42.901  24.855  30.900  1.00  0.00     0.167 HD
ATOM     62  C   UNL A   1      43.393  27.299  33.519  1.00  0.00     0.074 A 
ATOM     63  C   UNL A   1      43.250  27.758  34.887  1.00  0.00     0.031 C 
ATOM     64  C   UNL A   1      44.046  26.256  32.918  1.00  0.00     0.037 A 
BRANCH  51  65
ATOM     65  C   UNL A   1      43.625  24.412  27.124  1.00  0.00     0.057 A 
ATOM     66  C   UNL A   1      44.111  25.009  25.941  1.00  0.00     0.134 A 
ATOM     67  C   UNL A   1      43.709  23.010  27.131  1.00  0.00     0.134 A 
ATOM     68  F   UNL A   1      44.184  26.339  25.799  1.00  0.00    -0.206 F 
ATOM     69  C   UNL A   1      44.550  24.273  24.833  1.00  0.00     0.040 A 
ATOM     70  C   UNL A   1      44.103  22.258  26.013  1.00  0.00     0.040 A 
ATOM     71  F   UNL A   1      43.481  22.291  28.235  1.00  0.00    -0.206 F 
ATOM     72  C   UNL A   1      44.518  22.889  24.852  1.00  0.00     0.006 A 
ENDBRANCH  51  65
BRANCH  52  73
ATOM     73  C   UNL A   1      39.879  30.534  33.589  1.00  0.00     0.057 A 
ATOM     74  C   UNL A   1      39.584  31.860  33.952  1.00  0.00     0.134 A 
ATOM     75  C   UNL A   1      38.800  29.709  33.255  1.00  0.00     0.134 A 
ATOM     76  F   UNL A   1      40.575  32.703  34.284  1.00  0.00    -0.206 F 
ATOM     77  C   UNL A   1      38.293  32.384  33.847  1.00  0.00     0.040 A 
ATOM     78  C   UNL A   1      37.499  30.220  33.166  1.00  0.00     0.040 A 
ATOM     79  F   UNL A   1      39.003  28.439  32.878  1.00  0.00    -0.206 F 
ATOM     80  C   UNL A   1      37.252  31.571  33.413  1.00  0.00     0.006 A 
ENDBRANCH  52  73
BRANCH  64  81
ATOM     81  C   UNL A   1      44.661  25.029  33.571  1.00  0.00     0.057 A 
ATOM     82  C   UNL A   1      46.032  24.744  33.624  1.00  0.00     0.134 A 
ATOM     83  C   UNL A   1      43.854  24.141  34.331  1.00  0.00     0.134 A 
ATOM     84  F   UNL A   1      46.943  25.533  33.045  1.00  0.00    -0.206 F 
ATOM     85  C   UNL A   1      46.554  23.653  34.340  1.00  0.00     0.040 A 
ATOM     86  C   UNL A   1      44.368  23.090  35.097  1.00  0.00     0.040 A 
ATOM     87  F   UNL A   1      42.520  24.264  34.393  1.00  0.00    -0.206 F 
ATOM     88  C   UNL A   1      45.725  22.835  35.094  1.00  0.00     0.006 A 
ENDBRANCH  64  81
ENDBRANCH  38  39
ENDBRANCH  30  33
ENDBRANCH  28  29
ENDBRANCH  27  28
ENDBRANCH   1  27
TORSDOF 13
ENDMDL
