MODEL 1
REMARK VINA RESULT:     -11.6      0.000      0.000
REMARK SMILES Cc1[nH]cnc1C[NH+]1CCC(Oc2cccc(F)c2)(C(=O)NCCCCNC(=O)c2ccc(-c3c4nc(c(-c5c(F)cccc5F)c5ccc([nH]5)c(-c5c(F)cccc5F)c5nc(c(-c6c(F)cccc6F)c6ccc3[nH]6)C=C5)C=C4)cc2)CC1
REMARK SMILES IDX 24 1 23 2 22 3 20 4 21 5 11 7 8 8 9 9 85 10 10 12 84 13 7 14
REMARK SMILES IDX 6 15 1 16 2 17 3 18 4 19 5 21 12 22 13 23 14 24 19 25 15 26
REMARK SMILES IDX 17 27 16 28 18 29 25 30 26 31 27 32 28 33 29 35 30 36 31 37
REMARK SMILES IDX 83 38 32 39 82 40 33 41 34 42 35 43 76 44 36 45 81 46 75 47
REMARK SMILES IDX 77 48 37 49 80 50 74 51 73 52 38 54 64 55 47 56 63 57 48 58
REMARK SMILES IDX 51 59 62 60 78 61 49 62 50 63 61 65 79 66 52 67 39 68 40 69
REMARK SMILES IDX 45 70 41 71 42 72 44 73 46 74 43 75 65 76 66 77 71 78 67 79
REMARK SMILES IDX 68 80 70 81 72 82 69 83 53 84 54 85 59 86 55 87 56 88 58 89
REMARK SMILES IDX 60 90 57 91
REMARK H PARENT 22 6 8 11 3 20 27 34 77 53 51 64
REMARK Flexibility Score: inf
ROOT
ATOM      1  C   UNL A   1      38.542  22.779  26.099  1.00  0.00     0.023 C 
ENDROOT
BRANCH   1   2
ATOM      2  C   UNL A   1      37.222  23.443  25.717  1.00  0.00     0.116 C 
BRANCH   2   3
ATOM      3  N   UNL A   1      36.193  23.187  26.705  1.00  0.00    -0.353 N 
ATOM      4  C   UNL A   1      34.831  23.164  26.582  1.00  0.00     0.264 C 
ATOM      5  O   UNL A   1      34.214  22.782  27.581  1.00  0.00    -0.270 OA
ATOM      6  H   UNL A   1      36.529  23.000  27.611  1.00  0.00     0.163 HD
BRANCH   4   7
ATOM      7  C   UNL A   1      34.121  23.577  25.257  1.00  0.00     0.197 C 
ATOM      8  N   UNL A   1      32.493  25.935  25.857  1.00  0.00    -0.330 N 
ATOM      9  C   UNL A   1      33.950  26.040  25.833  1.00  0.00     0.267 C 
ATOM     10  C   UNL A   1      32.048  24.618  26.335  1.00  0.00     0.267 C 
ATOM     11  H   UNL A   1      32.178  26.022  24.891  1.00  0.00     0.348 HD
ATOM     12  C   UNL A   1      34.496  25.012  24.849  1.00  0.00     0.120 C 
ATOM     13  C   UNL A   1      32.590  23.493  25.440  1.00  0.00     0.120 C 
BRANCH   8  14
ATOM     14  C   UNL A   1      31.850  27.049  26.587  1.00  0.00     0.321 C 
BRANCH  14  15
ATOM     15  C   UNL A   1      31.549  28.253  25.739  1.00  0.00     0.115 A 
ATOM     16  C   UNL A   1      32.532  30.303  27.062  1.00  0.00     0.066 C 
ATOM     17  C   UNL A   1      31.832  29.591  25.969  1.00  0.00     0.040 A 
ATOM     18  N   UNL A   1      31.295  30.254  24.893  1.00  0.00    -0.348 N 
ATOM     19  C   UNL A   1      30.747  29.326  24.060  1.00  0.00     0.197 A 
ATOM     20  H   UNL A   1      31.304  31.228  24.750  1.00  0.00     0.167 HD
ATOM     21  N   UNL A   1      30.910  28.112  24.525  1.00  0.00    -0.236 NA
ENDBRANCH  14  15
ENDBRANCH   8  14
BRANCH   7  22
ATOM     22  O   UNL A   1      34.621  22.543  24.360  1.00  0.00    -0.477 OA
BRANCH  22  23
ATOM     23  C   UNL A   1      33.842  21.449  24.139  1.00  0.00     0.123 A 
ATOM     24  C   UNL A   1      32.856  21.444  23.154  1.00  0.00     0.046 A 
ATOM     25  C   UNL A   1      34.156  20.276  24.820  1.00  0.00     0.085 A 
ATOM     26  C   UNL A   1      32.104  20.293  22.921  1.00  0.00     0.007 A 
ATOM     27  C   UNL A   1      33.416  19.128  24.567  1.00  0.00     0.126 A 
ATOM     28  C   UNL A   1      32.381  19.130  23.638  1.00  0.00     0.039 A 
ATOM     29  F   UNL A   1      33.706  17.997  25.224  1.00  0.00    -0.207 F 
ENDBRANCH  22  23
ENDBRANCH   7  22
ENDBRANCH   4   7
ENDBRANCH   2   3
ENDBRANCH   1   2
BRANCH   1  30
ATOM     30  C   UNL A   1      38.807  21.444  25.405  1.00  0.00     0.023 C 
BRANCH  30  31
ATOM     31  C   UNL A   1      39.114  20.279  26.339  1.00  0.00     0.116 C 
BRANCH  31  32
ATOM     32  N   UNL A   1      40.247  19.481  25.896  1.00  0.00    -0.352 N 
ATOM     33  C   UNL A   1      41.581  19.802  25.878  1.00  0.00     0.251 C 
ATOM     34  H   UNL A   1      40.025  18.582  25.562  1.00  0.00     0.163 HD
ATOM     35  O   UNL A   1      42.387  19.053  25.332  1.00  0.00    -0.269 OA
BRANCH  33  36
ATOM     36  C   UNL A   1      42.043  21.069  26.482  1.00  0.00     0.039 A 
ATOM     37  C   UNL A   1      42.460  22.101  25.639  1.00  0.00     0.014 A 
ATOM     38  C   UNL A   1      42.046  21.247  27.868  1.00  0.00     0.014 A 
ATOM     39  C   UNL A   1      42.810  23.336  26.184  1.00  0.00     0.010 A 
ATOM     40  C   UNL A   1      42.318  22.505  28.403  1.00  0.00     0.010 A 
ATOM     41  C   UNL A   1      42.698  23.563  27.566  1.00  0.00    -0.014 A 
BRANCH  41  42
ATOM     42  C   UNL A   1      42.942  24.911  28.137  1.00  0.00     0.031 A 
ATOM     43  C   UNL A   1      44.321  25.327  28.563  1.00  0.00     0.074 A 
ATOM     44  C   UNL A   1      41.900  25.748  28.315  1.00  0.00     0.049 A 
ATOM     45  N   UNL A   1      44.713  26.459  29.090  1.00  0.00    -0.248 NA
ATOM     46  C   UNL A   1      45.397  24.338  28.397  1.00  0.00     0.031 C 
ATOM     47  C   UNL A   1      40.506  25.438  27.995  1.00  0.00     0.029 A 
ATOM     48  N   UNL A   1      41.852  27.028  28.807  1.00  0.00    -0.354 N 
ATOM     49  C   UNL A   1      46.075  26.317  29.321  1.00  0.00     0.074 A 
ATOM     50  C   UNL A   1      46.432  24.970  28.932  1.00  0.00     0.031 C 
ATOM     51  C   UNL A   1      39.747  26.512  28.259  1.00  0.00     0.029 A 
ATOM     52  C   UNL A   1      40.590  27.570  28.806  1.00  0.00     0.049 A 
ATOM     53  H   UNL A   1      42.646  27.512  29.130  1.00  0.00     0.167 HD
ATOM     54  C   UNL A   1      46.952  27.236  29.788  1.00  0.00     0.037 A 
ATOM     55  C   UNL A   1      40.156  28.783  29.201  1.00  0.00     0.037 A 
ATOM     56  C   UNL A   1      46.595  28.582  30.157  1.00  0.00     0.049 A 
ATOM     57  C   UNL A   1      41.147  29.782  29.726  1.00  0.00     0.074 A 
ATOM     58  C   UNL A   1      47.426  29.605  30.580  1.00  0.00     0.029 A 
ATOM     59  N   UNL A   1      45.306  29.090  30.153  1.00  0.00    -0.354 N 
ATOM     60  N   UNL A   1      42.444  29.658  29.872  1.00  0.00    -0.248 NA
ATOM     61  C   UNL A   1      40.617  31.088  30.140  1.00  0.00     0.031 C 
ATOM     62  C   UNL A   1      46.632  30.713  30.887  1.00  0.00     0.029 A 
ATOM     63  C   UNL A   1      45.313  30.403  30.597  1.00  0.00     0.049 A 
ATOM     64  H   UNL A   1      44.502  28.592  29.875  1.00  0.00     0.167 HD
ATOM     65  C   UNL A   1      42.888  30.871  30.379  1.00  0.00     0.074 A 
ATOM     66  C   UNL A   1      41.725  31.727  30.496  1.00  0.00     0.031 C 
ATOM     67  C   UNL A   1      44.147  31.241  30.722  1.00  0.00     0.037 A 
BRANCH  54  68
ATOM     68  C   UNL A   1      48.392  26.827  29.920  1.00  0.00     0.057 A 
ATOM     69  C   UNL A   1      49.292  27.022  28.866  1.00  0.00     0.134 A 
ATOM     70  C   UNL A   1      48.870  26.177  31.066  1.00  0.00     0.134 A 
ATOM     71  F   UNL A   1      48.899  27.632  27.738  1.00  0.00    -0.206 F 
ATOM     72  C   UNL A   1      50.613  26.575  28.940  1.00  0.00     0.040 A 
ATOM     73  C   UNL A   1      50.197  25.750  31.164  1.00  0.00     0.040 A 
ATOM     74  F   UNL A   1      48.063  25.967  32.117  1.00  0.00    -0.206 F 
ATOM     75  C   UNL A   1      51.069  25.940  30.093  1.00  0.00     0.006 A 
ENDBRANCH  54  68
BRANCH  55  76
ATOM     76  C   UNL A   1      38.717  29.121  29.074  1.00  0.00     0.057 A 
ATOM     77  C   UNL A   1      38.172  29.564  27.862  1.00  0.00     0.134 A 
ATOM     78  C   UNL A   1      37.859  29.051  30.177  1.00  0.00     0.134 A 
ATOM     79  F   UNL A   1      38.944  29.662  26.769  1.00  0.00    -0.206 F 
ATOM     80  C   UNL A   1      36.834  29.945  27.757  1.00  0.00     0.040 A 
ATOM     81  C   UNL A   1      36.513  29.404  30.081  1.00  0.00     0.040 A 
ATOM     82  F   UNL A   1      38.318  28.618  31.361  1.00  0.00    -0.206 F 
ATOM     83  C   UNL A   1      35.999  29.863  28.870  1.00  0.00     0.006 A 
ENDBRANCH  55  76
BRANCH  67  84
ATOM     84  C   UNL A   1      44.340  32.631  31.256  1.00  0.00     0.057 A 
ATOM     85  C   UNL A   1      44.248  32.890  32.630  1.00  0.00     0.134 A 
ATOM     86  C   UNL A   1      44.550  33.724  30.406  1.00  0.00     0.134 A 
ATOM     87  F   UNL A   1      44.037  31.890  33.499  1.00  0.00    -0.206 F 
ATOM     88  C   UNL A   1      44.347  34.186  33.137  1.00  0.00     0.040 A 
ATOM     89  C   UNL A   1      44.679  35.021  30.904  1.00  0.00     0.040 A 
ATOM     90  F   UNL A   1      44.658  33.544  29.081  1.00  0.00    -0.206 F 
ATOM     91  C   UNL A   1      44.567  35.256  32.273  1.00  0.00     0.006 A 
ENDBRANCH  67  84
ENDBRANCH  41  42
ENDBRANCH  33  36
ENDBRANCH  31  32
ENDBRANCH  30  31
ENDBRANCH   1  30
TORSDOF 15
ENDMDL
MODEL 2
REMARK VINA RESULT:     -11.5      1.730      2.524
REMARK SMILES Cc1[nH]cnc1C[NH+]1CCC(Oc2cccc(F)c2)(C(=O)NCCCCNC(=O)c2ccc(-c3c4nc(c(-c5c(F)cccc5F)c5ccc([nH]5)c(-c5c(F)cccc5F)c5nc(c(-c6c(F)cccc6F)c6ccc3[nH]6)C=C5)C=C4)cc2)CC1
REMARK SMILES IDX 24 1 23 2 22 3 20 4 21 5 11 7 8 8 9 9 85 10 10 12 84 13 7 14
REMARK SMILES IDX 6 15 1 16 2 17 3 18 4 19 5 21 12 22 13 23 14 24 19 25 15 26
REMARK SMILES IDX 17 27 16 28 18 29 25 30 26 31 27 32 28 33 29 35 30 36 31 37
REMARK SMILES IDX 83 38 32 39 82 40 33 41 34 42 35 43 76 44 36 45 81 46 75 47
REMARK SMILES IDX 77 48 37 49 80 50 74 51 73 52 38 54 64 55 47 56 63 57 48 58
REMARK SMILES IDX 51 59 62 60 78 61 49 62 50 63 61 65 79 66 52 67 39 68 40 69
REMARK SMILES IDX 45 70 41 71 42 72 44 73 46 74 43 75 65 76 66 77 71 78 67 79
REMARK SMILES IDX 68 80 70 81 72 82 69 83 53 84 54 85 59 86 55 87 56 88 58 89
REMARK SMILES IDX 60 90 57 91
REMARK H PARENT 22 6 8 11 3 20 27 34 77 53 51 64
REMARK Flexibility Score: inf
ROOT
ATOM      1  C   UNL A   1      37.030  21.018  24.971  1.00  0.00     0.023 C 
ENDROOT
BRANCH   1   2
ATOM      2  C   UNL A   1      35.606  20.489  25.119  1.00  0.00     0.116 C 
BRANCH   2   3
ATOM      3  N   UNL A   1      34.960  21.027  26.300  1.00  0.00    -0.353 N 
ATOM      4  C   UNL A   1      33.665  21.421  26.502  1.00  0.00     0.264 C 
ATOM      5  O   UNL A   1      33.375  21.716  27.665  1.00  0.00    -0.270 OA
ATOM      6  H   UNL A   1      35.548  21.125  27.083  1.00  0.00     0.163 HD
BRANCH   4   7
ATOM      7  C   UNL A   1      32.633  21.469  25.334  1.00  0.00     0.197 C 
ATOM      8  N   UNL A   1      32.763  24.163  24.192  1.00  0.00    -0.330 N 
ATOM      9  C   UNL A   1      33.870  23.231  23.994  1.00  0.00     0.267 C 
ATOM     10  C   UNL A   1      32.112  23.969  25.496  1.00  0.00     0.267 C 
ATOM     11  H   UNL A   1      32.067  23.944  23.479  1.00  0.00     0.348 HD
ATOM     12  C   UNL A   1      33.319  21.810  24.000  1.00  0.00     0.120 C 
ATOM     13  C   UNL A   1      31.562  22.542  25.633  1.00  0.00     0.120 C 
BRANCH   8  14
ATOM     14  C   UNL A   1      33.148  25.570  23.954  1.00  0.00     0.321 C 
BRANCH  14  15
ATOM     15  C   UNL A   1      31.989  26.502  23.738  1.00  0.00     0.115 A 
ATOM     16  C   UNL A   1      31.587  27.668  26.061  1.00  0.00     0.066 C 
ATOM     17  C   UNL A   1      31.355  27.350  24.635  1.00  0.00     0.040 A 
ATOM     18  N   UNL A   1      30.340  27.929  23.913  1.00  0.00    -0.348 N 
ATOM     19  C   UNL A   1      30.407  27.452  22.638  1.00  0.00     0.197 A 
ATOM     20  H   UNL A   1      29.681  28.574  24.257  1.00  0.00     0.167 HD
ATOM     21  N   UNL A   1      31.405  26.617  22.493  1.00  0.00    -0.236 NA
ENDBRANCH  14  15
ENDBRANCH   8  14
BRANCH   7  22
ATOM     22  O   UNL A   1      32.090  20.120  25.408  1.00  0.00    -0.477 OA
BRANCH  22  23
ATOM     23  C   UNL A   1      32.559  19.187  24.536  1.00  0.00     0.123 A 
ATOM     24  C   UNL A   1      33.272  18.072  24.976  1.00  0.00     0.046 A 
ATOM     25  C   UNL A   1      32.179  19.291  23.201  1.00  0.00     0.085 A 
ATOM     26  C   UNL A   1      33.702  17.110  24.062  1.00  0.00     0.007 A 
ATOM     27  C   UNL A   1      32.593  18.318  22.301  1.00  0.00     0.126 A 
ATOM     28  C   UNL A   1      33.367  17.238  22.715  1.00  0.00     0.039 A 
ATOM     29  F   UNL A   1      32.238  18.415  21.013  1.00  0.00    -0.207 F 
ENDBRANCH  22  23
ENDBRANCH   7  22
ENDBRANCH   4   7
ENDBRANCH   2   3
ENDBRANCH   1   2
BRANCH   1  30
ATOM     30  C   UNL A   1      38.113  19.940  24.979  1.00  0.00     0.023 C 
BRANCH  30  31
ATOM     31  C   UNL A   1      39.238  20.161  25.985  1.00  0.00     0.116 C 
BRANCH  31  32
ATOM     32  N   UNL A   1      40.270  19.138  25.913  1.00  0.00    -0.352 N 
ATOM     33  C   UNL A   1      41.629  19.263  26.064  1.00  0.00     0.251 C 
ATOM     34  H   UNL A   1      39.949  18.226  25.730  1.00  0.00     0.163 HD
ATOM     35  O   UNL A   1      42.365  18.309  25.826  1.00  0.00    -0.269 OA
BRANCH  33  36
ATOM     36  C   UNL A   1      42.208  20.558  26.477  1.00  0.00     0.039 A 
ATOM     37  C   UNL A   1      42.761  21.387  25.499  1.00  0.00     0.014 A 
ATOM     38  C   UNL A   1      42.189  20.963  27.814  1.00  0.00     0.014 A 
ATOM     39  C   UNL A   1      43.228  22.653  25.852  1.00  0.00     0.010 A 
ATOM     40  C   UNL A   1      42.581  22.257  28.151  1.00  0.00     0.010 A 
ATOM     41  C   UNL A   1      43.101  23.116  27.172  1.00  0.00    -0.014 A 
BRANCH  41  42
ATOM     42  C   UNL A   1      43.473  24.508  27.529  1.00  0.00     0.031 A 
ATOM     43  C   UNL A   1      44.909  24.950  27.501  1.00  0.00     0.074 A 
ATOM     44  C   UNL A   1      42.512  25.365  27.925  1.00  0.00     0.049 A 
ATOM     45  N   UNL A   1      45.415  26.121  27.791  1.00  0.00    -0.248 NA
ATOM     46  C   UNL A   1      45.910  23.941  27.119  1.00  0.00     0.031 C 
ATOM     47  C   UNL A   1      41.090  25.039  28.049  1.00  0.00     0.029 A 
ATOM     48  N   UNL A   1      42.584  26.684  28.296  1.00  0.00    -0.354 N 
ATOM     49  C   UNL A   1      46.789  25.990  27.632  1.00  0.00     0.074 A 
ATOM     50  C   UNL A   1      47.043  24.610  27.277  1.00  0.00     0.031 C 
ATOM     51  C   UNL A   1      40.420  26.138  28.425  1.00  0.00     0.029 A 
ATOM     52  C   UNL A   1      41.365  27.234  28.611  1.00  0.00     0.049 A 
ATOM     53  H   UNL A   1      43.429  27.189  28.333  1.00  0.00     0.167 HD
ATOM     54  C   UNL A   1      47.747  26.940  27.744  1.00  0.00     0.037 A 
ATOM     55  C   UNL A   1      41.041  28.481  29.006  1.00  0.00     0.037 A 
ATOM     56  C   UNL A   1      47.486  28.316  28.080  1.00  0.00     0.049 A 
ATOM     57  C   UNL A   1      42.123  29.515  29.134  1.00  0.00     0.074 A 
ATOM     58  C   UNL A   1      48.384  29.366  28.155  1.00  0.00     0.029 A 
ATOM     59  N   UNL A   1      46.241  28.831  28.404  1.00  0.00    -0.354 N 
ATOM     60  N   UNL A   1      43.409  29.394  28.910  1.00  0.00    -0.248 NA
ATOM     61  C   UNL A   1      41.711  30.857  29.567  1.00  0.00     0.031 C 
ATOM     62  C   UNL A   1      47.692  30.504  28.579  1.00  0.00     0.029 A 
ATOM     63  C   UNL A   1      46.352  30.179  28.710  1.00  0.00     0.049 A 
ATOM     64  H   UNL A   1      45.401  28.317  28.414  1.00  0.00     0.167 HD
ATOM     65  C   UNL A   1      43.958  30.645  29.160  1.00  0.00     0.074 A 
ATOM     66  C   UNL A   1      42.862  31.516  29.531  1.00  0.00     0.031 C 
ATOM     67  C   UNL A   1      45.255  31.034  29.091  1.00  0.00     0.037 A 
BRANCH  54  68
ATOM     68  C   UNL A   1      49.170  26.533  27.492  1.00  0.00     0.057 A 
ATOM     69  C   UNL A   1      49.697  26.538  26.194  1.00  0.00     0.134 A 
ATOM     70  C   UNL A   1      49.998  26.070  28.523  1.00  0.00     0.134 A 
ATOM     71  F   UNL A   1      48.958  26.963  25.159  1.00  0.00    -0.206 F 
ATOM     72  C   UNL A   1      50.992  26.086  25.930  1.00  0.00     0.040 A 
ATOM     73  C   UNL A   1      51.305  25.642  28.276  1.00  0.00     0.040 A 
ATOM     74  F   UNL A   1      49.559  26.048  29.791  1.00  0.00    -0.206 F 
ATOM     75  C   UNL A   1      51.800  25.640  26.973  1.00  0.00     0.006 A 
ENDBRANCH  54  68
BRANCH  55  76
ATOM     76  C   UNL A   1      39.620  28.818  29.269  1.00  0.00     0.057 A 
ATOM     77  C   UNL A   1      39.052  28.655  30.539  1.00  0.00     0.134 A 
ATOM     78  C   UNL A   1      38.784  29.270  28.243  1.00  0.00     0.134 A 
ATOM     79  F   UNL A   1      39.798  28.214  31.563  1.00  0.00    -0.206 F 
ATOM     80  C   UNL A   1      37.700  28.908  30.774  1.00  0.00     0.040 A 
ATOM     81  C   UNL A   1      37.436  29.553  28.468  1.00  0.00     0.040 A 
ATOM     82  F   UNL A   1      39.274  29.463  27.009  1.00  0.00    -0.206 F 
ATOM     83  C   UNL A   1      36.888  29.362  29.735  1.00  0.00     0.006 A 
ENDBRANCH  55  76
BRANCH  67  84
ATOM     84  C   UNL A   1      45.568  32.464  29.423  1.00  0.00     0.057 A 
ATOM     85  C   UNL A   1      45.563  33.449  28.427  1.00  0.00     0.134 A 
ATOM     86  C   UNL A   1      45.940  32.856  30.716  1.00  0.00     0.134 A 
ATOM     87  F   UNL A   1      45.227  33.140  27.165  1.00  0.00    -0.206 F 
ATOM     88  C   UNL A   1      45.927  34.768  28.701  1.00  0.00     0.040 A 
ATOM     89  C   UNL A   1      46.278  34.178  31.009  1.00  0.00     0.040 A 
ATOM     90  F   UNL A   1      45.956  31.964  31.718  1.00  0.00    -0.206 F 
ATOM     91  C   UNL A   1      46.282  35.136  29.997  1.00  0.00     0.006 A 
ENDBRANCH  67  84
ENDBRANCH  41  42
ENDBRANCH  33  36
ENDBRANCH  31  32
ENDBRANCH  30  31
ENDBRANCH   1  30
TORSDOF 15
ENDMDL
MODEL 3
REMARK VINA RESULT:     -11.5      2.169      6.494
REMARK SMILES Cc1[nH]cnc1C[NH+]1CCC(Oc2cccc(F)c2)(C(=O)NCCCCNC(=O)c2ccc(-c3c4nc(c(-c5c(F)cccc5F)c5ccc([nH]5)c(-c5c(F)cccc5F)c5nc(c(-c6c(F)cccc6F)c6ccc3[nH]6)C=C5)C=C4)cc2)CC1
REMARK SMILES IDX 24 1 23 2 22 3 20 4 21 5 11 7 8 8 9 9 85 10 10 12 84 13 7 14
REMARK SMILES IDX 6 15 1 16 2 17 3 18 4 19 5 21 12 22 13 23 14 24 19 25 15 26
REMARK SMILES IDX 17 27 16 28 18 29 25 30 26 31 27 32 28 33 29 35 30 36 31 37
REMARK SMILES IDX 83 38 32 39 82 40 33 41 34 42 35 43 76 44 36 45 81 46 75 47
REMARK SMILES IDX 77 48 37 49 80 50 74 51 73 52 38 54 64 55 47 56 63 57 48 58
REMARK SMILES IDX 51 59 62 60 78 61 49 62 50 63 61 65 79 66 52 67 39 68 40 69
REMARK SMILES IDX 45 70 41 71 42 72 44 73 46 74 43 75 65 76 66 77 71 78 67 79
REMARK SMILES IDX 68 80 70 81 72 82 69 83 53 84 54 85 59 86 55 87 56 88 58 89
REMARK SMILES IDX 60 90 57 91
REMARK H PARENT 22 6 8 11 3 20 27 34 77 53 51 64
REMARK Flexibility Score: inf
ROOT
ATOM      1  C   UNL A   1      37.096  21.058  24.890  1.00  0.00     0.023 C 
ENDROOT
BRANCH   1   2
ATOM      2  C   UNL A   1      35.647  20.590  25.001  1.00  0.00     0.116 C 
BRANCH   2   3
ATOM      3  N   UNL A   1      35.030  21.060  26.225  1.00  0.00    -0.353 N 
ATOM      4  C   UNL A   1      33.745  21.459  26.475  1.00  0.00     0.264 C 
ATOM      5  O   UNL A   1      33.480  21.684  27.660  1.00  0.00    -0.270 OA
ATOM      6  H   UNL A   1      35.633  21.100  27.002  1.00  0.00     0.163 HD
BRANCH   4   7
ATOM      7  C   UNL A   1      32.694  21.596  25.332  1.00  0.00     0.197 C 
ATOM      8  N   UNL A   1      32.940  24.313  24.267  1.00  0.00    -0.330 N 
ATOM      9  C   UNL A   1      33.994  23.332  24.018  1.00  0.00     0.267 C 
ATOM     10  C   UNL A   1      32.307  24.113  25.578  1.00  0.00     0.267 C 
ATOM     11  H   UNL A   1      32.220  24.153  23.563  1.00  0.00     0.348 HD
ATOM     12  C   UNL A   1      33.370  21.942  23.994  1.00  0.00     0.120 C 
ATOM     13  C   UNL A   1      31.686  22.712  25.685  1.00  0.00     0.120 C 
BRANCH   8  14
ATOM     14  C   UNL A   1      33.394  25.706  24.062  1.00  0.00     0.321 C 
BRANCH  14  15
ATOM     15  C   UNL A   1      32.386  26.593  23.388  1.00  0.00     0.115 A 
ATOM     16  C   UNL A   1      32.205  25.698  20.922  1.00  0.00     0.066 C 
ATOM     17  C   UNL A   1      31.923  26.574  22.081  1.00  0.00     0.040 A 
ATOM     18  N   UNL A   1      31.049  27.631  22.002  1.00  0.00    -0.348 N 
ATOM     19  C   UNL A   1      30.990  28.218  23.229  1.00  0.00     0.197 A 
ATOM     20  H   UNL A   1      30.553  27.913  21.199  1.00  0.00     0.167 HD
ATOM     21  N   UNL A   1      31.758  27.600  24.092  1.00  0.00    -0.236 NA
ENDBRANCH  14  15
ENDBRANCH   8  14
BRANCH   7  22
ATOM     22  O   UNL A   1      32.083  20.275  25.378  1.00  0.00    -0.477 OA
BRANCH  22  23
ATOM     23  C   UNL A   1      32.547  19.320  24.526  1.00  0.00     0.123 A 
ATOM     24  C   UNL A   1      33.268  18.220  24.989  1.00  0.00     0.046 A 
ATOM     25  C   UNL A   1      32.153  19.387  23.193  1.00  0.00     0.085 A 
ATOM     26  C   UNL A   1      33.692  17.234  24.098  1.00  0.00     0.007 A 
ATOM     27  C   UNL A   1      32.562  18.391  22.315  1.00  0.00     0.126 A 
ATOM     28  C   UNL A   1      33.343  17.325  22.751  1.00  0.00     0.039 A 
ATOM     29  F   UNL A   1      32.193  18.451  21.029  1.00  0.00    -0.207 F 
ENDBRANCH  22  23
ENDBRANCH   7  22
ENDBRANCH   4   7
ENDBRANCH   2   3
ENDBRANCH   1   2
BRANCH   1  30
ATOM     30  C   UNL A   1      38.134  19.941  24.981  1.00  0.00     0.023 C 
BRANCH  30  31
ATOM     31  C   UNL A   1      39.299  20.217  25.926  1.00  0.00     0.116 C 
BRANCH  31  32
ATOM     32  N   UNL A   1      40.269  19.133  25.960  1.00  0.00    -0.352 N 
ATOM     33  C   UNL A   1      41.631  19.191  26.122  1.00  0.00     0.251 C 
ATOM     34  H   UNL A   1      39.896  18.229  25.851  1.00  0.00     0.163 HD
ATOM     35  O   UNL A   1      42.311  18.178  25.979  1.00  0.00    -0.269 OA
BRANCH  33  36
ATOM     36  C   UNL A   1      42.282  20.481  26.430  1.00  0.00     0.039 A 
ATOM     37  C   UNL A   1      42.880  21.195  25.390  1.00  0.00     0.014 A 
ATOM     38  C   UNL A   1      42.287  20.994  27.730  1.00  0.00     0.014 A 
ATOM     39  C   UNL A   1      43.418  22.457  25.641  1.00  0.00     0.010 A 
ATOM     40  C   UNL A   1      42.751  22.287  27.961  1.00  0.00     0.010 A 
ATOM     41  C   UNL A   1      43.317  23.033  26.919  1.00  0.00    -0.014 A 
BRANCH  41  42
ATOM     42  C   UNL A   1      43.767  24.426  27.162  1.00  0.00     0.031 A 
ATOM     43  C   UNL A   1      42.787  25.491  27.565  1.00  0.00     0.074 A 
ATOM     44  C   UNL A   1      45.064  24.741  26.972  1.00  0.00     0.049 A 
ATOM     45  N   UNL A   1      43.003  26.759  27.808  1.00  0.00    -0.248 NA
ATOM     46  C   UNL A   1      41.378  25.087  27.692  1.00  0.00     0.031 C 
ATOM     47  C   UNL A   1      46.101  23.809  26.526  1.00  0.00     0.029 A 
ATOM     48  N   UNL A   1      45.731  25.929  27.131  1.00  0.00    -0.354 N 
ATOM     49  C   UNL A   1      41.762  27.303  28.110  1.00  0.00     0.074 A 
ATOM     50  C   UNL A   1      40.788  26.242  27.964  1.00  0.00     0.031 C 
ATOM     51  C   UNL A   1      47.279  24.450  26.487  1.00  0.00     0.029 A 
ATOM     52  C   UNL A   1      47.076  25.846  26.863  1.00  0.00     0.049 A 
ATOM     53  H   UNL A   1      45.288  26.764  27.409  1.00  0.00     0.167 HD
ATOM     54  C   UNL A   1      41.465  28.565  28.501  1.00  0.00     0.037 A 
ATOM     55  C   UNL A   1      48.041  26.784  26.913  1.00  0.00     0.037 A 
ATOM     56  C   UNL A   1      42.440  29.612  28.663  1.00  0.00     0.049 A 
ATOM     57  C   UNL A   1      47.685  28.180  27.340  1.00  0.00     0.074 A 
ATOM     58  C   UNL A   1      42.245  30.905  29.117  1.00  0.00     0.029 A 
ATOM     59  N   UNL A   1      43.790  29.491  28.371  1.00  0.00    -0.354 N 
ATOM     60  N   UNL A   1      46.518  28.662  27.692  1.00  0.00    -0.248 NA
ATOM     61  C   UNL A   1      48.778  29.162  27.378  1.00  0.00     0.031 C 
ATOM     62  C   UNL A   1      43.464  31.582  29.045  1.00  0.00     0.029 A 
ATOM     63  C   UNL A   1      44.434  30.696  28.605  1.00  0.00     0.049 A 
ATOM     64  H   UNL A   1      44.227  28.670  28.046  1.00  0.00     0.167 HD
ATOM     65  C   UNL A   1      46.736  29.996  28.008  1.00  0.00     0.074 A 
ATOM     66  C   UNL A   1      48.152  30.242  27.826  1.00  0.00     0.031 C 
ATOM     67  C   UNL A   1      45.842  30.934  28.408  1.00  0.00     0.037 A 
BRANCH  54  68
ATOM     68  C   UNL A   1      40.028  28.887  28.795  1.00  0.00     0.057 A 
ATOM     69  C   UNL A   1      39.160  29.287  27.771  1.00  0.00     0.134 A 
ATOM     70  C   UNL A   1      39.520  28.868  30.101  1.00  0.00     0.134 A 
ATOM     71  F   UNL A   1      39.581  29.334  26.499  1.00  0.00    -0.206 F 
ATOM     72  C   UNL A   1      37.843  29.669  28.038  1.00  0.00     0.040 A 
ATOM     73  C   UNL A   1      38.196  29.219  30.376  1.00  0.00     0.040 A 
ATOM     74  F   UNL A   1      40.295  28.484  31.127  1.00  0.00    -0.206 F 
ATOM     75  C   UNL A   1      37.358  29.632  29.343  1.00  0.00     0.006 A 
ENDBRANCH  54  68
BRANCH  55  76
ATOM     76  C   UNL A   1      49.439  26.414  26.584  1.00  0.00     0.057 A 
ATOM     77  C   UNL A   1      50.300  25.872  27.547  1.00  0.00     0.134 A 
ATOM     78  C   UNL A   1      49.962  26.634  25.305  1.00  0.00     0.134 A 
ATOM     79  F   UNL A   1      49.863  25.646  28.795  1.00  0.00    -0.206 F 
ATOM     80  C   UNL A   1      51.634  25.584  27.257  1.00  0.00     0.040 A 
ATOM     81  C   UNL A   1      51.286  26.327  24.992  1.00  0.00     0.040 A 
ATOM     82  F   UNL A   1      49.182  27.134  24.335  1.00  0.00    -0.206 F 
ATOM     83  C   UNL A   1      52.130  25.810  25.974  1.00  0.00     0.006 A 
ENDBRANCH  55  76
BRANCH  67  84
ATOM     84  C   UNL A   1      46.362  32.316  28.679  1.00  0.00     0.057 A 
ATOM     85  C   UNL A   1      46.789  32.683  29.963  1.00  0.00     0.134 A 
ATOM     86  C   UNL A   1      46.377  33.305  27.687  1.00  0.00     0.134 A 
ATOM     87  F   UNL A   1      46.789  31.788  30.962  1.00  0.00    -0.206 F 
ATOM     88  C   UNL A   1      47.201  33.984  30.251  1.00  0.00     0.040 A 
ATOM     89  C   UNL A   1      46.814  34.602  27.957  1.00  0.00     0.040 A 
ATOM     90  F   UNL A   1      45.991  33.017  26.435  1.00  0.00    -0.206 F 
ATOM     91  C   UNL A   1      47.218  34.948  29.245  1.00  0.00     0.006 A 
ENDBRANCH  67  84
ENDBRANCH  41  42
ENDBRANCH  33  36
ENDBRANCH  31  32
ENDBRANCH  30  31
ENDBRANCH   1  30
TORSDOF 15
ENDMDL
