MODEL 1
REMARK VINA RESULT:     -10.3      0.000      0.000
REMARK SMILES CC(C)C[C@H](NC(=O)[C@H](Cc1ccccc1)NC(=O)CNC(=O)C[NH3+])C(=O)NCCCCNC(=O)c1ccc(-c2c3nc(c(-c4c(F)cccc4F)c4ccc([nH]4)c(-c4c(F)cccc4F)c4nc(c(-c5c(F)cccc5F)c5ccc2[nH]5)C=C4)C=C3)cc1
REMARK SMILES IDX 26 1 27 2 28 3 5 5 4 6 2 7 1 8 3 9 6 10 7 11 8 13 9 14 17 15
REMARK SMILES IDX 18 16 19 18 20 19 21 20 22 21 23 23 24 24 25 25 10 29 11 30
REMARK SMILES IDX 12 31 16 32 13 33 15 34 14 35 29 36 30 37 31 38 32 39 33 40
REMARK SMILES IDX 34 41 35 43 36 44 37 45 89 46 38 47 88 48 39 49 40 50 41 51
REMARK SMILES IDX 82 52 42 53 87 54 81 55 83 56 43 57 86 58 80 59 79 60 44 62
REMARK SMILES IDX 70 63 53 64 69 65 54 66 57 67 68 68 84 69 55 70 56 71 67 73
REMARK SMILES IDX 85 74 58 75 45 76 46 77 51 78 47 79 48 80 50 81 52 82 49 83
REMARK SMILES IDX 71 84 72 85 77 86 73 87 74 88 76 89 78 90 75 91 59 92 60 93
REMARK SMILES IDX 65 94 61 95 62 96 64 97 66 98 63 99
REMARK H PARENT 28 4 6 12 17 17 21 22 25 26 25 27 25 28 33 42 83 61 57 72
REMARK Flexibility Score: inf
ROOT
ATOM      1  C   UNL A   1      32.089  27.940  27.369  1.00  0.00     0.242 C 
ATOM      2  O   UNL A   1      31.041  27.779  27.999  1.00  0.00    -0.273 OA
ATOM      3  N   UNL A   1      32.986  28.845  27.851  1.00  0.00    -0.354 N 
ATOM      4  H   UNL A   1      32.761  29.240  28.724  1.00  0.00     0.163 HD
ENDROOT
BRANCH   1   5
ATOM      5  C   UNL A   1      32.365  27.160  26.068  1.00  0.00     0.171 C 
BRANCH   5   6
ATOM      6  C   UNL A   1      31.414  27.515  24.940  1.00  0.00     0.038 C 
BRANCH   6   7
ATOM      7  C   UNL A   1      31.590  28.809  24.125  1.00  0.00    -0.015 C 
ATOM      8  C   UNL A   1      31.042  30.064  24.790  1.00  0.00     0.007 C 
ATOM      9  C   UNL A   1      33.092  28.993  23.847  1.00  0.00     0.007 C 
ENDBRANCH   6   7
ENDBRANCH   5   6
BRANCH   5  10
ATOM     10  N   UNL A   1      32.543  25.727  26.419  1.00  0.00    -0.343 N 
ATOM     11  C   UNL A   1      33.304  24.644  26.123  1.00  0.00     0.243 C 
ATOM     12  H   UNL A   1      31.879  25.477  27.102  1.00  0.00     0.164 HD
ATOM     13  O   UNL A   1      33.048  23.662  26.840  1.00  0.00    -0.273 OA
BRANCH  11  14
ATOM     14  C   UNL A   1      34.210  24.442  24.872  1.00  0.00     0.175 C 
BRANCH  14  15
ATOM     15  N   UNL A   1      34.135  25.424  23.795  1.00  0.00    -0.342 N 
ATOM     16  C   UNL A   1      33.325  25.441  22.696  1.00  0.00     0.240 C 
ATOM     17  H   UNL A   1      34.758  26.182  23.871  1.00  0.00     0.164 HD
ATOM     18  O   UNL A   1      33.689  26.066  21.700  1.00  0.00    -0.273 OA
BRANCH  16  19
ATOM     19  C   UNL A   1      32.020  24.657  22.712  1.00  0.00     0.216 C 
BRANCH  19  20
ATOM     20  N   UNL A   1      32.263  23.286  22.330  1.00  0.00    -0.342 N 
ATOM     21  C   UNL A   1      31.955  22.163  23.040  1.00  0.00     0.275 C 
ATOM     22  H   UNL A   1      32.701  23.145  21.460  1.00  0.00     0.164 HD
ATOM     23  O   UNL A   1      32.286  21.064  22.598  1.00  0.00    -0.268 OA
BRANCH  21  24
ATOM     24  C   UNL A   1      31.242  22.305  24.389  1.00  0.00     0.360 C 
BRANCH  24  25
ATOM     25  N   UNL A   1      31.780  21.328  25.354  1.00  0.00    -0.350 N 
ATOM     26  H   UNL A   1      32.786  21.466  25.452  1.00  0.00     0.344 HD
ATOM     27  H   UNL A   1      31.598  20.383  25.017  1.00  0.00     0.344 HD
ATOM     28  H   UNL A   1      31.328  21.460  26.259  1.00  0.00     0.344 HD
ENDBRANCH  24  25
ENDBRANCH  21  24
ENDBRANCH  19  20
ENDBRANCH  16  19
ENDBRANCH  14  15
BRANCH  14  29
ATOM     29  C   UNL A   1      35.707  24.271  25.295  1.00  0.00     0.070 C 
BRANCH  29  30
ATOM     30  C   UNL A   1      36.218  22.855  25.077  1.00  0.00    -0.045 A 
ATOM     31  C   UNL A   1      35.334  21.797  24.840  1.00  0.00     0.004 A 
ATOM     32  C   UNL A   1      37.585  22.572  25.244  1.00  0.00     0.004 A 
ATOM     33  C   UNL A   1      35.801  20.480  24.845  1.00  0.00     0.000 A 
ATOM     34  C   UNL A   1      38.040  21.256  25.294  1.00  0.00     0.000 A 
ATOM     35  C   UNL A   1      37.146  20.208  25.103  1.00  0.00     0.000 A 
ENDBRANCH  29  30
ENDBRANCH  14  29
ENDBRANCH  11  14
ENDBRANCH   5  10
ENDBRANCH   1   5
BRANCH   3  36
ATOM     36  C   UNL A   1      34.224  29.305  27.258  1.00  0.00     0.116 C 
BRANCH  36  37
ATOM     37  C   UNL A   1      34.506  30.761  27.610  1.00  0.00     0.023 C 
BRANCH  37  38
ATOM     38  C   UNL A   1      33.265  31.634  27.788  1.00  0.00     0.023 C 
BRANCH  38  39
ATOM     39  C   UNL A   1      33.335  33.002  27.120  1.00  0.00     0.116 C 
BRANCH  39  40
ATOM     40  N   UNL A   1      32.777  34.068  27.941  1.00  0.00    -0.352 N 
ATOM     41  C   UNL A   1      33.265  34.600  29.111  1.00  0.00     0.251 C 
ATOM     42  H   UNL A   1      31.937  34.461  27.614  1.00  0.00     0.163 HD
ATOM     43  O   UNL A   1      32.602  35.418  29.741  1.00  0.00    -0.269 OA
BRANCH  41  44
ATOM     44  C   UNL A   1      34.576  34.144  29.616  1.00  0.00     0.039 A 
ATOM     45  C   UNL A   1      34.625  33.359  30.771  1.00  0.00     0.014 A 
ATOM     46  C   UNL A   1      35.745  34.438  28.909  1.00  0.00     0.014 A 
ATOM     47  C   UNL A   1      35.839  32.793  31.166  1.00  0.00     0.010 A 
ATOM     48  C   UNL A   1      36.936  33.813  29.262  1.00  0.00     0.010 A 
ATOM     49  C   UNL A   1      36.994  32.977  30.387  1.00  0.00    -0.014 A 
BRANCH  49  50
ATOM     50  C   UNL A   1      38.270  32.295  30.720  1.00  0.00     0.031 A 
ATOM     51  C   UNL A   1      39.242  32.935  31.671  1.00  0.00     0.074 A 
ATOM     52  C   UNL A   1      38.595  31.143  30.099  1.00  0.00     0.049 A 
ATOM     53  N   UNL A   1      40.444  32.547  32.010  1.00  0.00    -0.248 NA
ATOM     54  C   UNL A   1      38.817  34.196  32.298  1.00  0.00     0.031 C 
ATOM     55  C   UNL A   1      37.766  30.447  29.111  1.00  0.00     0.029 A 
ATOM     56  N   UNL A   1      39.720  30.361  30.197  1.00  0.00    -0.354 N 
ATOM     57  C   UNL A   1      40.927  33.525  32.870  1.00  0.00     0.074 A 
ATOM     58  C   UNL A   1      39.908  34.548  32.963  1.00  0.00     0.031 C 
ATOM     59  C   UNL A   1      38.400  29.333  28.713  1.00  0.00     0.029 A 
ATOM     60  C   UNL A   1      39.693  29.252  29.387  1.00  0.00     0.049 A 
ATOM     61  H   UNL A   1      40.475  30.575  30.790  1.00  0.00     0.167 HD
ATOM     62  C   UNL A   1      42.103  33.558  33.541  1.00  0.00     0.037 A 
ATOM     63  C   UNL A   1      40.607  28.281  29.205  1.00  0.00     0.037 A 
ATOM     64  C   UNL A   1      43.100  32.523  33.479  1.00  0.00     0.049 A 
ATOM     65  C   UNL A   1      41.897  28.331  29.976  1.00  0.00     0.074 A 
ATOM     66  C   UNL A   1      44.292  32.431  34.177  1.00  0.00     0.029 A 
ATOM     67  N   UNL A   1      43.020  31.398  32.673  1.00  0.00    -0.354 N 
ATOM     68  N   UNL A   1      42.311  29.227  30.837  1.00  0.00    -0.248 NA
ATOM     69  C   UNL A   1      42.846  27.231  29.750  1.00  0.00     0.031 C 
ATOM     70  C   UNL A   1      44.949  31.265  33.769  1.00  0.00     0.029 A 
ATOM     71  C   UNL A   1      44.148  30.613  32.845  1.00  0.00     0.049 A 
ATOM     72  H   UNL A   1      42.272  31.188  32.069  1.00  0.00     0.167 HD
ATOM     73  C   UNL A   1      43.552  28.788  31.277  1.00  0.00     0.074 A 
ATOM     74  C   UNL A   1      43.820  27.538  30.596  1.00  0.00     0.031 C 
ATOM     75  C   UNL A   1      44.394  29.367  32.167  1.00  0.00     0.037 A 
BRANCH  62  76
ATOM     76  C   UNL A   1      42.367  34.752  34.410  1.00  0.00     0.057 A 
ATOM     77  C   UNL A   1      42.014  34.769  35.766  1.00  0.00     0.134 A 
ATOM     78  C   UNL A   1      43.002  35.888  33.892  1.00  0.00     0.134 A 
ATOM     79  F   UNL A   1      41.391  33.717  36.319  1.00  0.00    -0.206 F 
ATOM     80  C   UNL A   1      42.260  35.883  36.570  1.00  0.00     0.040 A 
ATOM     81  C   UNL A   1      43.276  36.998  34.692  1.00  0.00     0.040 A 
ATOM     82  F   UNL A   1      43.370  35.936  32.603  1.00  0.00    -0.206 F 
ATOM     83  C   UNL A   1      42.899  36.999  36.035  1.00  0.00     0.006 A 
ENDBRANCH  62  76
BRANCH  63  84
ATOM     84  C   UNL A   1      40.326  27.158  28.276  1.00  0.00     0.057 A 
ATOM     85  C   UNL A   1      39.493  26.102  28.658  1.00  0.00     0.134 A 
ATOM     86  C   UNL A   1      40.887  27.108  26.995  1.00  0.00     0.134 A 
ATOM     87  F   UNL A   1      38.942  26.086  29.880  1.00  0.00    -0.206 F 
ATOM     88  C   UNL A   1      39.240  25.025  27.807  1.00  0.00     0.040 A 
ATOM     89  C   UNL A   1      40.626  26.048  26.125  1.00  0.00     0.040 A 
ATOM     90  F   UNL A   1      41.689  28.094  26.568  1.00  0.00    -0.206 F 
ATOM     91  C   UNL A   1      39.804  24.999  26.533  1.00  0.00     0.006 A 
ENDBRANCH  63  84
BRANCH  75  92
ATOM     92  C   UNL A   1      45.667  28.639  32.480  1.00  0.00     0.057 A 
ATOM     93  C   UNL A   1      45.740  27.687  33.504  1.00  0.00     0.134 A 
ATOM     94  C   UNL A   1      46.821  28.864  31.719  1.00  0.00     0.134 A 
ATOM     95  F   UNL A   1      44.672  27.437  34.277  1.00  0.00    -0.206 F 
ATOM     96  C   UNL A   1      46.924  26.998  33.774  1.00  0.00     0.040 A 
ATOM     97  C   UNL A   1      48.003  28.164  31.963  1.00  0.00     0.040 A 
ATOM     98  F   UNL A   1      46.814  29.757  30.718  1.00  0.00    -0.206 F 
ATOM     99  C   UNL A   1      48.057  27.231  32.997  1.00  0.00     0.006 A 
ENDBRANCH  75  92
ENDBRANCH  49  50
ENDBRANCH  41  44
ENDBRANCH  39  40
ENDBRANCH  38  39
ENDBRANCH  37  38
ENDBRANCH  36  37
ENDBRANCH   3  36
TORSDOF 22
ENDMDL
MODEL 2
REMARK VINA RESULT:     -10.2      2.041      6.283
REMARK SMILES CC(C)C[C@H](NC(=O)[C@H](Cc1ccccc1)NC(=O)CNC(=O)C[NH3+])C(=O)NCCCCNC(=O)c1ccc(-c2c3nc(c(-c4c(F)cccc4F)c4ccc([nH]4)c(-c4c(F)cccc4F)c4nc(c(-c5c(F)cccc5F)c5ccc2[nH]5)C=C4)C=C3)cc1
REMARK SMILES IDX 26 1 27 2 28 3 5 5 4 6 2 7 1 8 3 9 6 10 7 11 8 13 9 14 17 15
REMARK SMILES IDX 18 16 19 18 20 19 21 20 22 21 23 23 24 24 25 25 10 29 11 30
REMARK SMILES IDX 12 31 16 32 13 33 15 34 14 35 29 36 30 37 31 38 32 39 33 40
REMARK SMILES IDX 34 41 35 43 36 44 37 45 89 46 38 47 88 48 39 49 40 50 41 51
REMARK SMILES IDX 82 52 42 53 87 54 81 55 83 56 43 57 86 58 80 59 79 60 44 62
REMARK SMILES IDX 70 63 53 64 69 65 54 66 57 67 68 68 84 69 55 70 56 71 67 73
REMARK SMILES IDX 85 74 58 75 45 76 46 77 51 78 47 79 48 80 50 81 52 82 49 83
REMARK SMILES IDX 71 84 72 85 77 86 73 87 74 88 76 89 78 90 75 91 59 92 60 93
REMARK SMILES IDX 65 94 61 95 62 96 64 97 66 98 63 99
REMARK H PARENT 28 4 6 12 17 17 21 22 25 26 25 27 25 28 33 42 83 61 57 72
REMARK Flexibility Score: inf
ROOT
ATOM      1  C   UNL A   1      31.872  27.769  27.189  1.00  0.00     0.242 C 
ATOM      2  O   UNL A   1      31.716  27.410  28.358  1.00  0.00    -0.273 OA
ATOM      3  N   UNL A   1      32.421  28.996  26.970  1.00  0.00    -0.354 N 
ATOM      4  H   UNL A   1      32.732  29.470  27.774  1.00  0.00     0.163 HD
ENDROOT
BRANCH   1   5
ATOM      5  C   UNL A   1      31.444  26.866  26.015  1.00  0.00     0.171 C 
BRANCH   5   6
ATOM      6  C   UNL A   1      30.477  27.541  25.059  1.00  0.00     0.038 C 
BRANCH   6   7
ATOM      7  C   UNL A   1      30.454  27.184  23.562  1.00  0.00    -0.015 C 
ATOM      8  C   UNL A   1      29.929  28.285  22.650  1.00  0.00     0.007 C 
ATOM      9  C   UNL A   1      31.886  26.813  23.141  1.00  0.00     0.007 C 
ENDBRANCH   6   7
ENDBRANCH   5   6
BRANCH   5  10
ATOM     10  N   UNL A   1      31.081  25.535  26.566  1.00  0.00    -0.343 N 
ATOM     11  C   UNL A   1      31.508  24.247  26.610  1.00  0.00     0.243 C 
ATOM     12  H   UNL A   1      30.241  25.613  27.073  1.00  0.00     0.164 HD
ATOM     13  O   UNL A   1      30.807  23.530  27.343  1.00  0.00    -0.273 OA
BRANCH  11  14
ATOM     14  C   UNL A   1      32.552  23.568  25.675  1.00  0.00     0.175 C 
BRANCH  14  15
ATOM     15  N   UNL A   1      32.133  23.176  24.334  1.00  0.00    -0.342 N 
ATOM     16  C   UNL A   1      32.197  21.953  23.732  1.00  0.00     0.240 C 
ATOM     17  H   UNL A   1      31.749  23.897  23.784  1.00  0.00     0.164 HD
ATOM     18  O   UNL A   1      32.225  21.896  22.502  1.00  0.00    -0.273 OA
BRANCH  16  19
ATOM     19  C   UNL A   1      32.274  20.696  24.589  1.00  0.00     0.216 C 
BRANCH  19  20
ATOM     20  N   UNL A   1      33.573  20.083  24.450  1.00  0.00    -0.342 N 
ATOM     21  C   UNL A   1      33.882  18.761  24.578  1.00  0.00     0.275 C 
ATOM     22  H   UNL A   1      34.322  20.687  24.239  1.00  0.00     0.164 HD
ATOM     23  O   UNL A   1      35.056  18.407  24.488  1.00  0.00    -0.268 OA
BRANCH  21  24
ATOM     24  C   UNL A   1      32.762  17.759  24.874  1.00  0.00     0.360 C 
BRANCH  24  25
ATOM     25  N   UNL A   1      33.023  17.064  26.148  1.00  0.00    -0.350 N 
ATOM     26  H   UNL A   1      32.311  17.326  26.830  1.00  0.00     0.344 HD
ATOM     27  H   UNL A   1      33.943  17.332  26.498  1.00  0.00     0.344 HD
ATOM     28  H   UNL A   1      32.997  16.056  25.998  1.00  0.00     0.344 HD
ENDBRANCH  24  25
ENDBRANCH  21  24
ENDBRANCH  19  20
ENDBRANCH  16  19
ENDBRANCH  14  15
BRANCH  14  29
ATOM     29  C   UNL A   1      33.846  24.444  25.563  1.00  0.00     0.070 C 
BRANCH  29  30
ATOM     30  C   UNL A   1      35.060  23.640  25.125  1.00  0.00    -0.045 A 
ATOM     31  C   UNL A   1      35.533  23.704  23.811  1.00  0.00     0.004 A 
ATOM     32  C   UNL A   1      35.641  22.715  26.010  1.00  0.00     0.004 A 
ATOM     33  C   UNL A   1      36.516  22.812  23.375  1.00  0.00     0.000 A 
ATOM     34  C   UNL A   1      36.587  21.796  25.562  1.00  0.00     0.000 A 
ATOM     35  C   UNL A   1      37.019  21.839  24.241  1.00  0.00     0.000 A 
ENDBRANCH  29  30
ENDBRANCH  14  29
ENDBRANCH  11  14
ENDBRANCH   5  10
ENDBRANCH   1   5
BRANCH   3  36
ATOM     36  C   UNL A   1      32.609  29.700  25.719  1.00  0.00     0.116 C 
BRANCH  36  37
ATOM     37  C   UNL A   1      31.771  30.971  25.659  1.00  0.00     0.023 C 
BRANCH  37  38
ATOM     38  C   UNL A   1      31.651  31.726  26.982  1.00  0.00     0.023 C 
BRANCH  38  39
ATOM     39  C   UNL A   1      32.823  32.644  27.313  1.00  0.00     0.116 C 
BRANCH  39  40
ATOM     40  N   UNL A   1      32.417  34.020  27.566  1.00  0.00    -0.352 N 
ATOM     41  C   UNL A   1      32.933  34.919  28.466  1.00  0.00     0.251 C 
ATOM     42  H   UNL A   1      31.671  34.350  27.015  1.00  0.00     0.163 HD
ATOM     43  O   UNL A   1      32.391  36.007  28.634  1.00  0.00    -0.269 OA
BRANCH  41  44
ATOM     44  C   UNL A   1      34.124  34.544  29.256  1.00  0.00     0.039 A 
ATOM     45  C   UNL A   1      33.952  34.021  30.540  1.00  0.00     0.014 A 
ATOM     46  C   UNL A   1      35.401  34.646  28.697  1.00  0.00     0.014 A 
ATOM     47  C   UNL A   1      35.057  33.516  31.230  1.00  0.00     0.010 A 
ATOM     48  C   UNL A   1      36.486  34.076  29.355  1.00  0.00     0.010 A 
ATOM     49  C   UNL A   1      36.324  33.496  30.623  1.00  0.00    -0.014 A 
BRANCH  49  50
ATOM     50  C   UNL A   1      37.492  32.863  31.287  1.00  0.00     0.031 A 
ATOM     51  C   UNL A   1      38.159  31.671  30.661  1.00  0.00     0.074 A 
ATOM     52  C   UNL A   1      37.896  33.305  32.494  1.00  0.00     0.049 A 
ATOM     53  N   UNL A   1      39.124  30.923  31.130  1.00  0.00    -0.248 NA
ATOM     54  C   UNL A   1      37.653  31.245  29.347  1.00  0.00     0.031 C 
ATOM     55  C   UNL A   1      37.295  34.416  33.237  1.00  0.00     0.029 A 
ATOM     56  N   UNL A   1      38.900  32.861  33.318  1.00  0.00    -0.354 N 
ATOM     57  C   UNL A   1      39.324  29.927  30.183  1.00  0.00     0.074 A 
ATOM     58  C   UNL A   1      38.348  30.137  29.136  1.00  0.00     0.031 C 
ATOM     59  C   UNL A   1      37.957  34.580  34.393  1.00  0.00     0.029 A 
ATOM     60  C   UNL A   1      39.004  33.567  34.492  1.00  0.00     0.049 A 
ATOM     61  H   UNL A   1      39.491  32.107  33.090  1.00  0.00     0.167 HD
ATOM     62  C   UNL A   1      40.251  28.939  30.175  1.00  0.00     0.037 A 
ATOM     63  C   UNL A   1      39.844  33.413  35.533  1.00  0.00     0.037 A 
ATOM     64  C   UNL A   1      41.246  28.754  31.196  1.00  0.00     0.049 A 
ATOM     65  C   UNL A   1      40.876  32.320  35.490  1.00  0.00     0.074 A 
ATOM     66  C   UNL A   1      42.273  27.827  31.241  1.00  0.00     0.029 A 
ATOM     67  N   UNL A   1      41.339  29.512  32.353  1.00  0.00    -0.354 N 
ATOM     68  N   UNL A   1      41.096  31.428  34.557  1.00  0.00    -0.248 NA
ATOM     69  C   UNL A   1      41.778  32.217  36.646  1.00  0.00     0.031 C 
ATOM     70  C   UNL A   1      42.969  28.003  32.442  1.00  0.00     0.029 A 
ATOM     71  C   UNL A   1      42.398  29.063  33.126  1.00  0.00     0.049 A 
ATOM     72  H   UNL A   1      40.742  30.257  32.590  1.00  0.00     0.167 HD
ATOM     73  C   UNL A   1      42.178  30.676  34.996  1.00  0.00     0.074 A 
ATOM     74  C   UNL A   1      42.576  31.224  36.276  1.00  0.00     0.031 C 
ATOM     75  C   UNL A   1      42.787  29.627  34.394  1.00  0.00     0.037 A 
BRANCH  62  76
ATOM     76  C   UNL A   1      40.236  27.992  29.012  1.00  0.00     0.057 A 
ATOM     77  C   UNL A   1      39.496  26.802  29.040  1.00  0.00     0.134 A 
ATOM     78  C   UNL A   1      40.950  28.282  27.843  1.00  0.00     0.134 A 
ATOM     79  F   UNL A   1      38.802  26.460  30.136  1.00  0.00    -0.206 F 
ATOM     80  C   UNL A   1      39.487  25.923  27.956  1.00  0.00     0.040 A 
ATOM     81  C   UNL A   1      40.928  27.423  26.743  1.00  0.00     0.040 A 
ATOM     82  F   UNL A   1      41.676  29.406  27.748  1.00  0.00    -0.206 F 
ATOM     83  C   UNL A   1      40.199  26.236  26.801  1.00  0.00     0.006 A 
ENDBRANCH  62  76
BRANCH  63  84
ATOM     84  C   UNL A   1      39.768  34.334  36.694  1.00  0.00     0.057 A 
ATOM     85  C   UNL A   1      39.021  33.999  37.828  1.00  0.00     0.134 A 
ATOM     86  C   UNL A   1      40.427  35.568  36.696  1.00  0.00     0.134 A 
ATOM     87  F   UNL A   1      38.353  32.837  37.876  1.00  0.00    -0.206 F 
ATOM     88  C   UNL A   1      38.917  34.865  38.918  1.00  0.00     0.040 A 
ATOM     89  C   UNL A   1      40.349  36.436  37.787  1.00  0.00     0.040 A 
ATOM     90  F   UNL A   1      41.164  35.944  35.640  1.00  0.00    -0.206 F 
ATOM     91  C   UNL A   1      39.587  36.086  38.900  1.00  0.00     0.006 A 
ENDBRANCH  63  84
BRANCH  75  92
ATOM     92  C   UNL A   1      43.967  29.025  35.094  1.00  0.00     0.057 A 
ATOM     93  C   UNL A   1      45.260  29.537  34.935  1.00  0.00     0.134 A 
ATOM     94  C   UNL A   1      43.800  27.945  35.970  1.00  0.00     0.134 A 
ATOM     95  F   UNL A   1      45.488  30.561  34.099  1.00  0.00    -0.206 F 
ATOM     96  C   UNL A   1      46.351  28.983  35.609  1.00  0.00     0.040 A 
ATOM     97  C   UNL A   1      44.878  27.399  36.668  1.00  0.00     0.040 A 
ATOM     98  F   UNL A   1      42.585  27.413  36.173  1.00  0.00    -0.206 F 
ATOM     99  C   UNL A   1      46.158  27.916  36.484  1.00  0.00     0.006 A 
ENDBRANCH  75  92
ENDBRANCH  49  50
ENDBRANCH  41  44
ENDBRANCH  39  40
ENDBRANCH  38  39
ENDBRANCH  37  38
ENDBRANCH  36  37
ENDBRANCH   3  36
TORSDOF 22
ENDMDL
MODEL 3
REMARK VINA RESULT:     -10.2      3.463      4.963
REMARK SMILES CC(C)C[C@H](NC(=O)[C@H](Cc1ccccc1)NC(=O)CNC(=O)C[NH3+])C(=O)NCCCCNC(=O)c1ccc(-c2c3nc(c(-c4c(F)cccc4F)c4ccc([nH]4)c(-c4c(F)cccc4F)c4nc(c(-c5c(F)cccc5F)c5ccc2[nH]5)C=C4)C=C3)cc1
REMARK SMILES IDX 26 1 27 2 28 3 5 5 4 6 2 7 1 8 3 9 6 10 7 11 8 13 9 14 17 15
REMARK SMILES IDX 18 16 19 18 20 19 21 20 22 21 23 23 24 24 25 25 10 29 11 30
REMARK SMILES IDX 12 31 16 32 13 33 15 34 14 35 29 36 30 37 31 38 32 39 33 40
REMARK SMILES IDX 34 41 35 43 36 44 37 45 89 46 38 47 88 48 39 49 40 50 41 51
REMARK SMILES IDX 82 52 42 53 87 54 81 55 83 56 43 57 86 58 80 59 79 60 44 62
REMARK SMILES IDX 70 63 53 64 69 65 54 66 57 67 68 68 84 69 55 70 56 71 67 73
REMARK SMILES IDX 85 74 58 75 45 76 46 77 51 78 47 79 48 80 50 81 52 82 49 83
REMARK SMILES IDX 71 84 72 85 77 86 73 87 74 88 76 89 78 90 75 91 59 92 60 93
REMARK SMILES IDX 65 94 61 95 62 96 64 97 66 98 63 99
REMARK H PARENT 28 4 6 12 17 17 21 22 25 26 25 27 25 28 33 42 83 61 57 72
REMARK Flexibility Score: inf
ROOT
ATOM      1  C   UNL A   1      31.748  27.443  26.987  1.00  0.00     0.242 C 
ATOM      2  O   UNL A   1      30.735  27.565  27.679  1.00  0.00    -0.273 OA
ATOM      3  N   UNL A   1      32.759  28.336  27.179  1.00  0.00    -0.354 N 
ATOM      4  H   UNL A   1      32.632  28.964  27.927  1.00  0.00     0.163 HD
ENDROOT
BRANCH   1   5
ATOM      5  C   UNL A   1      31.859  26.330  25.926  1.00  0.00     0.171 C 
BRANCH   5   6
ATOM      6  C   UNL A   1      30.947  26.545  24.731  1.00  0.00     0.038 C 
BRANCH   6   7
ATOM      7  C   UNL A   1      30.633  27.959  24.210  1.00  0.00    -0.015 C 
ATOM      8  C   UNL A   1      31.728  28.582  23.355  1.00  0.00     0.007 C 
ATOM      9  C   UNL A   1      29.330  27.887  23.397  1.00  0.00     0.007 C 
ENDBRANCH   6   7
ENDBRANCH   5   6
BRANCH   5  10
ATOM     10  N   UNL A   1      31.814  25.020  26.625  1.00  0.00    -0.343 N 
ATOM     11  C   UNL A   1      32.399  23.796  26.634  1.00  0.00     0.243 C 
ATOM     12  H   UNL A   1      31.118  25.050  27.321  1.00  0.00     0.164 HD
ATOM     13  O   UNL A   1      31.994  23.073  27.560  1.00  0.00    -0.273 OA
BRANCH  11  14
ATOM     14  C   UNL A   1      33.265  23.157  25.508  1.00  0.00     0.175 C 
BRANCH  14  15
ATOM     15  N   UNL A   1      32.646  22.916  24.209  1.00  0.00    -0.342 N 
ATOM     16  C   UNL A   1      32.427  21.733  23.563  1.00  0.00     0.240 C 
ATOM     17  H   UNL A   1      32.344  23.720  23.729  1.00  0.00     0.164 HD
ATOM     18  O   UNL A   1      32.318  21.737  22.336  1.00  0.00    -0.273 OA
BRANCH  16  19
ATOM     19  C   UNL A   1      32.365  20.439  24.364  1.00  0.00     0.216 C 
BRANCH  19  20
ATOM     20  N   UNL A   1      32.330  19.307  23.469  1.00  0.00    -0.342 N 
ATOM     21  C   UNL A   1      32.994  18.124  23.605  1.00  0.00     0.275 C 
ATOM     22  H   UNL A   1      31.763  19.399  22.668  1.00  0.00     0.164 HD
ATOM     23  O   UNL A   1      32.904  17.278  22.716  1.00  0.00    -0.268 OA
BRANCH  21  24
ATOM     24  C   UNL A   1      33.869  17.898  24.843  1.00  0.00     0.360 C 
BRANCH  24  25
ATOM     25  N   UNL A   1      33.023  17.672  26.030  1.00  0.00    -0.350 N 
ATOM     26  H   UNL A   1      32.045  17.827  25.785  1.00  0.00     0.344 HD
ATOM     27  H   UNL A   1      33.295  18.319  26.769  1.00  0.00     0.344 HD
ATOM     28  H   UNL A   1      33.144  16.713  26.356  1.00  0.00     0.344 HD
ENDBRANCH  24  25
ENDBRANCH  21  24
ENDBRANCH  19  20
ENDBRANCH  16  19
ENDBRANCH  14  15
BRANCH  14  29
ATOM     29  C   UNL A   1      34.584  23.973  25.295  1.00  0.00     0.070 C 
BRANCH  29  30
ATOM     30  C   UNL A   1      35.833  23.133  25.517  1.00  0.00    -0.045 A 
ATOM     31  C   UNL A   1      37.026  23.716  25.955  1.00  0.00     0.004 A 
ATOM     32  C   UNL A   1      35.835  21.775  25.153  1.00  0.00     0.004 A 
ATOM     33  C   UNL A   1      38.209  22.972  25.957  1.00  0.00     0.000 A 
ATOM     34  C   UNL A   1      37.023  21.049  25.112  1.00  0.00     0.000 A 
ATOM     35  C   UNL A   1      38.213  21.651  25.507  1.00  0.00     0.000 A 
ENDBRANCH  29  30
ENDBRANCH  14  29
ENDBRANCH  11  14
ENDBRANCH   5  10
ENDBRANCH   1   5
BRANCH   3  36
ATOM     36  C   UNL A   1      33.992  28.490  26.437  1.00  0.00     0.116 C 
BRANCH  36  37
ATOM     37  C   UNL A   1      34.968  29.412  27.158  1.00  0.00     0.023 C 
BRANCH  37  38
ATOM     38  C   UNL A   1      34.352  30.694  27.715  1.00  0.00     0.023 C 
BRANCH  38  39
ATOM     39  C   UNL A   1      35.342  31.665  28.348  1.00  0.00     0.116 C 
BRANCH  39  40
ATOM     40  N   UNL A   1      35.228  31.731  29.799  1.00  0.00    -0.352 N 
ATOM     41  C   UNL A   1      36.042  31.172  30.754  1.00  0.00     0.251 C 
ATOM     42  H   UNL A   1      34.463  32.248  30.142  1.00  0.00     0.163 HD
ATOM     43  O   UNL A   1      35.731  31.226  31.940  1.00  0.00    -0.269 OA
BRANCH  41  44
ATOM     44  C   UNL A   1      37.272  30.472  30.330  1.00  0.00     0.039 A 
ATOM     45  C   UNL A   1      37.756  30.671  29.035  1.00  0.00     0.014 A 
ATOM     46  C   UNL A   1      37.978  29.676  31.236  1.00  0.00     0.014 A 
ATOM     47  C   UNL A   1      38.998  30.143  28.677  1.00  0.00     0.010 A 
ATOM     48  C   UNL A   1      39.247  29.216  30.901  1.00  0.00     0.010 A 
ATOM     49  C   UNL A   1      39.774  29.452  29.622  1.00  0.00    -0.014 A 
BRANCH  49  50
ATOM     50  C   UNL A   1      41.146  28.980  29.304  1.00  0.00     0.031 A 
ATOM     51  C   UNL A   1      42.304  29.935  29.362  1.00  0.00     0.074 A 
ATOM     52  C   UNL A   1      41.335  27.715  28.877  1.00  0.00     0.049 A 
ATOM     53  N   UNL A   1      43.554  29.740  29.028  1.00  0.00    -0.248 NA
ATOM     54  C   UNL A   1      42.012  31.299  29.828  1.00  0.00     0.031 C 
ATOM     55  C   UNL A   1      40.286  26.705  28.720  1.00  0.00     0.029 A 
ATOM     56  N   UNL A   1      42.479  27.068  28.481  1.00  0.00    -0.354 N 
ATOM     57  C   UNL A   1      44.191  30.959  29.220  1.00  0.00     0.074 A 
ATOM     58  C   UNL A   1      43.181  31.900  29.654  1.00  0.00     0.031 C 
ATOM     59  C   UNL A   1      40.838  25.562  28.284  1.00  0.00     0.029 A 
ATOM     60  C   UNL A   1      42.271  25.765  28.096  1.00  0.00     0.049 A 
ATOM     61  H   UNL A   1      43.365  27.496  28.473  1.00  0.00     0.167 HD
ATOM     62  C   UNL A   1      45.502  31.263  29.071  1.00  0.00     0.037 A 
ATOM     63  C   UNL A   1      43.137  24.841  27.640  1.00  0.00     0.037 A 
ATOM     64  C   UNL A   1      46.513  30.319  28.677  1.00  0.00     0.049 A 
ATOM     65  C   UNL A   1      44.591  25.198  27.501  1.00  0.00     0.074 A 
ATOM     66  C   UNL A   1      47.879  30.513  28.568  1.00  0.00     0.029 A 
ATOM     67  N   UNL A   1      46.267  28.999  28.329  1.00  0.00    -0.354 N 
ATOM     68  N   UNL A   1      45.189  26.336  27.752  1.00  0.00    -0.248 NA
ATOM     69  C   UNL A   1      45.490  24.139  27.020  1.00  0.00     0.031 C 
ATOM     70  C   UNL A   1      48.456  29.319  28.123  1.00  0.00     0.029 A 
ATOM     71  C   UNL A   1      47.454  28.372  27.991  1.00  0.00     0.049 A 
ATOM     72  H   UNL A   1      45.380  28.572  28.324  1.00  0.00     0.167 HD
ATOM     73  C   UNL A   1      46.535  26.125  27.487  1.00  0.00     0.074 A 
ATOM     74  C   UNL A   1      46.668  24.746  27.066  1.00  0.00     0.031 C 
ATOM     75  C   UNL A   1      47.570  26.995  27.584  1.00  0.00     0.037 A 
BRANCH  62  76
ATOM     76  C   UNL A   1      45.917  32.677  29.350  1.00  0.00     0.057 A 
ATOM     77  C   UNL A   1      45.942  33.650  28.342  1.00  0.00     0.134 A 
ATOM     78  C   UNL A   1      46.272  33.077  30.644  1.00  0.00     0.134 A 
ATOM     79  F   UNL A   1      45.626  33.328  27.078  1.00  0.00    -0.206 F 
ATOM     80  C   UNL A   1      46.330  34.965  28.606  1.00  0.00     0.040 A 
ATOM     81  C   UNL A   1      46.637  34.395  30.926  1.00  0.00     0.040 A 
ATOM     82  F   UNL A   1      46.265  32.197  31.656  1.00  0.00    -0.206 F 
ATOM     83  C   UNL A   1      46.673  35.341  29.902  1.00  0.00     0.006 A 
ENDBRANCH  62  76
BRANCH  63  84
ATOM     84  C   UNL A   1      42.661  23.475  27.308  1.00  0.00     0.057 A 
ATOM     85  C   UNL A   1      42.435  23.096  25.980  1.00  0.00     0.134 A 
ATOM     86  C   UNL A   1      42.413  22.522  28.303  1.00  0.00     0.134 A 
ATOM     87  F   UNL A   1      42.638  23.973  24.986  1.00  0.00    -0.206 F 
ATOM     88  C   UNL A   1      41.962  21.825  25.653  1.00  0.00     0.040 A 
ATOM     89  C   UNL A   1      41.959  21.240  27.988  1.00  0.00     0.040 A 
ATOM     90  F   UNL A   1      42.616  22.822  29.594  1.00  0.00    -0.206 F 
ATOM     91  C   UNL A   1      41.727  20.891  26.659  1.00  0.00     0.006 A 
ENDBRANCH  63  84
BRANCH  75  92
ATOM     92  C   UNL A   1      48.938  26.473  27.262  1.00  0.00     0.057 A 
ATOM     93  C   UNL A   1      49.727  25.831  28.223  1.00  0.00     0.134 A 
ATOM     94  C   UNL A   1      49.452  26.578  25.963  1.00  0.00     0.134 A 
ATOM     95  F   UNL A   1      49.296  25.711  29.488  1.00  0.00    -0.206 F 
ATOM     96  C   UNL A   1      50.991  25.328  27.908  1.00  0.00     0.040 A 
ATOM     97  C   UNL A   1      50.703  26.058  25.631  1.00  0.00     0.040 A 
ATOM     98  F   UNL A   1      48.741  27.175  24.995  1.00  0.00    -0.206 F 
ATOM     99  C   UNL A   1      51.478  25.434  26.606  1.00  0.00     0.006 A 
ENDBRANCH  75  92
ENDBRANCH  49  50
ENDBRANCH  41  44
ENDBRANCH  39  40
ENDBRANCH  38  39
ENDBRANCH  37  38
ENDBRANCH  36  37
ENDBRANCH   3  36
TORSDOF 22
ENDMDL
