MODEL 1
REMARK VINA RESULT:     -12.4      0.000      0.000
REMARK SMILES O=C(NCCCCNC(=O)[C@@]1(CCc2ccccc2)CCC[N@@H+](Cc2cccnc2)C1)c1ccc(-c2c3nc(c(-c4c(F)cccc4F)c4ccc([nH]4)c(-c4c(F)cccc4F)c4nc(c(-c5c(F)cccc5F)c5ccc2[nH]5)C=C4)C=C3)cc1
REMARK SMILES IDX 6 1 5 2 4 3 3 4 1 5 2 6 32 8 33 9 85 10 34 11 84 12 35 13
REMARK SMILES IDX 36 14 37 15 78 16 38 17 83 18 77 19 79 20 39 21 82 22 76 23
REMARK SMILES IDX 75 24 40 26 66 27 49 28 65 29 50 30 53 31 64 32 80 33 51 34
REMARK SMILES IDX 52 35 63 37 81 38 54 39 41 40 42 41 47 42 43 43 44 44 46 45
REMARK SMILES IDX 48 46 45 47 67 48 68 49 73 50 69 51 70 52 72 53 74 54 71 55
REMARK SMILES IDX 55 56 56 57 61 58 57 59 58 60 60 61 62 62 59 63 7 64 8 65
REMARK SMILES IDX 9 66 10 68 11 69 20 70 31 71 21 72 23 73 22 74 12 76 13 77
REMARK SMILES IDX 14 78 15 79 19 80 16 81 18 82 17 83 24 84 25 85 26 86 30 87
REMARK SMILES IDX 27 88 29 89 28 90
REMARK H PARENT 3 7 79 25 53 36 8 67 23 75
REMARK Flexibility Score: inf
ROOT
ATOM      1  C   UNL A   1      36.963  21.541  24.462  1.00  0.00     0.023 C 
ENDROOT
BRANCH   1   2
ATOM      2  C   UNL A   1      37.685  20.268  24.892  1.00  0.00     0.023 C 
BRANCH   2   3
ATOM      3  C   UNL A   1      38.915  20.490  25.761  1.00  0.00     0.116 C 
BRANCH   3   4
ATOM      4  N   UNL A   1      39.844  19.371  25.752  1.00  0.00    -0.352 N 
ATOM      5  O   UNL A   1      41.870  18.375  25.900  1.00  0.00    -0.269 OA
ATOM      6  C   UNL A   1      41.191  19.387  26.023  1.00  0.00     0.251 C 
ATOM      7  H   UNL A   1      39.462  18.493  25.524  1.00  0.00     0.163 HD
BRANCH   6   8
ATOM      8  C   UNL A   1      41.813  20.663  26.417  1.00  0.00     0.039 A 
ATOM      9  C   UNL A   1      41.973  20.982  27.768  1.00  0.00     0.014 A 
ATOM     10  C   UNL A   1      42.178  21.569  25.420  1.00  0.00     0.014 A 
ATOM     11  C   UNL A   1      42.372  22.262  28.126  1.00  0.00     0.010 A 
ATOM     12  C   UNL A   1      42.645  22.831  25.781  1.00  0.00     0.010 A 
ATOM     13  C   UNL A   1      42.712  23.196  27.136  1.00  0.00    -0.014 A 
BRANCH  13  14
ATOM     14  C   UNL A   1      43.175  24.548  27.525  1.00  0.00     0.031 A 
ATOM     15  C   UNL A   1      42.195  25.596  27.964  1.00  0.00     0.074 A 
ATOM     16  C   UNL A   1      44.490  24.822  27.465  1.00  0.00     0.049 A 
ATOM     17  N   UNL A   1      42.410  26.852  28.260  1.00  0.00    -0.248 NA
ATOM     18  C   UNL A   1      40.788  25.182  28.080  1.00  0.00     0.031 C 
ATOM     19  C   UNL A   1      45.529  23.876  27.056  1.00  0.00     0.029 A 
ATOM     20  N   UNL A   1      45.175  25.975  27.742  1.00  0.00    -0.354 N 
ATOM     21  C   UNL A   1      41.167  27.387  28.569  1.00  0.00     0.074 A 
ATOM     22  C   UNL A   1      40.198  26.323  28.412  1.00  0.00     0.031 C 
ATOM     23  C   UNL A   1      46.723  24.482  27.126  1.00  0.00     0.029 A 
ATOM     24  C   UNL A   1      46.525  25.871  27.521  1.00  0.00     0.049 A 
ATOM     25  H   UNL A   1      44.742  26.798  28.067  1.00  0.00     0.167 HD
ATOM     26  C   UNL A   1      40.866  28.653  28.947  1.00  0.00     0.037 A 
ATOM     27  C   UNL A   1      47.494  26.800  27.597  1.00  0.00     0.037 A 
ATOM     28  C   UNL A   1      41.841  29.699  29.116  1.00  0.00     0.049 A 
ATOM     29  C   UNL A   1      47.134  28.199  27.995  1.00  0.00     0.074 A 
ATOM     30  C   UNL A   1      41.645  31.006  29.527  1.00  0.00     0.029 A 
ATOM     31  N   UNL A   1      43.201  29.556  28.877  1.00  0.00    -0.354 N 
ATOM     32  N   UNL A   1      45.956  28.692  28.296  1.00  0.00    -0.248 NA
ATOM     33  C   UNL A   1      48.231  29.173  28.060  1.00  0.00     0.031 C 
ATOM     34  C   UNL A   1      42.879  31.663  29.502  1.00  0.00     0.029 A 
ATOM     35  C   UNL A   1      43.852  30.756  29.115  1.00  0.00     0.049 A 
ATOM     36  H   UNL A   1      43.638  28.725  28.583  1.00  0.00     0.167 HD
ATOM     37  C   UNL A   1      46.171  30.027  28.602  1.00  0.00     0.074 A 
ATOM     38  C   UNL A   1      47.593  30.265  28.461  1.00  0.00     0.031 C 
ATOM     39  C   UNL A   1      45.271  30.970  28.971  1.00  0.00     0.037 A 
BRANCH  26  40
ATOM     40  C   UNL A   1      39.420  28.982  29.179  1.00  0.00     0.057 A 
ATOM     41  C   UNL A   1      38.591  29.452  28.153  1.00  0.00     0.134 A 
ATOM     42  C   UNL A   1      38.843  28.800  30.442  1.00  0.00     0.134 A 
ATOM     43  F   UNL A   1      39.083  29.662  26.923  1.00  0.00    -0.206 F 
ATOM     44  C   UNL A   1      37.246  29.752  28.381  1.00  0.00     0.040 A 
ATOM     45  C   UNL A   1      37.495  29.074  30.678  1.00  0.00     0.040 A 
ATOM     46  F   UNL A   1      39.580  28.347  31.469  1.00  0.00    -0.206 F 
ATOM     47  C   UNL A   1      36.693  29.558  29.645  1.00  0.00     0.006 A 
ENDBRANCH  26  40
BRANCH  27  48
ATOM     48  C   UNL A   1      48.889  26.419  27.275  1.00  0.00     0.057 A 
ATOM     49  C   UNL A   1      49.772  25.998  28.275  1.00  0.00     0.134 A 
ATOM     50  C   UNL A   1      49.354  26.412  25.954  1.00  0.00     0.134 A 
ATOM     51  F   UNL A   1      49.384  25.994  29.559  1.00  0.00    -0.206 F 
ATOM     52  C   UNL A   1      51.069  25.582  27.973  1.00  0.00     0.040 A 
ATOM     53  C   UNL A   1      50.640  25.977  25.635  1.00  0.00     0.040 A 
ATOM     54  F   UNL A   1      48.548  26.793  24.952  1.00  0.00    -0.206 F 
ATOM     55  C   UNL A   1      51.502  25.562  26.649  1.00  0.00     0.006 A 
ENDBRANCH  27  48
BRANCH  39  56
ATOM     56  C   UNL A   1      45.804  32.336  29.278  1.00  0.00     0.057 A 
ATOM     57  C   UNL A   1      45.871  33.337  28.302  1.00  0.00     0.134 A 
ATOM     58  C   UNL A   1      46.217  32.662  30.576  1.00  0.00     0.134 A 
ATOM     59  F   UNL A   1      45.504  33.081  27.038  1.00  0.00    -0.206 F 
ATOM     60  C   UNL A   1      46.347  34.614  28.604  1.00  0.00     0.040 A 
ATOM     61  C   UNL A   1      46.674  33.941  30.894  1.00  0.00     0.040 A 
ATOM     62  F   UNL A   1      46.171  31.747  31.555  1.00  0.00    -0.206 F 
ATOM     63  C   UNL A   1      46.743  34.920  29.905  1.00  0.00     0.006 A 
ENDBRANCH  39  56
ENDBRANCH  13  14
ENDBRANCH   6   8
ENDBRANCH   3   4
ENDBRANCH   2   3
ENDBRANCH   1   2
BRANCH   1  64
ATOM     64  C   UNL A   1      36.626  22.513  25.599  1.00  0.00     0.116 C 
BRANCH  64  65
ATOM     65  N   UNL A   1      35.677  21.923  26.514  1.00  0.00    -0.355 N 
ATOM     66  C   UNL A   1      34.338  22.051  26.681  1.00  0.00     0.231 C 
ATOM     67  H   UNL A   1      36.089  21.296  27.151  1.00  0.00     0.163 HD
ATOM     68  O   UNL A   1      33.914  21.408  27.653  1.00  0.00    -0.274 OA
BRANCH  66  69
ATOM     69  C   UNL A   1      33.345  22.793  25.713  1.00  0.00     0.098 C 
ATOM     70  C   UNL A   1      31.867  22.844  26.184  1.00  0.00     0.028 C 
ATOM     71  C   UNL A   1      33.921  24.226  25.590  1.00  0.00     0.279 C 
ATOM     72  C   UNL A   1      31.015  23.985  25.625  1.00  0.00     0.063 C 
ATOM     73  N   UNL A   1      33.014  25.156  24.915  1.00  0.00    -0.330 N 
ATOM     74  C   UNL A   1      31.754  25.319  25.620  1.00  0.00     0.262 C 
ATOM     75  H   UNL A   1      32.769  24.704  24.034  1.00  0.00     0.348 HD
BRANCH  69  76
ATOM     76  C   UNL A   1      33.428  21.961  24.372  1.00  0.00     0.027 C 
BRANCH  76  77
ATOM     77  C   UNL A   1      32.442  20.830  24.047  1.00  0.00     0.037 C 
BRANCH  77  78
ATOM     78  C   UNL A   1      33.016  19.444  23.873  1.00  0.00    -0.048 A 
ATOM     79  C   UNL A   1      34.133  19.056  24.628  1.00  0.00     0.004 A 
ATOM     80  C   UNL A   1      32.501  18.542  22.932  1.00  0.00     0.004 A 
ATOM     81  C   UNL A   1      34.680  17.780  24.491  1.00  0.00     0.000 A 
ATOM     82  C   UNL A   1      33.048  17.265  22.794  1.00  0.00     0.000 A 
ATOM     83  C   UNL A   1      34.132  16.881  23.579  1.00  0.00     0.000 A 
ENDBRANCH  77  78
ENDBRANCH  76  77
ENDBRANCH  69  76
BRANCH  73  84
ATOM     84  C   UNL A   1      33.639  26.404  24.469  1.00  0.00     0.300 C 
BRANCH  84  85
ATOM     85  C   UNL A   1      33.374  27.648  25.271  1.00  0.00     0.025 A 
ATOM     86  C   UNL A   1      34.031  27.897  26.480  1.00  0.00     0.013 A 
ATOM     87  C   UNL A   1      32.516  28.637  24.798  1.00  0.00     0.120 A 
ATOM     88  C   UNL A   1      33.817  29.098  27.149  1.00  0.00     0.021 A 
ATOM     89  N   UNL A   1      32.287  29.813  25.426  1.00  0.00    -0.264 NA
ATOM     90  C   UNL A   1      32.950  30.018  26.585  1.00  0.00     0.111 A 
ENDBRANCH  84  85
ENDBRANCH  73  84
ENDBRANCH  66  69
ENDBRANCH  64  65
ENDBRANCH   1  64
TORSDOF 16
ENDMDL
MODEL 2
REMARK VINA RESULT:     -12.4      2.421      6.955
REMARK SMILES O=C(NCCCCNC(=O)[C@@]1(CCc2ccccc2)CCC[N@@H+](Cc2cccnc2)C1)c1ccc(-c2c3nc(c(-c4c(F)cccc4F)c4ccc([nH]4)c(-c4c(F)cccc4F)c4nc(c(-c5c(F)cccc5F)c5ccc2[nH]5)C=C4)C=C3)cc1
REMARK SMILES IDX 6 1 5 2 4 3 3 4 1 5 2 6 32 8 33 9 85 10 34 11 84 12 35 13
REMARK SMILES IDX 36 14 37 15 78 16 38 17 83 18 77 19 79 20 39 21 82 22 76 23
REMARK SMILES IDX 75 24 40 26 66 27 49 28 65 29 50 30 53 31 64 32 80 33 51 34
REMARK SMILES IDX 52 35 63 37 81 38 54 39 41 40 42 41 47 42 43 43 44 44 46 45
REMARK SMILES IDX 48 46 45 47 67 48 68 49 73 50 69 51 70 52 72 53 74 54 71 55
REMARK SMILES IDX 55 56 56 57 61 58 57 59 58 60 60 61 62 62 59 63 7 64 8 65
REMARK SMILES IDX 9 66 10 68 11 69 20 70 31 71 21 72 23 73 22 74 12 76 13 77
REMARK SMILES IDX 14 78 15 79 19 80 16 81 18 82 17 83 24 84 25 85 26 86 30 87
REMARK SMILES IDX 27 88 29 89 28 90
REMARK H PARENT 3 7 79 25 53 36 8 67 23 75
REMARK Flexibility Score: inf
ROOT
ATOM      1  C   UNL A   1      31.527  27.505  26.557  1.00  0.00     0.023 C 
ENDROOT
BRANCH   1   2
ATOM      2  C   UNL A   1      32.869  27.952  25.984  1.00  0.00     0.023 C 
BRANCH   2   3
ATOM      3  C   UNL A   1      33.908  28.351  27.021  1.00  0.00     0.116 C 
BRANCH   3   4
ATOM      4  N   UNL A   1      33.740  29.706  27.524  1.00  0.00    -0.352 N 
ATOM      5  O   UNL A   1      34.358  31.591  28.611  1.00  0.00    -0.269 OA
ATOM      6  C   UNL A   1      34.664  30.490  28.171  1.00  0.00     0.251 C 
ATOM      7  H   UNL A   1      32.854  30.112  27.383  1.00  0.00     0.163 HD
BRANCH   6   8
ATOM      8  C   UNL A   1      36.023  29.956  28.369  1.00  0.00     0.039 A 
ATOM      9  C   UNL A   1      36.380  29.373  29.588  1.00  0.00     0.014 A 
ATOM     10  C   UNL A   1      36.958  30.102  27.343  1.00  0.00     0.014 A 
ATOM     11  C   UNL A   1      37.711  29.059  29.831  1.00  0.00     0.010 A 
ATOM     12  C   UNL A   1      38.279  29.720  27.565  1.00  0.00     0.010 A 
ATOM     13  C   UNL A   1      38.670  29.229  28.821  1.00  0.00    -0.014 A 
BRANCH  13  14
ATOM     14  C   UNL A   1      40.080  28.854  29.074  1.00  0.00     0.031 A 
ATOM     15  C   UNL A   1      41.029  29.828  29.708  1.00  0.00     0.074 A 
ATOM     16  C   UNL A   1      40.497  27.629  28.711  1.00  0.00     0.049 A 
ATOM     17  N   UNL A   1      42.313  29.702  29.928  1.00  0.00    -0.248 NA
ATOM     18  C   UNL A   1      40.465  31.114  30.148  1.00  0.00     0.031 C 
ATOM     19  C   UNL A   1      39.657  26.602  28.092  1.00  0.00     0.029 A 
ATOM     20  N   UNL A   1      41.731  27.041  28.808  1.00  0.00    -0.354 N 
ATOM     21  C   UNL A   1      42.718  30.899  30.504  1.00  0.00     0.074 A 
ATOM     22  C   UNL A   1      41.546  31.745  30.588  1.00  0.00     0.031 C 
ATOM     23  C   UNL A   1      40.396  25.504  27.878  1.00  0.00     0.029 A 
ATOM     24  C   UNL A   1      41.769  25.772  28.286  1.00  0.00     0.049 A 
ATOM     25  H   UNL A   1      42.512  27.484  29.209  1.00  0.00     0.167 HD
ATOM     26  C   UNL A   1      43.956  31.256  30.921  1.00  0.00     0.037 A 
ATOM     27  C   UNL A   1      42.804  24.928  28.125  1.00  0.00     0.037 A 
ATOM     28  C   UNL A   1      45.112  30.399  30.847  1.00  0.00     0.049 A 
ATOM     29  C   UNL A   1      44.169  25.354  28.573  1.00  0.00     0.074 A 
ATOM     30  C   UNL A   1      46.404  30.652  31.272  1.00  0.00     0.029 A 
ATOM     31  N   UNL A   1      45.112  29.121  30.307  1.00  0.00    -0.354 N 
ATOM     32  N   UNL A   1      44.539  26.483  29.126  1.00  0.00    -0.248 NA
ATOM     33  C   UNL A   1      45.261  24.394  28.371  1.00  0.00     0.031 C 
ATOM     34  C   UNL A   1      47.194  29.542  30.956  1.00  0.00     0.029 A 
ATOM     35  C   UNL A   1      46.387  28.580  30.371  1.00  0.00     0.049 A 
ATOM     36  H   UNL A   1      44.324  28.665  29.934  1.00  0.00     0.167 HD
ATOM     37  C   UNL A   1      45.901  26.365  29.356  1.00  0.00     0.074 A 
ATOM     38  C   UNL A   1      46.291  25.050  28.890  1.00  0.00     0.031 C 
ATOM     39  C   UNL A   1      46.752  27.266  29.905  1.00  0.00     0.037 A 
BRANCH  26  40
ATOM     40  C   UNL A   1      44.130  32.642  31.471  1.00  0.00     0.057 A 
ATOM     41  C   UNL A   1      43.998  32.922  32.836  1.00  0.00     0.134 A 
ATOM     42  C   UNL A   1      44.461  33.706  30.622  1.00  0.00     0.134 A 
ATOM     43  F   UNL A   1      43.669  31.951  33.701  1.00  0.00    -0.206 F 
ATOM     44  C   UNL A   1      44.165  34.216  33.335  1.00  0.00     0.040 A 
ATOM     45  C   UNL A   1      44.653  35.000  31.111  1.00  0.00     0.040 A 
ATOM     46  F   UNL A   1      44.608  33.506  29.304  1.00  0.00    -0.206 F 
ATOM     47  C   UNL A   1      44.499  35.258  32.472  1.00  0.00     0.006 A 
ENDBRANCH  26  40
BRANCH  27  48
ATOM     48  C   UNL A   1      42.568  23.606  27.500  1.00  0.00     0.057 A 
ATOM     49  C   UNL A   1      42.222  22.493  28.273  1.00  0.00     0.134 A 
ATOM     50  C   UNL A   1      42.627  23.438  26.111  1.00  0.00     0.134 A 
ATOM     51  F   UNL A   1      42.161  22.592  29.609  1.00  0.00    -0.206 F 
ATOM     52  C   UNL A   1      41.942  21.258  27.687  1.00  0.00     0.040 A 
ATOM     53  C   UNL A   1      42.328  22.216  25.510  1.00  0.00     0.040 A 
ATOM     54  F   UNL A   1      42.941  24.473  25.317  1.00  0.00    -0.206 F 
ATOM     55  C   UNL A   1      41.986  21.120  26.300  1.00  0.00     0.006 A 
ENDBRANCH  27  48
BRANCH  39  56
ATOM     56  C   UNL A   1      48.181  26.843  30.061  1.00  0.00     0.057 A 
ATOM     57  C   UNL A   1      48.617  26.119  31.177  1.00  0.00     0.134 A 
ATOM     58  C   UNL A   1      49.120  27.132  29.063  1.00  0.00     0.134 A 
ATOM     59  F   UNL A   1      47.768  25.825  32.172  1.00  0.00    -0.206 F 
ATOM     60  C   UNL A   1      49.945  25.709  31.301  1.00  0.00     0.040 A 
ATOM     61  C   UNL A   1      50.445  26.708  29.167  1.00  0.00     0.040 A 
ATOM     62  F   UNL A   1      48.761  27.818  27.968  1.00  0.00    -0.206 F 
ATOM     63  C   UNL A   1      50.861  25.998  30.290  1.00  0.00     0.006 A 
ENDBRANCH  39  56
ENDBRANCH  13  14
ENDBRANCH   6   8
ENDBRANCH   3   4
ENDBRANCH   2   3
ENDBRANCH   1   2
BRANCH   1  64
ATOM     64  C   UNL A   1      30.774  26.466  25.717  1.00  0.00     0.116 C 
BRANCH  64  65
ATOM     65  N   UNL A   1      30.499  25.281  26.494  1.00  0.00    -0.355 N 
ATOM     66  C   UNL A   1      30.830  23.974  26.352  1.00  0.00     0.231 C 
ATOM     67  H   UNL A   1      29.955  25.458  27.295  1.00  0.00     0.163 HD
ATOM     68  O   UNL A   1      30.317  23.254  27.223  1.00  0.00    -0.274 OA
BRANCH  66  69
ATOM     69  C   UNL A   1      31.855  23.380  25.319  1.00  0.00     0.098 C 
ATOM     70  C   UNL A   1      31.421  23.452  23.831  1.00  0.00     0.028 C 
ATOM     71  C   UNL A   1      33.151  24.198  25.543  1.00  0.00     0.279 C 
ATOM     72  C   UNL A   1      32.545  23.439  22.793  1.00  0.00     0.063 C 
ATOM     73  N   UNL A   1      34.167  23.962  24.516  1.00  0.00    -0.330 N 
ATOM     74  C   UNL A   1      33.715  24.334  23.186  1.00  0.00     0.262 C 
ATOM     75  H   UNL A   1      34.288  22.950  24.481  1.00  0.00     0.348 HD
BRANCH  69  76
ATOM     76  C   UNL A   1      31.986  21.862  25.742  1.00  0.00     0.027 C 
BRANCH  76  77
ATOM     77  C   UNL A   1      33.299  21.081  25.596  1.00  0.00     0.037 C 
BRANCH  77  78
ATOM     78  C   UNL A   1      33.280  19.859  24.709  1.00  0.00    -0.048 A 
ATOM     79  C   UNL A   1      34.311  18.913  24.811  1.00  0.00     0.004 A 
ATOM     80  C   UNL A   1      32.288  19.663  23.738  1.00  0.00     0.004 A 
ATOM     81  C   UNL A   1      34.316  17.772  24.006  1.00  0.00     0.000 A 
ATOM     82  C   UNL A   1      32.292  18.522  22.934  1.00  0.00     0.000 A 
ATOM     83  C   UNL A   1      33.301  17.573  23.074  1.00  0.00     0.000 A 
ENDBRANCH  77  78
ENDBRANCH  76  77
ENDBRANCH  69  76
BRANCH  73  84
ATOM     84  C   UNL A   1      35.510  24.431  24.865  1.00  0.00     0.300 C 
BRANCH  84  85
ATOM     85  C   UNL A   1      36.586  23.399  25.060  1.00  0.00     0.025 A 
ATOM     86  C   UNL A   1      37.658  23.611  25.933  1.00  0.00     0.013 A 
ATOM     87  C   UNL A   1      36.512  22.159  24.433  1.00  0.00     0.120 A 
ATOM     88  C   UNL A   1      38.587  22.597  26.146  1.00  0.00     0.021 A 
ATOM     89  N   UNL A   1      37.401  21.156  24.618  1.00  0.00    -0.264 NA
ATOM     90  C   UNL A   1      38.415  21.398  25.477  1.00  0.00     0.111 A 
ENDBRANCH  84  85
ENDBRANCH  73  84
ENDBRANCH  66  69
ENDBRANCH  64  65
ENDBRANCH   1  64
TORSDOF 16
ENDMDL
MODEL 3
REMARK VINA RESULT:     -12.4      0.793      1.934
REMARK SMILES O=C(NCCCCNC(=O)[C@@]1(CCc2ccccc2)CCC[N@@H+](Cc2cccnc2)C1)c1ccc(-c2c3nc(c(-c4c(F)cccc4F)c4ccc([nH]4)c(-c4c(F)cccc4F)c4nc(c(-c5c(F)cccc5F)c5ccc2[nH]5)C=C4)C=C3)cc1
REMARK SMILES IDX 6 1 5 2 4 3 3 4 1 5 2 6 32 8 33 9 85 10 34 11 84 12 35 13
REMARK SMILES IDX 36 14 37 15 78 16 38 17 83 18 77 19 79 20 39 21 82 22 76 23
REMARK SMILES IDX 75 24 40 26 66 27 49 28 65 29 50 30 53 31 64 32 80 33 51 34
REMARK SMILES IDX 52 35 63 37 81 38 54 39 41 40 42 41 47 42 43 43 44 44 46 45
REMARK SMILES IDX 48 46 45 47 67 48 68 49 73 50 69 51 70 52 72 53 74 54 71 55
REMARK SMILES IDX 55 56 56 57 61 58 57 59 58 60 60 61 62 62 59 63 7 64 8 65
REMARK SMILES IDX 9 66 10 68 11 69 20 70 31 71 21 72 23 73 22 74 12 76 13 77
REMARK SMILES IDX 14 78 15 79 19 80 16 81 18 82 17 83 24 84 25 85 26 86 30 87
REMARK SMILES IDX 27 88 29 89 28 90
REMARK H PARENT 3 7 79 25 53 36 8 67 23 75
REMARK Flexibility Score: inf
ROOT
ATOM      1  C   UNL A   1      37.028  21.457  24.280  1.00  0.00     0.023 C 
ENDROOT
BRANCH   1   2
ATOM      2  C   UNL A   1      37.602  20.241  25.001  1.00  0.00     0.023 C 
BRANCH   2   3
ATOM      3  C   UNL A   1      38.901  20.494  25.752  1.00  0.00     0.116 C 
BRANCH   3   4
ATOM      4  N   UNL A   1      39.815  19.362  25.734  1.00  0.00    -0.352 N 
ATOM      5  O   UNL A   1      41.829  18.339  25.861  1.00  0.00    -0.269 OA
ATOM      6  C   UNL A   1      41.165  19.360  25.990  1.00  0.00     0.251 C 
ATOM      7  H   UNL A   1      39.418  18.490  25.510  1.00  0.00     0.163 HD
BRANCH   6   8
ATOM      8  C   UNL A   1      41.809  20.627  26.379  1.00  0.00     0.039 A 
ATOM      9  C   UNL A   1      41.941  20.966  27.728  1.00  0.00     0.014 A 
ATOM     10  C   UNL A   1      42.221  21.506  25.375  1.00  0.00     0.014 A 
ATOM     11  C   UNL A   1      42.363  22.242  28.074  1.00  0.00     0.010 A 
ATOM     12  C   UNL A   1      42.711  22.761  25.727  1.00  0.00     0.010 A 
ATOM     13  C   UNL A   1      42.752  23.149  27.077  1.00  0.00    -0.014 A 
BRANCH  13  14
ATOM     14  C   UNL A   1      43.238  24.496  27.454  1.00  0.00     0.031 A 
ATOM     15  C   UNL A   1      42.281  25.554  27.919  1.00  0.00     0.074 A 
ATOM     16  C   UNL A   1      44.554  24.757  27.360  1.00  0.00     0.049 A 
ATOM     17  N   UNL A   1      42.517  26.808  28.210  1.00  0.00    -0.248 NA
ATOM     18  C   UNL A   1      40.873  25.154  28.071  1.00  0.00     0.031 C 
ATOM     19  C   UNL A   1      45.573  23.801  26.924  1.00  0.00     0.029 A 
ATOM     20  N   UNL A   1      45.258  25.903  27.620  1.00  0.00    -0.354 N 
ATOM     21  C   UNL A   1      41.288  27.355  28.552  1.00  0.00     0.074 A 
ATOM     22  C   UNL A   1      40.304  26.301  28.419  1.00  0.00     0.031 C 
ATOM     23  C   UNL A   1      46.775  24.394  26.962  1.00  0.00     0.029 A 
ATOM     24  C   UNL A   1      46.601  25.785  27.363  1.00  0.00     0.049 A 
ATOM     25  H   UNL A   1      44.842  26.730  27.956  1.00  0.00     0.167 HD
ATOM     26  C   UNL A   1      41.009  28.623  28.938  1.00  0.00     0.037 A 
ATOM     27  C   UNL A   1      47.581  26.705  27.415  1.00  0.00     0.037 A 
ATOM     28  C   UNL A   1      41.999  29.660  29.082  1.00  0.00     0.049 A 
ATOM     29  C   UNL A   1      47.245  28.107  27.822  1.00  0.00     0.074 A 
ATOM     30  C   UNL A   1      41.827  30.968  29.499  1.00  0.00     0.029 A 
ATOM     31  N   UNL A   1      43.350  29.503  28.807  1.00  0.00    -0.354 N 
ATOM     32  N   UNL A   1      46.081  28.611  28.154  1.00  0.00    -0.248 NA
ATOM     33  C   UNL A   1      48.353  29.069  27.859  1.00  0.00     0.031 C 
ATOM     34  C   UNL A   1      43.067  31.613  29.442  1.00  0.00     0.029 A 
ATOM     35  C   UNL A   1      44.020  30.696  29.029  1.00  0.00     0.049 A 
ATOM     36  H   UNL A   1      43.771  28.668  28.502  1.00  0.00     0.167 HD
ATOM     37  C   UNL A   1      46.317  29.944  28.456  1.00  0.00     0.074 A 
ATOM     38  C   UNL A   1      47.738  30.168  28.277  1.00  0.00     0.031 C 
ATOM     39  C   UNL A   1      45.436  30.896  28.848  1.00  0.00     0.037 A 
BRANCH  26  40
ATOM     40  C   UNL A   1      39.573  28.967  29.207  1.00  0.00     0.057 A 
ATOM     41  C   UNL A   1      39.008  28.853  30.483  1.00  0.00     0.134 A 
ATOM     42  C   UNL A   1      38.752  29.443  28.178  1.00  0.00     0.134 A 
ATOM     43  F   UNL A   1      39.736  28.390  31.511  1.00  0.00    -0.206 F 
ATOM     44  C   UNL A   1      37.671  29.178  30.721  1.00  0.00     0.040 A 
ATOM     45  C   UNL A   1      37.420  29.794  28.407  1.00  0.00     0.040 A 
ATOM     46  F   UNL A   1      39.231  29.581  26.932  1.00  0.00    -0.206 F 
ATOM     47  C   UNL A   1      36.874  29.656  29.682  1.00  0.00     0.006 A 
ENDBRANCH  26  40
BRANCH  27  48
ATOM     48  C   UNL A   1      48.963  26.309  27.056  1.00  0.00     0.057 A 
ATOM     49  C   UNL A   1      49.426  26.414  25.741  1.00  0.00     0.134 A 
ATOM     50  C   UNL A   1      49.869  25.873  28.031  1.00  0.00     0.134 A 
ATOM     51  F   UNL A   1      48.599  26.816  24.764  1.00  0.00    -0.206 F 
ATOM     52  C   UNL A   1      50.743  26.098  25.406  1.00  0.00     0.040 A 
ATOM     53  C   UNL A   1      51.194  25.577  27.715  1.00  0.00     0.040 A 
ATOM     54  F   UNL A   1      49.485  25.766  29.312  1.00  0.00    -0.206 F 
ATOM     55  C   UNL A   1      51.634  25.687  26.397  1.00  0.00     0.006 A 
ENDBRANCH  27  48
BRANCH  39  56
ATOM     56  C   UNL A   1      45.991  32.256  29.142  1.00  0.00     0.057 A 
ATOM     57  C   UNL A   1      46.481  32.594  30.408  1.00  0.00     0.134 A 
ATOM     58  C   UNL A   1      46.071  33.224  28.132  1.00  0.00     0.134 A 
ATOM     59  F   UNL A   1      46.419  31.715  31.419  1.00  0.00    -0.206 F 
ATOM     60  C   UNL A   1      47.019  33.856  30.665  1.00  0.00     0.040 A 
ATOM     61  C   UNL A   1      46.626  34.481  28.372  1.00  0.00     0.040 A 
ATOM     62  F   UNL A   1      45.623  32.957  26.897  1.00  0.00    -0.206 F 
ATOM     63  C   UNL A   1      47.098  34.801  29.643  1.00  0.00     0.006 A 
ENDBRANCH  39  56
ENDBRANCH  13  14
ENDBRANCH   6   8
ENDBRANCH   3   4
ENDBRANCH   2   3
ENDBRANCH   1   2
BRANCH   1  64
ATOM     64  C   UNL A   1      36.484  22.560  25.197  1.00  0.00     0.116 C 
BRANCH  64  65
ATOM     65  N   UNL A   1      35.747  21.990  26.301  1.00  0.00    -0.355 N 
ATOM     66  C   UNL A   1      34.458  22.082  26.708  1.00  0.00     0.231 C 
ATOM     67  H   UNL A   1      36.297  21.416  26.881  1.00  0.00     0.163 HD
ATOM     68  O   UNL A   1      34.250  21.481  27.773  1.00  0.00    -0.274 OA
BRANCH  66  69
ATOM     69  C   UNL A   1      33.272  22.732  25.907  1.00  0.00     0.098 C 
ATOM     70  C   UNL A   1      31.873  22.606  26.567  1.00  0.00     0.028 C 
ATOM     71  C   UNL A   1      33.669  24.223  25.766  1.00  0.00     0.279 C 
ATOM     72  C   UNL A   1      30.836  23.659  26.168  1.00  0.00     0.063 C 
ATOM     73  N   UNL A   1      32.586  25.062  25.252  1.00  0.00    -0.330 N 
ATOM     74  C   UNL A   1      31.421  25.067  26.119  1.00  0.00     0.262 C 
ATOM     75  H   UNL A   1      32.276  24.608  24.392  1.00  0.00     0.348 HD
BRANCH  69  76
ATOM     76  C   UNL A   1      33.264  21.948  24.535  1.00  0.00     0.027 C 
BRANCH  76  77
ATOM     77  C   UNL A   1      32.318  20.769  24.270  1.00  0.00     0.037 C 
BRANCH  77  78
ATOM     78  C   UNL A   1      32.951  19.431  23.968  1.00  0.00    -0.048 A 
ATOM     79  C   UNL A   1      32.340  18.568  23.047  1.00  0.00     0.004 A 
ATOM     80  C   UNL A   1      34.109  18.993  24.626  1.00  0.00     0.004 A 
ATOM     81  C   UNL A   1      32.906  17.328  22.746  1.00  0.00     0.000 A 
ATOM     82  C   UNL A   1      34.675  17.754  24.326  1.00  0.00     0.000 A 
ATOM     83  C   UNL A   1      34.078  16.924  23.379  1.00  0.00     0.000 A 
ENDBRANCH  77  78
ENDBRANCH  76  77
ENDBRANCH  69  76
BRANCH  73  84
ATOM     84  C   UNL A   1      33.009  26.382  24.778  1.00  0.00     0.300 C 
BRANCH  84  85
ATOM     85  C   UNL A   1      31.990  27.236  24.074  1.00  0.00     0.025 A 
ATOM     86  C   UNL A   1      31.536  28.440  24.621  1.00  0.00     0.013 A 
ATOM     87  C   UNL A   1      31.516  26.893  22.811  1.00  0.00     0.120 A 
ATOM     88  C   UNL A   1      30.656  29.240  23.899  1.00  0.00     0.021 A 
ATOM     89  N   UNL A   1      30.658  27.648  22.087  1.00  0.00    -0.264 NA
ATOM     90  C   UNL A   1      30.253  28.808  22.648  1.00  0.00     0.111 A 
ENDBRANCH  84  85
ENDBRANCH  73  84
ENDBRANCH  66  69
ENDBRANCH  64  65
ENDBRANCH   1  64
TORSDOF 16
ENDMDL
