MODEL 1
REMARK VINA RESULT:     -12.5      0.000      0.000
REMARK SMILES Cc1ccccc1NC(=O)CSc1nc(C(=O)NCCCCNC(=O)c2ccc(-c3c4nc(c(-c5c(F)cccc5F)c5ccc([nH]5)c(-c5c(F)cccc5F)c5nc(c(-c6c(F)cccc6F)c6ccc3[nH]6)C=C5)C=C4)cc2)c2ccccc2n1
REMARK SMILES IDX 19 1 18 2 16 3 17 4 15 6 13 7 14 8 86 9 85 10 80 11 84 12
REMARK SMILES IDX 81 13 83 14 82 15 12 16 11 17 9 18 8 19 10 21 7 22 1 23 2 24
REMARK SMILES IDX 3 25 4 26 6 27 5 28 20 29 21 30 22 31 23 32 24 33 25 35
REMARK SMILES IDX 26 36 27 37 79 38 28 39 78 40 29 41 30 42 31 43 72 44 32 45
REMARK SMILES IDX 77 46 71 47 73 48 33 49 76 50 70 51 69 52 34 54 60 55 43 56
REMARK SMILES IDX 59 57 44 58 47 59 58 60 74 61 45 62 46 63 57 65 75 66 48 67
REMARK SMILES IDX 35 68 36 69 41 70 37 71 38 72 40 73 42 74 39 75 61 76 62 77
REMARK SMILES IDX 67 78 63 79 64 80 66 81 68 82 65 83 49 84 50 85 55 86 51 87
REMARK SMILES IDX 52 88 54 89 56 90 53 91
REMARK H PARENT 18 5 8 20 23 34 73 53 47 64
REMARK Flexibility Score: inf
ROOT
ATOM      1  C   UNL A   1      34.215  28.518  26.797  1.00  0.00     0.116 C 
ENDROOT
BRANCH   1   2
ATOM      2  N   UNL A   1      33.000  28.687  27.580  1.00  0.00    -0.351 N 
ATOM      3  C   UNL A   1      31.791  28.007  27.514  1.00  0.00     0.270 C 
ATOM      4  O   UNL A   1      30.949  28.246  28.380  1.00  0.00    -0.267 OA
ATOM      5  H   UNL A   1      33.042  29.394  28.263  1.00  0.00     0.163 HD
BRANCH   3   6
ATOM      6  C   UNL A   1      31.455  27.080  26.380  1.00  0.00     0.140 A 
ATOM      7  C   UNL A   1      30.990  24.916  25.859  1.00  0.00     0.189 A 
ATOM      8  N   UNL A   1      31.487  25.774  26.743  1.00  0.00    -0.217 NA
ATOM      9  N   UNL A   1      30.363  25.260  24.727  1.00  0.00    -0.222 NA
ATOM     10  C   UNL A   1      30.367  26.549  24.381  1.00  0.00     0.076 A 
ATOM     11  C   UNL A   1      31.010  27.533  25.133  1.00  0.00     0.032 A 
ATOM     12  C   UNL A   1      29.665  26.939  23.247  1.00  0.00     0.029 A 
ATOM     13  C   UNL A   1      31.102  28.855  24.619  1.00  0.00     0.013 A 
ATOM     14  C   UNL A   1      29.642  28.266  22.810  1.00  0.00     0.002 A 
ATOM     15  C   UNL A   1      30.395  29.222  23.477  1.00  0.00     0.001 A 
BRANCH   7  16
ATOM     16  S   UNL A   1      30.999  23.197  26.262  1.00  0.00    -0.076 SA
BRANCH  16  17
ATOM     17  C   UNL A   1      31.076  22.482  24.595  1.00  0.00     0.178 C 
BRANCH  17  18
ATOM     18  C   UNL A   1      32.463  22.049  24.170  1.00  0.00     0.234 C 
ATOM     19  N   UNL A   1      33.364  22.823  23.505  1.00  0.00    -0.325 N 
ATOM     20  H   UNL A   1      34.178  22.320  23.272  1.00  0.00     0.169 HD
ATOM     21  O   UNL A   1      32.831  20.890  24.409  1.00  0.00    -0.274 OA
BRANCH  19  22
ATOM     22  C   UNL A   1      33.430  24.161  23.066  1.00  0.00     0.044 A 
ATOM     23  C   UNL A   1      34.754  24.831  25.200  1.00  0.00     0.046 C 
ATOM     24  C   UNL A   1      34.033  25.127  23.907  1.00  0.00    -0.027 A 
ATOM     25  C   UNL A   1      33.957  26.494  23.559  1.00  0.00     0.005 A 
ATOM     26  C   UNL A   1      33.348  26.905  22.381  1.00  0.00     0.000 A 
ATOM     27  C   UNL A   1      32.903  24.593  21.846  1.00  0.00     0.026 A 
ATOM     28  C   UNL A   1      32.845  25.950  21.511  1.00  0.00     0.002 A 
ENDBRANCH  19  22
ENDBRANCH  17  18
ENDBRANCH  16  17
ENDBRANCH   7  16
ENDBRANCH   3   6
ENDBRANCH   1   2
BRANCH   1  29
ATOM     29  C   UNL A   1      35.433  29.314  27.250  1.00  0.00     0.023 C 
BRANCH  29  30
ATOM     30  C   UNL A   1      35.195  30.457  28.224  1.00  0.00     0.023 C 
BRANCH  30  31
ATOM     31  C   UNL A   1      35.106  31.859  27.641  1.00  0.00     0.116 C 
BRANCH  31  32
ATOM     32  N   UNL A   1      34.196  32.780  28.309  1.00  0.00    -0.352 N 
ATOM     33  C   UNL A   1      34.361  33.504  29.491  1.00  0.00     0.251 C 
ATOM     34  H   UNL A   1      33.333  32.912  27.858  1.00  0.00     0.163 HD
ATOM     35  O   UNL A   1      33.470  34.227  29.881  1.00  0.00    -0.269 OA
BRANCH  33  36
ATOM     36  C   UNL A   1      35.682  33.513  30.192  1.00  0.00     0.039 A 
ATOM     37  C   UNL A   1      36.792  34.027  29.503  1.00  0.00     0.014 A 
ATOM     38  C   UNL A   1      35.879  32.839  31.386  1.00  0.00     0.014 A 
ATOM     39  C   UNL A   1      38.072  33.597  29.848  1.00  0.00     0.010 A 
ATOM     40  C   UNL A   1      37.114  32.288  31.636  1.00  0.00     0.010 A 
ATOM     41  C   UNL A   1      38.199  32.613  30.821  1.00  0.00    -0.014 A 
BRANCH  41  42
ATOM     42  C   UNL A   1      39.370  31.764  30.993  1.00  0.00     0.031 A 
ATOM     43  C   UNL A   1      39.474  30.485  30.262  1.00  0.00     0.074 A 
ATOM     44  C   UNL A   1      40.444  32.289  31.623  1.00  0.00     0.049 A 
ATOM     45  N   UNL A   1      40.381  29.596  30.469  1.00  0.00    -0.248 NA
ATOM     46  C   UNL A   1      38.510  30.087  29.245  1.00  0.00     0.031 C 
ATOM     47  C   UNL A   1      41.832  31.841  31.551  1.00  0.00     0.029 A 
ATOM     48  N   UNL A   1      40.445  33.252  32.643  1.00  0.00    -0.354 N 
ATOM     49  C   UNL A   1      40.318  28.677  29.443  1.00  0.00     0.074 A 
ATOM     50  C   UNL A   1      39.083  28.982  28.764  1.00  0.00     0.031 C 
ATOM     51  C   UNL A   1      42.486  32.278  32.640  1.00  0.00     0.029 A 
ATOM     52  C   UNL A   1      41.492  32.873  33.515  1.00  0.00     0.049 A 
ATOM     53  H   UNL A   1      39.846  34.029  32.733  1.00  0.00     0.167 HD
ATOM     54  C   UNL A   1      41.395  27.866  29.231  1.00  0.00     0.037 A 
ATOM     55  C   UNL A   1      41.227  32.445  34.784  1.00  0.00     0.037 A 
ATOM     56  C   UNL A   1      42.358  28.000  30.329  1.00  0.00     0.049 A 
ATOM     57  C   UNL A   1      41.698  31.035  35.065  1.00  0.00     0.074 A 
ATOM     58  C   UNL A   1      43.556  28.684  30.465  1.00  0.00     0.029 A 
ATOM     59  N   UNL A   1      41.975  27.626  31.614  1.00  0.00    -0.354 N 
ATOM     60  N   UNL A   1      41.944  30.149  34.139  1.00  0.00    -0.248 NA
ATOM     61  C   UNL A   1      41.928  30.513  36.408  1.00  0.00     0.031 C 
ATOM     62  C   UNL A   1      43.856  28.776  31.849  1.00  0.00     0.029 A 
ATOM     63  C   UNL A   1      42.855  28.128  32.552  1.00  0.00     0.049 A 
ATOM     64  H   UNL A   1      41.183  27.079  31.825  1.00  0.00     0.167 HD
ATOM     65  C   UNL A   1      42.350  28.974  34.718  1.00  0.00     0.074 A 
ATOM     66  C   UNL A   1      42.339  29.260  36.141  1.00  0.00     0.031 C 
ATOM     67  C   UNL A   1      42.654  27.869  33.972  1.00  0.00     0.037 A 
BRANCH  54  68
ATOM     68  C   UNL A   1      41.716  27.161  27.921  1.00  0.00     0.057 A 
ATOM     69  C   UNL A   1      42.301  27.873  26.850  1.00  0.00     0.134 A 
ATOM     70  C   UNL A   1      41.413  25.825  27.602  1.00  0.00     0.134 A 
ATOM     71  F   UNL A   1      42.747  29.127  26.996  1.00  0.00    -0.206 F 
ATOM     72  C   UNL A   1      42.466  27.337  25.563  1.00  0.00     0.040 A 
ATOM     73  C   UNL A   1      41.539  25.284  26.313  1.00  0.00     0.040 A 
ATOM     74  F   UNL A   1      41.034  24.939  28.525  1.00  0.00    -0.206 F 
ATOM     75  C   UNL A   1      42.054  26.046  25.279  1.00  0.00     0.006 A 
ENDBRANCH  54  68
BRANCH  55  76
ATOM     76  C   UNL A   1      40.025  33.092  35.374  1.00  0.00     0.057 A 
ATOM     77  C   UNL A   1      38.807  32.387  35.348  1.00  0.00     0.134 A 
ATOM     78  C   UNL A   1      40.128  34.145  36.287  1.00  0.00     0.134 A 
ATOM     79  F   UNL A   1      38.642  31.360  34.498  1.00  0.00    -0.206 F 
ATOM     80  C   UNL A   1      37.788  32.632  36.273  1.00  0.00     0.040 A 
ATOM     81  C   UNL A   1      39.104  34.411  37.209  1.00  0.00     0.040 A 
ATOM     82  F   UNL A   1      41.263  34.849  36.394  1.00  0.00    -0.206 F 
ATOM     83  C   UNL A   1      37.952  33.626  37.232  1.00  0.00     0.006 A 
ENDBRANCH  55  76
BRANCH  67  84
ATOM     84  C   UNL A   1      42.871  26.457  34.483  1.00  0.00     0.057 A 
ATOM     85  C   UNL A   1      41.896  25.680  35.121  1.00  0.00     0.134 A 
ATOM     86  C   UNL A   1      44.076  25.770  34.194  1.00  0.00     0.134 A 
ATOM     87  F   UNL A   1      40.664  26.147  35.361  1.00  0.00    -0.206 F 
ATOM     88  C   UNL A   1      42.117  24.344  35.492  1.00  0.00     0.040 A 
ATOM     89  C   UNL A   1      44.284  24.423  34.506  1.00  0.00     0.040 A 
ATOM     90  F   UNL A   1      45.101  26.367  33.567  1.00  0.00    -0.206 F 
ATOM     91  C   UNL A   1      43.307  23.706  35.172  1.00  0.00     0.006 A 
ENDBRANCH  67  84
ENDBRANCH  41  42
ENDBRANCH  33  36
ENDBRANCH  31  32
ENDBRANCH  30  31
ENDBRANCH  29  30
ENDBRANCH   1  29
TORSDOF 15
ENDMDL
MODEL 2
REMARK VINA RESULT:     -12.4      2.663      4.447
REMARK SMILES Cc1ccccc1NC(=O)CSc1nc(C(=O)NCCCCNC(=O)c2ccc(-c3c4nc(c(-c5c(F)cccc5F)c5ccc([nH]5)c(-c5c(F)cccc5F)c5nc(c(-c6c(F)cccc6F)c6ccc3[nH]6)C=C5)C=C4)cc2)c2ccccc2n1
REMARK SMILES IDX 19 1 18 2 16 3 17 4 15 6 13 7 14 8 86 9 85 10 80 11 84 12
REMARK SMILES IDX 81 13 83 14 82 15 12 16 11 17 9 18 8 19 10 21 7 22 1 23 2 24
REMARK SMILES IDX 3 25 4 26 6 27 5 28 20 29 21 30 22 31 23 32 24 33 25 35
REMARK SMILES IDX 26 36 27 37 79 38 28 39 78 40 29 41 30 42 31 43 72 44 32 45
REMARK SMILES IDX 77 46 71 47 73 48 33 49 76 50 70 51 69 52 34 54 60 55 43 56
REMARK SMILES IDX 59 57 44 58 47 59 58 60 74 61 45 62 46 63 57 65 75 66 48 67
REMARK SMILES IDX 35 68 36 69 41 70 37 71 38 72 40 73 42 74 39 75 61 76 62 77
REMARK SMILES IDX 67 78 63 79 64 80 66 81 68 82 65 83 49 84 50 85 55 86 51 87
REMARK SMILES IDX 52 88 54 89 56 90 53 91
REMARK H PARENT 18 5 8 20 23 34 73 53 47 64
REMARK Flexibility Score: inf
ROOT
ATOM      1  C   UNL A   1      33.039  28.920  25.720  1.00  0.00     0.116 C 
ENDROOT
BRANCH   1   2
ATOM      2  N   UNL A   1      33.717  28.852  24.434  1.00  0.00    -0.351 N 
ATOM      3  C   UNL A   1      33.260  28.394  23.205  1.00  0.00     0.270 C 
ATOM      4  O   UNL A   1      33.984  28.562  22.223  1.00  0.00    -0.267 OA
ATOM      5  H   UNL A   1      34.644  29.182  24.436  1.00  0.00     0.163 HD
BRANCH   3   6
ATOM      6  C   UNL A   1      31.975  27.628  23.063  1.00  0.00     0.140 A 
ATOM      7  C   UNL A   1      30.988  25.617  23.452  1.00  0.00     0.189 A 
ATOM      8  N   UNL A   1      32.117  26.310  23.342  1.00  0.00    -0.217 NA
ATOM      9  N   UNL A   1      29.759  26.148  23.434  1.00  0.00    -0.222 NA
ATOM     10  C   UNL A   1      29.646  27.444  23.134  1.00  0.00     0.076 A 
ATOM     11  C   UNL A   1      30.743  28.247  22.821  1.00  0.00     0.032 A 
ATOM     12  C   UNL A   1      28.388  28.032  23.177  1.00  0.00     0.029 A 
ATOM     13  C   UNL A   1      30.527  29.574  22.362  1.00  0.00     0.013 A 
ATOM     14  C   UNL A   1      28.188  29.377  22.854  1.00  0.00     0.002 A 
ATOM     15  C   UNL A   1      29.256  30.141  22.407  1.00  0.00     0.001 A 
BRANCH   7  16
ATOM     16  S   UNL A   1      31.095  23.891  23.812  1.00  0.00    -0.076 SA
BRANCH  16  17
ATOM     17  C   UNL A   1      30.999  23.940  25.625  1.00  0.00     0.178 C 
BRANCH  17  18
ATOM     18  C   UNL A   1      31.964  24.912  26.270  1.00  0.00     0.234 C 
ATOM     19  N   UNL A   1      33.320  24.809  26.254  1.00  0.00    -0.325 N 
ATOM     20  H   UNL A   1      33.749  25.516  26.790  1.00  0.00     0.169 HD
ATOM     21  O   UNL A   1      31.511  25.882  26.896  1.00  0.00    -0.274 OA
BRANCH  19  22
ATOM     22  C   UNL A   1      34.270  23.950  25.664  1.00  0.00     0.044 A 
ATOM     23  C   UNL A   1      34.075  22.306  27.666  1.00  0.00     0.046 C 
ATOM     24  C   UNL A   1      34.677  22.793  26.371  1.00  0.00    -0.027 A 
ATOM     25  C   UNL A   1      35.746  22.016  25.873  1.00  0.00     0.005 A 
ATOM     26  C   UNL A   1      36.371  22.334  24.674  1.00  0.00     0.000 A 
ATOM     27  C   UNL A   1      34.856  24.196  24.419  1.00  0.00     0.026 A 
ATOM     28  C   UNL A   1      35.906  23.410  23.934  1.00  0.00     0.002 A 
ENDBRANCH  19  22
ENDBRANCH  17  18
ENDBRANCH  16  17
ENDBRANCH   7  16
ENDBRANCH   3   6
ENDBRANCH   1   2
BRANCH   1  29
ATOM     29  C   UNL A   1      32.384  30.250  26.075  1.00  0.00     0.023 C 
BRANCH  29  30
ATOM     30  C   UNL A   1      33.106  31.136  27.078  1.00  0.00     0.023 C 
BRANCH  30  31
ATOM     31  C   UNL A   1      34.378  30.583  27.702  1.00  0.00     0.116 C 
BRANCH  31  32
ATOM     32  N   UNL A   1      35.371  31.564  28.122  1.00  0.00    -0.352 N 
ATOM     33  C   UNL A   1      36.701  31.387  28.506  1.00  0.00     0.251 C 
ATOM     34  H   UNL A   1      35.055  32.495  28.136  1.00  0.00     0.163 HD
ATOM     35  O   UNL A   1      37.368  32.349  28.822  1.00  0.00    -0.269 OA
BRANCH  33  36
ATOM     36  C   UNL A   1      37.350  30.046  28.379  1.00  0.00     0.039 A 
ATOM     37  C   UNL A   1      37.286  29.174  29.477  1.00  0.00     0.014 A 
ATOM     38  C   UNL A   1      38.186  29.737  27.318  1.00  0.00     0.014 A 
ATOM     39  C   UNL A   1      38.266  28.196  29.634  1.00  0.00     0.010 A 
ATOM     40  C   UNL A   1      39.242  28.885  27.536  1.00  0.00     0.010 A 
ATOM     41  C   UNL A   1      39.321  28.165  28.729  1.00  0.00    -0.014 A 
BRANCH  41  42
ATOM     42  C   UNL A   1      40.606  27.526  28.976  1.00  0.00     0.031 A 
ATOM     43  C   UNL A   1      40.804  26.102  28.642  1.00  0.00     0.074 A 
ATOM     44  C   UNL A   1      41.660  28.320  29.270  1.00  0.00     0.049 A 
ATOM     45  N   UNL A   1      41.838  25.410  28.971  1.00  0.00    -0.248 NA
ATOM     46  C   UNL A   1      39.801  25.322  27.929  1.00  0.00     0.031 C 
ATOM     47  C   UNL A   1      43.080  28.007  29.140  1.00  0.00     0.029 A 
ATOM     48  N   UNL A   1      41.638  29.544  29.956  1.00  0.00    -0.354 N 
ATOM     49  C   UNL A   1      41.792  24.221  28.276  1.00  0.00     0.074 A 
ATOM     50  C   UNL A   1      40.464  24.182  27.716  1.00  0.00     0.031 C 
ATOM     51  C   UNL A   1      43.779  28.816  29.952  1.00  0.00     0.029 A 
ATOM     52  C   UNL A   1      42.811  29.552  30.746  1.00  0.00     0.049 A 
ATOM     53  H   UNL A   1      40.953  30.249  29.898  1.00  0.00     0.167 HD
ATOM     54  C   UNL A   1      42.940  23.490  28.161  1.00  0.00     0.037 A 
ATOM     55  C   UNL A   1      42.739  29.508  32.108  1.00  0.00     0.037 A 
ATOM     56  C   UNL A   1      43.985  24.046  29.027  1.00  0.00     0.049 A 
ATOM     57  C   UNL A   1      43.421  28.304  32.719  1.00  0.00     0.074 A 
ATOM     58  C   UNL A   1      45.089  24.851  28.790  1.00  0.00     0.029 A 
ATOM     59  N   UNL A   1      43.791  24.047  30.405  1.00  0.00    -0.354 N 
ATOM     60  N   UNL A   1      43.686  27.206  32.065  1.00  0.00    -0.248 NA
ATOM     61  C   UNL A   1      43.857  28.242  34.110  1.00  0.00     0.031 C 
ATOM     62  C   UNL A   1      45.516  25.389  30.032  1.00  0.00     0.029 A 
ATOM     63  C   UNL A   1      44.689  24.894  31.025  1.00  0.00     0.049 A 
ATOM     64  H   UNL A   1      43.106  23.517  30.874  1.00  0.00     0.167 HD
ATOM     65  C   UNL A   1      44.303  26.308  32.900  1.00  0.00     0.074 A 
ATOM     66  C   UNL A   1      44.401  27.013  34.165  1.00  0.00     0.031 C 
ATOM     67  C   UNL A   1      44.673  25.063  32.473  1.00  0.00     0.037 A 
BRANCH  54  68
ATOM     68  C   UNL A   1      43.214  22.453  27.081  1.00  0.00     0.057 A 
ATOM     69  C   UNL A   1      42.501  21.234  27.064  1.00  0.00     0.134 A 
ATOM     70  C   UNL A   1      44.204  22.536  26.085  1.00  0.00     0.134 A 
ATOM     71  F   UNL A   1      41.458  21.014  27.873  1.00  0.00    -0.206 F 
ATOM     72  C   UNL A   1      42.818  20.166  26.210  1.00  0.00     0.040 A 
ATOM     73  C   UNL A   1      44.555  21.465  25.247  1.00  0.00     0.040 A 
ATOM     74  F   UNL A   1      44.852  23.669  25.814  1.00  0.00    -0.206 F 
ATOM     75  C   UNL A   1      43.871  20.265  25.316  1.00  0.00     0.006 A 
ENDBRANCH  54  68
BRANCH  55  76
ATOM     76  C   UNL A   1      41.529  30.186  32.646  1.00  0.00     0.057 A 
ATOM     77  C   UNL A   1      41.548  31.589  32.765  1.00  0.00     0.134 A 
ATOM     78  C   UNL A   1      40.275  29.567  32.646  1.00  0.00     0.134 A 
ATOM     79  F   UNL A   1      42.718  32.248  32.767  1.00  0.00    -0.206 F 
ATOM     80  C   UNL A   1      40.375  32.349  32.756  1.00  0.00     0.040 A 
ATOM     81  C   UNL A   1      39.092  30.320  32.653  1.00  0.00     0.040 A 
ATOM     82  F   UNL A   1      40.170  28.238  32.508  1.00  0.00    -0.206 F 
ATOM     83  C   UNL A   1      39.142  31.714  32.663  1.00  0.00     0.006 A 
ENDBRANCH  55  76
BRANCH  67  84
ATOM     84  C   UNL A   1      45.129  23.903  33.337  1.00  0.00     0.057 A 
ATOM     85  C   UNL A   1      46.405  23.782  33.905  1.00  0.00     0.134 A 
ATOM     86  C   UNL A   1      44.203  22.915  33.754  1.00  0.00     0.134 A 
ATOM     87  F   UNL A   1      47.358  24.700  33.700  1.00  0.00    -0.206 F 
ATOM     88  C   UNL A   1      46.750  22.736  34.774  1.00  0.00     0.040 A 
ATOM     89  C   UNL A   1      44.519  21.904  34.666  1.00  0.00     0.040 A 
ATOM     90  F   UNL A   1      42.935  22.903  33.319  1.00  0.00    -0.206 F 
ATOM     91  C   UNL A   1      45.803  21.800  35.170  1.00  0.00     0.006 A 
ENDBRANCH  67  84
ENDBRANCH  41  42
ENDBRANCH  33  36
ENDBRANCH  31  32
ENDBRANCH  30  31
ENDBRANCH  29  30
ENDBRANCH   1  29
TORSDOF 15
ENDMDL
MODEL 3
REMARK VINA RESULT:     -12.4      3.863      9.148
REMARK SMILES Cc1ccccc1NC(=O)CSc1nc(C(=O)NCCCCNC(=O)c2ccc(-c3c4nc(c(-c5c(F)cccc5F)c5ccc([nH]5)c(-c5c(F)cccc5F)c5nc(c(-c6c(F)cccc6F)c6ccc3[nH]6)C=C5)C=C4)cc2)c2ccccc2n1
REMARK SMILES IDX 19 1 18 2 16 3 17 4 15 6 13 7 14 8 86 9 85 10 80 11 84 12
REMARK SMILES IDX 81 13 83 14 82 15 12 16 11 17 9 18 8 19 10 21 7 22 1 23 2 24
REMARK SMILES IDX 3 25 4 26 6 27 5 28 20 29 21 30 22 31 23 32 24 33 25 35
REMARK SMILES IDX 26 36 27 37 79 38 28 39 78 40 29 41 30 42 31 43 72 44 32 45
REMARK SMILES IDX 77 46 71 47 73 48 33 49 76 50 70 51 69 52 34 54 60 55 43 56
REMARK SMILES IDX 59 57 44 58 47 59 58 60 74 61 45 62 46 63 57 65 75 66 48 67
REMARK SMILES IDX 35 68 36 69 41 70 37 71 38 72 40 73 42 74 39 75 61 76 62 77
REMARK SMILES IDX 67 78 63 79 64 80 66 81 68 82 65 83 49 84 50 85 55 86 51 87
REMARK SMILES IDX 52 88 54 89 56 90 53 91
REMARK H PARENT 18 5 8 20 23 34 73 53 47 64
REMARK Flexibility Score: inf
ROOT
ATOM      1  C   UNL A   1      37.022  23.688  25.772  1.00  0.00     0.116 C 
ENDROOT
BRANCH   1   2
ATOM      2  N   UNL A   1      37.331  23.189  24.440  1.00  0.00    -0.351 N 
ATOM      3  C   UNL A   1      36.505  23.007  23.339  1.00  0.00     0.270 C 
ATOM      4  O   UNL A   1      37.032  22.692  22.271  1.00  0.00    -0.267 OA
ATOM      5  H   UNL A   1      38.274  22.943  24.297  1.00  0.00     0.163 HD
BRANCH   3   6
ATOM      6  C   UNL A   1      35.008  23.085  23.440  1.00  0.00     0.140 A 
ATOM      7  C   UNL A   1      33.180  24.229  22.717  1.00  0.00     0.189 A 
ATOM      8  N   UNL A   1      34.501  24.200  22.860  1.00  0.00    -0.217 NA
ATOM      9  N   UNL A   1      32.359  23.205  22.983  1.00  0.00    -0.222 NA
ATOM     10  C   UNL A   1      32.880  22.128  23.575  1.00  0.00     0.076 A 
ATOM     11  C   UNL A   1      34.223  22.041  23.943  1.00  0.00     0.032 A 
ATOM     12  C   UNL A   1      32.062  21.027  23.798  1.00  0.00     0.029 A 
ATOM     13  C   UNL A   1      34.667  20.929  24.708  1.00  0.00     0.013 A 
ATOM     14  C   UNL A   1      32.531  19.874  24.434  1.00  0.00     0.002 A 
ATOM     15  C   UNL A   1      33.828  19.839  24.926  1.00  0.00     0.001 A 
BRANCH   7  16
ATOM     16  S   UNL A   1      32.447  25.652  21.970  1.00  0.00    -0.076 SA
BRANCH  16  17
ATOM     17  C   UNL A   1      30.771  25.542  22.660  1.00  0.00     0.178 C 
BRANCH  17  18
ATOM     18  C   UNL A   1      30.514  26.486  23.814  1.00  0.00     0.234 C 
ATOM     19  N   UNL A   1      30.756  26.217  25.126  1.00  0.00    -0.325 N 
ATOM     20  H   UNL A   1      30.454  26.948  25.713  1.00  0.00     0.169 HD
ATOM     21  O   UNL A   1      30.017  27.598  23.582  1.00  0.00    -0.274 OA
BRANCH  19  22
ATOM     22  C   UNL A   1      31.329  25.158  25.860  1.00  0.00     0.044 A 
ATOM     23  C   UNL A   1      33.653  26.317  25.780  1.00  0.00     0.046 C 
ATOM     24  C   UNL A   1      32.722  25.176  26.111  1.00  0.00    -0.027 A 
ATOM     25  C   UNL A   1      33.337  24.046  26.694  1.00  0.00     0.005 A 
ATOM     26  C   UNL A   1      32.592  22.937  27.075  1.00  0.00     0.000 A 
ATOM     27  C   UNL A   1      30.593  24.068  26.333  1.00  0.00     0.026 A 
ATOM     28  C   UNL A   1      31.215  22.961  26.919  1.00  0.00     0.002 A 
ENDBRANCH  19  22
ENDBRANCH  17  18
ENDBRANCH  16  17
ENDBRANCH   7  16
ENDBRANCH   3   6
ENDBRANCH   1   2
BRANCH   1  29
ATOM     29  C   UNL A   1      38.203  24.152  26.616  1.00  0.00     0.023 C 
BRANCH  29  30
ATOM     30  C   UNL A   1      39.554  23.514  26.334  1.00  0.00     0.023 C 
BRANCH  30  31
ATOM     31  C   UNL A   1      39.865  22.205  27.044  1.00  0.00     0.116 C 
BRANCH  31  32
ATOM     32  N   UNL A   1      40.704  21.260  26.318  1.00  0.00    -0.352 N 
ATOM     33  C   UNL A   1      42.087  21.250  26.127  1.00  0.00     0.251 C 
ATOM     34  H   UNL A   1      40.221  20.514  25.898  1.00  0.00     0.163 HD
ATOM     35  O   UNL A   1      42.598  20.360  25.483  1.00  0.00    -0.269 OA
BRANCH  33  36
ATOM     36  C   UNL A   1      42.953  22.238  26.841  1.00  0.00     0.039 A 
ATOM     37  C   UNL A   1      42.902  22.272  28.243  1.00  0.00     0.014 A 
ATOM     38  C   UNL A   1      43.617  23.249  26.164  1.00  0.00     0.014 A 
ATOM     39  C   UNL A   1      43.235  23.447  28.914  1.00  0.00     0.010 A 
ATOM     40  C   UNL A   1      43.799  24.457  26.795  1.00  0.00     0.010 A 
ATOM     41  C   UNL A   1      43.538  24.575  28.161  1.00  0.00    -0.014 A 
BRANCH  41  42
ATOM     42  C   UNL A   1      43.484  25.943  28.658  1.00  0.00     0.031 A 
ATOM     43  C   UNL A   1      42.202  26.674  28.680  1.00  0.00     0.074 A 
ATOM     44  C   UNL A   1      44.562  26.417  29.321  1.00  0.00     0.049 A 
ATOM     45  N   UNL A   1      42.080  27.928  28.943  1.00  0.00    -0.248 NA
ATOM     46  C   UNL A   1      40.934  26.035  28.357  1.00  0.00     0.031 C 
ATOM     47  C   UNL A   1      44.617  27.536  30.258  1.00  0.00     0.029 A 
ATOM     48  N   UNL A   1      45.908  26.079  29.110  1.00  0.00    -0.354 N 
ATOM     49  C   UNL A   1      40.740  28.195  29.125  1.00  0.00     0.074 A 
ATOM     50  C   UNL A   1      40.070  27.006  28.661  1.00  0.00     0.031 C 
ATOM     51  C   UNL A   1      45.879  27.989  30.320  1.00  0.00     0.029 A 
ATOM     52  C   UNL A   1      46.630  27.280  29.300  1.00  0.00     0.049 A 
ATOM     53  H   UNL A   1      46.272  25.193  28.880  1.00  0.00     0.167 HD
ATOM     54  C   UNL A   1      40.389  29.345  29.773  1.00  0.00     0.037 A 
ATOM     55  C   UNL A   1      47.274  27.882  28.258  1.00  0.00     0.037 A 
ATOM     56  C   UNL A   1      41.564  30.203  29.959  1.00  0.00     0.049 A 
ATOM     57  C   UNL A   1      46.785  29.283  27.964  1.00  0.00     0.074 A 
ATOM     58  C   UNL A   1      42.392  30.462  31.040  1.00  0.00     0.029 A 
ATOM     59  N   UNL A   1      42.221  30.703  28.838  1.00  0.00    -0.354 N 
ATOM     60  N   UNL A   1      45.623  29.744  28.340  1.00  0.00    -0.248 NA
ATOM     61  C   UNL A   1      47.563  30.272  27.226  1.00  0.00     0.031 C 
ATOM     62  C   UNL A   1      43.582  31.061  30.551  1.00  0.00     0.029 A 
ATOM     63  C   UNL A   1      43.468  31.190  29.177  1.00  0.00     0.049 A 
ATOM     64  H   UNL A   1      41.847  30.708  27.926  1.00  0.00     0.167 HD
ATOM     65  C   UNL A   1      45.482  31.042  27.917  1.00  0.00     0.074 A 
ATOM     66  C   UNL A   1      46.732  31.330  27.239  1.00  0.00     0.031 C 
ATOM     67  C   UNL A   1      44.344  31.761  28.162  1.00  0.00     0.037 A 
BRANCH  54  68
ATOM     68  C   UNL A   1      39.061  29.584  30.478  1.00  0.00     0.057 A 
ATOM     69  C   UNL A   1      38.277  30.716  30.161  1.00  0.00     0.134 A 
ATOM     70  C   UNL A   1      38.526  28.808  31.521  1.00  0.00     0.134 A 
ATOM     71  F   UNL A   1      38.577  31.517  29.131  1.00  0.00    -0.206 F 
ATOM     72  C   UNL A   1      37.135  31.092  30.885  1.00  0.00     0.040 A 
ATOM     73  C   UNL A   1      37.405  29.188  32.277  1.00  0.00     0.040 A 
ATOM     74  F   UNL A   1      39.010  27.607  31.839  1.00  0.00    -0.206 F 
ATOM     75  C   UNL A   1      36.711  30.344  31.971  1.00  0.00     0.006 A 
ENDBRANCH  54  68
BRANCH  55  76
ATOM     76  C   UNL A   1      47.782  26.911  27.252  1.00  0.00     0.057 A 
ATOM     77  C   UNL A   1      47.028  26.709  26.081  1.00  0.00     0.134 A 
ATOM     78  C   UNL A   1      49.123  26.518  27.218  1.00  0.00     0.134 A 
ATOM     79  F   UNL A   1      45.734  27.068  26.043  1.00  0.00    -0.206 F 
ATOM     80  C   UNL A   1      47.610  26.256  24.893  1.00  0.00     0.040 A 
ATOM     81  C   UNL A   1      49.713  26.047  26.037  1.00  0.00     0.040 A 
ATOM     82  F   UNL A   1      49.916  26.703  28.283  1.00  0.00    -0.206 F 
ATOM     83  C   UNL A   1      48.968  25.958  24.861  1.00  0.00     0.006 A 
ENDBRANCH  55  76
BRANCH  67  84
ATOM     84  C   UNL A   1      43.960  33.094  27.550  1.00  0.00     0.057 A 
ATOM     85  C   UNL A   1      43.850  33.340  26.174  1.00  0.00     0.134 A 
ATOM     86  C   UNL A   1      43.529  34.162  28.375  1.00  0.00     0.134 A 
ATOM     87  F   UNL A   1      44.109  32.392  25.264  1.00  0.00    -0.206 F 
ATOM     88  C   UNL A   1      43.401  34.565  25.658  1.00  0.00     0.040 A 
ATOM     89  C   UNL A   1      43.024  35.365  27.871  1.00  0.00     0.040 A 
ATOM     90  F   UNL A   1      43.551  34.078  29.713  1.00  0.00    -0.206 F 
ATOM     91  C   UNL A   1      42.971  35.578  26.506  1.00  0.00     0.006 A 
ENDBRANCH  67  84
ENDBRANCH  41  42
ENDBRANCH  33  36
ENDBRANCH  31  32
ENDBRANCH  30  31
ENDBRANCH  29  30
ENDBRANCH   1  29
TORSDOF 15
ENDMDL
