MODEL 1
REMARK VINA RESULT:     -11.7      0.000      0.000
REMARK SMILES CCn1ncc(Br)c1C(=O)N[C@H]1C(=O)N2C(C(=O)NCCCCNC(=O)c3ccc(-c4c5nc(c(-c6c(F)cccc6F)c6ccc([nH]6)c(-c6c(F)cccc6F)c6nc(c(-c7c(F)cccc7F)c7ccc4[nH]7)C=C6)C=C5)cc3)=C(COC(C)=O)CS[C@H]12
REMARK SMILES IDX 21 1 20 2 19 3 17 4 18 5 16 7 12 8 13 9 89 10 14 11 15 12
REMARK SMILES IDX 88 13 87 14 81 15 11 16 9 17 10 18 8 20 3 21 4 22 5 23 6 24
REMARK SMILES IDX 7 25 2 26 1 27 82 28 83 29 84 30 85 31 86 32 22 33 23 34
REMARK SMILES IDX 24 35 25 36 26 38 27 39 28 40 80 41 29 42 79 43 30 44 31 45
REMARK SMILES IDX 32 46 73 47 33 48 78 49 72 50 74 51 34 52 77 53 71 54 70 55
REMARK SMILES IDX 35 57 61 58 44 59 60 60 45 61 48 62 59 63 75 64 46 65 47 66
REMARK SMILES IDX 58 68 76 69 49 70 36 71 37 72 42 73 38 74 39 75 41 76 43 77
REMARK SMILES IDX 40 78 62 79 63 80 68 81 64 82 65 83 67 84 69 85 66 86 50 87
REMARK SMILES IDX 51 88 56 89 52 90 53 91 55 92 57 93 54 94
REMARK H PARENT 19 6 11 19 24 37 74 56 48 67
REMARK Flexibility Score: inf
ROOT
ATOM      1  C   UNL A   1      37.971  21.115  25.137  1.00  0.00     0.023 C 
ENDROOT
BRANCH   1   2
ATOM      2  C   UNL A   1      37.049  21.885  24.186  1.00  0.00     0.116 C 
BRANCH   2   3
ATOM      3  N   UNL A   1      35.610  21.905  24.452  1.00  0.00    -0.351 N 
ATOM      4  C   UNL A   1      34.953  22.591  25.455  1.00  0.00     0.268 C 
ATOM      5  O   UNL A   1      35.386  22.826  26.570  1.00  0.00    -0.268 OA
ATOM      6  H   UNL A   1      35.046  21.369  23.848  1.00  0.00     0.163 HD
BRANCH   4   7
ATOM      7  C   UNL A   1      33.619  23.134  24.991  1.00  0.00     0.114 C 
ATOM      8  C   UNL A   1      33.040  25.562  22.708  1.00  0.00     0.206 C 
ATOM      9  C   UNL A   1      33.869  24.286  22.872  1.00  0.00     0.253 C 
ATOM     10  C   UNL A   1      32.514  25.197  24.136  1.00  0.00     0.181 C 
ATOM     11  O   UNL A   1      34.367  23.495  22.084  1.00  0.00    -0.272 OA
ATOM     12  N   UNL A   1      33.622  24.254  24.211  1.00  0.00    -0.290 N 
ATOM     13  S   UNL A   1      30.884  24.394  23.985  1.00  0.00    -0.129 SA
ATOM     14  C   UNL A   1      31.098  22.974  25.052  1.00  0.00     0.108 C 
ATOM     15  C   UNL A   1      32.488  22.463  25.296  1.00  0.00     0.007 C 
BRANCH   8  16
ATOM     16  N   UNL A   1      33.718  26.851  22.439  1.00  0.00    -0.336 N 
ATOM     17  C   UNL A   1      33.654  28.088  23.024  1.00  0.00     0.271 C 
ATOM     18  O   UNL A   1      34.423  28.952  22.607  1.00  0.00    -0.267 OA
ATOM     19  H   UNL A   1      34.347  26.811  21.682  1.00  0.00     0.164 HD
BRANCH  17  20
ATOM     20  C   UNL A   1      32.699  28.348  24.050  1.00  0.00     0.140 A 
ATOM     21  N   UNL A   1      32.962  28.451  25.401  1.00  0.00    -0.259 N 
ATOM     22  N   UNL A   1      31.866  28.780  26.128  1.00  0.00    -0.180 NA
ATOM     23  C   UNL A   1      30.938  29.055  25.210  1.00  0.00     0.151 A 
ATOM     24  C   UNL A   1      31.412  28.822  23.917  1.00  0.00     0.069 A 
ATOM     25  Br  UNL A   1      30.460  29.195  22.350  1.00  0.00    -0.047 Br
BRANCH  21  26
ATOM     26  C   UNL A   1      34.275  28.508  26.026  1.00  0.00     0.142 C 
ATOM     27  C   UNL A   1      34.434  29.530  27.134  1.00  0.00     0.029 C 
ENDBRANCH  21  26
ENDBRANCH  17  20
ENDBRANCH   8  16
BRANCH  15  28
ATOM     28  C   UNL A   1      32.459  21.044  25.859  1.00  0.00     0.267 C 
BRANCH  28  29
ATOM     29  O   UNL A   1      33.057  20.046  25.013  1.00  0.00    -0.461 OA
BRANCH  29  30
ATOM     30  C   UNL A   1      32.632  18.779  24.809  1.00  0.00     0.302 C 
ATOM     31  C   UNL A   1      32.555  18.256  23.410  1.00  0.00     0.139 C 
ATOM     32  O   UNL A   1      32.251  18.091  25.753  1.00  0.00    -0.253 OA
ENDBRANCH  29  30
ENDBRANCH  28  29
ENDBRANCH  15  28
ENDBRANCH   4   7
ENDBRANCH   2   3
ENDBRANCH   1   2
BRANCH   1  33
ATOM     33  C   UNL A   1      38.881  21.953  26.039  1.00  0.00     0.023 C 
BRANCH  33  34
ATOM     34  C   UNL A   1      40.100  21.268  26.641  1.00  0.00     0.116 C 
BRANCH  34  35
ATOM     35  N   UNL A   1      41.361  21.534  25.949  1.00  0.00    -0.352 N 
ATOM     36  C   UNL A   1      41.990  22.758  25.800  1.00  0.00     0.251 C 
ATOM     37  H   UNL A   1      41.810  20.757  25.544  1.00  0.00     0.163 HD
ATOM     38  O   UNL A   1      42.836  22.958  24.939  1.00  0.00    -0.269 OA
BRANCH  36  39
ATOM     39  C   UNL A   1      41.614  23.831  26.737  1.00  0.00     0.039 A 
ATOM     40  C   UNL A   1      42.202  23.943  27.995  1.00  0.00     0.014 A 
ATOM     41  C   UNL A   1      40.770  24.823  26.249  1.00  0.00     0.014 A 
ATOM     42  C   UNL A   1      42.032  25.132  28.710  1.00  0.00     0.010 A 
ATOM     43  C   UNL A   1      40.714  26.038  26.896  1.00  0.00     0.010 A 
ATOM     44  C   UNL A   1      41.326  26.205  28.140  1.00  0.00    -0.014 A 
BRANCH  44  45
ATOM     45  C   UNL A   1      41.330  27.526  28.786  1.00  0.00     0.031 A 
ATOM     46  C   UNL A   1      42.431  28.472  28.413  1.00  0.00     0.074 A 
ATOM     47  C   UNL A   1      40.295  28.021  29.499  1.00  0.00     0.049 A 
ATOM     48  N   UNL A   1      43.292  29.041  29.197  1.00  0.00    -0.248 NA
ATOM     49  C   UNL A   1      42.602  28.818  26.994  1.00  0.00     0.031 C 
ATOM     50  C   UNL A   1      38.976  27.419  29.735  1.00  0.00     0.029 A 
ATOM     51  N   UNL A   1      40.173  29.253  30.075  1.00  0.00    -0.354 N 
ATOM     52  C   UNL A   1      44.016  29.937  28.408  1.00  0.00     0.074 A 
ATOM     53  C   UNL A   1      43.615  29.687  27.045  1.00  0.00     0.031 C 
ATOM     54  C   UNL A   1      38.123  28.364  30.180  1.00  0.00     0.029 A 
ATOM     55  C   UNL A   1      38.879  29.573  30.448  1.00  0.00     0.049 A 
ATOM     56  H   UNL A   1      40.936  29.859  30.213  1.00  0.00     0.167 HD
ATOM     57  C   UNL A   1      44.768  30.937  28.949  1.00  0.00     0.037 A 
ATOM     58  C   UNL A   1      38.431  30.743  30.951  1.00  0.00     0.037 A 
ATOM     59  C   UNL A   1      45.017  30.720  30.349  1.00  0.00     0.049 A 
ATOM     60  C   UNL A   1      39.583  31.462  31.533  1.00  0.00     0.074 A 
ATOM     61  C   UNL A   1      45.645  29.748  31.102  1.00  0.00     0.029 A 
ATOM     62  N   UNL A   1      44.311  31.481  31.245  1.00  0.00    -0.354 N 
ATOM     63  N   UNL A   1      40.234  31.066  32.592  1.00  0.00    -0.248 NA
ATOM     64  C   UNL A   1      40.255  32.472  30.732  1.00  0.00     0.031 C 
ATOM     65  C   UNL A   1      44.908  29.689  32.321  1.00  0.00     0.029 A 
ATOM     66  C   UNL A   1      43.892  30.643  32.243  1.00  0.00     0.049 A 
ATOM     67  H   UNL A   1      44.139  32.449  31.183  1.00  0.00     0.167 HD
ATOM     68  C   UNL A   1      41.545  31.447  32.362  1.00  0.00     0.074 A 
ATOM     69  C   UNL A   1      41.466  32.433  31.291  1.00  0.00     0.031 C 
ATOM     70  C   UNL A   1      42.588  30.722  32.863  1.00  0.00     0.037 A 
BRANCH  57  71
ATOM     71  C   UNL A   1      45.024  32.285  28.312  1.00  0.00     0.057 A 
ATOM     72  C   UNL A   1      43.956  33.192  28.147  1.00  0.00     0.134 A 
ATOM     73  C   UNL A   1      46.189  32.602  27.591  1.00  0.00     0.134 A 
ATOM     74  F   UNL A   1      42.781  32.995  28.765  1.00  0.00    -0.206 F 
ATOM     75  C   UNL A   1      44.023  34.287  27.275  1.00  0.00     0.040 A 
ATOM     76  C   UNL A   1      46.284  33.723  26.757  1.00  0.00     0.040 A 
ATOM     77  F   UNL A   1      47.257  31.794  27.576  1.00  0.00    -0.206 F 
ATOM     78  C   UNL A   1      45.189  34.552  26.571  1.00  0.00     0.006 A 
ENDBRANCH  57  71
BRANCH  58  79
ATOM     79  C   UNL A   1      37.089  31.335  30.806  1.00  0.00     0.057 A 
ATOM     80  C   UNL A   1      36.260  31.561  31.910  1.00  0.00     0.134 A 
ATOM     81  C   UNL A   1      36.679  31.910  29.589  1.00  0.00     0.134 A 
ATOM     82  F   UNL A   1      36.589  31.082  33.117  1.00  0.00    -0.206 F 
ATOM     83  C   UNL A   1      35.091  32.325  31.812  1.00  0.00     0.040 A 
ATOM     84  C   UNL A   1      35.513  32.671  29.476  1.00  0.00     0.040 A 
ATOM     85  F   UNL A   1      37.439  31.811  28.487  1.00  0.00    -0.206 F 
ATOM     86  C   UNL A   1      34.719  32.890  30.595  1.00  0.00     0.006 A 
ENDBRANCH  58  79
BRANCH  70  87
ATOM     87  C   UNL A   1      42.294  29.722  33.945  1.00  0.00     0.057 A 
ATOM     88  C   UNL A   1      41.915  28.393  33.705  1.00  0.00     0.134 A 
ATOM     89  C   UNL A   1      42.543  30.077  35.276  1.00  0.00     0.134 A 
ATOM     90  F   UNL A   1      41.756  27.933  32.459  1.00  0.00    -0.206 F 
ATOM     91  C   UNL A   1      41.745  27.475  34.745  1.00  0.00     0.040 A 
ATOM     92  C   UNL A   1      42.409  29.160  36.321  1.00  0.00     0.040 A 
ATOM     93  F   UNL A   1      42.969  31.314  35.578  1.00  0.00    -0.206 F 
ATOM     94  C   UNL A   1      41.997  27.856  36.058  1.00  0.00     0.006 A 
ENDBRANCH  70  87
ENDBRANCH  44  45
ENDBRANCH  36  39
ENDBRANCH  34  35
ENDBRANCH  33  34
ENDBRANCH   1  33
TORSDOF 17
ENDMDL
MODEL 2
REMARK VINA RESULT:     -11.5      2.903      8.312
REMARK SMILES CCn1ncc(Br)c1C(=O)N[C@H]1C(=O)N2C(C(=O)NCCCCNC(=O)c3ccc(-c4c5nc(c(-c6c(F)cccc6F)c6ccc([nH]6)c(-c6c(F)cccc6F)c6nc(c(-c7c(F)cccc7F)c7ccc4[nH]7)C=C6)C=C5)cc3)=C(COC(C)=O)CS[C@H]12
REMARK SMILES IDX 21 1 20 2 19 3 17 4 18 5 16 7 12 8 13 9 89 10 14 11 15 12
REMARK SMILES IDX 88 13 87 14 81 15 11 16 9 17 10 18 8 20 3 21 4 22 5 23 6 24
REMARK SMILES IDX 7 25 2 26 1 27 82 28 83 29 84 30 85 31 86 32 22 33 23 34
REMARK SMILES IDX 24 35 25 36 26 38 27 39 28 40 80 41 29 42 79 43 30 44 31 45
REMARK SMILES IDX 32 46 73 47 33 48 78 49 72 50 74 51 34 52 77 53 71 54 70 55
REMARK SMILES IDX 35 57 61 58 44 59 60 60 45 61 48 62 59 63 75 64 46 65 47 66
REMARK SMILES IDX 58 68 76 69 49 70 36 71 37 72 42 73 38 74 39 75 41 76 43 77
REMARK SMILES IDX 40 78 62 79 63 80 68 81 64 82 65 83 67 84 69 85 66 86 50 87
REMARK SMILES IDX 51 88 56 89 52 90 53 91 55 92 57 93 54 94
REMARK H PARENT 19 6 11 19 24 37 74 56 48 67
REMARK Flexibility Score: inf
ROOT
ATOM      1  C   UNL A   1      32.837  31.249  27.240  1.00  0.00     0.023 C 
ENDROOT
BRANCH   1   2
ATOM      2  C   UNL A   1      32.087  29.913  27.236  1.00  0.00     0.116 C 
BRANCH   2   3
ATOM      3  N   UNL A   1      31.819  29.252  25.958  1.00  0.00    -0.351 N 
ATOM      4  C   UNL A   1      32.730  28.623  25.133  1.00  0.00     0.268 C 
ATOM      5  O   UNL A   1      33.898  28.937  24.976  1.00  0.00    -0.268 OA
ATOM      6  H   UNL A   1      30.883  29.257  25.652  1.00  0.00     0.163 HD
BRANCH   4   7
ATOM      7  C   UNL A   1      32.146  27.390  24.478  1.00  0.00     0.114 C 
ATOM      8  C   UNL A   1      31.590  24.359  25.875  1.00  0.00     0.206 C 
ATOM      9  C   UNL A   1      31.345  25.842  26.165  1.00  0.00     0.253 C 
ATOM     10  C   UNL A   1      32.210  24.899  24.544  1.00  0.00     0.181 C 
ATOM     11  O   UNL A   1      30.540  26.445  26.860  1.00  0.00    -0.272 OA
ATOM     12  N   UNL A   1      32.198  26.215  25.171  1.00  0.00    -0.290 N 
ATOM     13  S   UNL A   1      30.989  24.723  23.201  1.00  0.00    -0.129 SA
ATOM     14  C   UNL A   1      31.069  26.343  22.446  1.00  0.00     0.108 C 
ATOM     15  C   UNL A   1      31.534  27.502  23.281  1.00  0.00     0.007 C 
BRANCH   8  16
ATOM     16  N   UNL A   1      32.383  23.544  26.824  1.00  0.00    -0.336 N 
ATOM     17  C   UNL A   1      33.587  22.898  26.731  1.00  0.00     0.271 C 
ATOM     18  O   UNL A   1      34.023  22.362  27.749  1.00  0.00    -0.267 OA
ATOM     19  H   UNL A   1      31.957  23.448  27.707  1.00  0.00     0.164 HD
BRANCH  17  20
ATOM     20  C   UNL A   1      34.272  22.833  25.482  1.00  0.00     0.140 A 
ATOM     21  N   UNL A   1      35.493  23.408  25.191  1.00  0.00    -0.259 N 
ATOM     22  N   UNL A   1      35.931  23.112  23.943  1.00  0.00    -0.180 NA
ATOM     23  C   UNL A   1      35.060  22.203  23.501  1.00  0.00     0.151 A 
ATOM     24  C   UNL A   1      34.034  21.985  24.423  1.00  0.00     0.069 A 
ATOM     25  Br  UNL A   1      32.683  20.706  24.231  1.00  0.00    -0.047 Br
BRANCH  21  26
ATOM     26  C   UNL A   1      36.408  24.024  26.140  1.00  0.00     0.142 C 
ATOM     27  C   UNL A   1      37.877  23.703  25.944  1.00  0.00     0.029 C 
ENDBRANCH  21  26
ENDBRANCH  17  20
ENDBRANCH   8  16
BRANCH  15  28
ATOM     28  C   UNL A   1      31.148  28.831  22.636  1.00  0.00     0.267 C 
BRANCH  28  29
ATOM     29  O   UNL A   1      29.956  29.435  23.166  1.00  0.00    -0.461 OA
BRANCH  29  30
ATOM     30  C   UNL A   1      28.916  29.951  22.473  1.00  0.00     0.302 C 
ATOM     31  C   UNL A   1      27.654  30.287  23.199  1.00  0.00     0.139 C 
ATOM     32  O   UNL A   1      28.986  30.077  21.252  1.00  0.00    -0.253 OA
ENDBRANCH  29  30
ENDBRANCH  28  29
ENDBRANCH  15  28
ENDBRANCH   4   7
ENDBRANCH   2   3
ENDBRANCH   1   2
BRANCH   1  33
ATOM     33  C   UNL A   1      34.316  31.206  27.631  1.00  0.00     0.023 C 
BRANCH  33  34
ATOM     34  C   UNL A   1      34.949  32.493  28.141  1.00  0.00     0.116 C 
BRANCH  34  35
ATOM     35  N   UNL A   1      34.886  32.679  29.590  1.00  0.00    -0.352 N 
ATOM     36  C   UNL A   1      35.542  31.936  30.557  1.00  0.00     0.251 C 
ATOM     37  H   UNL A   1      34.314  33.412  29.912  1.00  0.00     0.163 HD
ATOM     38  O   UNL A   1      35.183  31.924  31.727  1.00  0.00    -0.269 OA
BRANCH  36  39
ATOM     39  C   UNL A   1      36.716  31.156  30.131  1.00  0.00     0.039 A 
ATOM     40  C   UNL A   1      37.949  31.760  29.895  1.00  0.00     0.014 A 
ATOM     41  C   UNL A   1      36.585  29.772  30.134  1.00  0.00     0.014 A 
ATOM     42  C   UNL A   1      39.083  30.950  29.789  1.00  0.00     0.010 A 
ATOM     43  C   UNL A   1      37.719  28.988  30.160  1.00  0.00     0.010 A 
ATOM     44  C   UNL A   1      38.977  29.560  29.971  1.00  0.00    -0.014 A 
BRANCH  44  45
ATOM     45  C   UNL A   1      40.187  28.731  30.080  1.00  0.00     0.031 A 
ATOM     46  C   UNL A   1      40.798  28.579  31.440  1.00  0.00     0.074 A 
ATOM     47  C   UNL A   1      40.637  27.919  29.098  1.00  0.00     0.049 A 
ATOM     48  N   UNL A   1      42.007  28.868  31.807  1.00  0.00    -0.248 NA
ATOM     49  C   UNL A   1      39.959  28.052  32.527  1.00  0.00     0.031 C 
ATOM     50  C   UNL A   1      40.031  27.644  27.789  1.00  0.00     0.029 A 
ATOM     51  N   UNL A   1      41.700  27.062  29.125  1.00  0.00    -0.354 N 
ATOM     52  C   UNL A   1      42.140  28.420  33.123  1.00  0.00     0.074 A 
ATOM     53  C   UNL A   1      40.822  28.016  33.545  1.00  0.00     0.031 C 
ATOM     54  C   UNL A   1      40.583  26.532  27.262  1.00  0.00     0.029 A 
ATOM     55  C   UNL A   1      41.705  26.141  28.093  1.00  0.00     0.049 A 
ATOM     56  H   UNL A   1      42.400  27.097  29.816  1.00  0.00     0.167 HD
ATOM     57  C   UNL A   1      43.358  28.254  33.713  1.00  0.00     0.037 A 
ATOM     58  C   UNL A   1      42.565  25.116  27.906  1.00  0.00     0.037 A 
ATOM     59  C   UNL A   1      44.399  28.930  32.987  1.00  0.00     0.049 A 
ATOM     60  C   UNL A   1      43.802  25.415  28.656  1.00  0.00     0.074 A 
ATOM     61  C   UNL A   1      44.671  30.238  32.637  1.00  0.00     0.029 A 
ATOM     62  N   UNL A   1      45.249  28.163  32.233  1.00  0.00    -0.354 N 
ATOM     63  N   UNL A   1      44.627  26.379  28.354  1.00  0.00    -0.248 NA
ATOM     64  C   UNL A   1      43.969  24.845  29.984  1.00  0.00     0.031 C 
ATOM     65  C   UNL A   1      45.314  30.156  31.367  1.00  0.00     0.029 A 
ATOM     66  C   UNL A   1      45.412  28.804  31.034  1.00  0.00     0.049 A 
ATOM     67  H   UNL A   1      45.662  27.311  32.502  1.00  0.00     0.167 HD
ATOM     68  C   UNL A   1      45.115  26.818  29.573  1.00  0.00     0.074 A 
ATOM     69  C   UNL A   1      44.800  25.746  30.511  1.00  0.00     0.031 C 
ATOM     70  C   UNL A   1      45.473  28.122  29.761  1.00  0.00     0.037 A 
BRANCH  57  71
ATOM     71  C   UNL A   1      43.687  27.222  34.769  1.00  0.00     0.057 A 
ATOM     72  C   UNL A   1      44.221  27.638  36.007  1.00  0.00     0.134 A 
ATOM     73  C   UNL A   1      43.788  25.843  34.512  1.00  0.00     0.134 A 
ATOM     74  F   UNL A   1      44.207  28.931  36.365  1.00  0.00    -0.206 F 
ATOM     75  C   UNL A   1      44.868  26.758  36.885  1.00  0.00     0.040 A 
ATOM     76  C   UNL A   1      44.386  24.946  35.407  1.00  0.00     0.040 A 
ATOM     77  F   UNL A   1      43.405  25.308  33.346  1.00  0.00    -0.206 F 
ATOM     78  C   UNL A   1      44.957  25.407  36.582  1.00  0.00     0.006 A 
ENDBRANCH  57  71
BRANCH  58  79
ATOM     79  C   UNL A   1      42.303  23.825  27.244  1.00  0.00     0.057 A 
ATOM     80  C   UNL A   1      42.690  23.582  25.923  1.00  0.00     0.134 A 
ATOM     81  C   UNL A   1      41.865  22.710  27.982  1.00  0.00     0.134 A 
ATOM     82  F   UNL A   1      43.154  24.578  25.156  1.00  0.00    -0.206 F 
ATOM     83  C   UNL A   1      42.653  22.299  25.365  1.00  0.00     0.040 A 
ATOM     84  C   UNL A   1      41.819  21.424  27.438  1.00  0.00     0.040 A 
ATOM     85  F   UNL A   1      41.538  22.824  29.279  1.00  0.00    -0.206 F 
ATOM     86  C   UNL A   1      42.226  21.213  26.126  1.00  0.00     0.006 A 
ENDBRANCH  58  79
BRANCH  70  87
ATOM     87  C   UNL A   1      45.659  28.982  28.543  1.00  0.00     0.057 A 
ATOM     88  C   UNL A   1      44.636  29.737  27.951  1.00  0.00     0.134 A 
ATOM     89  C   UNL A   1      46.952  29.166  28.039  1.00  0.00     0.134 A 
ATOM     90  F   UNL A   1      43.387  29.707  28.431  1.00  0.00    -0.206 F 
ATOM     91  C   UNL A   1      44.879  30.596  26.876  1.00  0.00     0.040 A 
ATOM     92  C   UNL A   1      47.215  30.047  26.987  1.00  0.00     0.040 A 
ATOM     93  F   UNL A   1      47.992  28.525  28.595  1.00  0.00    -0.206 F 
ATOM     94  C   UNL A   1      46.174  30.757  26.393  1.00  0.00     0.006 A 
ENDBRANCH  70  87
ENDBRANCH  44  45
ENDBRANCH  36  39
ENDBRANCH  34  35
ENDBRANCH  33  34
ENDBRANCH   1  33
TORSDOF 17
ENDMDL
MODEL 3
REMARK VINA RESULT:     -11.0      8.957     15.015
REMARK SMILES CCn1ncc(Br)c1C(=O)N[C@H]1C(=O)N2C(C(=O)NCCCCNC(=O)c3ccc(-c4c5nc(c(-c6c(F)cccc6F)c6ccc([nH]6)c(-c6c(F)cccc6F)c6nc(c(-c7c(F)cccc7F)c7ccc4[nH]7)C=C6)C=C5)cc3)=C(COC(C)=O)CS[C@H]12
REMARK SMILES IDX 21 1 20 2 19 3 17 4 18 5 16 7 12 8 13 9 89 10 14 11 15 12
REMARK SMILES IDX 88 13 87 14 81 15 11 16 9 17 10 18 8 20 3 21 4 22 5 23 6 24
REMARK SMILES IDX 7 25 2 26 1 27 82 28 83 29 84 30 85 31 86 32 22 33 23 34
REMARK SMILES IDX 24 35 25 36 26 38 27 39 28 40 80 41 29 42 79 43 30 44 31 45
REMARK SMILES IDX 32 46 73 47 33 48 78 49 72 50 74 51 34 52 77 53 71 54 70 55
REMARK SMILES IDX 35 57 61 58 44 59 60 60 45 61 48 62 59 63 75 64 46 65 47 66
REMARK SMILES IDX 58 68 76 69 49 70 36 71 37 72 42 73 38 74 39 75 41 76 43 77
REMARK SMILES IDX 40 78 62 79 63 80 68 81 64 82 65 83 67 84 69 85 66 86 50 87
REMARK SMILES IDX 51 88 56 89 52 90 53 91 55 92 57 93 54 94
REMARK H PARENT 19 6 11 19 24 37 74 56 48 67
REMARK Flexibility Score: inf
ROOT
ATOM      1  C   UNL A   1      40.957  40.495  26.759  1.00  0.00     0.023 C 
ENDROOT
BRANCH   1   2
ATOM      2  C   UNL A   1      41.457  41.047  25.421  1.00  0.00     0.116 C 
BRANCH   2   3
ATOM      3  N   UNL A   1      42.548  42.023  25.417  1.00  0.00    -0.351 N 
ATOM      4  C   UNL A   1      43.863  41.808  25.051  1.00  0.00     0.268 C 
ATOM      5  O   UNL A   1      44.492  40.774  25.198  1.00  0.00    -0.268 OA
ATOM      6  H   UNL A   1      42.320  42.935  25.710  1.00  0.00     0.163 HD
BRANCH   4   7
ATOM      7  C   UNL A   1      44.452  43.000  24.328  1.00  0.00     0.114 C 
ATOM      8  C   UNL A   1      43.690  44.144  21.237  1.00  0.00     0.206 C 
ATOM      9  C   UNL A   1      42.990  43.696  22.522  1.00  0.00     0.253 C 
ATOM     10  C   UNL A   1      44.994  43.862  22.053  1.00  0.00     0.181 C 
ATOM     11  O   UNL A   1      41.892  43.923  23.009  1.00  0.00    -0.272 OA
ATOM     12  N   UNL A   1      44.145  43.161  23.008  1.00  0.00    -0.290 N 
ATOM     13  S   UNL A   1      45.655  45.438  22.688  1.00  0.00    -0.129 SA
ATOM     14  C   UNL A   1      45.972  45.017  24.398  1.00  0.00     0.108 C 
ATOM     15  C   UNL A   1      45.191  43.894  25.017  1.00  0.00     0.007 C 
BRANCH   8  16
ATOM     16  N   UNL A   1      43.407  43.443  19.962  1.00  0.00    -0.336 N 
ATOM     17  C   UNL A   1      43.791  43.659  18.665  1.00  0.00     0.271 C 
ATOM     18  O   UNL A   1      43.444  42.830  17.826  1.00  0.00    -0.267 OA
ATOM     19  H   UNL A   1      42.822  42.658  20.070  1.00  0.00     0.164 HD
BRANCH  17  20
ATOM     20  C   UNL A   1      44.535  44.826  18.321  1.00  0.00     0.140 A 
ATOM     21  N   UNL A   1      44.010  46.036  17.915  1.00  0.00    -0.259 N 
ATOM     22  N   UNL A   1      44.959  46.987  17.729  1.00  0.00    -0.180 NA
ATOM     23  C   UNL A   1      46.077  46.421  18.186  1.00  0.00     0.151 A 
ATOM     24  C   UNL A   1      45.860  45.098  18.579  1.00  0.00     0.069 A 
ATOM     25  Br  UNL A   1      47.145  44.000  19.379  1.00  0.00    -0.047 Br
BRANCH  21  26
ATOM     26  C   UNL A   1      42.608  46.425  17.941  1.00  0.00     0.142 C 
ATOM     27  C   UNL A   1      41.893  46.409  16.604  1.00  0.00     0.029 C 
ENDBRANCH  21  26
ENDBRANCH  17  20
ENDBRANCH   8  16
BRANCH  15  28
ATOM     28  C   UNL A   1      45.273  43.945  26.541  1.00  0.00     0.267 C 
BRANCH  28  29
ATOM     29  O   UNL A   1      45.979  42.847  27.145  1.00  0.00    -0.461 OA
BRANCH  29  30
ATOM     30  C   UNL A   1      47.258  42.471  26.925  1.00  0.00     0.302 C 
ATOM     31  C   UNL A   1      47.570  41.019  26.756  1.00  0.00     0.139 C 
ATOM     32  O   UNL A   1      48.162  43.306  26.933  1.00  0.00    -0.253 OA
ENDBRANCH  29  30
ENDBRANCH  28  29
ENDBRANCH  15  28
ENDBRANCH   4   7
ENDBRANCH   2   3
ENDBRANCH   1   2
BRANCH   1  33
ATOM     33  C   UNL A   1      41.900  39.550  27.508  1.00  0.00     0.023 C 
BRANCH  33  34
ATOM     34  C   UNL A   1      42.192  38.197  26.875  1.00  0.00     0.116 C 
BRANCH  34  35
ATOM     35  N   UNL A   1      43.608  37.921  26.637  1.00  0.00    -0.352 N 
ATOM     36  C   UNL A   1      44.489  37.278  27.490  1.00  0.00     0.251 C 
ATOM     37  H   UNL A   1      43.975  38.226  25.776  1.00  0.00     0.163 HD
ATOM     38  O   UNL A   1      45.703  37.386  27.379  1.00  0.00    -0.269 OA
BRANCH  36  39
ATOM     39  C   UNL A   1      43.911  36.432  28.548  1.00  0.00     0.039 A 
ATOM     40  C   UNL A   1      43.611  36.942  29.810  1.00  0.00     0.014 A 
ATOM     41  C   UNL A   1      43.524  35.147  28.184  1.00  0.00     0.014 A 
ATOM     42  C   UNL A   1      42.800  36.187  30.662  1.00  0.00     0.010 A 
ATOM     43  C   UNL A   1      42.621  34.467  28.971  1.00  0.00     0.010 A 
ATOM     44  C   UNL A   1      42.261  34.965  30.225  1.00  0.00    -0.014 A 
BRANCH  44  45
ATOM     45  C   UNL A   1      41.237  34.275  31.024  1.00  0.00     0.031 A 
ATOM     46  C   UNL A   1      41.548  34.017  32.467  1.00  0.00     0.074 A 
ATOM     47  C   UNL A   1      39.965  34.077  30.613  1.00  0.00     0.049 A 
ATOM     48  N   UNL A   1      41.565  32.879  33.087  1.00  0.00    -0.248 NA
ATOM     49  C   UNL A   1      41.892  35.163  33.323  1.00  0.00     0.031 C 
ATOM     50  C   UNL A   1      39.326  34.525  29.370  1.00  0.00     0.029 A 
ATOM     51  N   UNL A   1      38.929  33.515  31.302  1.00  0.00    -0.354 N 
ATOM     52  C   UNL A   1      41.766  33.166  34.439  1.00  0.00     0.074 A 
ATOM     53  C   UNL A   1      42.057  34.577  34.511  1.00  0.00     0.031 C 
ATOM     54  C   UNL A   1      37.986  34.440  29.497  1.00  0.00     0.029 A 
ATOM     55  C   UNL A   1      37.687  33.750  30.737  1.00  0.00     0.049 A 
ATOM     56  H   UNL A   1      39.053  32.990  32.125  1.00  0.00     0.167 HD
ATOM     57  C   UNL A   1      41.510  32.255  35.420  1.00  0.00     0.037 A 
ATOM     58  C   UNL A   1      36.477  33.408  31.232  1.00  0.00     0.037 A 
ATOM     59  C   UNL A   1      41.392  30.922  34.893  1.00  0.00     0.049 A 
ATOM     60  C   UNL A   1      36.673  32.302  32.191  1.00  0.00     0.074 A 
ATOM     61  C   UNL A   1      42.218  30.054  34.208  1.00  0.00     0.029 A 
ATOM     62  N   UNL A   1      40.133  30.386  34.797  1.00  0.00    -0.354 N 
ATOM     63  N   UNL A   1      37.059  31.102  31.857  1.00  0.00    -0.248 NA
ATOM     64  C   UNL A   1      36.768  32.614  33.608  1.00  0.00     0.031 C 
ATOM     65  C   UNL A   1      41.350  29.318  33.347  1.00  0.00     0.029 A 
ATOM     66  C   UNL A   1      40.050  29.770  33.578  1.00  0.00     0.049 A 
ATOM     67  H   UNL A   1      39.423  30.436  35.478  1.00  0.00     0.167 HD
ATOM     68  C   UNL A   1      37.830  30.671  32.923  1.00  0.00     0.074 A 
ATOM     69  C   UNL A   1      37.487  31.567  34.020  1.00  0.00     0.031 C 
ATOM     70  C   UNL A   1      38.875  29.813  32.736  1.00  0.00     0.037 A 
BRANCH  57  71
ATOM     71  C   UNL A   1      41.046  32.582  36.822  1.00  0.00     0.057 A 
ATOM     72  C   UNL A   1      39.871  33.341  37.008  1.00  0.00     0.134 A 
ATOM     73  C   UNL A   1      41.855  32.449  37.966  1.00  0.00     0.134 A 
ATOM     74  F   UNL A   1      39.024  33.561  35.991  1.00  0.00    -0.206 F 
ATOM     75  C   UNL A   1      39.565  33.975  38.220  1.00  0.00     0.040 A 
ATOM     76  C   UNL A   1      41.531  33.035  39.196  1.00  0.00     0.040 A 
ATOM     77  F   UNL A   1      43.042  31.831  37.928  1.00  0.00    -0.206 F 
ATOM     78  C   UNL A   1      40.401  33.828  39.318  1.00  0.00     0.006 A 
ENDBRANCH  57  71
BRANCH  58  79
ATOM     79  C   UNL A   1      35.191  34.100  31.034  1.00  0.00     0.057 A 
ATOM     80  C   UNL A   1      34.769  35.127  31.885  1.00  0.00     0.134 A 
ATOM     81  C   UNL A   1      34.446  33.919  29.855  1.00  0.00     0.134 A 
ATOM     82  F   UNL A   1      35.440  35.395  33.014  1.00  0.00    -0.206 F 
ATOM     83  C   UNL A   1      33.670  35.938  31.576  1.00  0.00     0.040 A 
ATOM     84  C   UNL A   1      33.345  34.718  29.536  1.00  0.00     0.040 A 
ATOM     85  F   UNL A   1      34.810  33.008  28.940  1.00  0.00    -0.206 F 
ATOM     86  C   UNL A   1      32.960  35.741  30.395  1.00  0.00     0.006 A 
ENDBRANCH  58  79
BRANCH  70  87
ATOM     87  C   UNL A   1      38.957  29.078  31.427  1.00  0.00     0.057 A 
ATOM     88  C   UNL A   1      39.491  29.625  30.251  1.00  0.00     0.134 A 
ATOM     89  C   UNL A   1      38.614  27.722  31.394  1.00  0.00     0.134 A 
ATOM     90  F   UNL A   1      39.943  30.884  30.216  1.00  0.00    -0.206 F 
ATOM     91  C   UNL A   1      39.632  28.870  29.084  1.00  0.00     0.040 A 
ATOM     92  C   UNL A   1      38.781  26.947  30.243  1.00  0.00     0.040 A 
ATOM     93  F   UNL A   1      38.154  27.113  32.498  1.00  0.00    -0.206 F 
ATOM     94  C   UNL A   1      39.280  27.524  29.079  1.00  0.00     0.006 A 
ENDBRANCH  70  87
ENDBRANCH  44  45
ENDBRANCH  36  39
ENDBRANCH  34  35
ENDBRANCH  33  34
ENDBRANCH   1  33
TORSDOF 17
ENDMDL
