MODEL 1
REMARK VINA RESULT:     -12.3      0.000      0.000
REMARK SMILES O=C(NCCCCNC(=O)[C@H]1CCCCN1C(=O)c1cn2ccccc2n1)c1ccc(-c2c3nc(c(-c4c(F)cccc4F)c4ccc([nH]4)c(-c4c(F)cccc4F)c4nc(c(-c5c(F)cccc5F)c5ccc2[nH]5)C=C4)C=C3)cc1
REMARK SMILES IDX 5 1 4 2 3 3 1 4 2 5 28 7 29 8 81 9 30 10 80 11 31 12 32 13
REMARK SMILES IDX 33 14 74 15 34 16 79 17 73 18 75 19 35 20 78 21 72 22 71 23
REMARK SMILES IDX 36 25 62 26 45 27 61 28 46 29 49 30 60 31 76 32 47 33 48 34
REMARK SMILES IDX 59 36 77 37 50 38 37 39 38 40 43 41 39 42 40 43 42 44 44 45
REMARK SMILES IDX 41 46 63 47 64 48 69 49 65 50 66 51 68 52 70 53 67 54 51 55
REMARK SMILES IDX 52 56 57 57 53 58 54 59 56 60 58 61 55 62 6 63 7 64 8 65
REMARK SMILES IDX 9 66 10 68 11 69 12 70 16 71 13 72 15 73 14 74 17 75 18 76
REMARK SMILES IDX 19 77 20 78 27 79 21 80 26 81 22 82 25 83 23 84 24 85
REMARK H PARENT 3 6 75 24 49 35 8 67
REMARK Flexibility Score: inf
ROOT
ATOM      1  C   UNL A   1      37.690  20.307  24.686  1.00  0.00     0.023 C 
ENDROOT
BRANCH   1   2
ATOM      2  C   UNL A   1      38.749  20.489  25.766  1.00  0.00     0.116 C 
BRANCH   2   3
ATOM      3  N   UNL A   1      39.798  19.477  25.733  1.00  0.00    -0.352 N 
ATOM      4  O   UNL A   1      41.889  18.635  25.857  1.00  0.00    -0.269 OA
ATOM      5  C   UNL A   1      41.135  19.576  26.050  1.00  0.00     0.251 C 
ATOM      6  H   UNL A   1      39.505  18.584  25.438  1.00  0.00     0.163 HD
BRANCH   5   7
ATOM      7  C   UNL A   1      41.658  20.847  26.592  1.00  0.00     0.039 A 
ATOM      8  C   UNL A   1      41.695  21.060  27.969  1.00  0.00     0.014 A 
ATOM      9  C   UNL A   1      42.073  21.850  25.710  1.00  0.00     0.014 A 
ATOM     10  C   UNL A   1      41.951  22.334  28.455  1.00  0.00     0.010 A 
ATOM     11  C   UNL A   1      42.438  23.102  26.212  1.00  0.00     0.010 A 
ATOM     12  C   UNL A   1      42.336  23.368  27.585  1.00  0.00    -0.014 A 
BRANCH  12  13
ATOM     13  C   UNL A   1      42.674  24.695  28.156  1.00  0.00     0.031 A 
ATOM     14  C   UNL A   1      44.092  25.066  28.495  1.00  0.00     0.074 A 
ATOM     15  C   UNL A   1      41.681  25.590  28.318  1.00  0.00     0.049 A 
ATOM     16  N   UNL A   1      44.551  26.192  28.984  1.00  0.00    -0.248 NA
ATOM     17  C   UNL A   1      45.129  24.049  28.265  1.00  0.00     0.031 C 
ATOM     18  C   UNL A   1      40.266  25.338  28.030  1.00  0.00     0.029 A 
ATOM     19  N   UNL A   1      41.705  26.895  28.737  1.00  0.00    -0.354 N 
ATOM     20  C   UNL A   1      45.918  26.009  29.148  1.00  0.00     0.074 A 
ATOM     21  C   UNL A   1      46.218  24.660  28.716  1.00  0.00     0.031 C 
ATOM     22  C   UNL A   1      39.569  26.465  28.224  1.00  0.00     0.029 A 
ATOM     23  C   UNL A   1      40.470  27.496  28.721  1.00  0.00     0.049 A 
ATOM     24  H   UNL A   1      42.527  27.356  29.021  1.00  0.00     0.167 HD
ATOM     25  C   UNL A   1      46.836  26.889  29.613  1.00  0.00     0.037 A 
ATOM     26  C   UNL A   1      40.097  28.736  29.085  1.00  0.00     0.037 A 
ATOM     27  C   UNL A   1      46.536  28.242  30.010  1.00  0.00     0.049 A 
ATOM     28  C   UNL A   1      41.136  29.684  29.599  1.00  0.00     0.074 A 
ATOM     29  C   UNL A   1      47.405  29.223  30.455  1.00  0.00     0.029 A 
ATOM     30  N   UNL A   1      45.268  28.804  30.008  1.00  0.00    -0.354 N 
ATOM     31  N   UNL A   1      42.427  29.500  29.729  1.00  0.00    -0.248 NA
ATOM     32  C   UNL A   1      40.667  31.008  30.026  1.00  0.00     0.031 C 
ATOM     33  C   UNL A   1      46.659  30.366  30.758  1.00  0.00     0.029 A 
ATOM     34  C   UNL A   1      45.330  30.111  30.464  1.00  0.00     0.049 A 
ATOM     35  H   UNL A   1      44.446  28.343  29.725  1.00  0.00     0.167 HD
ATOM     36  C   UNL A   1      42.927  30.685  30.250  1.00  0.00     0.074 A 
ATOM     37  C   UNL A   1      41.803  31.590  30.384  1.00  0.00     0.031 C 
ATOM     38  C   UNL A   1      44.200  30.993  30.594  1.00  0.00     0.037 A 
BRANCH  25  39
ATOM     39  C   UNL A   1      48.258  26.426  29.737  1.00  0.00     0.057 A 
ATOM     40  C   UNL A   1      49.207  26.670  28.737  1.00  0.00     0.134 A 
ATOM     41  C   UNL A   1      48.701  25.798  30.909  1.00  0.00     0.134 A 
ATOM     42  F   UNL A   1      48.847  27.259  27.586  1.00  0.00    -0.206 F 
ATOM     43  C   UNL A   1      50.545  26.301  28.896  1.00  0.00     0.040 A 
ATOM     44  C   UNL A   1      50.039  25.441  31.087  1.00  0.00     0.040 A 
ATOM     45  F   UNL A   1      47.844  25.541  31.908  1.00  0.00    -0.206 F 
ATOM     46  C   UNL A   1      50.966  25.693  30.078  1.00  0.00     0.006 A 
ENDBRANCH  25  39
BRANCH  26  47
ATOM     47  C   UNL A   1      38.670  29.131  28.995  1.00  0.00     0.057 A 
ATOM     48  C   UNL A   1      38.114  29.571  27.790  1.00  0.00     0.134 A 
ATOM     49  C   UNL A   1      37.827  29.061  30.111  1.00  0.00     0.134 A 
ATOM     50  F   UNL A   1      38.876  29.672  26.691  1.00  0.00    -0.206 F 
ATOM     51  C   UNL A   1      36.771  29.939  27.699  1.00  0.00     0.040 A 
ATOM     52  C   UNL A   1      36.476  29.400  30.028  1.00  0.00     0.040 A 
ATOM     53  F   UNL A   1      38.300  28.637  31.291  1.00  0.00    -0.206 F 
ATOM     54  C   UNL A   1      35.947  29.847  28.820  1.00  0.00     0.006 A 
ENDBRANCH  26  47
BRANCH  38  55
ATOM     55  C   UNL A   1      44.437  32.370  31.133  1.00  0.00     0.057 A 
ATOM     56  C   UNL A   1      44.385  32.638  32.507  1.00  0.00     0.134 A 
ATOM     57  C   UNL A   1      44.731  33.434  30.272  1.00  0.00     0.134 A 
ATOM     58  F   UNL A   1      44.091  31.663  33.379  1.00  0.00    -0.206 F 
ATOM     59  C   UNL A   1      44.595  33.925  33.004  1.00  0.00     0.040 A 
ATOM     60  C   UNL A   1      44.964  34.720  30.760  1.00  0.00     0.040 A 
ATOM     61  F   UNL A   1      44.799  33.239  28.947  1.00  0.00    -0.206 F 
ATOM     62  C   UNL A   1      44.889  34.969  32.128  1.00  0.00     0.006 A 
ENDBRANCH  38  55
ENDBRANCH  12  13
ENDBRANCH   5   7
ENDBRANCH   2   3
ENDBRANCH   1   2
BRANCH   1  63
ATOM     63  C   UNL A   1      36.271  20.693  25.087  1.00  0.00     0.023 C 
BRANCH  63  64
ATOM     64  C   UNL A   1      36.126  22.016  25.828  1.00  0.00     0.116 C 
BRANCH  64  65
ATOM     65  N   UNL A   1      35.278  21.958  26.993  1.00  0.00    -0.354 N 
ATOM     66  C   UNL A   1      34.032  22.447  27.229  1.00  0.00     0.242 C 
ATOM     67  H   UNL A   1      35.673  21.475  27.756  1.00  0.00     0.163 HD
ATOM     68  O   UNL A   1      33.498  22.015  28.262  1.00  0.00    -0.273 OA
BRANCH  66  69
ATOM     69  C   UNL A   1      33.252  23.443  26.319  1.00  0.00     0.174 C 
ATOM     70  C   UNL A   1      33.745  23.934  24.951  1.00  0.00     0.035 C 
ATOM     71  N   UNL A   1      31.867  22.981  26.141  1.00  0.00    -0.325 N 
ATOM     72  C   UNL A   1      33.471  22.973  23.779  1.00  0.00     0.004 C 
ATOM     73  C   UNL A   1      31.720  21.864  25.216  1.00  0.00     0.121 C 
ATOM     74  C   UNL A   1      32.077  22.345  23.815  1.00  0.00     0.022 C 
BRANCH  71  75
ATOM     75  C   UNL A   1      30.830  23.846  26.518  1.00  0.00     0.274 C 
ATOM     76  O   UNL A   1      29.946  23.513  27.304  1.00  0.00    -0.267 OA
BRANCH  75  77
ATOM     77  C   UNL A   1      30.887  25.216  26.007  1.00  0.00     0.147 A 
ATOM     78  C   UNL A   1      30.470  25.662  24.767  1.00  0.00     0.127 A 
ATOM     79  N   UNL A   1      31.407  26.267  26.747  1.00  0.00    -0.223 NA
ATOM     80  N   UNL A   1      30.757  27.002  24.739  1.00  0.00    -0.306 N 
ATOM     81  C   UNL A   1      31.306  27.327  25.974  1.00  0.00     0.137 A 
ATOM     82  C   UNL A   1      30.580  27.924  23.710  1.00  0.00     0.093 A 
ATOM     83  C   UNL A   1      31.667  28.687  26.188  1.00  0.00     0.048 A 
ATOM     84  C   UNL A   1      30.941  29.204  23.909  1.00  0.00     0.018 A 
ATOM     85  C   UNL A   1      31.495  29.587  25.200  1.00  0.00     0.005 A 
ENDBRANCH  75  77
ENDBRANCH  71  75
ENDBRANCH  66  69
ENDBRANCH  64  65
ENDBRANCH  63  64
ENDBRANCH   1  63
TORSDOF 13
ENDMDL
MODEL 2
REMARK VINA RESULT:     -12.2      0.358      6.178
REMARK SMILES O=C(NCCCCNC(=O)[C@H]1CCCCN1C(=O)c1cn2ccccc2n1)c1ccc(-c2c3nc(c(-c4c(F)cccc4F)c4ccc([nH]4)c(-c4c(F)cccc4F)c4nc(c(-c5c(F)cccc5F)c5ccc2[nH]5)C=C4)C=C3)cc1
REMARK SMILES IDX 5 1 4 2 3 3 1 4 2 5 28 7 29 8 81 9 30 10 80 11 31 12 32 13
REMARK SMILES IDX 33 14 74 15 34 16 79 17 73 18 75 19 35 20 78 21 72 22 71 23
REMARK SMILES IDX 36 25 62 26 45 27 61 28 46 29 49 30 60 31 76 32 47 33 48 34
REMARK SMILES IDX 59 36 77 37 50 38 37 39 38 40 43 41 39 42 40 43 42 44 44 45
REMARK SMILES IDX 41 46 63 47 64 48 69 49 65 50 66 51 68 52 70 53 67 54 51 55
REMARK SMILES IDX 52 56 57 57 53 58 54 59 56 60 58 61 55 62 6 63 7 64 8 65
REMARK SMILES IDX 9 66 10 68 11 69 12 70 16 71 13 72 15 73 14 74 17 75 18 76
REMARK SMILES IDX 19 77 20 78 27 79 21 80 26 81 22 82 25 83 23 84 24 85
REMARK H PARENT 3 6 75 24 49 35 8 67
REMARK Flexibility Score: inf
ROOT
ATOM      1  C   UNL A   1      37.729  20.132  24.931  1.00  0.00     0.023 C 
ENDROOT
BRANCH   1   2
ATOM      2  C   UNL A   1      38.903  20.470  25.842  1.00  0.00     0.116 C 
BRANCH   2   3
ATOM      3  N   UNL A   1      39.956  19.462  25.838  1.00  0.00    -0.352 N 
ATOM      4  O   UNL A   1      42.051  18.633  25.974  1.00  0.00    -0.269 OA
ATOM      5  C   UNL A   1      41.296  19.578  26.137  1.00  0.00     0.251 C 
ATOM      6  H   UNL A   1      39.663  18.557  25.580  1.00  0.00     0.163 HD
BRANCH   5   7
ATOM      7  C   UNL A   1      41.818  20.871  26.623  1.00  0.00     0.039 A 
ATOM      8  C   UNL A   1      41.807  21.164  27.986  1.00  0.00     0.014 A 
ATOM      9  C   UNL A   1      42.283  21.814  25.702  1.00  0.00     0.014 A 
ATOM     10  C   UNL A   1      42.065  22.461  28.407  1.00  0.00     0.010 A 
ATOM     11  C   UNL A   1      42.649  23.089  26.143  1.00  0.00     0.010 A 
ATOM     12  C   UNL A   1      42.499  23.436  27.494  1.00  0.00    -0.014 A 
BRANCH  12  13
ATOM     13  C   UNL A   1      42.838  24.791  27.999  1.00  0.00     0.031 A 
ATOM     14  C   UNL A   1      41.773  25.821  28.257  1.00  0.00     0.074 A 
ATOM     15  C   UNL A   1      44.128  25.063  28.274  1.00  0.00     0.049 A 
ATOM     16  N   UNL A   1      41.907  27.042  28.715  1.00  0.00    -0.248 NA
ATOM     17  C   UNL A   1      40.383  25.444  27.962  1.00  0.00     0.031 C 
ATOM     18  C   UNL A   1      45.247  24.142  28.054  1.00  0.00     0.029 A 
ATOM     19  N   UNL A   1      44.717  26.175  28.817  1.00  0.00    -0.354 N 
ATOM     20  C   UNL A   1      40.629  27.586  28.733  1.00  0.00     0.074 A 
ATOM     21  C   UNL A   1      39.730  26.568  28.232  1.00  0.00     0.031 C 
ATOM     22  C   UNL A   1      46.375  24.702  28.512  1.00  0.00     0.029 A 
ATOM     23  C   UNL A   1      46.073  26.046  28.986  1.00  0.00     0.049 A 
ATOM     24  H   UNL A   1      44.216  26.986  29.062  1.00  0.00     0.167 HD
ATOM     25  C   UNL A   1      40.246  28.821  29.136  1.00  0.00     0.037 A 
ATOM     26  C   UNL A   1      46.983  26.920  29.453  1.00  0.00     0.037 A 
ATOM     27  C   UNL A   1      41.142  29.818  29.665  1.00  0.00     0.049 A 
ATOM     28  C   UNL A   1      46.526  28.279  29.886  1.00  0.00     0.074 A 
ATOM     29  C   UNL A   1      40.841  31.084  30.138  1.00  0.00     0.029 A 
ATOM     30  N   UNL A   1      42.514  29.661  29.792  1.00  0.00    -0.354 N 
ATOM     31  N   UNL A   1      45.311  28.770  29.913  1.00  0.00    -0.248 NA
ATOM     32  C   UNL A   1      47.566  29.210  30.342  1.00  0.00     0.031 C 
ATOM     33  C   UNL A   1      42.035  31.706  30.516  1.00  0.00     0.029 A 
ATOM     34  C   UNL A   1      43.075  30.814  30.316  1.00  0.00     0.049 A 
ATOM     35  H   UNL A   1      43.015  28.850  29.546  1.00  0.00     0.167 HD
ATOM     36  C   UNL A   1      45.438  30.065  30.394  1.00  0.00     0.074 A 
ATOM     37  C   UNL A   1      46.846  30.273  30.671  1.00  0.00     0.031 C 
ATOM     38  C   UNL A   1      44.477  31.002  30.580  1.00  0.00     0.037 A 
BRANCH  25  39
ATOM     39  C   UNL A   1      38.794  29.184  29.012  1.00  0.00     0.057 A 
ATOM     40  C   UNL A   1      38.227  29.565  27.790  1.00  0.00     0.134 A 
ATOM     41  C   UNL A   1      37.938  29.071  30.116  1.00  0.00     0.134 A 
ATOM     42  F   UNL A   1      38.993  29.701  26.697  1.00  0.00    -0.206 F 
ATOM     43  C   UNL A   1      36.860  29.827  27.671  1.00  0.00     0.040 A 
ATOM     44  C   UNL A   1      36.567  29.312  30.005  1.00  0.00     0.040 A 
ATOM     45  F   UNL A   1      38.417  28.704  31.313  1.00  0.00    -0.206 F 
ATOM     46  C   UNL A   1      36.025  29.692  28.780  1.00  0.00     0.006 A 
ENDBRANCH  25  39
BRANCH  26  47
ATOM     47  C   UNL A   1      48.414  26.535  29.506  1.00  0.00     0.057 A 
ATOM     48  C   UNL A   1      49.285  26.834  28.454  1.00  0.00     0.134 A 
ATOM     49  C   UNL A   1      48.946  25.874  30.620  1.00  0.00     0.134 A 
ATOM     50  F   UNL A   1      48.830  27.453  27.354  1.00  0.00    -0.206 F 
ATOM     51  C   UNL A   1      50.634  26.477  28.501  1.00  0.00     0.040 A 
ATOM     52  C   UNL A   1      50.298  25.536  30.692  1.00  0.00     0.040 A 
ATOM     53  F   UNL A   1      48.163  25.570  31.665  1.00  0.00    -0.206 F 
ATOM     54  C   UNL A   1      51.144  25.832  29.626  1.00  0.00     0.006 A 
ENDBRANCH  26  47
BRANCH  38  55
ATOM     55  C   UNL A   1      44.924  32.325  31.121  1.00  0.00     0.057 A 
ATOM     56  C   UNL A   1      45.288  33.379  30.274  1.00  0.00     0.134 A 
ATOM     57  C   UNL A   1      44.978  32.551  32.502  1.00  0.00     0.134 A 
ATOM     58  F   UNL A   1      45.273  33.216  28.943  1.00  0.00    -0.206 F 
ATOM     59  C   UNL A   1      45.715  34.606  30.783  1.00  0.00     0.040 A 
ATOM     60  C   UNL A   1      45.381  33.781  33.022  1.00  0.00     0.040 A 
ATOM     61  F   UNL A   1      44.636  31.582  33.365  1.00  0.00    -0.206 F 
ATOM     62  C   UNL A   1      45.757  34.810  32.161  1.00  0.00     0.006 A 
ENDBRANCH  38  55
ENDBRANCH  12  13
ENDBRANCH   5   7
ENDBRANCH   2   3
ENDBRANCH   1   2
BRANCH   1  63
ATOM     63  C   UNL A   1      36.791  21.290  24.612  1.00  0.00     0.023 C 
BRANCH  63  64
ATOM     64  C   UNL A   1      36.555  22.285  25.742  1.00  0.00     0.116 C 
BRANCH  64  65
ATOM     65  N   UNL A   1      35.586  21.857  26.721  1.00  0.00    -0.354 N 
ATOM     66  C   UNL A   1      34.278  22.183  26.899  1.00  0.00     0.242 C 
ATOM     67  H   UNL A   1      35.935  21.213  27.379  1.00  0.00     0.163 HD
ATOM     68  O   UNL A   1      33.673  21.453  27.699  1.00  0.00    -0.273 OA
BRANCH  66  69
ATOM     69  C   UNL A   1      33.516  23.337  26.181  1.00  0.00     0.174 C 
ATOM     70  C   UNL A   1      33.996  24.024  24.896  1.00  0.00     0.035 C 
ATOM     71  N   UNL A   1      32.111  22.953  25.970  1.00  0.00    -0.325 N 
ATOM     72  C   UNL A   1      33.662  23.272  23.594  1.00  0.00     0.004 C 
ATOM     73  C   UNL A   1      31.904  22.005  24.883  1.00  0.00     0.121 C 
ATOM     74  C   UNL A   1      32.247  22.692  23.567  1.00  0.00     0.022 C 
BRANCH  71  75
ATOM     75  C   UNL A   1      31.115  23.780  26.508  1.00  0.00     0.274 C 
ATOM     76  O   UNL A   1      30.317  23.385  27.357  1.00  0.00    -0.267 OA
BRANCH  75  77
ATOM     77  C   UNL A   1      31.113  25.181  26.086  1.00  0.00     0.147 A 
ATOM     78  C   UNL A   1      30.651  25.691  24.887  1.00  0.00     0.127 A 
ATOM     79  N   UNL A   1      31.612  26.200  26.882  1.00  0.00    -0.223 NA
ATOM     80  N   UNL A   1      30.891  27.039  24.940  1.00  0.00    -0.306 N 
ATOM     81  C   UNL A   1      31.457  27.303  26.183  1.00  0.00     0.137 A 
ATOM     82  C   UNL A   1      30.659  28.019  23.979  1.00  0.00     0.093 A 
ATOM     83  C   UNL A   1      31.776  28.659  26.478  1.00  0.00     0.048 A 
ATOM     84  C   UNL A   1      30.980  29.296  24.253  1.00  0.00     0.018 A 
ATOM     85  C   UNL A   1      31.550  29.614  25.554  1.00  0.00     0.005 A 
ENDBRANCH  75  77
ENDBRANCH  71  75
ENDBRANCH  66  69
ENDBRANCH  64  65
ENDBRANCH  63  64
ENDBRANCH   1  63
TORSDOF 13
ENDMDL
MODEL 3
REMARK VINA RESULT:     -12.2      4.253      9.245
REMARK SMILES O=C(NCCCCNC(=O)[C@H]1CCCCN1C(=O)c1cn2ccccc2n1)c1ccc(-c2c3nc(c(-c4c(F)cccc4F)c4ccc([nH]4)c(-c4c(F)cccc4F)c4nc(c(-c5c(F)cccc5F)c5ccc2[nH]5)C=C4)C=C3)cc1
REMARK SMILES IDX 5 1 4 2 3 3 1 4 2 5 28 7 29 8 81 9 30 10 80 11 31 12 32 13
REMARK SMILES IDX 33 14 74 15 34 16 79 17 73 18 75 19 35 20 78 21 72 22 71 23
REMARK SMILES IDX 36 25 62 26 45 27 61 28 46 29 49 30 60 31 76 32 47 33 48 34
REMARK SMILES IDX 59 36 77 37 50 38 37 39 38 40 43 41 39 42 40 43 42 44 44 45
REMARK SMILES IDX 41 46 63 47 64 48 69 49 65 50 66 51 68 52 70 53 67 54 51 55
REMARK SMILES IDX 52 56 57 57 53 58 54 59 56 60 58 61 55 62 6 63 7 64 8 65
REMARK SMILES IDX 9 66 10 68 11 69 12 70 16 71 13 72 15 73 14 74 17 75 18 76
REMARK SMILES IDX 19 77 20 78 27 79 21 80 26 81 22 82 25 83 23 84 24 85
REMARK H PARENT 3 6 75 24 49 35 8 67
REMARK Flexibility Score: inf
ROOT
ATOM      1  C   UNL A   1      31.564  31.665  26.516  1.00  0.00     0.023 C 
ENDROOT
BRANCH   1   2
ATOM      2  C   UNL A   1      32.790  32.389  27.057  1.00  0.00     0.116 C 
BRANCH   2   3
ATOM      3  N   UNL A   1      32.520  33.756  27.486  1.00  0.00    -0.352 N 
ATOM      4  O   UNL A   1      32.687  35.615  28.756  1.00  0.00    -0.269 OA
ATOM      5  C   UNL A   1      33.124  34.513  28.467  1.00  0.00     0.251 C 
ATOM      6  H   UNL A   1      31.792  34.208  27.000  1.00  0.00     0.163 HD
BRANCH   5   7
ATOM      7  C   UNL A   1      34.288  33.962  29.192  1.00  0.00     0.039 A 
ATOM      8  C   UNL A   1      35.579  34.369  28.858  1.00  0.00     0.014 A 
ATOM      9  C   UNL A   1      34.085  32.998  30.183  1.00  0.00     0.014 A 
ATOM     10  C   UNL A   1      36.666  33.672  29.366  1.00  0.00     0.010 A 
ATOM     11  C   UNL A   1      35.186  32.373  30.775  1.00  0.00     0.010 A 
ATOM     12  C   UNL A   1      36.485  32.673  30.338  1.00  0.00    -0.014 A 
BRANCH  12  13
ATOM     13  C   UNL A   1      37.680  32.006  30.910  1.00  0.00     0.031 A 
ATOM     14  C   UNL A   1      38.165  32.320  32.299  1.00  0.00     0.074 A 
ATOM     15  C   UNL A   1      38.299  31.065  30.172  1.00  0.00     0.049 A 
ATOM     16  N   UNL A   1      39.183  31.809  32.947  1.00  0.00    -0.248 NA
ATOM     17  C   UNL A   1      37.424  33.337  33.059  1.00  0.00     0.031 C 
ATOM     18  C   UNL A   1      37.920  30.684  28.807  1.00  0.00     0.029 A 
ATOM     19  N   UNL A   1      39.354  30.241  30.464  1.00  0.00    -0.354 N 
ATOM     20  C   UNL A   1      39.223  32.462  34.173  1.00  0.00     0.074 A 
ATOM     21  C   UNL A   1      38.133  33.414  34.179  1.00  0.00     0.031 C 
ATOM     22  C   UNL A   1      38.690  29.664  28.405  1.00  0.00     0.029 A 
ATOM     23  C   UNL A   1      39.663  29.369  29.449  1.00  0.00     0.049 A 
ATOM     24  H   UNL A   1      39.841  30.270  31.318  1.00  0.00     0.167 HD
ATOM     25  C   UNL A   1      40.089  32.276  35.198  1.00  0.00     0.037 A 
ATOM     26  C   UNL A   1      40.638  28.447  29.355  1.00  0.00     0.037 A 
ATOM     27  C   UNL A   1      41.151  31.303  35.198  1.00  0.00     0.049 A 
ATOM     28  C   UNL A   1      41.581  28.270  30.505  1.00  0.00     0.074 A 
ATOM     29  C   UNL A   1      42.055  31.012  36.206  1.00  0.00     0.029 A 
ATOM     30  N   UNL A   1      41.452  30.460  34.138  1.00  0.00    -0.354 N 
ATOM     31  N   UNL A   1      41.592  28.883  31.663  1.00  0.00    -0.248 NA
ATOM     32  C   UNL A   1      42.654  27.283  30.332  1.00  0.00     0.031 C 
ATOM     33  C   UNL A   1      42.926  30.021  35.743  1.00  0.00     0.029 A 
ATOM     34  C   UNL A   1      42.540  29.665  34.462  1.00  0.00     0.049 A 
ATOM     35  H   UNL A   1      40.966  30.431  33.283  1.00  0.00     0.167 HD
ATOM     36  C   UNL A   1      42.668  28.354  32.360  1.00  0.00     0.074 A 
ATOM     37  C   UNL A   1      43.269  27.350  31.504  1.00  0.00     0.031 C 
ATOM     38  C   UNL A   1      43.124  28.676  33.594  1.00  0.00     0.037 A 
BRANCH  25  39
ATOM     39  C   UNL A   1      39.944  33.150  36.410  1.00  0.00     0.057 A 
ATOM     40  C   UNL A   1      40.655  34.348  36.550  1.00  0.00     0.134 A 
ATOM     41  C   UNL A   1      39.019  32.826  37.411  1.00  0.00     0.134 A 
ATOM     42  F   UNL A   1      41.563  34.712  35.631  1.00  0.00    -0.206 F 
ATOM     43  C   UNL A   1      40.456  35.190  37.646  1.00  0.00     0.040 A 
ATOM     44  C   UNL A   1      38.797  33.669  38.502  1.00  0.00     0.040 A 
ATOM     45  F   UNL A   1      38.301  31.696  37.335  1.00  0.00    -0.206 F 
ATOM     46  C   UNL A   1      39.518  34.855  38.622  1.00  0.00     0.006 A 
ENDBRANCH  25  39
BRANCH  26  47
ATOM     47  C   UNL A   1      40.775  27.644  28.115  1.00  0.00     0.057 A 
ATOM     48  C   UNL A   1      41.542  28.099  27.039  1.00  0.00     0.134 A 
ATOM     49  C   UNL A   1      40.153  26.396  27.987  1.00  0.00     0.134 A 
ATOM     50  F   UNL A   1      42.149  29.293  27.098  1.00  0.00    -0.206 F 
ATOM     51  C   UNL A   1      41.678  27.345  25.872  1.00  0.00     0.040 A 
ATOM     52  C   UNL A   1      40.303  25.620  26.838  1.00  0.00     0.040 A 
ATOM     53  F   UNL A   1      39.413  25.902  28.991  1.00  0.00    -0.206 F 
ATOM     54  C   UNL A   1      41.062  26.098  25.773  1.00  0.00     0.006 A 
ENDBRANCH  26  47
BRANCH  38  55
ATOM     55  C   UNL A   1      44.320  27.921  34.088  1.00  0.00     0.057 A 
ATOM     56  C   UNL A   1      45.621  28.406  33.902  1.00  0.00     0.134 A 
ATOM     57  C   UNL A   1      44.168  26.705  34.765  1.00  0.00     0.134 A 
ATOM     58  F   UNL A   1      45.830  29.556  33.246  1.00  0.00    -0.206 F 
ATOM     59  C   UNL A   1      46.733  27.693  34.353  1.00  0.00     0.040 A 
ATOM     60  C   UNL A   1      45.271  25.995  35.240  1.00  0.00     0.040 A 
ATOM     61  F   UNL A   1      42.947  26.192  34.978  1.00  0.00    -0.206 F 
ATOM     62  C   UNL A   1      46.558  26.486  35.029  1.00  0.00     0.006 A 
ENDBRANCH  38  55
ENDBRANCH  12  13
ENDBRANCH   5   7
ENDBRANCH   2   3
ENDBRANCH   1   2
BRANCH   1  63
ATOM     63  C   UNL A   1      31.700  30.153  26.383  1.00  0.00     0.023 C 
BRANCH  63  64
ATOM     64  C   UNL A   1      33.064  29.646  25.931  1.00  0.00     0.116 C 
BRANCH  64  65
ATOM     65  N   UNL A   1      33.279  29.701  24.505  1.00  0.00    -0.354 N 
ATOM     66  C   UNL A   1      33.283  28.729  23.554  1.00  0.00     0.242 C 
ATOM     67  H   UNL A   1      33.453  30.606  24.159  1.00  0.00     0.163 HD
ATOM     68  O   UNL A   1      33.268  29.152  22.389  1.00  0.00    -0.273 OA
BRANCH  66  69
ATOM     69  C   UNL A   1      33.275  27.193  23.816  1.00  0.00     0.174 C 
ATOM     70  C   UNL A   1      32.967  26.547  25.173  1.00  0.00     0.035 C 
ATOM     71  N   UNL A   1      32.437  26.518  22.812  1.00  0.00    -0.325 N 
ATOM     72  C   UNL A   1      31.468  26.398  25.495  1.00  0.00     0.004 C 
ATOM     73  C   UNL A   1      31.003  26.664  23.032  1.00  0.00     0.121 C 
ATOM     74  C   UNL A   1      30.629  25.922  24.308  1.00  0.00     0.022 C 
BRANCH  71  75
ATOM     75  C   UNL A   1      33.026  25.518  22.026  1.00  0.00     0.274 C 
ATOM     76  O   UNL A   1      33.252  25.669  20.827  1.00  0.00    -0.267 OA
BRANCH  75  77
ATOM     77  C   UNL A   1      33.455  24.299  22.712  1.00  0.00     0.147 A 
ATOM     78  C   UNL A   1      32.663  23.229  23.086  1.00  0.00     0.127 A 
ATOM     79  N   UNL A   1      34.770  24.080  23.091  1.00  0.00    -0.223 NA
ATOM     80  N   UNL A   1      33.501  22.352  23.723  1.00  0.00    -0.306 N 
ATOM     81  C   UNL A   1      34.776  22.905  23.682  1.00  0.00     0.137 A 
ATOM     82  C   UNL A   1      33.211  21.134  24.333  1.00  0.00     0.093 A 
ATOM     83  C   UNL A   1      35.831  22.152  24.270  1.00  0.00     0.048 A 
ATOM     84  C   UNL A   1      34.207  20.434  24.906  1.00  0.00     0.018 A 
ATOM     85  C   UNL A   1      35.560  20.969  24.858  1.00  0.00     0.005 A 
ENDBRANCH  75  77
ENDBRANCH  71  75
ENDBRANCH  66  69
ENDBRANCH  64  65
ENDBRANCH  63  64
ENDBRANCH   1  63
TORSDOF 13
ENDMDL
