MODEL 1
REMARK VINA RESULT:     -11.2      0.000      0.000
REMARK SMILES C[C@@H](Nc1ccc(C(=O)NCCCCNC(=O)c2ccc(-c3c4nc(c(-c5c(F)cccc5F)c5ccc([nH]5)c(-c5c(F)cccc5F)c5nc(c(-c6c(F)cccc6F)c6ccc3[nH]6)C=C5)C=C4)cc2)cc1)C1CC[NH+](C)CC1
REMARK SMILES IDX 12 1 11 2 10 3 8 4 9 5 7 7 4 8 5 9 73 10 6 11 72 12 3 13
REMARK SMILES IDX 2 15 1 16 74 17 75 18 80 19 76 20 79 21 77 22 78 23 13 25
REMARK SMILES IDX 14 26 15 27 16 28 17 30 18 31 19 32 71 33 20 34 70 35 21 36
REMARK SMILES IDX 22 37 23 38 64 39 24 40 69 41 63 42 65 43 25 44 68 45 62 46
REMARK SMILES IDX 61 47 26 49 52 50 35 51 51 52 36 53 39 54 50 55 66 56 37 57
REMARK SMILES IDX 38 58 49 60 67 61 40 62 27 63 28 64 33 65 29 66 30 67 32 68
REMARK SMILES IDX 34 69 31 70 53 71 54 72 59 73 55 74 56 75 58 76 60 77 57 78
REMARK SMILES IDX 41 79 42 80 47 81 43 82 44 83 46 84 48 85 45 86
REMARK H PARENT 10 6 3 14 77 24 15 29 65 48 39 59
REMARK Flexibility Score: inf
ROOT
ATOM      1  C   UNL A   1      36.642  21.357  24.728  1.00  0.00     0.023 C 
ENDROOT
BRANCH   1   2
ATOM      2  C   UNL A   1      35.562  21.509  25.801  1.00  0.00     0.116 C 
BRANCH   2   3
ATOM      3  N   UNL A   1      34.661  20.372  25.772  1.00  0.00    -0.352 N 
ATOM      4  C   UNL A   1      33.369  20.248  25.328  1.00  0.00     0.251 C 
ATOM      5  O   UNL A   1      32.829  19.146  25.415  1.00  0.00    -0.269 OA
ATOM      6  H   UNL A   1      35.045  19.542  26.135  1.00  0.00     0.163 HD
BRANCH   4   7
ATOM      7  C   UNL A   1      32.644  21.362  24.665  1.00  0.00     0.039 A 
ATOM      8  C   UNL A   1      31.616  23.620  23.319  1.00  0.00     0.034 A 
ATOM      9  C   UNL A   1      32.394  22.673  22.645  1.00  0.00     0.026 A 
ATOM     10  C   UNL A   1      31.255  23.349  24.640  1.00  0.00     0.026 A 
ATOM     11  C   UNL A   1      32.911  21.561  23.308  1.00  0.00     0.016 A 
ATOM     12  C   UNL A   1      31.747  22.219  25.304  1.00  0.00     0.016 A 
BRANCH   8  13
ATOM     13  N   UNL A   1      31.380  24.822  22.688  1.00  0.00    -0.382 N 
ATOM     14  H   UNL A   1      31.037  24.774  21.766  1.00  0.00     0.160 HD
BRANCH  13  15
ATOM     15  C   UNL A   1      31.586  26.165  23.241  1.00  0.00     0.079 C 
ATOM     16  C   UNL A   1      30.757  27.108  22.360  1.00  0.00     0.031 C 
BRANCH  15  17
ATOM     17  C   UNL A   1      33.108  26.526  23.358  1.00  0.00     0.022 C 
ATOM     18  C   UNL A   1      33.648  26.322  24.782  1.00  0.00     0.067 C 
ATOM     19  C   UNL A   1      33.548  27.905  22.844  1.00  0.00     0.067 C 
ATOM     20  C   UNL A   1      33.314  27.477  25.715  1.00  0.00     0.262 C 
ATOM     21  C   UNL A   1      33.340  29.052  23.838  1.00  0.00     0.262 C 
ATOM     22  N   UNL A   1      33.819  28.749  25.191  1.00  0.00    -0.337 N 
ATOM     23  C   UNL A   1      33.472  29.841  26.104  1.00  0.00     0.332 C 
ATOM     24  H   UNL A   1      34.833  28.656  25.127  1.00  0.00     0.347 HD
ENDBRANCH  15  17
ENDBRANCH  13  15
ENDBRANCH   8  13
ENDBRANCH   4   7
ENDBRANCH   2   3
ENDBRANCH   1   2
BRANCH   1  25
ATOM     25  C   UNL A   1      37.613  20.199  24.980  1.00  0.00     0.023 C 
BRANCH  25  26
ATOM     26  C   UNL A   1      38.883  20.578  25.730  1.00  0.00     0.116 C 
BRANCH  26  27
ATOM     27  N   UNL A   1      39.879  19.518  25.735  1.00  0.00    -0.352 N 
ATOM     28  C   UNL A   1      41.209  19.590  26.081  1.00  0.00     0.251 C 
ATOM     29  H   UNL A   1      39.559  18.631  25.454  1.00  0.00     0.163 HD
ATOM     30  O   UNL A   1      41.947  18.629  25.925  1.00  0.00    -0.269 OA
BRANCH  28  31
ATOM     31  C   UNL A   1      41.744  20.863  26.606  1.00  0.00     0.039 A 
ATOM     32  C   UNL A   1      42.309  21.773  25.709  1.00  0.00     0.014 A 
ATOM     33  C   UNL A   1      41.644  21.172  27.964  1.00  0.00     0.014 A 
ATOM     34  C   UNL A   1      42.702  23.032  26.164  1.00  0.00     0.010 A 
ATOM     35  C   UNL A   1      41.978  22.449  28.404  1.00  0.00     0.010 A 
ATOM     36  C   UNL A   1      42.498  23.395  27.506  1.00  0.00    -0.014 A 
BRANCH  36  37
ATOM     37  C   UNL A   1      42.791  24.767  27.986  1.00  0.00     0.031 A 
ATOM     38  C   UNL A   1      44.186  25.145  28.389  1.00  0.00     0.074 A 
ATOM     39  C   UNL A   1      41.779  25.643  28.140  1.00  0.00     0.049 A 
ATOM     40  N   UNL A   1      44.618  26.260  28.919  1.00  0.00    -0.248 NA
ATOM     41  C   UNL A   1      45.229  24.126  28.195  1.00  0.00     0.031 C 
ATOM     42  C   UNL A   1      40.373  25.376  27.831  1.00  0.00     0.029 A 
ATOM     43  N   UNL A   1      41.776  26.930  28.612  1.00  0.00    -0.354 N 
ATOM     44  C   UNL A   1      45.976  26.073  29.136  1.00  0.00     0.074 A 
ATOM     45  C   UNL A   1      46.289  24.722  28.722  1.00  0.00     0.031 C 
ATOM     46  C   UNL A   1      39.646  26.470  28.107  1.00  0.00     0.029 A 
ATOM     47  C   UNL A   1      40.526  27.501  28.648  1.00  0.00     0.049 A 
ATOM     48  H   UNL A   1      42.592  27.402  28.898  1.00  0.00     0.167 HD
ATOM     49  C   UNL A   1      46.884  26.954  29.618  1.00  0.00     0.037 A 
ATOM     50  C   UNL A   1      40.133  28.714  29.082  1.00  0.00     0.037 A 
ATOM     51  C   UNL A   1      46.574  28.305  30.005  1.00  0.00     0.049 A 
ATOM     52  C   UNL A   1      41.158  29.670  29.621  1.00  0.00     0.074 A 
ATOM     53  C   UNL A   1      47.437  29.298  30.434  1.00  0.00     0.029 A 
ATOM     54  N   UNL A   1      45.300  28.851  30.014  1.00  0.00    -0.354 N 
ATOM     55  N   UNL A   1      42.453  29.505  29.752  1.00  0.00    -0.248 NA
ATOM     56  C   UNL A   1      40.670  30.980  30.075  1.00  0.00     0.031 C 
ATOM     57  C   UNL A   1      46.680  30.432  30.742  1.00  0.00     0.029 A 
ATOM     58  C   UNL A   1      45.350  30.159  30.466  1.00  0.00     0.049 A 
ATOM     59  H   UNL A   1      44.481  28.379  29.739  1.00  0.00     0.167 HD
ATOM     60  C   UNL A   1      42.935  30.695  30.281  1.00  0.00     0.074 A 
ATOM     61  C   UNL A   1      41.797  31.577  30.434  1.00  0.00     0.031 C 
ATOM     62  C   UNL A   1      44.208  31.024  30.612  1.00  0.00     0.037 A 
BRANCH  49  63
ATOM     63  C   UNL A   1      48.302  26.484  29.750  1.00  0.00     0.057 A 
ATOM     64  C   UNL A   1      49.250  26.706  28.742  1.00  0.00     0.134 A 
ATOM     65  C   UNL A   1      48.735  25.831  30.912  1.00  0.00     0.134 A 
ATOM     66  F   UNL A   1      48.897  27.315  27.601  1.00  0.00    -0.206 F 
ATOM     67  C   UNL A   1      50.571  26.275  28.874  1.00  0.00     0.040 A 
ATOM     68  C   UNL A   1      50.059  25.418  31.065  1.00  0.00     0.040 A 
ATOM     69  F   UNL A   1      47.879  25.591  31.917  1.00  0.00    -0.206 F 
ATOM     70  C   UNL A   1      50.979  25.634  30.043  1.00  0.00     0.006 A 
ENDBRANCH  49  63
BRANCH  50  71
ATOM     71  C   UNL A   1      38.701  29.097  29.010  1.00  0.00     0.057 A 
ATOM     72  C   UNL A   1      38.143  29.576  27.820  1.00  0.00     0.134 A 
ATOM     73  C   UNL A   1      37.861  29.000  30.126  1.00  0.00     0.134 A 
ATOM     74  F   UNL A   1      38.904  29.709  26.723  1.00  0.00    -0.206 F 
ATOM     75  C   UNL A   1      36.803  29.958  27.743  1.00  0.00     0.040 A 
ATOM     76  C   UNL A   1      36.513  29.357  30.057  1.00  0.00     0.040 A 
ATOM     77  F   UNL A   1      38.335  28.542  31.294  1.00  0.00    -0.206 F 
ATOM     78  C   UNL A   1      35.982  29.844  28.864  1.00  0.00     0.006 A 
ENDBRANCH  50  71
BRANCH  62  79
ATOM     79  C   UNL A   1      44.439  32.404  31.153  1.00  0.00     0.057 A 
ATOM     80  C   UNL A   1      44.642  33.501  30.308  1.00  0.00     0.134 A 
ATOM     81  C   UNL A   1      44.413  32.643  32.534  1.00  0.00     0.134 A 
ATOM     82  F   UNL A   1      44.693  33.335  28.978  1.00  0.00    -0.206 F 
ATOM     83  C   UNL A   1      44.825  34.787  30.817  1.00  0.00     0.040 A 
ATOM     84  C   UNL A   1      44.572  33.928  33.053  1.00  0.00     0.040 A 
ATOM     85  F   UNL A   1      44.216  31.635  33.396  1.00  0.00    -0.206 F 
ATOM     86  C   UNL A   1      44.782  35.004  32.194  1.00  0.00     0.006 A 
ENDBRANCH  62  79
ENDBRANCH  36  37
ENDBRANCH  28  31
ENDBRANCH  26  27
ENDBRANCH  25  26
ENDBRANCH   1  25
TORSDOF 14
ENDMDL
MODEL 2
REMARK VINA RESULT:     -11.2      2.355      3.647
REMARK SMILES C[C@@H](Nc1ccc(C(=O)NCCCCNC(=O)c2ccc(-c3c4nc(c(-c5c(F)cccc5F)c5ccc([nH]5)c(-c5c(F)cccc5F)c5nc(c(-c6c(F)cccc6F)c6ccc3[nH]6)C=C5)C=C4)cc2)cc1)C1CC[NH+](C)CC1
REMARK SMILES IDX 12 1 11 2 10 3 8 4 9 5 7 7 4 8 5 9 73 10 6 11 72 12 3 13
REMARK SMILES IDX 2 15 1 16 74 17 75 18 80 19 76 20 79 21 77 22 78 23 13 25
REMARK SMILES IDX 14 26 15 27 16 28 17 30 18 31 19 32 71 33 20 34 70 35 21 36
REMARK SMILES IDX 22 37 23 38 64 39 24 40 69 41 63 42 65 43 25 44 68 45 62 46
REMARK SMILES IDX 61 47 26 49 52 50 35 51 51 52 36 53 39 54 50 55 66 56 37 57
REMARK SMILES IDX 38 58 49 60 67 61 40 62 27 63 28 64 33 65 29 66 30 67 32 68
REMARK SMILES IDX 34 69 31 70 53 71 54 72 59 73 55 74 56 75 58 76 60 77 57 78
REMARK SMILES IDX 41 79 42 80 47 81 43 82 44 83 46 84 48 85 45 86
REMARK H PARENT 10 6 3 14 77 24 15 29 65 48 39 59
REMARK Flexibility Score: inf
ROOT
ATOM      1  C   UNL A   1      35.836  21.450  24.794  1.00  0.00     0.023 C 
ENDROOT
BRANCH   1   2
ATOM      2  C   UNL A   1      35.034  21.156  26.064  1.00  0.00     0.116 C 
BRANCH   2   3
ATOM      3  N   UNL A   1      34.094  20.078  25.825  1.00  0.00    -0.352 N 
ATOM      4  C   UNL A   1      32.836  20.074  25.278  1.00  0.00     0.251 C 
ATOM      5  O   UNL A   1      32.248  18.997  25.185  1.00  0.00    -0.269 OA
ATOM      6  H   UNL A   1      34.416  19.191  26.106  1.00  0.00     0.163 HD
BRANCH   4   7
ATOM      7  C   UNL A   1      32.210  21.295  24.712  1.00  0.00     0.039 A 
ATOM      8  C   UNL A   1      31.378  23.724  23.539  1.00  0.00     0.034 A 
ATOM      9  C   UNL A   1      32.010  22.736  22.777  1.00  0.00     0.026 A 
ATOM     10  C   UNL A   1      31.054  23.421  24.863  1.00  0.00     0.026 A 
ATOM     11  C   UNL A   1      32.430  21.539  23.354  1.00  0.00     0.016 A 
ATOM     12  C   UNL A   1      31.447  22.209  25.442  1.00  0.00     0.016 A 
BRANCH   8  13
ATOM     13  N   UNL A   1      31.248  24.978  22.983  1.00  0.00    -0.382 N 
ATOM     14  H   UNL A   1      30.939  25.014  22.048  1.00  0.00     0.160 HD
BRANCH  13  15
ATOM     15  C   UNL A   1      31.521  26.265  23.632  1.00  0.00     0.079 C 
ATOM     16  C   UNL A   1      30.625  27.287  22.921  1.00  0.00     0.031 C 
BRANCH  15  17
ATOM     17  C   UNL A   1      33.051  26.608  23.637  1.00  0.00     0.022 C 
ATOM     18  C   UNL A   1      33.739  26.182  24.943  1.00  0.00     0.067 C 
ATOM     19  C   UNL A   1      33.451  28.052  23.304  1.00  0.00     0.067 C 
ATOM     20  C   UNL A   1      33.525  27.172  26.079  1.00  0.00     0.262 C 
ATOM     21  C   UNL A   1      33.369  29.026  24.484  1.00  0.00     0.262 C 
ATOM     22  N   UNL A   1      33.988  28.513  25.711  1.00  0.00    -0.337 N 
ATOM     23  C   UNL A   1      33.757  29.444  26.819  1.00  0.00     0.332 C 
ATOM     24  H   UNL A   1      34.987  28.434  25.522  1.00  0.00     0.347 HD
ENDBRANCH  15  17
ENDBRANCH  13  15
ENDBRANCH   8  13
ENDBRANCH   4   7
ENDBRANCH   2   3
ENDBRANCH   1   2
BRANCH   1  25
ATOM     25  C   UNL A   1      35.972  22.942  24.474  1.00  0.00     0.023 C 
BRANCH  25  26
ATOM     26  C   UNL A   1      37.149  23.638  25.145  1.00  0.00     0.116 C 
BRANCH  26  27
ATOM     27  N   UNL A   1      38.232  22.726  25.485  1.00  0.00    -0.352 N 
ATOM     28  C   UNL A   1      39.364  22.975  26.226  1.00  0.00     0.251 C 
ATOM     29  H   UNL A   1      38.141  21.809  25.140  1.00  0.00     0.163 HD
ATOM     30  O   UNL A   1      40.239  22.129  26.330  1.00  0.00    -0.269 OA
BRANCH  28  31
ATOM     31  C   UNL A   1      39.528  24.299  26.860  1.00  0.00     0.039 A 
ATOM     32  C   UNL A   1      39.023  24.493  28.148  1.00  0.00     0.014 A 
ATOM     33  C   UNL A   1      40.218  25.322  26.206  1.00  0.00     0.014 A 
ATOM     34  C   UNL A   1      39.280  25.692  28.814  1.00  0.00     0.010 A 
ATOM     35  C   UNL A   1      40.526  26.491  26.893  1.00  0.00     0.010 A 
ATOM     36  C   UNL A   1      40.071  26.682  28.208  1.00  0.00    -0.014 A 
BRANCH  36  37
ATOM     37  C   UNL A   1      40.463  27.909  28.941  1.00  0.00     0.031 A 
ATOM     38  C   UNL A   1      41.815  28.004  29.588  1.00  0.00     0.074 A 
ATOM     39  C   UNL A   1      39.566  28.901  29.097  1.00  0.00     0.049 A 
ATOM     40  N   UNL A   1      42.301  28.951  30.348  1.00  0.00    -0.248 NA
ATOM     41  C   UNL A   1      42.730  26.873  29.374  1.00  0.00     0.031 C 
ATOM     42  C   UNL A   1      38.203  28.903  28.560  1.00  0.00     0.029 A 
ATOM     43  N   UNL A   1      39.659  30.093  29.770  1.00  0.00    -0.354 N 
ATOM     44  C   UNL A   1      43.571  28.525  30.715  1.00  0.00     0.074 A 
ATOM     45  C   UNL A   1      43.763  27.215  30.131  1.00  0.00     0.031 C 
ATOM     46  C   UNL A   1      37.595  30.048  28.910  1.00  0.00     0.029 A 
ATOM     47  C   UNL A   1      38.507  30.841  29.728  1.00  0.00     0.049 A 
ATOM     48  H   UNL A   1      40.475  30.386  30.238  1.00  0.00     0.167 HD
ATOM     49  C   UNL A   1      44.499  29.176  31.454  1.00  0.00     0.037 A 
ATOM     50  C   UNL A   1      38.214  32.026  30.297  1.00  0.00     0.037 A 
ATOM     51  C   UNL A   1      44.314  30.490  32.012  1.00  0.00     0.049 A 
ATOM     52  C   UNL A   1      39.258  32.724  31.121  1.00  0.00     0.074 A 
ATOM     53  C   UNL A   1      45.222  31.265  32.711  1.00  0.00     0.029 A 
ATOM     54  N   UNL A   1      43.138  31.221  31.935  1.00  0.00    -0.354 N 
ATOM     55  N   UNL A   1      40.482  32.342  31.398  1.00  0.00    -0.248 NA
ATOM     56  C   UNL A   1      38.883  34.016  31.712  1.00  0.00     0.031 C 
ATOM     57  C   UNL A   1      44.583  32.448  33.095  1.00  0.00     0.029 A 
ATOM     58  C   UNL A   1      43.290  32.427  32.599  1.00  0.00     0.049 A 
ATOM     59  H   UNL A   1      42.318  30.926  31.478  1.00  0.00     0.167 HD
ATOM     60  C   UNL A   1      41.028  33.354  32.176  1.00  0.00     0.074 A 
ATOM     61  C   UNL A   1      40.008  34.373  32.315  1.00  0.00     0.031 C 
ATOM     62  C   UNL A   1      42.264  33.431  32.727  1.00  0.00     0.037 A 
BRANCH  49  63
ATOM     63  C   UNL A   1      45.803  28.476  31.700  1.00  0.00     0.057 A 
ATOM     64  C   UNL A   1      45.998  27.650  32.815  1.00  0.00     0.134 A 
ATOM     65  C   UNL A   1      46.865  28.603  30.795  1.00  0.00     0.134 A 
ATOM     66  F   UNL A   1      45.025  27.496  33.725  1.00  0.00    -0.206 F 
ATOM     67  C   UNL A   1      47.210  26.994  33.034  1.00  0.00     0.040 A 
ATOM     68  C   UNL A   1      48.072  27.932  30.990  1.00  0.00     0.040 A 
ATOM     69  F   UNL A   1      46.742  29.375  29.704  1.00  0.00    -0.206 F 
ATOM     70  C   UNL A   1      48.250  27.129  32.115  1.00  0.00     0.006 A 
ENDBRANCH  49  63
BRANCH  50  71
ATOM     71  C   UNL A   1      36.876  32.634  30.094  1.00  0.00     0.057 A 
ATOM     72  C   UNL A   1      35.808  32.324  30.943  1.00  0.00     0.134 A 
ATOM     73  C   UNL A   1      36.631  33.534  29.049  1.00  0.00     0.134 A 
ATOM     74  F   UNL A   1      35.978  31.453  31.950  1.00  0.00    -0.206 F 
ATOM     75  C   UNL A   1      34.540  32.873  30.754  1.00  0.00     0.040 A 
ATOM     76  C   UNL A   1      35.373  34.109  28.862  1.00  0.00     0.040 A 
ATOM     77  F   UNL A   1      37.616  33.876  28.205  1.00  0.00    -0.206 F 
ATOM     78  C   UNL A   1      34.321  33.774  29.712  1.00  0.00     0.006 A 
ENDBRANCH  50  71
BRANCH  62  79
ATOM     79  C   UNL A   1      42.588  34.666  33.514  1.00  0.00     0.057 A 
ATOM     80  C   UNL A   1      43.050  35.833  32.894  1.00  0.00     0.134 A 
ATOM     81  C   UNL A   1      42.391  34.701  34.901  1.00  0.00     0.134 A 
ATOM     82  F   UNL A   1      43.272  35.858  31.571  1.00  0.00    -0.206 F 
ATOM     83  C   UNL A   1      43.319  36.989  33.628  1.00  0.00     0.040 A 
ATOM     84  C   UNL A   1      42.635  35.858  35.641  1.00  0.00     0.040 A 
ATOM     85  F   UNL A   1      41.944  33.618  35.553  1.00  0.00    -0.206 F 
ATOM     86  C   UNL A   1      43.103  37.005  35.005  1.00  0.00     0.006 A 
ENDBRANCH  62  79
ENDBRANCH  36  37
ENDBRANCH  28  31
ENDBRANCH  26  27
ENDBRANCH  25  26
ENDBRANCH   1  25
TORSDOF 14
ENDMDL
MODEL 3
REMARK VINA RESULT:     -11.2      4.416      9.396
REMARK SMILES C[C@@H](Nc1ccc(C(=O)NCCCCNC(=O)c2ccc(-c3c4nc(c(-c5c(F)cccc5F)c5ccc([nH]5)c(-c5c(F)cccc5F)c5nc(c(-c6c(F)cccc6F)c6ccc3[nH]6)C=C5)C=C4)cc2)cc1)C1CC[NH+](C)CC1
REMARK SMILES IDX 12 1 11 2 10 3 8 4 9 5 7 7 4 8 5 9 73 10 6 11 72 12 3 13
REMARK SMILES IDX 2 15 1 16 74 17 75 18 80 19 76 20 79 21 77 22 78 23 13 25
REMARK SMILES IDX 14 26 15 27 16 28 17 30 18 31 19 32 71 33 20 34 70 35 21 36
REMARK SMILES IDX 22 37 23 38 64 39 24 40 69 41 63 42 65 43 25 44 68 45 62 46
REMARK SMILES IDX 61 47 26 49 52 50 35 51 51 52 36 53 39 54 50 55 66 56 37 57
REMARK SMILES IDX 38 58 49 60 67 61 40 62 27 63 28 64 33 65 29 66 30 67 32 68
REMARK SMILES IDX 34 69 31 70 53 71 54 72 59 73 55 74 56 75 58 76 60 77 57 78
REMARK SMILES IDX 41 79 42 80 47 81 43 82 44 83 46 84 48 85 45 86
REMARK H PARENT 10 6 3 14 77 24 15 29 65 48 39 59
REMARK Flexibility Score: inf
ROOT
ATOM      1  C   UNL A   1      31.744  30.186  26.542  1.00  0.00     0.023 C 
ENDROOT
BRANCH   1   2
ATOM      2  C   UNL A   1      32.101  29.660  25.150  1.00  0.00     0.116 C 
BRANCH   2   3
ATOM      3  N   UNL A   1      30.970  29.807  24.253  1.00  0.00    -0.352 N 
ATOM      4  C   UNL A   1      30.293  28.892  23.488  1.00  0.00     0.251 C 
ATOM      5  O   UNL A   1      29.347  29.290  22.810  1.00  0.00    -0.269 OA
ATOM      6  H   UNL A   1      30.628  30.727  24.181  1.00  0.00     0.163 HD
BRANCH   4   7
ATOM      7  C   UNL A   1      30.597  27.439  23.528  1.00  0.00     0.039 A 
ATOM      8  C   UNL A   1      31.013  24.661  23.253  1.00  0.00     0.034 A 
ATOM      9  C   UNL A   1      31.610  25.569  22.372  1.00  0.00     0.026 A 
ATOM     10  C   UNL A   1      30.315  25.175  24.347  1.00  0.00     0.026 A 
ATOM     11  C   UNL A   1      31.400  26.941  22.499  1.00  0.00     0.016 A 
ATOM     12  C   UNL A   1      30.124  26.554  24.497  1.00  0.00     0.016 A 
BRANCH   8  13
ATOM     13  N   UNL A   1      31.027  23.328  22.907  1.00  0.00    -0.382 N 
ATOM     14  H   UNL A   1      30.200  22.967  22.512  1.00  0.00     0.160 HD
BRANCH  13  15
ATOM     15  C   UNL A   1      32.142  22.386  23.063  1.00  0.00     0.079 C 
ATOM     16  C   UNL A   1      31.885  21.267  22.047  1.00  0.00     0.031 C 
BRANCH  15  17
ATOM     17  C   UNL A   1      32.308  21.913  24.549  1.00  0.00     0.022 C 
ATOM     18  C   UNL A   1      33.389  22.710  25.297  1.00  0.00     0.067 C 
ATOM     19  C   UNL A   1      32.528  20.413  24.792  1.00  0.00     0.067 C 
ATOM     20  C   UNL A   1      34.799  22.224  24.997  1.00  0.00     0.262 C 
ATOM     21  C   UNL A   1      33.977  19.946  24.625  1.00  0.00     0.262 C 
ATOM     22  N   UNL A   1      34.952  20.801  25.312  1.00  0.00    -0.337 N 
ATOM     23  C   UNL A   1      36.314  20.362  25.001  1.00  0.00     0.332 C 
ATOM     24  H   UNL A   1      34.771  20.703  26.311  1.00  0.00     0.347 HD
ENDBRANCH  15  17
ENDBRANCH  13  15
ENDBRANCH   8  13
ENDBRANCH   4   7
ENDBRANCH   2   3
ENDBRANCH   1   2
BRANCH   1  25
ATOM     25  C   UNL A   1      31.590  31.708  26.613  1.00  0.00     0.023 C 
BRANCH  25  26
ATOM     26  C   UNL A   1      32.817  32.455  27.120  1.00  0.00     0.116 C 
BRANCH  26  27
ATOM     27  N   UNL A   1      32.526  33.825  27.516  1.00  0.00    -0.352 N 
ATOM     28  C   UNL A   1      33.123  34.581  28.498  1.00  0.00     0.251 C 
ATOM     29  H   UNL A   1      31.806  34.271  27.013  1.00  0.00     0.163 HD
ATOM     30  O   UNL A   1      32.688  35.685  28.786  1.00  0.00    -0.269 OA
BRANCH  28  31
ATOM     31  C   UNL A   1      34.276  34.019  29.233  1.00  0.00     0.039 A 
ATOM     32  C   UNL A   1      34.033  33.251  30.374  1.00  0.00     0.014 A 
ATOM     33  C   UNL A   1      35.578  34.209  28.768  1.00  0.00     0.014 A 
ATOM     34  C   UNL A   1      35.095  32.606  31.007  1.00  0.00     0.010 A 
ATOM     35  C   UNL A   1      36.627  33.515  29.362  1.00  0.00     0.010 A 
ATOM     36  C   UNL A   1      36.394  32.698  30.479  1.00  0.00    -0.014 A 
BRANCH  36  37
ATOM     37  C   UNL A   1      37.517  31.921  31.058  1.00  0.00     0.031 A 
ATOM     38  C   UNL A   1      38.015  32.230  32.440  1.00  0.00     0.074 A 
ATOM     39  C   UNL A   1      38.141  30.999  30.302  1.00  0.00     0.049 A 
ATOM     40  N   UNL A   1      39.041  31.728  33.078  1.00  0.00    -0.248 NA
ATOM     41  C   UNL A   1      37.280  33.256  33.194  1.00  0.00     0.031 C 
ATOM     42  C   UNL A   1      37.783  30.646  28.926  1.00  0.00     0.029 A 
ATOM     43  N   UNL A   1      39.223  30.201  30.577  1.00  0.00    -0.354 N 
ATOM     44  C   UNL A   1      39.084  32.386  34.299  1.00  0.00     0.074 A 
ATOM     45  C   UNL A   1      38.009  33.355  34.296  1.00  0.00     0.031 C 
ATOM     46  C   UNL A   1      38.618  29.692  28.484  1.00  0.00     0.029 A 
ATOM     47  C   UNL A   1      39.594  29.394  29.528  1.00  0.00     0.049 A 
ATOM     48  H   UNL A   1      39.689  30.205  31.444  1.00  0.00     0.167 HD
ATOM     49  C   UNL A   1      39.930  32.187  35.337  1.00  0.00     0.037 A 
ATOM     50  C   UNL A   1      40.615  28.524  29.415  1.00  0.00     0.037 A 
ATOM     51  C   UNL A   1      40.982  31.205  35.347  1.00  0.00     0.049 A 
ATOM     52  C   UNL A   1      41.546  28.328  30.577  1.00  0.00     0.074 A 
ATOM     53  C   UNL A   1      41.844  30.875  36.378  1.00  0.00     0.029 A 
ATOM     54  N   UNL A   1      41.317  30.397  34.271  1.00  0.00    -0.354 N 
ATOM     55  N   UNL A   1      41.529  28.904  31.755  1.00  0.00    -0.248 NA
ATOM     56  C   UNL A   1      42.638  27.361  30.397  1.00  0.00     0.031 C 
ATOM     57  C   UNL A   1      42.728  29.897  35.913  1.00  0.00     0.029 A 
ATOM     58  C   UNL A   1      42.391  29.588  34.605  1.00  0.00     0.049 A 
ATOM     59  H   UNL A   1      40.860  30.399  33.399  1.00  0.00     0.167 HD
ATOM     60  C   UNL A   1      42.592  28.357  32.461  1.00  0.00     0.074 A 
ATOM     61  C   UNL A   1      43.224  27.392  31.586  1.00  0.00     0.031 C 
ATOM     62  C   UNL A   1      43.007  28.632  33.722  1.00  0.00     0.037 A 
BRANCH  49  63
ATOM     63  C   UNL A   1      39.749  33.048  36.552  1.00  0.00     0.057 A 
ATOM     64  C   UNL A   1      40.471  34.236  36.728  1.00  0.00     0.134 A 
ATOM     65  C   UNL A   1      38.820  32.703  37.542  1.00  0.00     0.134 A 
ATOM     66  F   UNL A   1      41.384  34.616  35.823  1.00  0.00    -0.206 F 
ATOM     67  C   UNL A   1      40.293  35.038  37.857  1.00  0.00     0.040 A 
ATOM     68  C   UNL A   1      38.615  33.510  38.662  1.00  0.00     0.040 A 
ATOM     69  F   UNL A   1      38.093  31.580  37.432  1.00  0.00    -0.206 F 
ATOM     70  C   UNL A   1      39.356  34.677  38.824  1.00  0.00     0.006 A 
ENDBRANCH  49  63
BRANCH  50  71
ATOM     71  C   UNL A   1      40.802  27.760  28.156  1.00  0.00     0.057 A 
ATOM     72  C   UNL A   1      41.562  28.281  27.104  1.00  0.00     0.134 A 
ATOM     73  C   UNL A   1      40.224  26.498  27.974  1.00  0.00     0.134 A 
ATOM     74  F   UNL A   1      42.124  29.495  27.215  1.00  0.00    -0.206 F 
ATOM     75  C   UNL A   1      41.730  27.583  25.908  1.00  0.00     0.040 A 
ATOM     76  C   UNL A   1      40.403  25.778  26.791  1.00  0.00     0.040 A 
ATOM     77  F   UNL A   1      39.489  25.942  28.947  1.00  0.00    -0.206 F 
ATOM     78  C   UNL A   1      41.153  26.324  25.751  1.00  0.00     0.006 A 
ENDBRANCH  50  71
BRANCH  62  79
ATOM     79  C   UNL A   1      44.188  27.864  34.237  1.00  0.00     0.057 A 
ATOM     80  C   UNL A   1      44.044  26.607  34.835  1.00  0.00     0.134 A 
ATOM     81  C   UNL A   1      45.487  28.368  34.089  1.00  0.00     0.134 A 
ATOM     82  F   UNL A   1      42.825  26.077  35.019  1.00  0.00    -0.206 F 
ATOM     83  C   UNL A   1      45.149  25.883  35.284  1.00  0.00     0.040 A 
ATOM     84  C   UNL A   1      46.601  27.643  34.512  1.00  0.00     0.040 A 
ATOM     85  F   UNL A   1      45.693  29.563  33.517  1.00  0.00    -0.206 F 
ATOM     86  C   UNL A   1      46.434  26.399  35.115  1.00  0.00     0.006 A 
ENDBRANCH  62  79
ENDBRANCH  36  37
ENDBRANCH  28  31
ENDBRANCH  26  27
ENDBRANCH  25  26
ENDBRANCH   1  25
TORSDOF 14
ENDMDL
