MODEL 1
REMARK VINA RESULT:     -12.6      0.000      0.000
REMARK SMILES C[NH+]1CCC(NC(=O)N[C@H]2C=C[C@H](C(=O)NCCCCNC(=O)c3ccc(-c4c5nc(c(-c6c(F)cccc6F)c6ccc([nH]6)c(-c6c(F)cccc6F)c6nc(c(-c7c(F)cccc7F)c7ccc4[nH]7)C=C6)C=C5)cc3)C2)CC1
REMARK SMILES IDX 18 1 17 2 16 3 14 4 15 5 13 7 10 8 11 9 78 10 12 11 9 12
REMARK SMILES IDX 6 13 7 14 8 16 5 18 1 19 2 20 3 21 80 22 4 24 79 25 19 26
REMARK SMILES IDX 20 27 21 28 22 29 23 31 24 32 25 33 77 34 26 35 76 36 27 37
REMARK SMILES IDX 28 38 29 39 70 40 30 41 75 42 69 43 71 44 31 45 74 46 68 47
REMARK SMILES IDX 67 48 32 50 58 51 41 52 57 53 42 54 45 55 56 56 72 57 43 58
REMARK SMILES IDX 44 59 55 61 73 62 46 63 33 64 34 65 39 66 35 67 36 68 38 69
REMARK SMILES IDX 40 70 37 71 59 72 60 73 65 74 61 75 62 76 64 77 66 78 63 79
REMARK SMILES IDX 47 80 48 81 53 82 49 83 50 84 52 85 54 86 51 87
REMARK H PARENT 16 6 6 15 9 17 2 23 21 30 71 49 45 60
REMARK Flexibility Score: inf
ROOT
ATOM      1  C   UNL A   1      31.880  30.717  26.106  1.00  0.00     0.023 C 
ENDROOT
BRANCH   1   2
ATOM      2  C   UNL A   1      33.277  30.212  26.486  1.00  0.00     0.116 C 
BRANCH   2   3
ATOM      3  N   UNL A   1      33.858  29.328  25.487  1.00  0.00    -0.356 N 
ATOM      4  C   UNL A   1      33.385  28.127  25.014  1.00  0.00     0.227 C 
ATOM      5  O   UNL A   1      33.949  27.607  24.053  1.00  0.00    -0.274 OA
ATOM      6  H   UNL A   1      34.707  29.631  25.095  1.00  0.00     0.163 HD
BRANCH   4   7
ATOM      7  C   UNL A   1      32.171  27.501  25.699  1.00  0.00     0.103 C 
ATOM      8  C   UNL A   1      31.278  25.212  25.575  1.00  0.00     0.107 C 
ATOM      9  C   UNL A   1      30.459  26.159  24.773  1.00  0.00    -0.006 C 
ATOM     10  C   UNL A   1      32.399  26.056  26.189  1.00  0.00     0.047 C 
ATOM     11  C   UNL A   1      30.981  27.391  24.783  1.00  0.00    -0.016 C 
BRANCH   8  12
ATOM     12  N   UNL A   1      30.490  24.371  26.463  1.00  0.00    -0.332 N 
ATOM     13  N   UNL A   1      31.341  22.179  26.849  1.00  0.00    -0.335 N 
ATOM     14  C   UNL A   1      30.437  23.148  26.987  1.00  0.00     0.315 C 
ATOM     15  H   UNL A   1      31.054  21.325  27.244  1.00  0.00     0.165 HD
ATOM     16  O   UNL A   1      29.440  22.884  27.668  1.00  0.00    -0.249 OA
ATOM     17  H   UNL A   1      29.722  24.890  26.793  1.00  0.00     0.165 HD
BRANCH  13  18
ATOM     18  C   UNL A   1      32.653  22.108  26.247  1.00  0.00     0.095 C 
ATOM     19  C   UNL A   1      36.647  21.285  25.080  1.00  0.00     0.332 C 
ATOM     20  N   UNL A   1      35.388  21.200  25.828  1.00  0.00    -0.337 N 
ATOM     21  C   UNL A   1      34.299  20.733  24.962  1.00  0.00     0.264 C 
ATOM     22  C   UNL A   1      35.103  22.486  26.482  1.00  0.00     0.264 C 
ATOM     23  H   UNL A   1      35.475  20.505  26.569  1.00  0.00     0.347 HD
ATOM     24  C   UNL A   1      32.939  20.730  25.659  1.00  0.00     0.086 C 
ATOM     25  C   UNL A   1      33.765  22.481  27.221  1.00  0.00     0.086 C 
ENDBRANCH  13  18
ENDBRANCH   8  12
ENDBRANCH   4   7
ENDBRANCH   2   3
ENDBRANCH   1   2
BRANCH   1  26
ATOM     26  C   UNL A   1      31.480  32.042  26.765  1.00  0.00     0.023 C 
BRANCH  26  27
ATOM     27  C   UNL A   1      32.641  32.840  27.359  1.00  0.00     0.116 C 
BRANCH  27  28
ATOM     28  N   UNL A   1      32.314  34.218  27.697  1.00  0.00    -0.352 N 
ATOM     29  C   UNL A   1      32.977  35.059  28.567  1.00  0.00     0.251 C 
ATOM     30  H   UNL A   1      31.523  34.595  27.250  1.00  0.00     0.163 HD
ATOM     31  O   UNL A   1      32.533  36.177  28.805  1.00  0.00    -0.269 OA
BRANCH  29  32
ATOM     32  C   UNL A   1      34.200  34.584  29.263  1.00  0.00     0.039 A 
ATOM     33  C   UNL A   1      34.076  34.025  30.538  1.00  0.00     0.014 A 
ATOM     34  C   UNL A   1      35.453  34.647  28.648  1.00  0.00     0.014 A 
ATOM     35  C   UNL A   1      35.191  33.447  31.154  1.00  0.00     0.010 A 
ATOM     36  C   UNL A   1      36.545  34.006  29.229  1.00  0.00     0.010 A 
ATOM     37  C   UNL A   1      36.424  33.390  30.484  1.00  0.00    -0.014 A 
BRANCH  37  38
ATOM     38  C   UNL A   1      37.584  32.664  31.068  1.00  0.00     0.031 A 
ATOM     39  C   UNL A   1      38.193  33.110  32.369  1.00  0.00     0.074 A 
ATOM     40  C   UNL A   1      38.141  31.643  30.386  1.00  0.00     0.049 A 
ATOM     41  N   UNL A   1      39.223  32.618  33.009  1.00  0.00    -0.248 NA
ATOM     42  C   UNL A   1      37.584  34.280  33.019  1.00  0.00     0.031 C 
ATOM     43  C   UNL A   1      37.702  31.160  29.075  1.00  0.00     0.029 A 
ATOM     44  N   UNL A   1      39.205  30.834  30.698  1.00  0.00    -0.354 N 
ATOM     45  C   UNL A   1      39.397  33.426  34.125  1.00  0.00     0.074 A 
ATOM     46  C   UNL A   1      38.399  34.471  34.047  1.00  0.00     0.031 C 
ATOM     47  C   UNL A   1      38.473  30.124  28.707  1.00  0.00     0.029 A 
ATOM     48  C   UNL A   1      39.473  29.884  29.742  1.00  0.00     0.049 A 
ATOM     49  H   UNL A   1      39.727  30.926  31.528  1.00  0.00     0.167 HD
ATOM     50  C   UNL A   1      40.289  33.299  35.137  1.00  0.00     0.037 A 
ATOM     51  C   UNL A   1      40.415  28.922  29.705  1.00  0.00     0.037 A 
ATOM     52  C   UNL A   1      41.261  32.241  35.236  1.00  0.00     0.049 A 
ATOM     53  C   UNL A   1      41.362  28.769  30.862  1.00  0.00     0.074 A 
ATOM     54  C   UNL A   1      42.154  31.983  36.262  1.00  0.00     0.029 A 
ATOM     55  N   UNL A   1      41.468  31.266  34.272  1.00  0.00    -0.354 N 
ATOM     56  N   UNL A   1      41.454  29.486  31.955  1.00  0.00    -0.248 NA
ATOM     57  C   UNL A   1      42.326  27.662  30.787  1.00  0.00     0.031 C 
ATOM     58  C   UNL A   1      42.923  30.871  35.904  1.00  0.00     0.029 A 
ATOM     59  C   UNL A   1      42.484  30.414  34.672  1.00  0.00     0.049 A 
ATOM     60  H   UNL A   1      40.967  31.192  33.428  1.00  0.00     0.167 HD
ATOM     61  C   UNL A   1      42.466  28.905  32.708  1.00  0.00     0.074 A 
ATOM     62  C   UNL A   1      42.947  27.766  31.953  1.00  0.00     0.031 C 
ATOM     63  C   UNL A   1      42.951  29.282  33.915  1.00  0.00     0.037 A 
BRANCH  50  64
ATOM     64  C   UNL A   1      40.245  34.329  36.228  1.00  0.00     0.057 A 
ATOM     65  C   UNL A   1      41.034  35.486  36.181  1.00  0.00     0.134 A 
ATOM     66  C   UNL A   1      39.388  34.174  37.325  1.00  0.00     0.134 A 
ATOM     67  F   UNL A   1      41.884  35.689  35.163  1.00  0.00    -0.206 F 
ATOM     68  C   UNL A   1      40.994  36.438  37.201  1.00  0.00     0.040 A 
ATOM     69  C   UNL A   1      39.321  35.133  38.338  1.00  0.00     0.040 A 
ATOM     70  F   UNL A   1      38.601  33.092  37.429  1.00  0.00    -0.206 F 
ATOM     71  C   UNL A   1      40.132  36.265  38.281  1.00  0.00     0.006 A 
ENDBRANCH  50  64
BRANCH  51  72
ATOM     72  C   UNL A   1      40.482  27.997  28.547  1.00  0.00     0.057 A 
ATOM     73  C   UNL A   1      39.800  26.776  28.561  1.00  0.00     0.134 A 
ATOM     74  C   UNL A   1      41.228  28.308  27.404  1.00  0.00     0.134 A 
ATOM     75  F   UNL A   1      39.084  26.415  29.636  1.00  0.00    -0.206 F 
ATOM     76  C   UNL A   1      39.870  25.887  27.488  1.00  0.00     0.040 A 
ATOM     77  C   UNL A   1      41.289  27.439  26.314  1.00  0.00     0.040 A 
ATOM     78  F   UNL A   1      41.897  29.467  27.328  1.00  0.00    -0.206 F 
ATOM     79  C   UNL A   1      40.614  26.220  26.358  1.00  0.00     0.006 A 
ENDBRANCH  51  72
BRANCH  63  80
ATOM     80  C   UNL A   1      44.042  28.437  34.507  1.00  0.00     0.057 A 
ATOM     81  C   UNL A   1      43.761  27.319  35.300  1.00  0.00     0.134 A 
ATOM     82  C   UNL A   1      45.387  28.737  34.261  1.00  0.00     0.134 A 
ATOM     83  F   UNL A   1      42.492  26.987  35.584  1.00  0.00    -0.206 F 
ATOM     84  C   UNL A   1      44.782  26.539  35.848  1.00  0.00     0.040 A 
ATOM     85  C   UNL A   1      46.416  27.952  34.783  1.00  0.00     0.040 A 
ATOM     86  F   UNL A   1      45.723  29.792  33.503  1.00  0.00    -0.206 F 
ATOM     87  C   UNL A   1      46.114  26.853  35.584  1.00  0.00     0.006 A 
ENDBRANCH  63  80
ENDBRANCH  37  38
ENDBRANCH  29  32
ENDBRANCH  27  28
ENDBRANCH  26  27
ENDBRANCH   1  26
TORSDOF 13
ENDMDL
MODEL 2
REMARK VINA RESULT:     -12.6      0.094      1.603
REMARK SMILES C[NH+]1CCC(NC(=O)N[C@H]2C=C[C@H](C(=O)NCCCCNC(=O)c3ccc(-c4c5nc(c(-c6c(F)cccc6F)c6ccc([nH]6)c(-c6c(F)cccc6F)c6nc(c(-c7c(F)cccc7F)c7ccc4[nH]7)C=C6)C=C5)cc3)C2)CC1
REMARK SMILES IDX 18 1 17 2 16 3 14 4 15 5 13 7 10 8 11 9 78 10 12 11 9 12
REMARK SMILES IDX 6 13 7 14 8 16 5 18 1 19 2 20 3 21 80 22 4 24 79 25 19 26
REMARK SMILES IDX 20 27 21 28 22 29 23 31 24 32 25 33 77 34 26 35 76 36 27 37
REMARK SMILES IDX 28 38 29 39 70 40 30 41 75 42 69 43 71 44 31 45 74 46 68 47
REMARK SMILES IDX 67 48 32 50 58 51 41 52 57 53 42 54 45 55 56 56 72 57 43 58
REMARK SMILES IDX 44 59 55 61 73 62 46 63 33 64 34 65 39 66 35 67 36 68 38 69
REMARK SMILES IDX 40 70 37 71 59 72 60 73 65 74 61 75 62 76 64 77 66 78 63 79
REMARK SMILES IDX 47 80 48 81 53 82 49 83 50 84 52 85 54 86 51 87
REMARK H PARENT 16 6 6 15 9 17 2 23 21 30 71 49 45 60
REMARK Flexibility Score: inf
ROOT
ATOM      1  C   UNL A   1      31.854  30.623  26.222  1.00  0.00     0.023 C 
ENDROOT
BRANCH   1   2
ATOM      2  C   UNL A   1      33.301  30.216  26.528  1.00  0.00     0.116 C 
BRANCH   2   3
ATOM      3  N   UNL A   1      33.870  29.328  25.525  1.00  0.00    -0.356 N 
ATOM      4  C   UNL A   1      33.391  28.128  25.059  1.00  0.00     0.227 C 
ATOM      5  O   UNL A   1      33.945  27.605  24.093  1.00  0.00    -0.274 OA
ATOM      6  H   UNL A   1      34.717  29.630  25.124  1.00  0.00     0.163 HD
BRANCH   4   7
ATOM      7  C   UNL A   1      32.183  27.505  25.756  1.00  0.00     0.103 C 
ATOM      8  C   UNL A   1      31.244  25.237  25.591  1.00  0.00     0.107 C 
ATOM      9  C   UNL A   1      30.423  26.221  24.837  1.00  0.00    -0.006 C 
ATOM     10  C   UNL A   1      32.395  26.042  26.200  1.00  0.00     0.047 C 
ATOM     11  C   UNL A   1      30.968  27.443  24.868  1.00  0.00    -0.016 C 
BRANCH   8  12
ATOM     12  N   UNL A   1      30.462  24.385  26.475  1.00  0.00    -0.332 N 
ATOM     13  N   UNL A   1      31.346  22.210  26.875  1.00  0.00    -0.335 N 
ATOM     14  C   UNL A   1      30.425  23.163  27.003  1.00  0.00     0.315 C 
ATOM     15  H   UNL A   1      31.069  21.352  27.270  1.00  0.00     0.165 HD
ATOM     16  O   UNL A   1      29.426  22.885  27.676  1.00  0.00    -0.249 OA
ATOM     17  H   UNL A   1      29.682  24.893  26.796  1.00  0.00     0.165 HD
BRANCH  13  18
ATOM     18  C   UNL A   1      32.664  22.159  26.285  1.00  0.00     0.095 C 
ATOM     19  C   UNL A   1      36.694  21.431  25.183  1.00  0.00     0.332 C 
ATOM     20  N   UNL A   1      35.434  21.335  25.927  1.00  0.00    -0.337 N 
ATOM     21  C   UNL A   1      34.370  20.786  25.079  1.00  0.00     0.264 C 
ATOM     22  C   UNL A   1      35.096  22.640  26.515  1.00  0.00     0.264 C 
ATOM     23  H   UNL A   1      35.541  20.681  26.702  1.00  0.00     0.347 HD
ATOM     24  C   UNL A   1      33.005  20.765  25.767  1.00  0.00     0.086 C 
ATOM     25  C   UNL A   1      33.753  22.621  27.246  1.00  0.00     0.086 C 
ENDBRANCH  13  18
ENDBRANCH   8  12
ENDBRANCH   4   7
ENDBRANCH   2   3
ENDBRANCH   1   2
BRANCH   1  26
ATOM     26  C   UNL A   1      31.473  32.027  26.704  1.00  0.00     0.023 C 
BRANCH  26  27
ATOM     27  C   UNL A   1      32.625  32.840  27.295  1.00  0.00     0.116 C 
BRANCH  27  28
ATOM     28  N   UNL A   1      32.278  34.209  27.647  1.00  0.00    -0.352 N 
ATOM     29  C   UNL A   1      32.921  35.046  28.536  1.00  0.00     0.251 C 
ATOM     30  H   UNL A   1      31.489  34.583  27.195  1.00  0.00     0.163 HD
ATOM     31  O   UNL A   1      32.461  36.156  28.783  1.00  0.00    -0.269 OA
BRANCH  29  32
ATOM     32  C   UNL A   1      34.140  34.576  29.240  1.00  0.00     0.039 A 
ATOM     33  C   UNL A   1      34.011  34.022  30.516  1.00  0.00     0.014 A 
ATOM     34  C   UNL A   1      35.397  34.639  28.632  1.00  0.00     0.014 A 
ATOM     35  C   UNL A   1      35.123  33.448  31.141  1.00  0.00     0.010 A 
ATOM     36  C   UNL A   1      36.487  34.002  29.221  1.00  0.00     0.010 A 
ATOM     37  C   UNL A   1      36.360  33.391  30.478  1.00  0.00    -0.014 A 
BRANCH  37  38
ATOM     38  C   UNL A   1      37.518  32.669  31.071  1.00  0.00     0.031 A 
ATOM     39  C   UNL A   1      38.113  33.115  32.378  1.00  0.00     0.074 A 
ATOM     40  C   UNL A   1      38.086  31.652  30.393  1.00  0.00     0.049 A 
ATOM     41  N   UNL A   1      39.140  32.627  33.027  1.00  0.00    -0.248 NA
ATOM     42  C   UNL A   1      37.493  34.282  33.025  1.00  0.00     0.031 C 
ATOM     43  C   UNL A   1      37.660  31.169  29.078  1.00  0.00     0.029 A 
ATOM     44  N   UNL A   1      39.151  30.847  30.713  1.00  0.00    -0.354 N 
ATOM     45  C   UNL A   1      39.300  33.434  34.146  1.00  0.00     0.074 A 
ATOM     46  C   UNL A   1      38.298  34.475  34.061  1.00  0.00     0.031 C 
ATOM     47  C   UNL A   1      38.439  30.137  28.715  1.00  0.00     0.029 A 
ATOM     48  C   UNL A   1      39.432  29.899  29.758  1.00  0.00     0.049 A 
ATOM     49  H   UNL A   1      39.664  30.939  31.548  1.00  0.00     0.167 HD
ATOM     50  C   UNL A   1      40.183  33.309  35.165  1.00  0.00     0.037 A 
ATOM     51  C   UNL A   1      40.379  28.942  29.728  1.00  0.00     0.037 A 
ATOM     52  C   UNL A   1      41.159  32.256  35.272  1.00  0.00     0.049 A 
ATOM     53  C   UNL A   1      41.316  28.791  30.893  1.00  0.00     0.074 A 
ATOM     54  C   UNL A   1      42.044  32.000  36.305  1.00  0.00     0.029 A 
ATOM     55  N   UNL A   1      41.379  31.284  34.309  1.00  0.00    -0.354 N 
ATOM     56  N   UNL A   1      41.394  29.507  31.988  1.00  0.00    -0.248 NA
ATOM     57  C   UNL A   1      42.286  27.689  30.825  1.00  0.00     0.031 C 
ATOM     58  C   UNL A   1      42.822  30.892  35.952  1.00  0.00     0.029 A 
ATOM     59  C   UNL A   1      42.396  30.435  34.716  1.00  0.00     0.049 A 
ATOM     60  H   UNL A   1      40.886  31.208  33.460  1.00  0.00     0.167 HD
ATOM     61  C   UNL A   1      42.402  28.929  32.749  1.00  0.00     0.074 A 
ATOM     62  C   UNL A   1      42.895  27.794  31.997  1.00  0.00     0.031 C 
ATOM     63  C   UNL A   1      42.875  29.306  33.961  1.00  0.00     0.037 A 
BRANCH  50  64
ATOM     64  C   UNL A   1      40.125  34.337  36.257  1.00  0.00     0.057 A 
ATOM     65  C   UNL A   1      39.290  34.181  37.373  1.00  0.00     0.134 A 
ATOM     66  C   UNL A   1      40.926  35.484  36.206  1.00  0.00     0.134 A 
ATOM     67  F   UNL A   1      38.488  33.110  37.477  1.00  0.00    -0.206 F 
ATOM     68  C   UNL A   1      39.234  35.142  38.383  1.00  0.00     0.040 A 
ATOM     69  C   UNL A   1      40.898  36.440  37.224  1.00  0.00     0.040 A 
ATOM     70  F   UNL A   1      41.752  35.693  35.170  1.00  0.00    -0.206 F 
ATOM     71  C   UNL A   1      40.044  36.274  38.313  1.00  0.00     0.006 A 
ENDBRANCH  50  64
BRANCH  51  72
ATOM     72  C   UNL A   1      40.460  28.019  28.569  1.00  0.00     0.057 A 
ATOM     73  C   UNL A   1      41.210  28.350  27.435  1.00  0.00     0.134 A 
ATOM     74  C   UNL A   1      39.790  26.790  28.566  1.00  0.00     0.134 A 
ATOM     75  F   UNL A   1      41.858  29.522  27.374  1.00  0.00    -0.206 F 
ATOM     76  C   UNL A   1      41.279  27.501  26.331  1.00  0.00     0.040 A 
ATOM     77  C   UNL A   1      39.868  25.920  27.477  1.00  0.00     0.040 A 
ATOM     78  F   UNL A   1      39.062  26.413  29.626  1.00  0.00    -0.206 F 
ATOM     79  C   UNL A   1      40.609  26.279  26.352  1.00  0.00     0.006 A 
ENDBRANCH  51  72
BRANCH  63  80
ATOM     80  C   UNL A   1      43.964  28.466  34.562  1.00  0.00     0.057 A 
ATOM     81  C   UNL A   1      45.318  28.763  34.368  1.00  0.00     0.134 A 
ATOM     82  C   UNL A   1      43.651  27.361  35.362  1.00  0.00     0.134 A 
ATOM     83  F   UNL A   1      45.684  29.802  33.601  1.00  0.00    -0.206 F 
ATOM     84  C   UNL A   1      46.324  27.975  34.930  1.00  0.00     0.040 A 
ATOM     85  C   UNL A   1      44.647  26.579  35.948  1.00  0.00     0.040 A 
ATOM     86  F   UNL A   1      42.372  27.026  35.593  1.00  0.00    -0.206 F 
ATOM     87  C   UNL A   1      45.989  26.883  35.727  1.00  0.00     0.006 A 
ENDBRANCH  63  80
ENDBRANCH  37  38
ENDBRANCH  29  32
ENDBRANCH  27  28
ENDBRANCH  26  27
ENDBRANCH   1  26
TORSDOF 13
ENDMDL
MODEL 3
REMARK VINA RESULT:     -12.5      5.188     10.652
REMARK SMILES C[NH+]1CCC(NC(=O)N[C@H]2C=C[C@H](C(=O)NCCCCNC(=O)c3ccc(-c4c5nc(c(-c6c(F)cccc6F)c6ccc([nH]6)c(-c6c(F)cccc6F)c6nc(c(-c7c(F)cccc7F)c7ccc4[nH]7)C=C6)C=C5)cc3)C2)CC1
REMARK SMILES IDX 18 1 17 2 16 3 14 4 15 5 13 7 10 8 11 9 78 10 12 11 9 12
REMARK SMILES IDX 6 13 7 14 8 16 5 18 1 19 2 20 3 21 80 22 4 24 79 25 19 26
REMARK SMILES IDX 20 27 21 28 22 29 23 31 24 32 25 33 77 34 26 35 76 36 27 37
REMARK SMILES IDX 28 38 29 39 70 40 30 41 75 42 69 43 71 44 31 45 74 46 68 47
REMARK SMILES IDX 67 48 32 50 58 51 41 52 57 53 42 54 45 55 56 56 72 57 43 58
REMARK SMILES IDX 44 59 55 61 73 62 46 63 33 64 34 65 39 66 35 67 36 68 38 69
REMARK SMILES IDX 40 70 37 71 59 72 60 73 65 74 61 75 62 76 64 77 66 78 63 79
REMARK SMILES IDX 47 80 48 81 53 82 49 83 50 84 52 85 54 86 51 87
REMARK H PARENT 16 6 6 15 9 17 2 23 21 30 71 49 45 60
REMARK Flexibility Score: inf
ROOT
ATOM      1  C   UNL A   1      37.055  20.796  25.001  1.00  0.00     0.023 C 
ENDROOT
BRANCH   1   2
ATOM      2  C   UNL A   1      35.615  20.267  25.004  1.00  0.00     0.116 C 
BRANCH   2   3
ATOM      3  N   UNL A   1      34.750  20.966  25.943  1.00  0.00    -0.356 N 
ATOM      4  C   UNL A   1      33.603  21.681  25.697  1.00  0.00     0.227 C 
ATOM      5  O   UNL A   1      32.930  22.067  26.651  1.00  0.00    -0.274 OA
ATOM      6  H   UNL A   1      35.025  20.920  26.886  1.00  0.00     0.163 HD
BRANCH   4   7
ATOM      7  C   UNL A   1      33.209  21.951  24.246  1.00  0.00     0.103 C 
ATOM      8  C   UNL A   1      32.847  24.077  23.063  1.00  0.00     0.107 C 
ATOM      9  C   UNL A   1      31.558  23.411  23.390  1.00  0.00    -0.006 C 
ATOM     10  C   UNL A   1      33.938  23.151  23.607  1.00  0.00     0.047 C 
ATOM     11  C   UNL A   1      31.750  22.288  24.093  1.00  0.00    -0.016 C 
BRANCH   8  12
ATOM     12  N   UNL A   1      32.942  24.507  21.676  1.00  0.00    -0.332 N 
ATOM     13  N   UNL A   1      32.382  26.784  21.251  1.00  0.00    -0.335 N 
ATOM     14  C   UNL A   1      32.742  25.556  20.880  1.00  0.00     0.315 C 
ATOM     15  H   UNL A   1      32.199  27.377  20.489  1.00  0.00     0.165 HD
ATOM     16  O   UNL A   1      32.903  25.366  19.670  1.00  0.00    -0.249 OA
ATOM     17  H   UNL A   1      33.270  23.755  21.132  1.00  0.00     0.165 HD
BRANCH  13  18
ATOM     18  C   UNL A   1      32.202  27.435  22.528  1.00  0.00     0.095 C 
ATOM     19  C   UNL A   1      31.784  30.077  25.819  1.00  0.00     0.332 C 
ATOM     20  N   UNL A   1      31.991  29.620  24.441  1.00  0.00    -0.337 N 
ATOM     21  C   UNL A   1      30.790  28.950  23.929  1.00  0.00     0.264 C 
ATOM     22  C   UNL A   1      33.202  28.788  24.363  1.00  0.00     0.264 C 
ATOM     23  H   UNL A   1      32.145  30.423  23.832  1.00  0.00     0.347 HD
ATOM     24  C   UNL A   1      30.984  28.354  22.535  1.00  0.00     0.086 C 
ATOM     25  C   UNL A   1      33.432  28.223  22.962  1.00  0.00     0.086 C 
ENDBRANCH  13  18
ENDBRANCH   8  12
ENDBRANCH   4   7
ENDBRANCH   2   3
ENDBRANCH   1   2
BRANCH   1  26
ATOM     26  C   UNL A   1      38.132  19.708  24.938  1.00  0.00     0.023 C 
BRANCH  26  27
ATOM     27  C   UNL A   1      39.395  20.006  25.748  1.00  0.00     0.116 C 
BRANCH  27  28
ATOM     28  N   UNL A   1      40.361  18.917  25.779  1.00  0.00    -0.352 N 
ATOM     29  C   UNL A   1      41.710  18.987  26.059  1.00  0.00     0.251 C 
ATOM     30  H   UNL A   1      40.007  18.021  25.577  1.00  0.00     0.163 HD
ATOM     31  O   UNL A   1      42.412  17.985  25.973  1.00  0.00    -0.269 OA
BRANCH  29  32
ATOM     32  C   UNL A   1      42.323  20.293  26.408  1.00  0.00     0.039 A 
ATOM     33  C   UNL A   1      42.933  21.042  25.398  1.00  0.00     0.014 A 
ATOM     34  C   UNL A   1      42.260  20.799  27.709  1.00  0.00     0.014 A 
ATOM     35  C   UNL A   1      43.395  22.334  25.674  1.00  0.00     0.010 A 
ATOM     36  C   UNL A   1      42.651  22.111  27.964  1.00  0.00     0.010 A 
ATOM     37  C   UNL A   1      43.215  22.897  26.948  1.00  0.00    -0.014 A 
BRANCH  37  38
ATOM     38  C   UNL A   1      43.579  24.313  27.222  1.00  0.00     0.031 A 
ATOM     39  C   UNL A   1      45.006  24.774  27.109  1.00  0.00     0.074 A 
ATOM     40  C   UNL A   1      42.632  25.172  27.647  1.00  0.00     0.049 A 
ATOM     41  N   UNL A   1      45.511  25.959  27.339  1.00  0.00    -0.248 NA
ATOM     42  C   UNL A   1      46.000  23.764  26.716  1.00  0.00     0.031 C 
ATOM     43  C   UNL A   1      41.226  24.837  27.879  1.00  0.00     0.029 A 
ATOM     44  N   UNL A   1      42.713  26.504  27.972  1.00  0.00    -0.354 N 
ATOM     45  C   UNL A   1      46.880  25.834  27.138  1.00  0.00     0.074 A 
ATOM     46  C   UNL A   1      47.132  24.446  26.817  1.00  0.00     0.031 C 
ATOM     47  C   UNL A   1      40.572  25.939  28.283  1.00  0.00     0.029 A 
ATOM     48  C   UNL A   1      41.514  27.050  28.362  1.00  0.00     0.049 A 
ATOM     49  H   UNL A   1      43.551  27.019  27.929  1.00  0.00     0.167 HD
ATOM     50  C   UNL A   1      47.838  26.790  27.190  1.00  0.00     0.037 A 
ATOM     51  C   UNL A   1      41.205  28.306  28.736  1.00  0.00     0.037 A 
ATOM     52  C   UNL A   1      47.587  28.180  27.475  1.00  0.00     0.049 A 
ATOM     53  C   UNL A   1      42.276  29.362  28.738  1.00  0.00     0.074 A 
ATOM     54  C   UNL A   1      48.481  29.236  27.472  1.00  0.00     0.029 A 
ATOM     55  N   UNL A   1      46.349  28.704  27.814  1.00  0.00    -0.354 N 
ATOM     56  N   UNL A   1      43.550  29.246  28.455  1.00  0.00    -0.248 NA
ATOM     57  C   UNL A   1      41.861  30.725  29.097  1.00  0.00     0.031 C 
ATOM     58  C   UNL A   1      47.790  30.395  27.842  1.00  0.00     0.029 A 
ATOM     59  C   UNL A   1      46.459  30.067  28.039  1.00  0.00     0.049 A 
ATOM     60  H   UNL A   1      45.516  28.184  27.887  1.00  0.00     0.167 HD
ATOM     61  C   UNL A   1      44.084  30.523  28.576  1.00  0.00     0.074 A 
ATOM     62  C   UNL A   1      42.992  31.400  28.944  1.00  0.00     0.031 C 
ATOM     63  C   UNL A   1      45.364  30.930  28.399  1.00  0.00     0.037 A 
BRANCH  50  64
ATOM     64  C   UNL A   1      49.251  26.364  26.920  1.00  0.00     0.057 A 
ATOM     65  C   UNL A   1      49.784  26.355  25.624  1.00  0.00     0.134 A 
ATOM     66  C   UNL A   1      50.097  25.980  27.969  1.00  0.00     0.134 A 
ATOM     67  F   UNL A   1      49.023  26.701  24.574  1.00  0.00    -0.206 F 
ATOM     68  C   UNL A   1      51.097  25.952  25.377  1.00  0.00     0.040 A 
ATOM     69  C   UNL A   1      51.420  25.600  27.737  1.00  0.00     0.040 A 
ATOM     70  F   UNL A   1      49.652  25.971  29.235  1.00  0.00    -0.206 F 
ATOM     71  C   UNL A   1      51.921  25.578  26.436  1.00  0.00     0.006 A 
ENDBRANCH  50  64
BRANCH  51  72
ATOM     72  C   UNL A   1      39.807  28.648  29.098  1.00  0.00     0.057 A 
ATOM     73  C   UNL A   1      38.915  29.140  28.139  1.00  0.00     0.134 A 
ATOM     74  C   UNL A   1      39.332  28.494  30.405  1.00  0.00     0.134 A 
ATOM     75  F   UNL A   1      39.319  29.326  26.874  1.00  0.00    -0.206 F 
ATOM     76  C   UNL A   1      37.604  29.485  28.469  1.00  0.00     0.040 A 
ATOM     77  C   UNL A   1      38.017  28.813  30.745  1.00  0.00     0.040 A 
ATOM     78  F   UNL A   1      40.137  28.019  31.366  1.00  0.00    -0.206 F 
ATOM     79  C   UNL A   1      37.151  29.317  29.776  1.00  0.00     0.006 A 
ENDBRANCH  51  72
BRANCH  63  80
ATOM     80  C   UNL A   1      45.646  32.393  28.574  1.00  0.00     0.057 A 
ATOM     81  C   UNL A   1      46.047  32.927  29.804  1.00  0.00     0.134 A 
ATOM     82  C   UNL A   1      45.536  33.274  27.491  1.00  0.00     0.134 A 
ATOM     83  F   UNL A   1      46.159  32.137  30.884  1.00  0.00    -0.206 F 
ATOM     84  C   UNL A   1      46.307  34.289  29.958  1.00  0.00     0.040 A 
ATOM     85  C   UNL A   1      45.815  34.634  27.626  1.00  0.00     0.040 A 
ATOM     86  F   UNL A   1      45.162  32.825  26.282  1.00  0.00    -0.206 F 
ATOM     87  C   UNL A   1      46.197  35.146  28.865  1.00  0.00     0.006 A 
ENDBRANCH  63  80
ENDBRANCH  37  38
ENDBRANCH  29  32
ENDBRANCH  27  28
ENDBRANCH  26  27
ENDBRANCH   1  26
TORSDOF 13
ENDMDL
