MODEL 1
REMARK VINA RESULT:     -10.9      0.000      0.000
REMARK SMILES COCCNS(=O)(=O)Cc1ccc(C(=O)NCCCCNC(=O)c2ccc(-c3c4nc(c(-c5c(F)cccc5F)c5ccc([nH]5)c(-c5c(F)cccc5F)c5nc(c(-c6c(F)cccc6F)c6ccc3[nH]6)C=C5)C=C4)cc2)cc1
REMARK SMILES IDX 14 1 15 2 16 3 13 5 10 6 11 7 79 8 12 9 78 10 9 11 6 12 7 13
REMARK SMILES IDX 8 14 5 15 4 17 3 18 2 19 1 20 17 21 18 22 19 23 20 24 21 25
REMARK SMILES IDX 22 26 23 28 24 29 25 30 77 31 26 32 76 33 27 34 28 35 29 36
REMARK SMILES IDX 70 37 30 38 75 39 69 40 71 41 31 42 74 43 68 44 67 45 32 47
REMARK SMILES IDX 58 48 41 49 57 50 42 51 45 52 56 53 72 54 43 55 44 56 55 58
REMARK SMILES IDX 73 59 46 60 33 61 34 62 39 63 35 64 36 65 38 66 40 67 37 68
REMARK SMILES IDX 59 69 60 70 65 71 61 72 62 73 64 74 66 75 63 76 47 77 48 78
REMARK SMILES IDX 53 79 49 80 50 81 52 82 54 83 51 84
REMARK H PARENT 16 4 5 16 21 27 71 46 45 57
REMARK Flexibility Score: inf
ROOT
ATOM      1  C   UNL A   1      32.952  19.748  24.955  1.00  0.00     0.251 C 
ATOM      2  O   UNL A   1      32.156  18.836  25.178  1.00  0.00    -0.269 OA
ATOM      3  N   UNL A   1      34.285  19.488  25.142  1.00  0.00    -0.352 N 
ATOM      4  H   UNL A   1      34.481  18.570  25.434  1.00  0.00     0.163 HD
ENDROOT
BRANCH   1   5
ATOM      5  C   UNL A   1      32.444  21.045  24.426  1.00  0.00     0.039 A 
ATOM      6  C   UNL A   1      31.675  23.511  23.244  1.00  0.00    -0.032 A 
ATOM      7  C   UNL A   1      32.233  22.484  22.474  1.00  0.00     0.005 A 
ATOM      8  C   UNL A   1      31.477  23.266  24.610  1.00  0.00     0.005 A 
ATOM      9  C   UNL A   1      32.603  21.266  23.055  1.00  0.00     0.014 A 
ATOM     10  C   UNL A   1      31.827  22.039  25.184  1.00  0.00     0.014 A 
BRANCH   6  11
ATOM     11  C   UNL A   1      31.396  24.904  22.733  1.00  0.00     0.189 C 
BRANCH  11  12
ATOM     12  S   UNL A   1      32.842  25.865  22.284  1.00  0.00     0.215 S 
ATOM     13  O   UNL A   1      33.277  25.436  20.971  1.00  0.00    -0.212 OA
ATOM     14  O   UNL A   1      33.774  25.900  23.389  1.00  0.00    -0.212 OA
BRANCH  12  15
ATOM     15  N   UNL A   1      32.288  27.441  22.099  1.00  0.00    -0.213 NA
ATOM     16  H   UNL A   1      33.071  28.062  22.304  1.00  0.00     0.141 HD
BRANCH  15  17
ATOM     17  C   UNL A   1      31.148  27.886  22.929  1.00  0.00     0.127 C 
BRANCH  17  18
ATOM     18  C   UNL A   1      30.712  29.302  22.530  1.00  0.00     0.176 C 
BRANCH  18  19
ATOM     19  O   UNL A   1      29.606  29.315  21.625  1.00  0.00    -0.383 OA
ATOM     20  C   UNL A   1      28.765  30.453  21.741  1.00  0.00     0.194 C 
ENDBRANCH  18  19
ENDBRANCH  17  18
ENDBRANCH  15  17
ENDBRANCH  12  15
ENDBRANCH  11  12
ENDBRANCH   6  11
ENDBRANCH   1   5
BRANCH   3  21
ATOM     21  C   UNL A   1      35.455  20.325  24.984  1.00  0.00     0.116 C 
BRANCH  21  22
ATOM     22  C   UNL A   1      36.719  19.465  24.999  1.00  0.00     0.023 C 
BRANCH  22  23
ATOM     23  C   UNL A   1      38.001  20.245  24.707  1.00  0.00     0.023 C 
BRANCH  23  24
ATOM     24  C   UNL A   1      38.979  20.307  25.870  1.00  0.00     0.116 C 
BRANCH  24  25
ATOM     25  N   UNL A   1      39.954  19.227  25.853  1.00  0.00    -0.352 N 
ATOM     26  C   UNL A   1      41.313  19.310  26.029  1.00  0.00     0.251 C 
ATOM     27  H   UNL A   1      39.595  18.323  25.694  1.00  0.00     0.163 HD
ATOM     28  O   UNL A   1      42.030  18.330  25.864  1.00  0.00    -0.269 OA
BRANCH  26  29
ATOM     29  C   UNL A   1      41.898  20.616  26.385  1.00  0.00     0.039 A 
ATOM     30  C   UNL A   1      42.251  21.497  25.364  1.00  0.00     0.014 A 
ATOM     31  C   UNL A   1      42.029  20.986  27.726  1.00  0.00     0.014 A 
ATOM     32  C   UNL A   1      42.681  22.783  25.689  1.00  0.00     0.010 A 
ATOM     33  C   UNL A   1      42.377  22.292  28.046  1.00  0.00     0.010 A 
ATOM     34  C   UNL A   1      42.710  23.202  27.030  1.00  0.00    -0.014 A 
BRANCH  34  35
ATOM     35  C   UNL A   1      43.088  24.590  27.391  1.00  0.00     0.031 A 
ATOM     36  C   UNL A   1      44.530  25.012  27.347  1.00  0.00     0.074 A 
ATOM     37  C   UNL A   1      42.141  25.449  27.814  1.00  0.00     0.049 A 
ATOM     38  N   UNL A   1      45.064  26.161  27.673  1.00  0.00    -0.248 NA
ATOM     39  C   UNL A   1      45.503  24.002  26.904  1.00  0.00     0.031 C 
ATOM     40  C   UNL A   1      40.715  25.141  27.948  1.00  0.00     0.029 A 
ATOM     41  N   UNL A   1      42.236  26.757  28.218  1.00  0.00    -0.354 N 
ATOM     42  C   UNL A   1      46.432  26.006  27.487  1.00  0.00     0.074 A 
ATOM     43  C   UNL A   1      46.652  24.637  27.077  1.00  0.00     0.031 C 
ATOM     44  C   UNL A   1      40.066  26.236  28.373  1.00  0.00     0.029 A 
ATOM     45  C   UNL A   1      41.032  27.310  28.582  1.00  0.00     0.049 A 
ATOM     46  H   UNL A   1      43.086  27.252  28.244  1.00  0.00     0.167 HD
ATOM     47  C   UNL A   1      47.413  26.930  27.619  1.00  0.00     0.037 A 
ATOM     48  C   UNL A   1      40.743  28.542  29.041  1.00  0.00     0.037 A 
ATOM     49  C   UNL A   1      47.185  28.296  28.008  1.00  0.00     0.049 A 
ATOM     50  C   UNL A   1      41.855  29.544  29.197  1.00  0.00     0.074 A 
ATOM     51  C   UNL A   1      48.102  29.326  28.113  1.00  0.00     0.029 A 
ATOM     52  N   UNL A   1      45.951  28.822  28.362  1.00  0.00    -0.354 N 
ATOM     53  N   UNL A   1      43.133  29.408  28.943  1.00  0.00    -0.248 NA
ATOM     54  C   UNL A   1      41.481  30.874  29.698  1.00  0.00     0.031 C 
ATOM     55  C   UNL A   1      47.434  30.460  28.585  1.00  0.00     0.029 A 
ATOM     56  C   UNL A   1      46.089  30.154  28.714  1.00  0.00     0.049 A 
ATOM     57  H   UNL A   1      45.102  28.321  28.364  1.00  0.00     0.167 HD
ATOM     58  C   UNL A   1      43.711  30.641  29.221  1.00  0.00     0.074 A 
ATOM     59  C   UNL A   1      42.639  31.515  29.648  1.00  0.00     0.031 C 
ATOM     60  C   UNL A   1      45.010  31.015  29.129  1.00  0.00     0.037 A 
BRANCH  47  61
ATOM     61  C   UNL A   1      48.822  26.490  27.342  1.00  0.00     0.057 A 
ATOM     62  C   UNL A   1      49.662  26.013  28.358  1.00  0.00     0.134 A 
ATOM     63  C   UNL A   1      49.332  26.509  26.039  1.00  0.00     0.134 A 
ATOM     64  F   UNL A   1      49.240  25.980  29.631  1.00  0.00    -0.206 F 
ATOM     65  C   UNL A   1      50.967  25.596  28.090  1.00  0.00     0.040 A 
ATOM     66  C   UNL A   1      50.625  26.066  25.754  1.00  0.00     0.040 A 
ATOM     67  F   UNL A   1      48.581  26.948  25.018  1.00  0.00    -0.206 F 
ATOM     68  C   UNL A   1      51.449  25.614  26.783  1.00  0.00     0.006 A 
ENDBRANCH  47  61
BRANCH  48  69
ATOM     69  C   UNL A   1      39.341  28.910  29.367  1.00  0.00     0.057 A 
ATOM     70  C   UNL A   1      38.816  28.697  30.647  1.00  0.00     0.134 A 
ATOM     71  C   UNL A   1      38.486  29.464  28.406  1.00  0.00     0.134 A 
ATOM     72  F   UNL A   1      39.581  28.152  31.607  1.00  0.00    -0.206 F 
ATOM     73  C   UNL A   1      37.489  28.995  30.954  1.00  0.00     0.040 A 
ATOM     74  C   UNL A   1      37.163  29.795  28.707  1.00  0.00     0.040 A 
ATOM     75  F   UNL A   1      38.928  29.702  27.163  1.00  0.00    -0.206 F 
ATOM     76  C   UNL A   1      36.658  29.550  29.982  1.00  0.00     0.006 A 
ENDBRANCH  48  69
BRANCH  60  77
ATOM     77  C   UNL A   1      45.341  32.442  29.456  1.00  0.00     0.057 A 
ATOM     78  C   UNL A   1      45.741  32.837  30.740  1.00  0.00     0.134 A 
ATOM     79  C   UNL A   1      45.296  33.428  28.462  1.00  0.00     0.134 A 
ATOM     80  F   UNL A   1      45.794  31.945  31.741  1.00  0.00    -0.206 F 
ATOM     81  C   UNL A   1      46.060  34.165  31.028  1.00  0.00     0.040 A 
ATOM     82  C   UNL A   1      45.642  34.753  28.729  1.00  0.00     0.040 A 
ATOM     83  F   UNL A   1      44.930  33.117  27.209  1.00  0.00    -0.206 F 
ATOM     84  C   UNL A   1      46.019  35.126  30.019  1.00  0.00     0.006 A 
ENDBRANCH  60  77
ENDBRANCH  34  35
ENDBRANCH  26  29
ENDBRANCH  24  25
ENDBRANCH  23  24
ENDBRANCH  22  23
ENDBRANCH  21  22
ENDBRANCH   3  21
TORSDOF 17
ENDMDL
MODEL 2
REMARK VINA RESULT:     -10.8      0.508      6.266
REMARK SMILES COCCNS(=O)(=O)Cc1ccc(C(=O)NCCCCNC(=O)c2ccc(-c3c4nc(c(-c5c(F)cccc5F)c5ccc([nH]5)c(-c5c(F)cccc5F)c5nc(c(-c6c(F)cccc6F)c6ccc3[nH]6)C=C5)C=C4)cc2)cc1
REMARK SMILES IDX 14 1 15 2 16 3 13 5 10 6 11 7 79 8 12 9 78 10 9 11 6 12 7 13
REMARK SMILES IDX 8 14 5 15 4 17 3 18 2 19 1 20 17 21 18 22 19 23 20 24 21 25
REMARK SMILES IDX 22 26 23 28 24 29 25 30 77 31 26 32 76 33 27 34 28 35 29 36
REMARK SMILES IDX 70 37 30 38 75 39 69 40 71 41 31 42 74 43 68 44 67 45 32 47
REMARK SMILES IDX 58 48 41 49 57 50 42 51 45 52 56 53 72 54 43 55 44 56 55 58
REMARK SMILES IDX 73 59 46 60 33 61 34 62 39 63 35 64 36 65 38 66 40 67 37 68
REMARK SMILES IDX 59 69 60 70 65 71 61 72 62 73 64 74 66 75 63 76 47 77 48 78
REMARK SMILES IDX 53 79 49 80 50 81 52 82 54 83 51 84
REMARK H PARENT 16 4 5 16 21 27 71 46 45 57
REMARK Flexibility Score: inf
ROOT
ATOM      1  C   UNL A   1      33.027  19.882  25.094  1.00  0.00     0.251 C 
ATOM      2  O   UNL A   1      32.253  18.967  25.372  1.00  0.00    -0.269 OA
ATOM      3  N   UNL A   1      34.368  19.656  25.270  1.00  0.00    -0.352 N 
ATOM      4  H   UNL A   1      34.586  18.755  25.600  1.00  0.00     0.163 HD
ENDROOT
BRANCH   1   5
ATOM      5  C   UNL A   1      32.486  21.144  24.514  1.00  0.00     0.039 A 
ATOM      6  C   UNL A   1      31.659  23.546  23.243  1.00  0.00    -0.032 A 
ATOM      7  C   UNL A   1      32.276  22.520  22.517  1.00  0.00     0.005 A 
ATOM      8  C   UNL A   1      31.433  23.330  24.609  1.00  0.00     0.005 A 
ATOM      9  C   UNL A   1      32.676  21.333  23.142  1.00  0.00     0.014 A 
ATOM     10  C   UNL A   1      31.812  22.134  25.227  1.00  0.00     0.014 A 
BRANCH   6  11
ATOM     11  C   UNL A   1      31.343  24.912  22.686  1.00  0.00     0.189 C 
BRANCH  11  12
ATOM     12  S   UNL A   1      32.764  25.928  22.281  1.00  0.00     0.215 S 
ATOM     13  O   UNL A   1      33.280  25.490  21.000  1.00  0.00    -0.212 OA
ATOM     14  O   UNL A   1      33.640  26.031  23.426  1.00  0.00    -0.212 OA
BRANCH  12  15
ATOM     15  N   UNL A   1      32.150  27.472  22.032  1.00  0.00    -0.213 NA
ATOM     16  H   UNL A   1      32.910  28.132  22.202  1.00  0.00     0.141 HD
BRANCH  15  17
ATOM     17  C   UNL A   1      31.000  27.911  22.852  1.00  0.00     0.127 C 
BRANCH  17  18
ATOM     18  C   UNL A   1      30.646  29.372  22.544  1.00  0.00     0.176 C 
BRANCH  18  19
ATOM     19  O   UNL A   1      29.642  29.506  21.536  1.00  0.00    -0.383 OA
ATOM     20  C   UNL A   1      28.738  30.583  21.745  1.00  0.00     0.194 C 
ENDBRANCH  18  19
ENDBRANCH  17  18
ENDBRANCH  15  17
ENDBRANCH  12  15
ENDBRANCH  11  12
ENDBRANCH   6  11
ENDBRANCH   1   5
BRANCH   3  21
ATOM     21  C   UNL A   1      35.519  20.506  25.055  1.00  0.00     0.116 C 
BRANCH  21  22
ATOM     22  C   UNL A   1      36.791  19.659  24.998  1.00  0.00     0.023 C 
BRANCH  22  23
ATOM     23  C   UNL A   1      38.072  20.478  24.839  1.00  0.00     0.023 C 
BRANCH  23  24
ATOM     24  C   UNL A   1      39.007  20.423  26.037  1.00  0.00     0.116 C 
BRANCH  24  25
ATOM     25  N   UNL A   1      39.907  19.280  26.006  1.00  0.00    -0.352 N 
ATOM     26  C   UNL A   1      41.275  19.277  26.126  1.00  0.00     0.251 C 
ATOM     27  H   UNL A   1      39.483  18.400  25.882  1.00  0.00     0.163 HD
ATOM     28  O   UNL A   1      41.919  18.248  25.955  1.00  0.00    -0.269 OA
BRANCH  26  29
ATOM     29  C   UNL A   1      41.959  20.547  26.428  1.00  0.00     0.039 A 
ATOM     30  C   UNL A   1      42.270  21.411  25.379  1.00  0.00     0.014 A 
ATOM     31  C   UNL A   1      42.226  20.905  27.752  1.00  0.00     0.014 A 
ATOM     32  C   UNL A   1      42.796  22.670  25.664  1.00  0.00     0.010 A 
ATOM     33  C   UNL A   1      42.671  22.188  28.039  1.00  0.00     0.010 A 
ATOM     34  C   UNL A   1      42.964  23.083  26.997  1.00  0.00    -0.014 A 
BRANCH  34  35
ATOM     35  C   UNL A   1      43.447  24.446  27.322  1.00  0.00     0.031 A 
ATOM     36  C   UNL A   1      42.474  25.499  27.776  1.00  0.00     0.074 A 
ATOM     37  C   UNL A   1      44.747  24.751  27.152  1.00  0.00     0.049 A 
ATOM     38  N   UNL A   1      42.691  26.758  28.057  1.00  0.00    -0.248 NA
ATOM     39  C   UNL A   1      41.066  25.090  27.904  1.00  0.00     0.031 C 
ATOM     40  C   UNL A   1      45.778  23.829  26.670  1.00  0.00     0.029 A 
ATOM     41  N   UNL A   1      45.425  25.926  27.359  1.00  0.00    -0.354 N 
ATOM     42  C   UNL A   1      41.450  27.292  28.381  1.00  0.00     0.074 A 
ATOM     43  C   UNL A   1      40.477  26.237  28.206  1.00  0.00     0.031 C 
ATOM     44  C   UNL A   1      46.960  24.464  26.647  1.00  0.00     0.029 A 
ATOM     45  C   UNL A   1      46.766  25.847  27.070  1.00  0.00     0.049 A 
ATOM     46  H   UNL A   1      44.992  26.749  27.684  1.00  0.00     0.167 HD
ATOM     47  C   UNL A   1      41.154  28.540  28.813  1.00  0.00     0.037 A 
ATOM     48  C   UNL A   1      47.728  26.787  27.134  1.00  0.00     0.037 A 
ATOM     49  C   UNL A   1      42.130  29.579  29.006  1.00  0.00     0.049 A 
ATOM     50  C   UNL A   1      47.367  28.172  27.599  1.00  0.00     0.074 A 
ATOM     51  C   UNL A   1      41.941  30.858  29.496  1.00  0.00     0.029 A 
ATOM     52  N   UNL A   1      43.480  29.459  28.709  1.00  0.00    -0.354 N 
ATOM     53  N   UNL A   1      46.203  28.641  27.978  1.00  0.00    -0.248 NA
ATOM     54  C   UNL A   1      48.456  29.156  27.652  1.00  0.00     0.031 C 
ATOM     55  C   UNL A   1      43.166  31.531  29.444  1.00  0.00     0.029 A 
ATOM     56  C   UNL A   1      44.130  30.652  28.980  1.00  0.00     0.049 A 
ATOM     57  H   UNL A   1      43.912  28.646  28.358  1.00  0.00     0.167 HD
ATOM     58  C   UNL A   1      46.426  29.963  28.344  1.00  0.00     0.074 A 
ATOM     59  C   UNL A   1      47.839  30.214  28.156  1.00  0.00     0.031 C 
ATOM     60  C   UNL A   1      45.541  30.884  28.796  1.00  0.00     0.037 A 
BRANCH  47  61
ATOM     61  C   UNL A   1      39.714  28.849  29.105  1.00  0.00     0.057 A 
ATOM     62  C   UNL A   1      38.835  29.295  28.109  1.00  0.00     0.134 A 
ATOM     63  C   UNL A   1      39.189  28.661  30.390  1.00  0.00     0.134 A 
ATOM     64  F   UNL A   1      39.274  29.508  26.859  1.00  0.00    -0.206 F 
ATOM     65  C   UNL A   1      37.494  29.570  28.387  1.00  0.00     0.040 A 
ATOM     66  C   UNL A   1      37.844  28.903  30.673  1.00  0.00     0.040 A 
ATOM     67  F   UNL A   1      39.973  28.230  31.390  1.00  0.00    -0.206 F 
ATOM     68  C   UNL A   1      36.994  29.365  29.670  1.00  0.00     0.006 A 
ENDBRANCH  47  61
BRANCH  48  69
ATOM     69  C   UNL A   1      49.128  26.451  26.769  1.00  0.00     0.057 A 
ATOM     70  C   UNL A   1      50.012  25.913  27.712  1.00  0.00     0.134 A 
ATOM     71  C   UNL A   1      49.622  26.675  25.478  1.00  0.00     0.134 A 
ATOM     72  F   UNL A   1      49.603  25.692  28.970  1.00  0.00    -0.206 F 
ATOM     73  C   UNL A   1      51.342  25.636  27.394  1.00  0.00     0.040 A 
ATOM     74  C   UNL A   1      50.943  26.375  25.138  1.00  0.00     0.040 A 
ATOM     75  F   UNL A   1      48.825  27.180  24.525  1.00  0.00    -0.206 F 
ATOM     76  C   UNL A   1      51.810  25.863  26.101  1.00  0.00     0.006 A 
ENDBRANCH  48  69
BRANCH  60  77
ATOM     77  C   UNL A   1      46.080  32.237  29.160  1.00  0.00     0.057 A 
ATOM     78  C   UNL A   1      46.553  32.527  30.447  1.00  0.00     0.134 A 
ATOM     79  C   UNL A   1      46.163  33.252  28.197  1.00  0.00     0.134 A 
ATOM     80  F   UNL A   1      46.491  31.603  31.418  1.00  0.00    -0.206 F 
ATOM     81  C   UNL A   1      47.064  33.785  30.769  1.00  0.00     0.040 A 
ATOM     82  C   UNL A   1      46.702  34.503  28.499  1.00  0.00     0.040 A 
ATOM     83  F   UNL A   1      45.738  33.038  26.943  1.00  0.00    -0.206 F 
ATOM     84  C   UNL A   1      47.148  34.774  29.792  1.00  0.00     0.006 A 
ENDBRANCH  60  77
ENDBRANCH  34  35
ENDBRANCH  26  29
ENDBRANCH  24  25
ENDBRANCH  23  24
ENDBRANCH  22  23
ENDBRANCH  21  22
ENDBRANCH   3  21
TORSDOF 17
ENDMDL
MODEL 3
REMARK VINA RESULT:     -10.7      1.743      2.378
REMARK SMILES COCCNS(=O)(=O)Cc1ccc(C(=O)NCCCCNC(=O)c2ccc(-c3c4nc(c(-c5c(F)cccc5F)c5ccc([nH]5)c(-c5c(F)cccc5F)c5nc(c(-c6c(F)cccc6F)c6ccc3[nH]6)C=C5)C=C4)cc2)cc1
REMARK SMILES IDX 14 1 15 2 16 3 13 5 10 6 11 7 79 8 12 9 78 10 9 11 6 12 7 13
REMARK SMILES IDX 8 14 5 15 4 17 3 18 2 19 1 20 17 21 18 22 19 23 20 24 21 25
REMARK SMILES IDX 22 26 23 28 24 29 25 30 77 31 26 32 76 33 27 34 28 35 29 36
REMARK SMILES IDX 70 37 30 38 75 39 69 40 71 41 31 42 74 43 68 44 67 45 32 47
REMARK SMILES IDX 58 48 41 49 57 50 42 51 45 52 56 53 72 54 43 55 44 56 55 58
REMARK SMILES IDX 73 59 46 60 33 61 34 62 39 63 35 64 36 65 38 66 40 67 37 68
REMARK SMILES IDX 59 69 60 70 65 71 61 72 62 73 64 74 66 75 63 76 47 77 48 78
REMARK SMILES IDX 53 79 49 80 50 81 52 82 54 83 51 84
REMARK H PARENT 16 4 5 16 21 27 71 46 45 57
REMARK Flexibility Score: inf
ROOT
ATOM      1  C   UNL A   1      34.397  22.547  26.782  1.00  0.00     0.251 C 
ATOM      2  O   UNL A   1      34.273  22.695  27.997  1.00  0.00    -0.269 OA
ATOM      3  N   UNL A   1      35.038  21.418  26.341  1.00  0.00    -0.352 N 
ATOM      4  H   UNL A   1      35.335  20.815  27.060  1.00  0.00     0.163 HD
ENDROOT
BRANCH   1   5
ATOM      5  C   UNL A   1      33.785  23.545  25.859  1.00  0.00     0.039 A 
ATOM      6  C   UNL A   1      32.779  25.627  24.210  1.00  0.00    -0.032 A 
ATOM      7  C   UNL A   1      34.124  25.598  24.597  1.00  0.00     0.005 A 
ATOM      8  C   UNL A   1      31.957  24.574  24.635  1.00  0.00     0.005 A 
ATOM      9  C   UNL A   1      34.621  24.568  25.403  1.00  0.00     0.014 A 
ATOM     10  C   UNL A   1      32.462  23.533  25.421  1.00  0.00     0.014 A 
BRANCH   6  11
ATOM     11  C   UNL A   1      32.127  26.776  23.481  1.00  0.00     0.189 C 
BRANCH  11  12
ATOM     12  S   UNL A   1      32.532  28.411  24.097  1.00  0.00     0.215 S 
ATOM     13  O   UNL A   1      33.808  28.801  23.532  1.00  0.00    -0.212 OA
ATOM     14  O   UNL A   1      32.315  28.468  25.525  1.00  0.00    -0.212 OA
BRANCH  12  15
ATOM     15  N   UNL A   1      31.388  29.438  23.418  1.00  0.00    -0.213 NA
ATOM     16  H   UNL A   1      30.840  29.829  24.184  1.00  0.00     0.141 HD
BRANCH  15  17
ATOM     17  C   UNL A   1      30.433  28.875  22.439  1.00  0.00     0.127 C 
BRANCH  17  18
ATOM     18  C   UNL A   1      29.084  29.602  22.524  1.00  0.00     0.176 C 
BRANCH  18  19
ATOM     19  O   UNL A   1      28.508  29.869  21.244  1.00  0.00    -0.383 OA
ATOM     20  C   UNL A   1      28.179  31.233  21.020  1.00  0.00     0.194 C 
ENDBRANCH  18  19
ENDBRANCH  17  18
ENDBRANCH  15  17
ENDBRANCH  12  15
ENDBRANCH  11  12
ENDBRANCH   6  11
ENDBRANCH   1   5
BRANCH   3  21
ATOM     21  C   UNL A   1      35.355  20.955  25.007  1.00  0.00     0.116 C 
BRANCH  21  22
ATOM     22  C   UNL A   1      36.817  21.264  24.680  1.00  0.00     0.023 C 
BRANCH  22  23
ATOM     23  C   UNL A   1      37.770  20.102  24.956  1.00  0.00     0.023 C 
BRANCH  23  24
ATOM     24  C   UNL A   1      39.015  20.483  25.744  1.00  0.00     0.116 C 
BRANCH  24  25
ATOM     25  N   UNL A   1      40.023  19.434  25.759  1.00  0.00    -0.352 N 
ATOM     26  C   UNL A   1      41.349  19.539  26.098  1.00  0.00     0.251 C 
ATOM     27  H   UNL A   1      39.717  18.537  25.491  1.00  0.00     0.163 HD
ATOM     28  O   UNL A   1      42.115  18.595  25.944  1.00  0.00    -0.269 OA
BRANCH  26  29
ATOM     29  C   UNL A   1      41.843  20.827  26.618  1.00  0.00     0.039 A 
ATOM     30  C   UNL A   1      42.312  21.782  25.717  1.00  0.00     0.014 A 
ATOM     31  C   UNL A   1      41.774  21.107  27.985  1.00  0.00     0.014 A 
ATOM     32  C   UNL A   1      42.657  23.050  26.183  1.00  0.00     0.010 A 
ATOM     33  C   UNL A   1      42.039  22.393  28.436  1.00  0.00     0.010 A 
ATOM     34  C   UNL A   1      42.486  23.377  27.540  1.00  0.00    -0.014 A 
BRANCH  34  35
ATOM     35  C   UNL A   1      42.772  24.743  28.040  1.00  0.00     0.031 A 
ATOM     36  C   UNL A   1      44.174  25.125  28.425  1.00  0.00     0.074 A 
ATOM     37  C   UNL A   1      41.760  25.617  28.204  1.00  0.00     0.049 A 
ATOM     38  N   UNL A   1      44.615  26.248  28.929  1.00  0.00    -0.248 NA
ATOM     39  C   UNL A   1      45.213  24.099  28.245  1.00  0.00     0.031 C 
ATOM     40  C   UNL A   1      40.350  25.346  27.913  1.00  0.00     0.029 A 
ATOM     41  N   UNL A   1      41.762  26.910  28.663  1.00  0.00    -0.354 N 
ATOM     42  C   UNL A   1      45.975  26.060  29.137  1.00  0.00     0.074 A 
ATOM     43  C   UNL A   1      46.277  24.697  28.761  1.00  0.00     0.031 C 
ATOM     44  C   UNL A   1      39.629  26.448  28.172  1.00  0.00     0.029 A 
ATOM     45  C   UNL A   1      40.514  27.488  28.685  1.00  0.00     0.049 A 
ATOM     46  H   UNL A   1      42.578  27.381  28.948  1.00  0.00     0.167 HD
ATOM     47  C   UNL A   1      46.895  26.951  29.576  1.00  0.00     0.037 A 
ATOM     48  C   UNL A   1      40.130  28.715  29.084  1.00  0.00     0.037 A 
ATOM     49  C   UNL A   1      46.592  28.312  29.930  1.00  0.00     0.049 A 
ATOM     50  C   UNL A   1      41.170  29.680  29.586  1.00  0.00     0.074 A 
ATOM     51  C   UNL A   1      47.461  29.312  30.328  1.00  0.00     0.029 A 
ATOM     52  N   UNL A   1      45.319  28.863  29.933  1.00  0.00    -0.354 N 
ATOM     53  N   UNL A   1      42.465  29.515  29.703  1.00  0.00    -0.248 NA
ATOM     54  C   UNL A   1      40.695  31.006  30.003  1.00  0.00     0.031 C 
ATOM     55  C   UNL A   1      46.708  30.452  30.627  1.00  0.00     0.029 A 
ATOM     56  C   UNL A   1      45.377  30.181  30.355  1.00  0.00     0.049 A 
ATOM     57  H   UNL A   1      44.496  28.388  29.675  1.00  0.00     0.167 HD
ATOM     58  C   UNL A   1      42.963  30.722  30.177  1.00  0.00     0.074 A 
ATOM     59  C   UNL A   1      41.831  31.615  30.309  1.00  0.00     0.031 C 
ATOM     60  C   UNL A   1      44.241  31.061  30.474  1.00  0.00     0.037 A 
BRANCH  47  61
ATOM     61  C   UNL A   1      48.315  26.479  29.699  1.00  0.00     0.057 A 
ATOM     62  C   UNL A   1      49.250  26.667  28.672  1.00  0.00     0.134 A 
ATOM     63  C   UNL A   1      48.763  25.862  30.873  1.00  0.00     0.134 A 
ATOM     64  F   UNL A   1      48.884  27.241  27.515  1.00  0.00    -0.206 F 
ATOM     65  C   UNL A   1      50.571  26.234  28.798  1.00  0.00     0.040 A 
ATOM     66  C   UNL A   1      50.090  25.452  31.024  1.00  0.00     0.040 A 
ATOM     67  F   UNL A   1      47.924  25.655  31.899  1.00  0.00    -0.206 F 
ATOM     68  C   UNL A   1      50.996  25.633  29.980  1.00  0.00     0.006 A 
ENDBRANCH  47  61
BRANCH  48  69
ATOM     69  C   UNL A   1      38.701  29.114  29.007  1.00  0.00     0.057 A 
ATOM     70  C   UNL A   1      37.862  29.013  30.123  1.00  0.00     0.134 A 
ATOM     71  C   UNL A   1      38.135  29.586  27.817  1.00  0.00     0.134 A 
ATOM     72  F   UNL A   1      38.341  28.551  31.288  1.00  0.00    -0.206 F 
ATOM     73  C   UNL A   1      36.508  29.341  30.053  1.00  0.00     0.040 A 
ATOM     74  C   UNL A   1      36.788  29.946  27.739  1.00  0.00     0.040 A 
ATOM     75  F   UNL A   1      38.886  29.715  26.714  1.00  0.00    -0.206 F 
ATOM     76  C   UNL A   1      35.967  29.813  28.858  1.00  0.00     0.006 A 
ENDBRANCH  48  69
BRANCH  60  77
ATOM     77  C   UNL A   1      44.492  32.469  30.930  1.00  0.00     0.057 A 
ATOM     78  C   UNL A   1      44.738  33.511  30.026  1.00  0.00     0.134 A 
ATOM     79  C   UNL A   1      44.447  32.793  32.292  1.00  0.00     0.134 A 
ATOM     80  F   UNL A   1      44.805  33.266  28.708  1.00  0.00    -0.206 F 
ATOM     81  C   UNL A   1      44.956  34.819  30.462  1.00  0.00     0.040 A 
ATOM     82  C   UNL A   1      44.632  34.102  32.739  1.00  0.00     0.040 A 
ATOM     83  F   UNL A   1      44.207  31.846  33.211  1.00  0.00    -0.206 F 
ATOM     84  C   UNL A   1      44.895  35.119  31.822  1.00  0.00     0.006 A 
ENDBRANCH  60  77
ENDBRANCH  34  35
ENDBRANCH  26  29
ENDBRANCH  24  25
ENDBRANCH  23  24
ENDBRANCH  22  23
ENDBRANCH  21  22
ENDBRANCH   3  21
TORSDOF 17
ENDMDL
