MODEL 1
REMARK VINA RESULT:     -11.8      0.000      0.000
REMARK SMILES O=C(NCCCCNC(=O)[C@@H]1C=C[C@@H]([NH+]2CC3(CCOCC3)C2)C1)c1ccc(-c2c3nc(c(-c4c(F)cccc4F)c4ccc([nH]4)c(-c4c(F)cccc4F)c4nc(c(-c5c(F)cccc5F)c5ccc2[nH]5)C=C4)C=C3)cc1
REMARK SMILES IDX 5 1 4 2 3 3 1 4 2 5 25 7 26 8 78 9 27 10 77 11 28 12 29 13
REMARK SMILES IDX 30 14 71 15 31 16 76 17 70 18 72 19 32 20 75 21 69 22 68 23
REMARK SMILES IDX 33 25 59 26 42 27 58 28 43 29 46 30 57 31 73 32 44 33 45 34
REMARK SMILES IDX 56 36 74 37 47 38 34 39 35 40 40 41 36 42 37 43 39 44 41 45
REMARK SMILES IDX 38 46 60 47 61 48 66 49 62 50 63 51 65 52 67 53 64 54 48 55
REMARK SMILES IDX 49 56 54 57 50 58 51 59 53 60 55 61 52 62 6 63 7 64 8 65
REMARK SMILES IDX 9 66 10 68 11 69 12 70 24 71 13 72 14 73 15 74 16 75 23 76
REMARK SMILES IDX 17 78 18 79 22 80 19 81 21 82 20 83
REMARK H PARENT 3 6 72 24 46 35 8 67 15 77
REMARK Flexibility Score: inf
ROOT
ATOM      1  C   UNL A   1      37.681  19.688  24.961  1.00  0.00     0.023 C 
ENDROOT
BRANCH   1   2
ATOM      2  C   UNL A   1      38.857  20.100  25.837  1.00  0.00     0.116 C 
BRANCH   2   3
ATOM      3  N   UNL A   1      39.954  19.145  25.809  1.00  0.00    -0.352 N 
ATOM      4  O   UNL A   1      42.102  18.455  25.769  1.00  0.00    -0.269 OA
ATOM      5  C   UNL A   1      41.307  19.363  25.964  1.00  0.00     0.251 C 
ATOM      6  H   UNL A   1      39.694  18.208  25.657  1.00  0.00     0.163 HD
BRANCH   5   7
ATOM      7  C   UNL A   1      41.797  20.707  26.346  1.00  0.00     0.039 A 
ATOM      8  C   UNL A   1      42.032  21.683  25.376  1.00  0.00     0.014 A 
ATOM      9  C   UNL A   1      42.009  20.997  27.697  1.00  0.00     0.014 A 
ATOM     10  C   UNL A   1      42.616  22.891  25.736  1.00  0.00     0.010 A 
ATOM     11  C   UNL A   1      42.508  22.250  28.068  1.00  0.00     0.010 A 
ATOM     12  C   UNL A   1      42.835  23.200  27.088  1.00  0.00    -0.014 A 
BRANCH  12  13
ATOM     13  C   UNL A   1      43.304  24.559  27.458  1.00  0.00     0.031 A 
ATOM     14  C   UNL A   1      42.346  25.627  27.904  1.00  0.00     0.074 A 
ATOM     15  C   UNL A   1      44.622  24.822  27.374  1.00  0.00     0.049 A 
ATOM     16  N   UNL A   1      42.596  26.871  28.226  1.00  0.00    -0.248 NA
ATOM     17  C   UNL A   1      40.925  25.258  27.997  1.00  0.00     0.031 C 
ATOM     18  C   UNL A   1      45.645  23.866  26.938  1.00  0.00     0.029 A 
ATOM     19  N   UNL A   1      45.333  25.962  27.646  1.00  0.00    -0.354 N 
ATOM     20  C   UNL A   1      41.367  27.441  28.537  1.00  0.00     0.074 A 
ATOM     21  C   UNL A   1      40.368  26.409  28.351  1.00  0.00     0.031 C 
ATOM     22  C   UNL A   1      46.849  24.451  26.995  1.00  0.00     0.029 A 
ATOM     23  C   UNL A   1      46.679  25.841  27.400  1.00  0.00     0.049 A 
ATOM     24  H   UNL A   1      44.919  26.789  27.987  1.00  0.00     0.167 HD
ATOM     25  C   UNL A   1      41.105  28.707  28.939  1.00  0.00     0.037 A 
ATOM     26  C   UNL A   1      47.665  26.754  27.451  1.00  0.00     0.037 A 
ATOM     27  C   UNL A   1      42.112  29.720  29.138  1.00  0.00     0.049 A 
ATOM     28  C   UNL A   1      47.335  28.159  27.860  1.00  0.00     0.074 A 
ATOM     29  C   UNL A   1      41.951  31.010  29.615  1.00  0.00     0.029 A 
ATOM     30  N   UNL A   1      43.460  29.564  28.854  1.00  0.00    -0.354 N 
ATOM     31  N   UNL A   1      46.179  28.662  28.218  1.00  0.00    -0.248 NA
ATOM     32  C   UNL A   1      48.440  29.126  27.863  1.00  0.00     0.031 C 
ATOM     33  C   UNL A   1      43.190  31.655  29.557  1.00  0.00     0.029 A 
ATOM     34  C   UNL A   1      44.134  30.750  29.101  1.00  0.00     0.049 A 
ATOM     35  H   UNL A   1      43.877  28.735  28.526  1.00  0.00     0.167 HD
ATOM     36  C   UNL A   1      46.419  29.999  28.504  1.00  0.00     0.074 A 
ATOM     37  C   UNL A   1      47.836  30.221  28.300  1.00  0.00     0.031 C 
ATOM     38  C   UNL A   1      45.545  30.957  28.893  1.00  0.00     0.037 A 
BRANCH  25  39
ATOM     39  C   UNL A   1      39.673  29.093  29.175  1.00  0.00     0.057 A 
ATOM     40  C   UNL A   1      38.827  29.495  28.135  1.00  0.00     0.134 A 
ATOM     41  C   UNL A   1      39.111  28.977  30.454  1.00  0.00     0.134 A 
ATOM     42  F   UNL A   1      39.302  29.632  26.887  1.00  0.00    -0.206 F 
ATOM     43  C   UNL A   1      37.478  29.780  28.358  1.00  0.00     0.040 A 
ATOM     44  C   UNL A   1      37.758  29.235  30.686  1.00  0.00     0.040 A 
ATOM     45  F   UNL A   1      39.861  28.587  31.496  1.00  0.00    -0.206 F 
ATOM     46  C   UNL A   1      36.938  29.640  29.635  1.00  0.00     0.006 A 
ENDBRANCH  25  39
BRANCH  26  47
ATOM     47  C   UNL A   1      49.048  26.374  27.064  1.00  0.00     0.057 A 
ATOM     48  C   UNL A   1      49.967  25.911  28.012  1.00  0.00     0.134 A 
ATOM     49  C   UNL A   1      49.485  26.477  25.737  1.00  0.00     0.134 A 
ATOM     50  F   UNL A   1      49.614  25.806  29.301  1.00  0.00    -0.206 F 
ATOM     51  C   UNL A   1      51.277  25.584  27.657  1.00  0.00     0.040 A 
ATOM     52  C   UNL A   1      50.781  26.123  25.364  1.00  0.00     0.040 A 
ATOM     53  F   UNL A   1      48.649  26.905  24.780  1.00  0.00    -0.206 F 
ATOM     54  C   UNL A   1      51.685  25.685  26.328  1.00  0.00     0.006 A 
ENDBRANCH  26  47
BRANCH  38  55
ATOM     55  C   UNL A   1      46.099  32.328  29.144  1.00  0.00     0.057 A 
ATOM     56  C   UNL A   1      46.124  33.307  28.142  1.00  0.00     0.134 A 
ATOM     57  C   UNL A   1      46.571  32.688  30.413  1.00  0.00     0.134 A 
ATOM     58  F   UNL A   1      45.702  33.020  26.901  1.00  0.00    -0.206 F 
ATOM     59  C   UNL A   1      46.615  34.589  28.389  1.00  0.00     0.040 A 
ATOM     60  C   UNL A   1      47.037  33.975  30.680  1.00  0.00     0.040 A 
ATOM     61  F   UNL A   1      46.568  31.799  31.419  1.00  0.00    -0.206 F 
ATOM     62  C   UNL A   1      47.065  34.929  29.664  1.00  0.00     0.006 A 
ENDBRANCH  38  55
ENDBRANCH  12  13
ENDBRANCH   5   7
ENDBRANCH   2   3
ENDBRANCH   1   2
BRANCH   1  63
ATOM     63  C   UNL A   1      36.697  20.801  24.631  1.00  0.00     0.023 C 
BRANCH  63  64
ATOM     64  C   UNL A   1      35.640  21.078  25.692  1.00  0.00     0.116 C 
BRANCH  64  65
ATOM     65  N   UNL A   1      34.387  20.348  25.529  1.00  0.00    -0.356 N 
ATOM     66  C   UNL A   1      33.108  20.856  25.378  1.00  0.00     0.227 C 
ATOM     67  H   UNL A   1      34.460  19.366  25.524  1.00  0.00     0.163 HD
ATOM     68  O   UNL A   1      32.183  20.082  25.142  1.00  0.00    -0.274 OA
BRANCH  66  69
ATOM     69  C   UNL A   1      32.918  22.366  25.563  1.00  0.00     0.107 C 
ATOM     70  C   UNL A   1      32.593  22.961  26.894  1.00  0.00    -0.012 C 
ATOM     71  C   UNL A   1      31.752  22.853  24.712  1.00  0.00     0.087 C 
ATOM     72  C   UNL A   1      31.467  23.694  26.874  1.00  0.00     0.033 C 
ATOM     73  C   UNL A   1      30.720  23.560  25.581  1.00  0.00     0.208 C 
BRANCH  73  74
ATOM     74  N   UNL A   1      30.084  24.770  25.038  1.00  0.00    -0.328 N 
ATOM     75  C   UNL A   1      30.798  25.312  23.862  1.00  0.00     0.275 C 
ATOM     76  C   UNL A   1      30.308  26.012  25.789  1.00  0.00     0.275 C 
ATOM     77  H   UNL A   1      29.128  24.421  24.963  1.00  0.00     0.348 HD
ATOM     78  C   UNL A   1      31.297  26.537  24.689  1.00  0.00     0.073 C 
ATOM     79  C   UNL A   1      30.867  27.940  24.225  1.00  0.00     0.047 C 
ATOM     80  C   UNL A   1      32.806  26.549  25.009  1.00  0.00     0.047 C 
ATOM     81  C   UNL A   1      31.807  28.464  23.146  1.00  0.00     0.161 C 
ATOM     82  C   UNL A   1      33.621  27.198  23.903  1.00  0.00     0.161 C 
ATOM     83  O   UNL A   1      33.146  28.508  23.639  1.00  0.00    -0.381 OA
ENDBRANCH  73  74
ENDBRANCH  66  69
ENDBRANCH  64  65
ENDBRANCH  63  64
ENDBRANCH   1  63
TORSDOF 12
ENDMDL
MODEL 2
REMARK VINA RESULT:     -11.7      4.807     10.110
REMARK SMILES O=C(NCCCCNC(=O)[C@@H]1C=C[C@@H]([NH+]2CC3(CCOCC3)C2)C1)c1ccc(-c2c3nc(c(-c4c(F)cccc4F)c4ccc([nH]4)c(-c4c(F)cccc4F)c4nc(c(-c5c(F)cccc5F)c5ccc2[nH]5)C=C4)C=C3)cc1
REMARK SMILES IDX 5 1 4 2 3 3 1 4 2 5 25 7 26 8 78 9 27 10 77 11 28 12 29 13
REMARK SMILES IDX 30 14 71 15 31 16 76 17 70 18 72 19 32 20 75 21 69 22 68 23
REMARK SMILES IDX 33 25 59 26 42 27 58 28 43 29 46 30 57 31 73 32 44 33 45 34
REMARK SMILES IDX 56 36 74 37 47 38 34 39 35 40 40 41 36 42 37 43 39 44 41 45
REMARK SMILES IDX 38 46 60 47 61 48 66 49 62 50 63 51 65 52 67 53 64 54 48 55
REMARK SMILES IDX 49 56 54 57 50 58 51 59 53 60 55 61 52 62 6 63 7 64 8 65
REMARK SMILES IDX 9 66 10 68 11 69 12 70 24 71 13 72 14 73 15 74 16 75 23 76
REMARK SMILES IDX 17 78 18 79 22 80 19 81 21 82 20 83
REMARK H PARENT 3 6 72 24 46 35 8 67 15 77
REMARK Flexibility Score: inf
ROOT
ATOM      1  C   UNL A   1      31.270  32.053  26.482  1.00  0.00     0.023 C 
ENDROOT
BRANCH   1   2
ATOM      2  C   UNL A   1      32.533  32.515  27.196  1.00  0.00     0.116 C 
BRANCH   2   3
ATOM      3  N   UNL A   1      32.454  33.889  27.670  1.00  0.00    -0.352 N 
ATOM      4  O   UNL A   1      32.926  35.658  28.988  1.00  0.00    -0.269 OA
ATOM      5  C   UNL A   1      33.229  34.536  28.608  1.00  0.00     0.251 C 
ATOM      6  H   UNL A   1      31.743  34.435  27.262  1.00  0.00     0.163 HD
BRANCH   5   7
ATOM      7  C   UNL A   1      34.418  33.859  29.175  1.00  0.00     0.039 A 
ATOM      8  C   UNL A   1      34.275  32.779  30.048  1.00  0.00     0.014 A 
ATOM      9  C   UNL A   1      35.692  34.303  28.813  1.00  0.00     0.014 A 
ATOM     10  C   UNL A   1      35.394  32.241  30.673  1.00  0.00     0.010 A 
ATOM     11  C   UNL A   1      36.824  33.697  29.369  1.00  0.00     0.010 A 
ATOM     12  C   UNL A   1      36.683  32.674  30.320  1.00  0.00    -0.014 A 
BRANCH  12  13
ATOM     13  C   UNL A   1      37.865  31.970  30.877  1.00  0.00     0.031 A 
ATOM     14  C   UNL A   1      38.570  30.889  30.110  1.00  0.00     0.074 A 
ATOM     15  C   UNL A   1      38.293  32.320  32.106  1.00  0.00     0.049 A 
ATOM     16  N   UNL A   1      39.593  30.157  30.474  1.00  0.00    -0.248 NA
ATOM     17  C   UNL A   1      38.062  30.581  28.763  1.00  0.00     0.031 C 
ATOM     18  C   UNL A   1      37.676  33.347  32.951  1.00  0.00     0.029 A 
ATOM     19  N   UNL A   1      39.338  31.855  32.862  1.00  0.00    -0.354 N 
ATOM     20  C   UNL A   1      39.838  29.289  29.417  1.00  0.00     0.074 A 
ATOM     21  C   UNL A   1      38.847  29.574  28.400  1.00  0.00     0.031 C 
ATOM     22  C   UNL A   1      38.366  33.450  34.095  1.00  0.00     0.029 A 
ATOM     23  C   UNL A   1      39.427  32.451  34.097  1.00  0.00     0.049 A 
ATOM     24  H   UNL A   1      39.965  31.163  32.550  1.00  0.00     0.167 HD
ATOM     25  C   UNL A   1      40.803  28.345  29.312  1.00  0.00     0.037 A 
ATOM     26  C   UNL A   1      40.243  32.196  35.136  1.00  0.00     0.037 A 
ATOM     27  C   UNL A   1      41.796  28.082  30.324  1.00  0.00     0.049 A 
ATOM     28  C   UNL A   1      41.274  31.114  35.002  1.00  0.00     0.074 A 
ATOM     29  C   UNL A   1      42.858  27.196  30.277  1.00  0.00     0.029 A 
ATOM     30  N   UNL A   1      41.837  28.690  31.570  1.00  0.00    -0.354 N 
ATOM     31  N   UNL A   1      41.538  30.351  33.970  1.00  0.00    -0.248 NA
ATOM     32  C   UNL A   1      42.113  30.850  36.177  1.00  0.00     0.031 C 
ATOM     33  C   UNL A   1      43.503  27.219  31.518  1.00  0.00     0.029 A 
ATOM     34  C   UNL A   1      42.879  28.163  32.317  1.00  0.00     0.049 A 
ATOM     35  H   UNL A   1      41.219  29.391  31.878  1.00  0.00     0.167 HD
ATOM     36  C   UNL A   1      42.582  29.527  34.365  1.00  0.00     0.074 A 
ATOM     37  C   UNL A   1      42.919  29.901  35.724  1.00  0.00     0.031 C 
ATOM     38  C   UNL A   1      43.202  28.545  33.669  1.00  0.00     0.037 A 
BRANCH  25  39
ATOM     39  C   UNL A   1      40.833  27.497  28.072  1.00  0.00     0.057 A 
ATOM     40  C   UNL A   1      41.569  27.860  26.937  1.00  0.00     0.134 A 
ATOM     41  C   UNL A   1      40.184  26.255  28.048  1.00  0.00     0.134 A 
ATOM     42  F   UNL A   1      42.210  29.038  26.891  1.00  0.00    -0.206 F 
ATOM     43  C   UNL A   1      41.647  27.026  25.820  1.00  0.00     0.040 A 
ATOM     44  C   UNL A   1      40.275  25.402  26.948  1.00  0.00     0.040 A 
ATOM     45  F   UNL A   1      39.470  25.839  29.106  1.00  0.00    -0.206 F 
ATOM     46  C   UNL A   1      41.007  25.788  25.828  1.00  0.00     0.006 A 
ENDBRANCH  25  39
BRANCH  26  47
ATOM     47  C   UNL A   1      40.086  32.952  36.404  1.00  0.00     0.057 A 
ATOM     48  C   UNL A   1      40.884  34.064  36.692  1.00  0.00     0.134 A 
ATOM     49  C   UNL A   1      39.139  32.571  37.364  1.00  0.00     0.134 A 
ATOM     50  F   UNL A   1      41.820  34.468  35.821  1.00  0.00    -0.206 F 
ATOM     51  C   UNL A   1      40.761  34.757  37.898  1.00  0.00     0.040 A 
ATOM     52  C   UNL A   1      38.984  33.274  38.558  1.00  0.00     0.040 A 
ATOM     53  F   UNL A   1      38.336  31.519  37.144  1.00  0.00    -0.206 F 
ATOM     54  C   UNL A   1      39.805  34.365  38.833  1.00  0.00     0.006 A 
ENDBRANCH  26  47
BRANCH  38  55
ATOM     55  C   UNL A   1      44.321  27.819  34.356  1.00  0.00     0.057 A 
ATOM     56  C   UNL A   1      45.634  28.306  34.340  1.00  0.00     0.134 A 
ATOM     57  C   UNL A   1      44.074  26.644  35.078  1.00  0.00     0.134 A 
ATOM     58  F   UNL A   1      45.939  29.417  33.652  1.00  0.00    -0.206 F 
ATOM     59  C   UNL A   1      46.665  27.642  35.003  1.00  0.00     0.040 A 
ATOM     60  C   UNL A   1      45.091  25.987  35.770  1.00  0.00     0.040 A 
ATOM     61  F   UNL A   1      42.837  26.129  35.139  1.00  0.00    -0.206 F 
ATOM     62  C   UNL A   1      46.393  26.483  35.730  1.00  0.00     0.006 A 
ENDBRANCH  38  55
ENDBRANCH  12  13
ENDBRANCH   5   7
ENDBRANCH   2   3
ENDBRANCH   1   2
BRANCH   1  63
ATOM     63  C   UNL A   1      31.388  30.722  25.753  1.00  0.00     0.023 C 
BRANCH  63  64
ATOM     64  C   UNL A   1      32.723  30.006  25.909  1.00  0.00     0.116 C 
BRANCH  64  65
ATOM     65  N   UNL A   1      33.432  29.731  24.663  1.00  0.00    -0.356 N 
ATOM     66  C   UNL A   1      33.479  28.550  23.942  1.00  0.00     0.227 C 
ATOM     67  H   UNL A   1      33.942  30.483  24.286  1.00  0.00     0.163 HD
ATOM     68  O   UNL A   1      34.044  28.539  22.851  1.00  0.00    -0.274 OA
BRANCH  66  69
ATOM     69  C   UNL A   1      32.856  27.303  24.580  1.00  0.00     0.107 C 
ATOM     70  C   UNL A   1      33.643  26.396  25.469  1.00  0.00    -0.012 C 
ATOM     71  C   UNL A   1      32.383  26.343  23.497  1.00  0.00     0.087 C 
ATOM     72  C   UNL A   1      33.642  25.122  25.042  1.00  0.00     0.033 C 
ATOM     73  C   UNL A   1      33.025  24.974  23.683  1.00  0.00     0.208 C 
BRANCH  73  74
ATOM     74  N   UNL A   1      32.188  23.788  23.445  1.00  0.00    -0.328 N 
ATOM     75  C   UNL A   1      32.219  22.830  24.571  1.00  0.00     0.275 C 
ATOM     76  C   UNL A   1      32.738  22.781  22.529  1.00  0.00     0.275 C 
ATOM     77  H   UNL A   1      31.325  24.260  23.175  1.00  0.00     0.348 HD
ATOM     78  C   UNL A   1      33.046  21.814  23.726  1.00  0.00     0.073 C 
ATOM     79  C   UNL A   1      32.425  20.431  23.456  1.00  0.00     0.047 C 
ATOM     80  C   UNL A   1      34.516  21.632  24.159  1.00  0.00     0.047 C 
ATOM     81  C   UNL A   1      32.701  19.480  24.613  1.00  0.00     0.161 C 
ATOM     82  C   UNL A   1      34.669  20.575  25.241  1.00  0.00     0.161 C 
ATOM     83  O   UNL A   1      34.107  19.345  24.815  1.00  0.00    -0.381 OA
ENDBRANCH  73  74
ENDBRANCH  66  69
ENDBRANCH  64  65
ENDBRANCH  63  64
ENDBRANCH   1  63
TORSDOF 12
ENDMDL
MODEL 3
REMARK VINA RESULT:     -11.7      0.864      1.865
REMARK SMILES O=C(NCCCCNC(=O)[C@@H]1C=C[C@@H]([NH+]2CC3(CCOCC3)C2)C1)c1ccc(-c2c3nc(c(-c4c(F)cccc4F)c4ccc([nH]4)c(-c4c(F)cccc4F)c4nc(c(-c5c(F)cccc5F)c5ccc2[nH]5)C=C4)C=C3)cc1
REMARK SMILES IDX 5 1 4 2 3 3 1 4 2 5 25 7 26 8 78 9 27 10 77 11 28 12 29 13
REMARK SMILES IDX 30 14 71 15 31 16 76 17 70 18 72 19 32 20 75 21 69 22 68 23
REMARK SMILES IDX 33 25 59 26 42 27 58 28 43 29 46 30 57 31 73 32 44 33 45 34
REMARK SMILES IDX 56 36 74 37 47 38 34 39 35 40 40 41 36 42 37 43 39 44 41 45
REMARK SMILES IDX 38 46 60 47 61 48 66 49 62 50 63 51 65 52 67 53 64 54 48 55
REMARK SMILES IDX 49 56 54 57 50 58 51 59 53 60 55 61 52 62 6 63 7 64 8 65
REMARK SMILES IDX 9 66 10 68 11 69 12 70 24 71 13 72 14 73 15 74 16 75 23 76
REMARK SMILES IDX 17 78 18 79 22 80 19 81 21 82 20 83
REMARK H PARENT 3 6 72 24 46 35 8 67 15 77
REMARK Flexibility Score: inf
ROOT
ATOM      1  C   UNL A   1      37.730  19.598  24.991  1.00  0.00     0.023 C 
ENDROOT
BRANCH   1   2
ATOM      2  C   UNL A   1      38.872  20.080  25.877  1.00  0.00     0.116 C 
BRANCH   2   3
ATOM      3  N   UNL A   1      40.033  19.203  25.842  1.00  0.00    -0.352 N 
ATOM      4  O   UNL A   1      42.223  18.661  25.852  1.00  0.00    -0.269 OA
ATOM      5  C   UNL A   1      41.360  19.501  26.064  1.00  0.00     0.251 C 
ATOM      6  H   UNL A   1      39.844  18.261  25.629  1.00  0.00     0.163 HD
BRANCH   5   7
ATOM      7  C   UNL A   1      41.742  20.851  26.538  1.00  0.00     0.039 A 
ATOM      8  C   UNL A   1      41.985  21.884  25.631  1.00  0.00     0.014 A 
ATOM      9  C   UNL A   1      41.843  21.088  27.912  1.00  0.00     0.014 A 
ATOM     10  C   UNL A   1      42.470  23.105  26.085  1.00  0.00     0.010 A 
ATOM     11  C   UNL A   1      42.239  22.348  28.373  1.00  0.00     0.010 A 
ATOM     12  C   UNL A   1      42.576  23.361  27.461  1.00  0.00    -0.014 A 
BRANCH  12  13
ATOM     13  C   UNL A   1      42.936  24.725  27.923  1.00  0.00     0.031 A 
ATOM     14  C   UNL A   1      41.887  25.749  28.245  1.00  0.00     0.074 A 
ATOM     15  C   UNL A   1      44.243  25.033  28.038  1.00  0.00     0.049 A 
ATOM     16  N   UNL A   1      42.042  26.992  28.624  1.00  0.00    -0.248 NA
ATOM     17  C   UNL A   1      40.481  25.331  28.120  1.00  0.00     0.031 C 
ATOM     18  C   UNL A   1      45.352  24.122  27.738  1.00  0.00     0.029 A 
ATOM     19  N   UNL A   1      44.865  26.189  28.434  1.00  0.00    -0.354 N 
ATOM     20  C   UNL A   1      40.760  27.513  28.763  1.00  0.00     0.074 A 
ATOM     21  C   UNL A   1      39.837  26.454  28.412  1.00  0.00     0.031 C 
ATOM     22  C   UNL A   1      46.513  24.745  27.982  1.00  0.00     0.029 A 
ATOM     23  C   UNL A   1      46.236  26.117  28.385  1.00  0.00     0.049 A 
ATOM     24  H   UNL A   1      44.376  26.992  28.727  1.00  0.00     0.167 HD
ATOM     25  C   UNL A   1      40.397  28.760  29.148  1.00  0.00     0.037 A 
ATOM     26  C   UNL A   1      47.170  27.061  28.599  1.00  0.00     0.037 A 
ATOM     27  C   UNL A   1      41.327  29.800  29.512  1.00  0.00     0.049 A 
ATOM     28  C   UNL A   1      46.733  28.444  28.983  1.00  0.00     0.074 A 
ATOM     29  C   UNL A   1      41.052  31.072  29.985  1.00  0.00     0.029 A 
ATOM     30  N   UNL A   1      42.706  29.696  29.426  1.00  0.00    -0.354 N 
ATOM     31  N   UNL A   1      45.520  28.900  29.178  1.00  0.00    -0.248 NA
ATOM     32  C   UNL A   1      47.790  29.446  29.167  1.00  0.00     0.031 C 
ATOM     33  C   UNL A   1      42.262  31.759  30.122  1.00  0.00     0.029 A 
ATOM     34  C   UNL A   1      43.294  30.896  29.792  1.00  0.00     0.049 A 
ATOM     35  H   UNL A   1      43.196  28.890  29.146  1.00  0.00     0.167 HD
ATOM     36  C   UNL A   1      45.668  30.236  29.522  1.00  0.00     0.074 A 
ATOM     37  C   UNL A   1      47.090  30.510  29.533  1.00  0.00     0.031 C 
ATOM     38  C   UNL A   1      44.712  31.155  29.798  1.00  0.00     0.037 A 
BRANCH  25  39
ATOM     39  C   UNL A   1      38.933  29.093  29.179  1.00  0.00     0.057 A 
ATOM     40  C   UNL A   1      38.173  29.011  30.351  1.00  0.00     0.134 A 
ATOM     41  C   UNL A   1      38.296  29.587  28.032  1.00  0.00     0.134 A 
ATOM     42  F   UNL A   1      38.719  28.542  31.484  1.00  0.00    -0.206 F 
ATOM     43  C   UNL A   1      36.831  29.396  30.380  1.00  0.00     0.040 A 
ATOM     44  C   UNL A   1      36.962  29.998  28.054  1.00  0.00     0.040 A 
ATOM     45  F   UNL A   1      38.967  29.703  26.876  1.00  0.00    -0.206 F 
ATOM     46  C   UNL A   1      36.225  29.901  29.232  1.00  0.00     0.006 A 
ENDBRANCH  25  39
BRANCH  26  47
ATOM     47  C   UNL A   1      48.607  26.737  28.412  1.00  0.00     0.057 A 
ATOM     48  C   UNL A   1      49.230  26.883  27.168  1.00  0.00     0.134 A 
ATOM     49  C   UNL A   1      49.389  26.262  29.473  1.00  0.00     0.134 A 
ATOM     50  F   UNL A   1      48.531  27.318  26.109  1.00  0.00    -0.206 F 
ATOM     51  C   UNL A   1      50.572  26.548  26.980  1.00  0.00     0.040 A 
ATOM     52  C   UNL A   1      50.739  25.954  29.307  1.00  0.00     0.040 A 
ATOM     53  F   UNL A   1      48.855  26.108  30.693  1.00  0.00    -0.206 F 
ATOM     54  C   UNL A   1      51.332  26.087  28.053  1.00  0.00     0.006 A 
ENDBRANCH  26  47
BRANCH  38  55
ATOM     55  C   UNL A   1      45.173  32.537  30.154  1.00  0.00     0.057 A 
ATOM     56  C   UNL A   1      45.500  32.888  31.471  1.00  0.00     0.134 A 
ATOM     57  C   UNL A   1      45.335  33.515  29.164  1.00  0.00     0.134 A 
ATOM     58  F   UNL A   1      45.350  32.002  32.467  1.00  0.00    -0.206 F 
ATOM     59  C   UNL A   1      45.954  34.167  31.791  1.00  0.00     0.040 A 
ATOM     60  C   UNL A   1      45.816  34.788  29.468  1.00  0.00     0.040 A 
ATOM     61  F   UNL A   1      45.046  33.241  27.882  1.00  0.00    -0.206 F 
ATOM     62  C   UNL A   1      46.122  35.119  30.786  1.00  0.00     0.006 A 
ENDBRANCH  38  55
ENDBRANCH  12  13
ENDBRANCH   5   7
ENDBRANCH   2   3
ENDBRANCH   1   2
BRANCH   1  63
ATOM     63  C   UNL A   1      36.727  20.670  24.588  1.00  0.00     0.023 C 
BRANCH  63  64
ATOM     64  C   UNL A   1      35.660  20.993  25.626  1.00  0.00     0.116 C 
BRANCH  64  65
ATOM     65  N   UNL A   1      34.401  20.270  25.472  1.00  0.00    -0.356 N 
ATOM     66  C   UNL A   1      33.124  20.785  25.341  1.00  0.00     0.227 C 
ATOM     67  H   UNL A   1      34.470  19.288  25.460  1.00  0.00     0.163 HD
ATOM     68  O   UNL A   1      32.192  20.018  25.110  1.00  0.00    -0.274 OA
BRANCH  66  69
ATOM     69  C   UNL A   1      32.943  22.295  25.539  1.00  0.00     0.107 C 
ATOM     70  C   UNL A   1      32.636  22.882  26.878  1.00  0.00    -0.012 C 
ATOM     71  C   UNL A   1      31.771  22.794  24.704  1.00  0.00     0.087 C 
ATOM     72  C   UNL A   1      31.513  23.620  26.876  1.00  0.00     0.033 C 
ATOM     73  C   UNL A   1      30.751  23.500  25.590  1.00  0.00     0.208 C 
BRANCH  73  74
ATOM     74  N   UNL A   1      30.115  24.717  25.063  1.00  0.00    -0.328 N 
ATOM     75  C   UNL A   1      30.816  25.262  23.880  1.00  0.00     0.275 C 
ATOM     76  C   UNL A   1      30.359  25.953  25.818  1.00  0.00     0.275 C 
ATOM     77  H   UNL A   1      29.157  24.375  25.000  1.00  0.00     0.348 HD
ATOM     78  C   UNL A   1      31.335  26.478  24.707  1.00  0.00     0.073 C 
ATOM     79  C   UNL A   1      30.908  27.887  24.257  1.00  0.00     0.047 C 
ATOM     80  C   UNL A   1      32.849  26.479  25.005  1.00  0.00     0.047 C 
ATOM     81  C   UNL A   1      31.835  28.410  23.168  1.00  0.00     0.161 C 
ATOM     82  C   UNL A   1      33.652  27.129  23.891  1.00  0.00     0.161 C 
ATOM     83  O   UNL A   1      33.181  28.443  23.641  1.00  0.00    -0.381 OA
ENDBRANCH  73  74
ENDBRANCH  66  69
ENDBRANCH  64  65
ENDBRANCH  63  64
ENDBRANCH   1  63
TORSDOF 12
ENDMDL
