MODEL 1
REMARK VINA RESULT:     -12.2      0.000      0.000
REMARK SMILES COc1ccc(-c2ccc3n(c2=O)C[C@H]2C[C@@H]3CN(C(=O)CCCC(=O)NCCCCNC(=O)c3ccc(-c4c5nc(c(-c6c(F)cccc6F)c6ccc([nH]6)c(-c6c(F)cccc6F)c6nc(c(-c7c(F)cccc7F)c7ccc4[nH]7)C=C6)C=C5)cc3)C2)cc1
REMARK SMILES IDX 25 1 26 2 27 3 24 5 23 6 22 7 20 8 21 9 19 10 7 11 8 12
REMARK SMILES IDX 12 13 9 14 11 15 13 16 10 17 14 18 17 19 15 20 16 21 18 22
REMARK SMILES IDX 89 23 6 24 3 25 4 26 91 27 5 28 90 29 2 30 1 31 28 32 29 33
REMARK SMILES IDX 30 34 31 35 32 36 33 37 34 39 35 40 36 41 88 42 37 43 87 44
REMARK SMILES IDX 38 45 39 46 40 47 81 48 41 49 86 50 80 51 82 52 42 53 85 54
REMARK SMILES IDX 79 55 78 56 43 58 69 59 52 60 68 61 53 62 56 63 67 64 83 65
REMARK SMILES IDX 54 66 55 67 66 69 84 70 57 71 44 72 45 73 50 74 46 75 47 76
REMARK SMILES IDX 49 77 51 78 48 79 70 80 71 81 76 82 72 83 73 84 75 85 77 86
REMARK SMILES IDX 74 87 58 88 59 89 64 90 60 91 61 92 63 93 65 94 62 95
REMARK H PARENT 27 4 32 38 82 57 56 68
REMARK Flexibility Score: inf
ROOT
ATOM      1  C   UNL A   1      33.778  28.587  23.663  1.00  0.00     0.220 C 
ATOM      2  O   UNL A   1      34.069  29.380  22.759  1.00  0.00    -0.275 OA
ATOM      3  N   UNL A   1      33.989  29.040  24.922  1.00  0.00    -0.356 N 
ATOM      4  H   UNL A   1      34.510  29.876  24.953  1.00  0.00     0.163 HD
ENDROOT
BRANCH   1   5
ATOM      5  C   UNL A   1      33.151  27.241  23.302  1.00  0.00     0.100 C 
BRANCH   5   6
ATOM      6  C   UNL A   1      33.945  25.951  23.469  1.00  0.00     0.020 C 
BRANCH   6   7
ATOM      7  C   UNL A   1      34.337  25.427  24.849  1.00  0.00     0.101 C 
BRANCH   7   8
ATOM      8  C   UNL A   1      35.033  24.074  25.018  1.00  0.00     0.222 C 
ATOM      9  O   UNL A   1      36.254  24.038  24.824  1.00  0.00    -0.275 OA
BRANCH   8  10
ATOM     10  N   UNL A   1      34.365  22.966  25.530  1.00  0.00    -0.342 N 
ATOM     11  C   UNL A   1      30.194  25.382  24.139  1.00  0.00     0.047 A 
ATOM     12  C   UNL A   1      30.516  24.567  23.122  1.00  0.00     0.016 A 
ATOM     13  C   UNL A   1      30.598  24.995  25.535  1.00  0.00     0.258 A 
ATOM     14  C   UNL A   1      31.215  23.332  23.347  1.00  0.00     0.023 A 
ATOM     15  N   UNL A   1      31.277  23.775  25.674  1.00  0.00    -0.311 N 
ATOM     16  O   UNL A   1      30.322  25.715  26.493  1.00  0.00    -0.269 OA
ATOM     17  C   UNL A   1      31.572  22.954  24.584  1.00  0.00     0.026 A 
ATOM     18  C   UNL A   1      31.596  23.372  27.041  1.00  0.00     0.131 C 
ATOM     19  C   UNL A   1      32.368  21.678  24.797  1.00  0.00     0.056 C 
ATOM     20  C   UNL A   1      32.595  22.218  27.178  1.00  0.00     0.029 C 
ATOM     21  C   UNL A   1      32.182  21.121  26.209  1.00  0.00     0.019 C 
ATOM     22  C   UNL A   1      33.862  21.972  24.575  1.00  0.00     0.129 C 
ATOM     23  C   UNL A   1      34.055  22.650  26.920  1.00  0.00     0.125 C 
BRANCH  11  24
ATOM     24  C   UNL A   1      29.414  26.604  23.887  1.00  0.00    -0.013 A 
ATOM     25  C   UNL A   1      27.953  28.904  23.241  1.00  0.00     0.118 A 
ATOM     26  C   UNL A   1      27.287  27.740  23.622  1.00  0.00     0.047 A 
ATOM     27  C   UNL A   1      29.346  28.944  23.239  1.00  0.00     0.047 A 
ATOM     28  C   UNL A   1      28.015  26.588  23.933  1.00  0.00     0.013 A 
ATOM     29  C   UNL A   1      30.073  27.795  23.556  1.00  0.00     0.013 A 
BRANCH  25  30
ATOM     30  O   UNL A   1      27.174  29.980  22.915  1.00  0.00    -0.497 OA
ATOM     31  C   UNL A   1      27.721  31.216  23.375  1.00  0.00     0.278 C 
ENDBRANCH  25  30
ENDBRANCH  11  24
ENDBRANCH   8  10
ENDBRANCH   7   8
ENDBRANCH   6   7
ENDBRANCH   5   6
ENDBRANCH   1   5
BRANCH   3  32
ATOM     32  C   UNL A   1      33.610  28.555  26.224  1.00  0.00     0.116 C 
BRANCH  32  33
ATOM     33  C   UNL A   1      32.297  29.142  26.737  1.00  0.00     0.023 C 
BRANCH  33  34
ATOM     34  C   UNL A   1      32.160  30.632  26.441  1.00  0.00     0.023 C 
BRANCH  34  35
ATOM     35  C   UNL A   1      33.056  31.533  27.289  1.00  0.00     0.116 C 
BRANCH  35  36
ATOM     36  N   UNL A   1      32.514  32.865  27.521  1.00  0.00    -0.352 N 
ATOM     37  C   UNL A   1      33.085  33.898  28.235  1.00  0.00     0.251 C 
ATOM     38  H   UNL A   1      31.635  33.051  27.120  1.00  0.00     0.163 HD
ATOM     39  O   UNL A   1      32.501  34.963  28.394  1.00  0.00    -0.269 OA
BRANCH  37  40
ATOM     40  C   UNL A   1      34.404  33.668  28.856  1.00  0.00     0.039 A 
ATOM     41  C   UNL A   1      34.460  33.055  30.109  1.00  0.00     0.014 A 
ATOM     42  C   UNL A   1      35.570  33.914  28.126  1.00  0.00     0.014 A 
ATOM     43  C   UNL A   1      35.684  32.582  30.584  1.00  0.00     0.010 A 
ATOM     44  C   UNL A   1      36.773  33.375  28.566  1.00  0.00     0.010 A 
ATOM     45  C   UNL A   1      36.837  32.681  29.787  1.00  0.00    -0.014 A 
BRANCH  45  46
ATOM     46  C   UNL A   1      38.111  32.027  30.182  1.00  0.00     0.031 A 
ATOM     47  C   UNL A   1      39.077  32.745  31.079  1.00  0.00     0.074 A 
ATOM     48  C   UNL A   1      38.443  30.832  29.653  1.00  0.00     0.049 A 
ATOM     49  N   UNL A   1      40.286  32.400  31.437  1.00  0.00    -0.248 NA
ATOM     50  C   UNL A   1      38.635  34.040  31.620  1.00  0.00     0.031 C 
ATOM     51  C   UNL A   1      37.618  30.054  28.725  1.00  0.00     0.029 A 
ATOM     52  N   UNL A   1      39.573  30.068  29.806  1.00  0.00    -0.354 N 
ATOM     53  C   UNL A   1      40.758  33.442  32.223  1.00  0.00     0.074 A 
ATOM     54  C   UNL A   1      39.724  34.453  32.252  1.00  0.00     0.031 C 
ATOM     55  C   UNL A   1      38.260  28.918  28.409  1.00  0.00     0.029 A 
ATOM     56  C   UNL A   1      39.558  28.904  29.077  1.00  0.00     0.049 A 
ATOM     57  H   UNL A   1      40.326  30.331  30.385  1.00  0.00     0.167 HD
ATOM     58  C   UNL A   1      41.937  33.538  32.882  1.00  0.00     0.037 A 
ATOM     59  C   UNL A   1      40.488  27.939  28.950  1.00  0.00     0.037 A 
ATOM     60  C   UNL A   1      42.948  32.514  32.885  1.00  0.00     0.049 A 
ATOM     61  C   UNL A   1      41.790  28.069  29.691  1.00  0.00     0.074 A 
ATOM     62  C   UNL A   1      44.140  32.484  33.588  1.00  0.00     0.029 A 
ATOM     63  N   UNL A   1      42.885  31.341  32.150  1.00  0.00    -0.354 N 
ATOM     64  N   UNL A   1      42.193  29.028  30.488  1.00  0.00    -0.248 NA
ATOM     65  C   UNL A   1      42.768  26.985  29.512  1.00  0.00     0.031 C 
ATOM     66  C   UNL A   1      44.816  31.308  33.249  1.00  0.00     0.029 A 
ATOM     67  C   UNL A   1      44.029  30.589  32.364  1.00  0.00     0.049 A 
ATOM     68  H   UNL A   1      42.139  31.080  31.563  1.00  0.00     0.167 HD
ATOM     69  C   UNL A   1      43.459  28.656  30.921  1.00  0.00     0.074 A 
ATOM     70  C   UNL A   1      43.753  27.376  30.308  1.00  0.00     0.031 C 
ATOM     71  C   UNL A   1      44.303  29.316  31.750  1.00  0.00     0.037 A 
BRANCH  58  72
ATOM     72  C   UNL A   1      42.189  34.791  33.662  1.00  0.00     0.057 A 
ATOM     73  C   UNL A   1      42.810  35.906  33.086  1.00  0.00     0.134 A 
ATOM     74  C   UNL A   1      41.782  34.896  34.998  1.00  0.00     0.134 A 
ATOM     75  F   UNL A   1      43.237  35.865  31.814  1.00  0.00    -0.206 F 
ATOM     76  C   UNL A   1      43.042  37.072  33.817  1.00  0.00     0.040 A 
ATOM     77  C   UNL A   1      41.984  36.065  35.732  1.00  0.00     0.040 A 
ATOM     78  F   UNL A   1      41.179  33.866  35.609  1.00  0.00    -0.206 F 
ATOM     79  C   UNL A   1      42.622  37.156  35.143  1.00  0.00     0.006 A 
ENDBRANCH  58  72
BRANCH  59  80
ATOM     80  C   UNL A   1      40.222  26.753  28.096  1.00  0.00     0.057 A 
ATOM     81  C   UNL A   1      40.769  26.654  26.812  1.00  0.00     0.134 A 
ATOM     82  C   UNL A   1      39.410  25.701  28.535  1.00  0.00     0.134 A 
ATOM     83  F   UNL A   1      41.538  27.643  26.329  1.00  0.00    -0.206 F 
ATOM     84  C   UNL A   1      40.508  25.559  25.987  1.00  0.00     0.040 A 
ATOM     85  C   UNL A   1      39.157  24.589  27.729  1.00  0.00     0.040 A 
ATOM     86  F   UNL A   1      38.861  25.733  29.758  1.00  0.00    -0.206 F 
ATOM     87  C   UNL A   1      39.702  24.520  26.448  1.00  0.00     0.006 A 
ENDBRANCH  59  80
BRANCH  71  88
ATOM     88  C   UNL A   1      45.615  28.662  32.061  1.00  0.00     0.057 A 
ATOM     89  C   UNL A   1      45.747  27.745  33.111  1.00  0.00     0.134 A 
ATOM     90  C   UNL A   1      46.741  28.908  31.266  1.00  0.00     0.134 A 
ATOM     91  F   UNL A   1      44.708  27.478  33.916  1.00  0.00    -0.206 F 
ATOM     92  C   UNL A   1      46.960  27.103  33.366  1.00  0.00     0.040 A 
ATOM     93  C   UNL A   1      47.953  28.256  31.498  1.00  0.00     0.040 A 
ATOM     94  F   UNL A   1      46.676  29.771  30.240  1.00  0.00    -0.206 F 
ATOM     95  C   UNL A   1      48.064  27.352  32.553  1.00  0.00     0.006 A 
ENDBRANCH  71  88
ENDBRANCH  45  46
ENDBRANCH  37  40
ENDBRANCH  35  36
ENDBRANCH  34  35
ENDBRANCH  33  34
ENDBRANCH  32  33
ENDBRANCH   3  32
TORSDOF 17
ENDMDL
MODEL 2
REMARK VINA RESULT:     -12.2      1.937      5.959
REMARK SMILES COc1ccc(-c2ccc3n(c2=O)C[C@H]2C[C@@H]3CN(C(=O)CCCC(=O)NCCCCNC(=O)c3ccc(-c4c5nc(c(-c6c(F)cccc6F)c6ccc([nH]6)c(-c6c(F)cccc6F)c6nc(c(-c7c(F)cccc7F)c7ccc4[nH]7)C=C6)C=C5)cc3)C2)cc1
REMARK SMILES IDX 25 1 26 2 27 3 24 5 23 6 22 7 20 8 21 9 19 10 7 11 8 12
REMARK SMILES IDX 12 13 9 14 11 15 13 16 10 17 14 18 17 19 15 20 16 21 18 22
REMARK SMILES IDX 89 23 6 24 3 25 4 26 91 27 5 28 90 29 2 30 1 31 28 32 29 33
REMARK SMILES IDX 30 34 31 35 32 36 33 37 34 39 35 40 36 41 88 42 37 43 87 44
REMARK SMILES IDX 38 45 39 46 40 47 81 48 41 49 86 50 80 51 82 52 42 53 85 54
REMARK SMILES IDX 79 55 78 56 43 58 69 59 52 60 68 61 53 62 56 63 67 64 83 65
REMARK SMILES IDX 54 66 55 67 66 69 84 70 57 71 44 72 45 73 50 74 46 75 47 76
REMARK SMILES IDX 49 77 51 78 48 79 70 80 71 81 76 82 72 83 73 84 75 85 77 86
REMARK SMILES IDX 74 87 58 88 59 89 64 90 60 91 61 92 63 93 65 94 62 95
REMARK H PARENT 27 4 32 38 82 57 56 68
REMARK Flexibility Score: inf
ROOT
ATOM      1  C   UNL A   1      33.691  28.605  24.666  1.00  0.00     0.220 C 
ATOM      2  O   UNL A   1      34.048  28.542  23.482  1.00  0.00    -0.275 OA
ATOM      3  N   UNL A   1      33.275  29.826  25.082  1.00  0.00    -0.356 N 
ATOM      4  H   UNL A   1      33.474  30.546  24.439  1.00  0.00     0.163 HD
ENDROOT
BRANCH   1   5
ATOM      5  C   UNL A   1      33.672  27.331  25.508  1.00  0.00     0.100 C 
BRANCH   5   6
ATOM      6  C   UNL A   1      34.082  25.996  24.897  1.00  0.00     0.020 C 
BRANCH   6   7
ATOM      7  C   UNL A   1      35.132  25.104  25.556  1.00  0.00     0.101 C 
BRANCH   7   8
ATOM      8  C   UNL A   1      35.445  23.709  25.011  1.00  0.00     0.222 C 
ATOM      9  O   UNL A   1      36.441  23.595  24.286  1.00  0.00    -0.275 OA
BRANCH   8  10
ATOM     10  N   UNL A   1      34.750  22.583  25.440  1.00  0.00    -0.342 N 
ATOM     11  C   UNL A   1      30.657  25.088  23.979  1.00  0.00     0.047 A 
ATOM     12  C   UNL A   1      31.021  24.319  22.940  1.00  0.00     0.016 A 
ATOM     13  C   UNL A   1      30.996  24.633  25.372  1.00  0.00     0.258 A 
ATOM     14  C   UNL A   1      31.703  23.071  23.138  1.00  0.00     0.023 A 
ATOM     15  N   UNL A   1      31.663  23.404  25.484  1.00  0.00    -0.311 N 
ATOM     16  O   UNL A   1      30.680  25.311  26.350  1.00  0.00    -0.269 OA
ATOM     17  C   UNL A   1      32.003  22.633  24.371  1.00  0.00     0.026 A 
ATOM     18  C   UNL A   1      31.918  22.935  26.844  1.00  0.00     0.131 C 
ATOM     19  C   UNL A   1      32.782  21.343  24.559  1.00  0.00     0.056 C 
ATOM     20  C   UNL A   1      32.905  21.770  26.971  1.00  0.00     0.029 C 
ATOM     21  C   UNL A   1      32.530  20.722  25.934  1.00  0.00     0.019 C 
ATOM     22  C   UNL A   1      34.286  21.638  24.418  1.00  0.00     0.129 C 
ATOM     23  C   UNL A   1      34.376  22.204  26.799  1.00  0.00     0.125 C 
BRANCH  11  24
ATOM     24  C   UNL A   1      29.894  26.325  23.750  1.00  0.00    -0.013 A 
ATOM     25  C   UNL A   1      28.457  28.652  23.147  1.00  0.00     0.118 A 
ATOM     26  C   UNL A   1      27.785  27.512  23.585  1.00  0.00     0.047 A 
ATOM     27  C   UNL A   1      29.848  28.656  23.066  1.00  0.00     0.047 A 
ATOM     28  C   UNL A   1      28.500  26.346  23.875  1.00  0.00     0.013 A 
ATOM     29  C   UNL A   1      30.563  27.494  23.361  1.00  0.00     0.013 A 
BRANCH  25  30
ATOM     30  O   UNL A   1      27.688  29.743  22.846  1.00  0.00    -0.497 OA
ATOM     31  C   UNL A   1      28.027  30.326  21.588  1.00  0.00     0.278 C 
ENDBRANCH  25  30
ENDBRANCH  11  24
ENDBRANCH   8  10
ENDBRANCH   7   8
ENDBRANCH   6   7
ENDBRANCH   5   6
ENDBRANCH   1   5
BRANCH   3  32
ATOM     32  C   UNL A   1      32.603  30.289  26.268  1.00  0.00     0.116 C 
BRANCH  32  33
ATOM     33  C   UNL A   1      31.214  30.865  25.998  1.00  0.00     0.023 C 
BRANCH  33  34
ATOM     34  C   UNL A   1      31.039  32.274  26.552  1.00  0.00     0.023 C 
BRANCH  34  35
ATOM     35  C   UNL A   1      32.343  33.045  26.748  1.00  0.00     0.116 C 
BRANCH  35  36
ATOM     36  N   UNL A   1      32.227  34.202  27.627  1.00  0.00    -0.352 N 
ATOM     37  C   UNL A   1      33.076  34.578  28.647  1.00  0.00     0.251 C 
ATOM     38  H   UNL A   1      31.449  34.785  27.474  1.00  0.00     0.163 HD
ATOM     39  O   UNL A   1      32.840  35.557  29.345  1.00  0.00    -0.269 OA
BRANCH  37  40
ATOM     40  C   UNL A   1      34.258  33.736  28.915  1.00  0.00     0.039 A 
ATOM     41  C   UNL A   1      35.524  34.233  28.602  1.00  0.00     0.014 A 
ATOM     42  C   UNL A   1      34.112  32.537  29.619  1.00  0.00     0.014 A 
ATOM     43  C   UNL A   1      36.655  33.581  29.096  1.00  0.00     0.010 A 
ATOM     44  C   UNL A   1      35.236  31.935  30.172  1.00  0.00     0.010 A 
ATOM     45  C   UNL A   1      36.516  32.465  29.938  1.00  0.00    -0.014 A 
BRANCH  45  46
ATOM     46  C   UNL A   1      37.687  31.863  30.626  1.00  0.00     0.031 A 
ATOM     47  C   UNL A   1      38.488  30.792  29.944  1.00  0.00     0.074 A 
ATOM     48  C   UNL A   1      37.965  32.207  31.899  1.00  0.00     0.049 A 
ATOM     49  N   UNL A   1      39.462  30.059  30.420  1.00  0.00    -0.248 NA
ATOM     50  C   UNL A   1      38.123  30.481  28.553  1.00  0.00     0.031 C 
ATOM     51  C   UNL A   1      37.231  33.194  32.694  1.00  0.00     0.029 A 
ATOM     52  N   UNL A   1      38.935  31.751  32.758  1.00  0.00    -0.354 N 
ATOM     53  C   UNL A   1      39.810  29.188  29.397  1.00  0.00     0.074 A 
ATOM     54  C   UNL A   1      38.913  29.449  28.292  1.00  0.00     0.031 C 
ATOM     55  C   UNL A   1      37.787  33.282  33.913  1.00  0.00     0.029 A 
ATOM     56  C   UNL A   1      38.890  32.331  34.002  1.00  0.00     0.049 A 
ATOM     57  H   UNL A   1      39.601  31.070  32.505  1.00  0.00     0.167 HD
ATOM     58  C   UNL A   1      40.804  28.268  29.372  1.00  0.00     0.037 A 
ATOM     59  C   UNL A   1      39.644  32.114  35.096  1.00  0.00     0.037 A 
ATOM     60  C   UNL A   1      41.721  28.037  30.456  1.00  0.00     0.049 A 
ATOM     61  C   UNL A   1      40.741  31.087  35.043  1.00  0.00     0.074 A 
ATOM     62  C   UNL A   1      42.811  27.186  30.494  1.00  0.00     0.029 A 
ATOM     63  N   UNL A   1      41.654  28.660  31.692  1.00  0.00    -0.354 N 
ATOM     64  N   UNL A   1      41.104  30.319  34.045  1.00  0.00    -0.248 NA
ATOM     65  C   UNL A   1      41.530  30.892  36.269  1.00  0.00     0.031 C 
ATOM     66  C   UNL A   1      43.383  27.266  31.767  1.00  0.00     0.029 A 
ATOM     67  C   UNL A   1      42.671  28.195  32.509  1.00  0.00     0.049 A 
ATOM     68  H   UNL A   1      40.984  29.334  31.950  1.00  0.00     0.167 HD
ATOM     69  C   UNL A   1      42.173  29.567  34.512  1.00  0.00     0.074 A 
ATOM     70  C   UNL A   1      42.410  29.979  35.881  1.00  0.00     0.031 C 
ATOM     71  C   UNL A   1      42.894  28.618  33.867  1.00  0.00     0.037 A 
BRANCH  58  72
ATOM     72  C   UNL A   1      40.954  27.452  28.124  1.00  0.00     0.057 A 
ATOM     73  C   UNL A   1      40.261  26.249  27.943  1.00  0.00     0.134 A 
ATOM     74  C   UNL A   1      41.781  27.887  27.081  1.00  0.00     0.134 A 
ATOM     75  F   UNL A   1      39.464  25.771  28.911  1.00  0.00    -0.206 F 
ATOM     76  C   UNL A   1      40.403  25.493  26.778  1.00  0.00     0.040 A 
ATOM     77  C   UNL A   1      41.911  27.154  25.901  1.00  0.00     0.040 A 
ATOM     78  F   UNL A   1      42.470  29.032  27.190  1.00  0.00    -0.206 F 
ATOM     79  C   UNL A   1      41.226  25.949  25.750  1.00  0.00     0.006 A 
ENDBRANCH  58  72
BRANCH  59  80
ATOM     80  C   UNL A   1      39.401  32.892  36.337  1.00  0.00     0.057 A 
ATOM     81  C   UNL A   1      38.478  32.452  37.293  1.00  0.00     0.134 A 
ATOM     82  C   UNL A   1      40.072  34.094  36.593  1.00  0.00     0.134 A 
ATOM     83  F   UNL A   1      37.789  31.319  37.092  1.00  0.00    -0.206 F 
ATOM     84  C   UNL A   1      38.218  33.185  38.452  1.00  0.00     0.040 A 
ATOM     85  C   UNL A   1      39.838  34.827  37.758  1.00  0.00     0.040 A 
ATOM     86  F   UNL A   1      40.972  34.566  35.719  1.00  0.00    -0.206 F 
ATOM     87  C   UNL A   1      38.904  34.376  38.688  1.00  0.00     0.006 A 
ENDBRANCH  59  80
BRANCH  71  88
ATOM     88  C   UNL A   1      44.017  27.974  34.622  1.00  0.00     0.057 A 
ATOM     89  C   UNL A   1      43.836  26.778  35.328  1.00  0.00     0.134 A 
ATOM     90  C   UNL A   1      45.303  28.525  34.595  1.00  0.00     0.134 A 
ATOM     91  F   UNL A   1      42.623  26.209  35.401  1.00  0.00    -0.206 F 
ATOM     92  C   UNL A   1      44.896  26.158  35.990  1.00  0.00     0.040 A 
ATOM     93  C   UNL A   1      46.375  27.903  35.236  1.00  0.00     0.040 A 
ATOM     94  F   UNL A   1      45.543  29.666  33.931  1.00  0.00    -0.206 F 
ATOM     95  C   UNL A   1      46.172  26.717  35.938  1.00  0.00     0.006 A 
ENDBRANCH  71  88
ENDBRANCH  45  46
ENDBRANCH  37  40
ENDBRANCH  35  36
ENDBRANCH  34  35
ENDBRANCH  33  34
ENDBRANCH  32  33
ENDBRANCH   3  32
TORSDOF 17
ENDMDL
MODEL 3
REMARK VINA RESULT:     -12.1      2.021      2.690
REMARK SMILES COc1ccc(-c2ccc3n(c2=O)C[C@H]2C[C@@H]3CN(C(=O)CCCC(=O)NCCCCNC(=O)c3ccc(-c4c5nc(c(-c6c(F)cccc6F)c6ccc([nH]6)c(-c6c(F)cccc6F)c6nc(c(-c7c(F)cccc7F)c7ccc4[nH]7)C=C6)C=C5)cc3)C2)cc1
REMARK SMILES IDX 25 1 26 2 27 3 24 5 23 6 22 7 20 8 21 9 19 10 7 11 8 12
REMARK SMILES IDX 12 13 9 14 11 15 13 16 10 17 14 18 17 19 15 20 16 21 18 22
REMARK SMILES IDX 89 23 6 24 3 25 4 26 91 27 5 28 90 29 2 30 1 31 28 32 29 33
REMARK SMILES IDX 30 34 31 35 32 36 33 37 34 39 35 40 36 41 88 42 37 43 87 44
REMARK SMILES IDX 38 45 39 46 40 47 81 48 41 49 86 50 80 51 82 52 42 53 85 54
REMARK SMILES IDX 79 55 78 56 43 58 69 59 52 60 68 61 53 62 56 63 67 64 83 65
REMARK SMILES IDX 54 66 55 67 66 69 84 70 57 71 44 72 45 73 50 74 46 75 47 76
REMARK SMILES IDX 49 77 51 78 48 79 70 80 71 81 76 82 72 83 73 84 75 85 77 86
REMARK SMILES IDX 74 87 58 88 59 89 64 90 60 91 61 92 63 93 65 94 62 95
REMARK H PARENT 27 4 32 38 82 57 56 68
REMARK Flexibility Score: inf
ROOT
ATOM      1  C   UNL A   1      33.727  28.511  24.702  1.00  0.00     0.220 C 
ATOM      2  O   UNL A   1      34.149  28.493  23.539  1.00  0.00    -0.275 OA
ATOM      3  N   UNL A   1      33.523  29.744  25.226  1.00  0.00    -0.356 N 
ATOM      4  H   UNL A   1      33.900  30.469  24.676  1.00  0.00     0.163 HD
ENDROOT
BRANCH   1   5
ATOM      5  C   UNL A   1      33.405  27.190  25.400  1.00  0.00     0.100 C 
BRANCH   5   6
ATOM      6  C   UNL A   1      34.137  25.912  25.007  1.00  0.00     0.020 C 
BRANCH   6   7
ATOM      7  C   UNL A   1      34.459  24.828  26.033  1.00  0.00     0.101 C 
BRANCH   7   8
ATOM      8  C   UNL A   1      35.169  23.535  25.628  1.00  0.00     0.222 C 
ATOM      9  O   UNL A   1      36.406  23.546  25.626  1.00  0.00    -0.275 OA
BRANCH   8  10
ATOM     10  N   UNL A   1      34.472  22.347  25.431  1.00  0.00    -0.342 N 
ATOM     11  C   UNL A   1      30.902  25.274  23.469  1.00  0.00     0.047 A 
ATOM     12  C   UNL A   1      31.659  24.858  22.441  1.00  0.00     0.016 A 
ATOM     13  C   UNL A   1      30.794  24.400  24.688  1.00  0.00     0.258 A 
ATOM     14  C   UNL A   1      32.342  23.596  22.478  1.00  0.00     0.023 A 
ATOM     15  N   UNL A   1      31.489  23.182  24.650  1.00  0.00    -0.311 N 
ATOM     16  O   UNL A   1      30.110  24.746  25.652  1.00  0.00    -0.269 OA
ATOM     17  C   UNL A   1      32.249  22.789  23.547  1.00  0.00     0.026 A 
ATOM     18  C   UNL A   1      31.314  22.308  25.807  1.00  0.00     0.131 C 
ATOM     19  C   UNL A   1      33.030  21.488  23.596  1.00  0.00     0.056 C 
ATOM     20  C   UNL A   1      32.300  21.139  25.911  1.00  0.00     0.029 C 
ATOM     21  C   UNL A   1      32.388  20.475  24.546  1.00  0.00     0.019 C 
ATOM     22  C   UNL A   1      34.462  21.778  24.079  1.00  0.00     0.129 C 
ATOM     23  C   UNL A   1      33.700  21.572  26.397  1.00  0.00     0.125 C 
BRANCH  11  24
ATOM     24  C   UNL A   1      30.155  26.537  23.373  1.00  0.00    -0.013 A 
ATOM     25  C   UNL A   1      28.719  28.916  23.022  1.00  0.00     0.118 A 
ATOM     26  C   UNL A   1      28.086  27.792  23.551  1.00  0.00     0.047 A 
ATOM     27  C   UNL A   1      30.079  28.877  22.723  1.00  0.00     0.047 A 
ATOM     28  C   UNL A   1      28.799  26.601  23.716  1.00  0.00     0.013 A 
ATOM     29  C   UNL A   1      30.792  27.689  22.893  1.00  0.00     0.013 A 
BRANCH  25  30
ATOM     30  O   UNL A   1      27.948  30.034  22.855  1.00  0.00    -0.497 OA
ATOM     31  C   UNL A   1      28.580  31.216  23.346  1.00  0.00     0.278 C 
ENDBRANCH  25  30
ENDBRANCH  11  24
ENDBRANCH   8  10
ENDBRANCH   7   8
ENDBRANCH   6   7
ENDBRANCH   5   6
ENDBRANCH   1   5
BRANCH   3  32
ATOM     32  C   UNL A   1      32.867  30.214  26.419  1.00  0.00     0.116 C 
BRANCH  32  33
ATOM     33  C   UNL A   1      31.457  30.748  26.171  1.00  0.00     0.023 C 
BRANCH  33  34
ATOM     34  C   UNL A   1      31.225  32.119  26.796  1.00  0.00     0.023 C 
BRANCH  34  35
ATOM     35  C   UNL A   1      32.406  33.081  26.672  1.00  0.00     0.116 C 
BRANCH  35  36
ATOM     36  N   UNL A   1      32.363  34.201  27.603  1.00  0.00    -0.352 N 
ATOM     37  C   UNL A   1      33.264  34.507  28.601  1.00  0.00     0.251 C 
ATOM     38  H   UNL A   1      31.599  34.815  27.507  1.00  0.00     0.163 HD
ATOM     39  O   UNL A   1      33.089  35.461  29.350  1.00  0.00    -0.269 OA
BRANCH  37  40
ATOM     40  C   UNL A   1      34.427  33.617  28.785  1.00  0.00     0.039 A 
ATOM     41  C   UNL A   1      35.707  34.175  28.790  1.00  0.00     0.014 A 
ATOM     42  C   UNL A   1      34.230  32.272  29.110  1.00  0.00     0.014 A 
ATOM     43  C   UNL A   1      36.785  33.407  29.233  1.00  0.00     0.010 A 
ATOM     44  C   UNL A   1      35.292  31.536  29.623  1.00  0.00     0.010 A 
ATOM     45  C   UNL A   1      36.574  32.104  29.714  1.00  0.00    -0.014 A 
BRANCH  45  46
ATOM     46  C   UNL A   1      37.665  31.331  30.361  1.00  0.00     0.031 A 
ATOM     47  C   UNL A   1      38.013  31.584  31.799  1.00  0.00     0.074 A 
ATOM     48  C   UNL A   1      38.405  30.475  29.628  1.00  0.00     0.049 A 
ATOM     49  N   UNL A   1      39.005  31.106  32.506  1.00  0.00    -0.248 NA
ATOM     50  C   UNL A   1      37.151  32.526  32.530  1.00  0.00     0.031 C 
ATOM     51  C   UNL A   1      38.206  30.180  28.207  1.00  0.00     0.029 A 
ATOM     52  N   UNL A   1      39.490  29.708  29.973  1.00  0.00    -0.354 N 
ATOM     53  C   UNL A   1      38.899  31.704  33.754  1.00  0.00     0.074 A 
ATOM     54  C   UNL A   1      37.777  32.616  33.694  1.00  0.00     0.031 C 
ATOM     55  C   UNL A   1      39.123  29.283  27.809  1.00  0.00     0.029 A 
ATOM     56  C   UNL A   1      40.000  28.970  28.933  1.00  0.00     0.049 A 
ATOM     57  H   UNL A   1      39.868  29.689  30.883  1.00  0.00     0.167 HD
ATOM     58  C   UNL A   1      39.655  31.495  34.858  1.00  0.00     0.037 A 
ATOM     59  C   UNL A   1      41.061  28.143  28.884  1.00  0.00     0.037 A 
ATOM     60  C   UNL A   1      40.744  30.559  34.928  1.00  0.00     0.049 A 
ATOM     61  C   UNL A   1      41.885  27.929  30.123  1.00  0.00     0.074 A 
ATOM     62  C   UNL A   1      41.516  30.218  36.025  1.00  0.00     0.029 A 
ATOM     63  N   UNL A   1      41.217  29.816  33.857  1.00  0.00    -0.354 N 
ATOM     64  N   UNL A   1      41.731  28.448  31.317  1.00  0.00    -0.248 NA
ATOM     65  C   UNL A   1      43.034  27.017  30.010  1.00  0.00     0.031 C 
ATOM     66  C   UNL A   1      42.480  29.295  35.609  1.00  0.00     0.029 A 
ATOM     67  C   UNL A   1      42.285  29.034  34.262  1.00  0.00     0.049 A 
ATOM     68  H   UNL A   1      40.847  29.841  32.945  1.00  0.00     0.167 HD
ATOM     69  C   UNL A   1      42.745  27.914  32.100  1.00  0.00     0.074 A 
ATOM     70  C   UNL A   1      43.503  27.018  31.250  1.00  0.00     0.031 C 
ATOM     71  C   UNL A   1      43.025  28.145  33.405  1.00  0.00     0.037 A 
BRANCH  58  72
ATOM     72  C   UNL A   1      39.317  32.290  36.082  1.00  0.00     0.057 A 
ATOM     73  C   UNL A   1      39.922  33.524  36.351  1.00  0.00     0.134 A 
ATOM     74  C   UNL A   1      38.356  31.829  36.991  1.00  0.00     0.134 A 
ATOM     75  F   UNL A   1      40.861  34.014  35.526  1.00  0.00    -0.206 F 
ATOM     76  C   UNL A   1      39.603  34.261  37.492  1.00  0.00     0.040 A 
ATOM     77  C   UNL A   1      38.010  32.568  38.123  1.00  0.00     0.040 A 
ATOM     78  F   UNL A   1      37.737  30.656  36.792  1.00  0.00    -0.206 F 
ATOM     79  C   UNL A   1      38.638  33.786  38.379  1.00  0.00     0.006 A 
ENDBRANCH  58  72
BRANCH  59  80
ATOM     80  C   UNL A   1      41.405  27.442  27.621  1.00  0.00     0.057 A 
ATOM     81  C   UNL A   1      40.931  26.151  27.363  1.00  0.00     0.134 A 
ATOM     82  C   UNL A   1      42.220  28.036  26.650  1.00  0.00     0.134 A 
ATOM     83  F   UNL A   1      40.163  25.522  28.267  1.00  0.00    -0.206 F 
ATOM     84  C   UNL A   1      41.265  25.468  26.193  1.00  0.00     0.040 A 
ATOM     85  C   UNL A   1      42.545  27.373  25.465  1.00  0.00     0.040 A 
ATOM     86  F   UNL A   1      42.701  29.274  26.835  1.00  0.00    -0.206 F 
ATOM     87  C   UNL A   1      42.073  26.083  25.237  1.00  0.00     0.006 A 
ENDBRANCH  59  80
BRANCH  71  88
ATOM     88  C   UNL A   1      44.185  27.407  34.001  1.00  0.00     0.057 A 
ATOM     89  C   UNL A   1      45.469  27.965  34.039  1.00  0.00     0.134 A 
ATOM     90  C   UNL A   1      44.004  26.151  34.593  1.00  0.00     0.134 A 
ATOM     91  F   UNL A   1      45.708  29.158  33.476  1.00  0.00    -0.206 F 
ATOM     92  C   UNL A   1      46.535  27.292  34.638  1.00  0.00     0.040 A 
ATOM     93  C   UNL A   1      45.057  25.479  35.213  1.00  0.00     0.040 A 
ATOM     94  F   UNL A   1      42.796  25.567  34.595  1.00  0.00    -0.206 F 
ATOM     95  C   UNL A   1      46.329  26.050  35.234  1.00  0.00     0.006 A 
ENDBRANCH  71  88
ENDBRANCH  45  46
ENDBRANCH  37  40
ENDBRANCH  35  36
ENDBRANCH  34  35
ENDBRANCH  33  34
ENDBRANCH  32  33
ENDBRANCH   3  32
TORSDOF 17
ENDMDL
