MODEL 1
REMARK VINA RESULT:     -11.8      0.000      0.000
REMARK SMILES O=C(NCCCCNC(=O)[C@@H]1C[N@H+](Cc2ccco2)CC12CCOCC2)c1ccc(-c2c3nc(c(-c4c(F)cccc4F)c4ccc([nH]4)c(-c4c(F)cccc4F)c4nc(c(-c5c(F)cccc5F)c5ccc2[nH]5)C=C4)C=C3)cc1
REMARK SMILES IDX 5 1 4 2 3 3 1 4 2 5 27 7 28 8 80 9 29 10 79 11 30 12 31 13
REMARK SMILES IDX 32 14 73 15 33 16 78 17 72 18 74 19 34 20 77 21 71 22 70 23
REMARK SMILES IDX 35 25 61 26 44 27 60 28 45 29 48 30 59 31 75 32 46 33 47 34
REMARK SMILES IDX 58 36 76 37 49 38 36 39 37 40 42 41 38 42 39 43 41 44 43 45
REMARK SMILES IDX 40 46 62 47 63 48 68 49 64 50 65 51 67 52 69 53 66 54 50 55
REMARK SMILES IDX 51 56 56 57 52 58 53 59 55 60 57 61 54 62 6 63 7 64 8 65
REMARK SMILES IDX 9 66 10 68 11 69 12 70 21 71 13 72 20 73 22 74 26 75 23 77
REMARK SMILES IDX 25 78 24 79 14 80 15 81 16 82 19 83 17 84 18 85
REMARK H PARENT 3 6 74 24 48 35 8 67 13 76
REMARK Flexibility Score: inf
ROOT
ATOM      1  C   UNL A   1      37.602  19.999  24.596  1.00  0.00     0.023 C 
ENDROOT
BRANCH   1   2
ATOM      2  C   UNL A   1      38.578  20.289  25.731  1.00  0.00     0.116 C 
BRANCH   2   3
ATOM      3  N   UNL A   1      39.697  19.362  25.744  1.00  0.00    -0.352 N 
ATOM      4  O   UNL A   1      41.867  18.747  25.796  1.00  0.00    -0.269 OA
ATOM      5  C   UNL A   1      41.019  19.605  26.022  1.00  0.00     0.251 C 
ATOM      6  H   UNL A   1      39.476  18.429  25.520  1.00  0.00     0.163 HD
BRANCH   5   7
ATOM      7  C   UNL A   1      41.421  20.913  26.581  1.00  0.00     0.039 A 
ATOM      8  C   UNL A   1      41.321  21.159  27.952  1.00  0.00     0.014 A 
ATOM      9  C   UNL A   1      41.913  21.900  25.721  1.00  0.00     0.014 A 
ATOM     10  C   UNL A   1      41.588  22.432  28.445  1.00  0.00     0.010 A 
ATOM     11  C   UNL A   1      42.258  23.154  26.231  1.00  0.00     0.010 A 
ATOM     12  C   UNL A   1      42.073  23.438  27.593  1.00  0.00    -0.014 A 
BRANCH  12  13
ATOM     13  C   UNL A   1      42.440  24.757  28.166  1.00  0.00     0.031 A 
ATOM     14  C   UNL A   1      43.865  25.091  28.507  1.00  0.00     0.074 A 
ATOM     15  C   UNL A   1      41.468  25.670  28.348  1.00  0.00     0.049 A 
ATOM     16  N   UNL A   1      44.356  26.205  28.991  1.00  0.00    -0.248 NA
ATOM     17  C   UNL A   1      44.869  24.039  28.287  1.00  0.00     0.031 C 
ATOM     18  C   UNL A   1      40.047  25.454  28.067  1.00  0.00     0.029 A 
ATOM     19  N   UNL A   1      41.525  26.966  28.795  1.00  0.00    -0.354 N 
ATOM     20  C   UNL A   1      45.718  25.986  29.148  1.00  0.00     0.074 A 
ATOM     21  C   UNL A   1      45.974  24.623  28.732  1.00  0.00     0.031 C 
ATOM     22  C   UNL A   1      39.375  26.591  28.301  1.00  0.00     0.029 A 
ATOM     23  C   UNL A   1      40.305  27.595  28.803  1.00  0.00     0.049 A 
ATOM     24  H   UNL A   1      42.360  27.403  29.081  1.00  0.00     0.167 HD
ATOM     25  C   UNL A   1      46.666  26.846  29.593  1.00  0.00     0.037 A 
ATOM     26  C   UNL A   1      39.966  28.839  29.184  1.00  0.00     0.037 A 
ATOM     27  C   UNL A   1      46.406  28.206  29.992  1.00  0.00     0.049 A 
ATOM     28  C   UNL A   1      41.034  29.764  29.686  1.00  0.00     0.074 A 
ATOM     29  C   UNL A   1      47.306  29.166  30.423  1.00  0.00     0.029 A 
ATOM     30  N   UNL A   1      45.152  28.799  30.012  1.00  0.00    -0.354 N 
ATOM     31  N   UNL A   1      42.322  29.552  29.798  1.00  0.00    -0.248 NA
ATOM     32  C   UNL A   1      40.601  31.100  30.118  1.00  0.00     0.031 C 
ATOM     33  C   UNL A   1      46.591  30.327  30.743  1.00  0.00     0.029 A 
ATOM     34  C   UNL A   1      45.252  30.104  30.468  1.00  0.00     0.049 A 
ATOM     35  H   UNL A   1      44.314  28.357  29.743  1.00  0.00     0.167 HD
ATOM     36  C   UNL A   1      42.858  30.731  30.300  1.00  0.00     0.074 A 
ATOM     37  C   UNL A   1      41.756  31.659  30.450  1.00  0.00     0.031 C 
ATOM     38  C   UNL A   1      44.145  31.015  30.613  1.00  0.00     0.037 A 
BRANCH  25  39
ATOM     39  C   UNL A   1      48.076  26.339  29.687  1.00  0.00     0.057 A 
ATOM     40  C   UNL A   1      48.569  25.734  30.849  1.00  0.00     0.134 A 
ATOM     41  C   UNL A   1      48.936  26.413  28.583  1.00  0.00     0.134 A 
ATOM     42  F   UNL A   1      47.801  25.640  31.945  1.00  0.00    -0.206 F 
ATOM     43  C   UNL A   1      49.873  25.237  30.918  1.00  0.00     0.040 A 
ATOM     44  C   UNL A   1      50.234  25.900  28.632  1.00  0.00     0.040 A 
ATOM     45  F   UNL A   1      48.524  26.973  27.435  1.00  0.00    -0.206 F 
ATOM     46  C   UNL A   1      50.707  25.314  29.803  1.00  0.00     0.006 A 
ENDBRANCH  25  39
BRANCH  26  47
ATOM     47  C   UNL A   1      38.550  29.274  29.102  1.00  0.00     0.057 A 
ATOM     48  C   UNL A   1      37.722  29.255  30.229  1.00  0.00     0.134 A 
ATOM     49  C   UNL A   1      37.999  29.735  27.901  1.00  0.00     0.134 A 
ATOM     50  F   UNL A   1      38.189  28.809  31.404  1.00  0.00    -0.206 F 
ATOM     51  C   UNL A   1      36.390  29.668  30.162  1.00  0.00     0.040 A 
ATOM     52  C   UNL A   1      36.678  30.177  27.825  1.00  0.00     0.040 A 
ATOM     53  F   UNL A   1      38.746  29.785  26.788  1.00  0.00    -0.206 F 
ATOM     54  C   UNL A   1      35.867  30.138  28.957  1.00  0.00     0.006 A 
ENDBRANCH  26  47
BRANCH  38  55
ATOM     55  C   UNL A   1      44.428  32.395  31.125  1.00  0.00     0.057 A 
ATOM     56  C   UNL A   1      44.714  33.458  30.259  1.00  0.00     0.134 A 
ATOM     57  C   UNL A   1      44.397  32.668  32.498  1.00  0.00     0.134 A 
ATOM     58  F   UNL A   1      44.774  33.258  28.934  1.00  0.00    -0.206 F 
ATOM     59  C   UNL A   1      44.984  34.739  30.743  1.00  0.00     0.040 A 
ATOM     60  C   UNL A   1      44.641  33.949  32.992  1.00  0.00     0.040 A 
ATOM     61  F   UNL A   1      44.123  31.694  33.381  1.00  0.00    -0.206 F 
ATOM     62  C   UNL A   1      44.943  34.987  32.114  1.00  0.00     0.006 A 
ENDBRANCH  38  55
ENDBRANCH  12  13
ENDBRANCH   5   7
ENDBRANCH   2   3
ENDBRANCH   1   2
BRANCH   1  63
ATOM     63  C   UNL A   1      36.119  20.063  24.981  1.00  0.00     0.023 C 
BRANCH  63  64
ATOM     64  C   UNL A   1      35.698  21.335  25.716  1.00  0.00     0.116 C 
BRANCH  64  65
ATOM     65  N   UNL A   1      35.848  22.491  24.860  1.00  0.00    -0.356 N 
ATOM     66  C   UNL A   1      35.085  22.880  23.811  1.00  0.00     0.229 C 
ATOM     67  H   UNL A   1      36.612  23.077  25.068  1.00  0.00     0.163 HD
ATOM     68  O   UNL A   1      35.706  23.416  22.891  1.00  0.00    -0.275 OA
BRANCH  66  69
ATOM     69  C   UNL A   1      33.590  22.564  23.741  1.00  0.00     0.145 C 
ATOM     70  C   UNL A   1      33.106  22.775  22.291  1.00  0.00     0.276 C 
ATOM     71  C   UNL A   1      32.565  23.355  24.626  1.00  0.00     0.041 C 
ATOM     72  N   UNL A   1      32.179  23.896  22.284  1.00  0.00    -0.327 N 
ATOM     73  C   UNL A   1      31.579  23.980  23.601  1.00  0.00     0.270 C 
ATOM     74  C   UNL A   1      31.783  22.379  25.551  1.00  0.00     0.042 C 
ATOM     75  C   UNL A   1      33.155  24.441  25.550  1.00  0.00     0.042 C 
ATOM     76  H   UNL A   1      31.449  23.700  21.598  1.00  0.00     0.348 HD
ATOM     77  C   UNL A   1      30.797  23.109  26.462  1.00  0.00     0.161 C 
ATOM     78  C   UNL A   1      32.096  25.091  26.438  1.00  0.00     0.161 C 
ATOM     79  O   UNL A   1      31.462  24.098  27.243  1.00  0.00    -0.381 OA
BRANCH  72  80
ATOM     80  C   UNL A   1      32.640  25.154  21.685  1.00  0.00     0.338 C 
BRANCH  80  81
ATOM     81  C   UNL A   1      32.159  26.438  22.273  1.00  0.00     0.157 A 
ATOM     82  C   UNL A   1      32.703  27.333  23.172  1.00  0.00     0.052 A 
ATOM     83  O   UNL A   1      30.972  26.935  21.803  1.00  0.00    -0.463 OA
ATOM     84  C   UNL A   1      31.766  28.382  23.330  1.00  0.00     0.042 A 
ATOM     85  C   UNL A   1      30.744  28.109  22.454  1.00  0.00     0.195 A 
ENDBRANCH  80  81
ENDBRANCH  72  80
ENDBRANCH  66  69
ENDBRANCH  64  65
ENDBRANCH  63  64
ENDBRANCH   1  63
TORSDOF 13
ENDMDL
MODEL 2
REMARK VINA RESULT:     -11.8      0.117      1.604
REMARK SMILES O=C(NCCCCNC(=O)[C@@H]1C[N@H+](Cc2ccco2)CC12CCOCC2)c1ccc(-c2c3nc(c(-c4c(F)cccc4F)c4ccc([nH]4)c(-c4c(F)cccc4F)c4nc(c(-c5c(F)cccc5F)c5ccc2[nH]5)C=C4)C=C3)cc1
REMARK SMILES IDX 5 1 4 2 3 3 1 4 2 5 27 7 28 8 80 9 29 10 79 11 30 12 31 13
REMARK SMILES IDX 32 14 73 15 33 16 78 17 72 18 74 19 34 20 77 21 71 22 70 23
REMARK SMILES IDX 35 25 61 26 44 27 60 28 45 29 48 30 59 31 75 32 46 33 47 34
REMARK SMILES IDX 58 36 76 37 49 38 36 39 37 40 42 41 38 42 39 43 41 44 43 45
REMARK SMILES IDX 40 46 62 47 63 48 68 49 64 50 65 51 67 52 69 53 66 54 50 55
REMARK SMILES IDX 51 56 56 57 52 58 53 59 55 60 57 61 54 62 6 63 7 64 8 65
REMARK SMILES IDX 9 66 10 68 11 69 12 70 21 71 13 72 20 73 22 74 26 75 23 77
REMARK SMILES IDX 25 78 24 79 14 80 15 81 16 82 19 83 17 84 18 85
REMARK H PARENT 3 6 74 24 48 35 8 67 13 76
REMARK Flexibility Score: inf
ROOT
ATOM      1  C   UNL A   1      37.522  19.972  24.617  1.00  0.00     0.023 C 
ENDROOT
BRANCH   1   2
ATOM      2  C   UNL A   1      38.503  20.246  25.752  1.00  0.00     0.116 C 
BRANCH   2   3
ATOM      3  N   UNL A   1      39.622  19.320  25.746  1.00  0.00    -0.352 N 
ATOM      4  O   UNL A   1      41.794  18.706  25.771  1.00  0.00    -0.269 OA
ATOM      5  C   UNL A   1      40.948  19.562  26.012  1.00  0.00     0.251 C 
ATOM      6  H   UNL A   1      39.400  18.388  25.518  1.00  0.00     0.163 HD
BRANCH   5   7
ATOM      7  C   UNL A   1      41.354  20.866  26.576  1.00  0.00     0.039 A 
ATOM      8  C   UNL A   1      41.236  21.115  27.945  1.00  0.00     0.014 A 
ATOM      9  C   UNL A   1      41.869  21.847  25.723  1.00  0.00     0.014 A 
ATOM     10  C   UNL A   1      41.508  22.385  28.441  1.00  0.00     0.010 A 
ATOM     11  C   UNL A   1      42.219  23.098  26.237  1.00  0.00     0.010 A 
ATOM     12  C   UNL A   1      42.016  23.385  27.596  1.00  0.00    -0.014 A 
BRANCH  12  13
ATOM     13  C   UNL A   1      42.388  24.701  28.173  1.00  0.00     0.031 A 
ATOM     14  C   UNL A   1      43.810  25.019  28.539  1.00  0.00     0.074 A 
ATOM     15  C   UNL A   1      41.424  25.625  28.338  1.00  0.00     0.049 A 
ATOM     16  N   UNL A   1      44.305  26.129  29.030  1.00  0.00    -0.248 NA
ATOM     17  C   UNL A   1      44.807  23.957  28.338  1.00  0.00     0.031 C 
ATOM     18  C   UNL A   1      40.005  25.425  28.033  1.00  0.00     0.029 A 
ATOM     19  N   UNL A   1      41.487  26.921  28.784  1.00  0.00    -0.354 N 
ATOM     20  C   UNL A   1      45.662  25.895  29.211  1.00  0.00     0.074 A 
ATOM     21  C   UNL A   1      45.910  24.528  28.801  1.00  0.00     0.031 C 
ATOM     22  C   UNL A   1      39.341  26.569  28.253  1.00  0.00     0.029 A 
ATOM     23  C   UNL A   1      40.273  27.563  28.770  1.00  0.00     0.049 A 
ATOM     24  H   UNL A   1      42.321  27.349  29.084  1.00  0.00     0.167 HD
ATOM     25  C   UNL A   1      46.611  26.745  29.671  1.00  0.00     0.037 A 
ATOM     26  C   UNL A   1      39.942  28.812  29.143  1.00  0.00     0.037 A 
ATOM     27  C   UNL A   1      46.360  28.109  30.063  1.00  0.00     0.049 A 
ATOM     28  C   UNL A   1      41.012  29.726  29.663  1.00  0.00     0.074 A 
ATOM     29  C   UNL A   1      47.263  29.059  30.509  1.00  0.00     0.029 A 
ATOM     30  N   UNL A   1      45.112  28.715  30.061  1.00  0.00    -0.354 N 
ATOM     31  N   UNL A   1      42.295  29.500  29.797  1.00  0.00    -0.248 NA
ATOM     32  C   UNL A   1      40.586  31.067  30.085  1.00  0.00     0.031 C 
ATOM     33  C   UNL A   1      46.556  30.228  30.815  1.00  0.00     0.029 A 
ATOM     34  C   UNL A   1      45.219  30.020  30.517  1.00  0.00     0.049 A 
ATOM     35  H   UNL A   1      44.275  28.283  29.778  1.00  0.00     0.167 HD
ATOM     36  C   UNL A   1      42.835  30.673  30.307  1.00  0.00     0.074 A 
ATOM     37  C   UNL A   1      41.742  31.614  30.437  1.00  0.00     0.031 C 
ATOM     38  C   UNL A   1      44.120  30.943  30.642  1.00  0.00     0.037 A 
BRANCH  25  39
ATOM     39  C   UNL A   1      48.014  26.223  29.790  1.00  0.00     0.057 A 
ATOM     40  C   UNL A   1      48.916  26.274  28.720  1.00  0.00     0.134 A 
ATOM     41  C   UNL A   1      48.482  25.706  31.005  1.00  0.00     0.134 A 
ATOM     42  F   UNL A   1      48.529  26.748  27.526  1.00  0.00    -0.206 F 
ATOM     43  C   UNL A   1      50.229  25.815  28.849  1.00  0.00     0.040 A 
ATOM     44  C   UNL A   1      49.799  25.264  31.153  1.00  0.00     0.040 A 
ATOM     45  F   UNL A   1      47.672  25.635  32.072  1.00  0.00    -0.206 F 
ATOM     46  C   UNL A   1      50.675  25.314  30.071  1.00  0.00     0.006 A 
ENDBRANCH  25  39
BRANCH  26  47
ATOM     47  C   UNL A   1      38.533  29.263  29.036  1.00  0.00     0.057 A 
ATOM     48  C   UNL A   1      38.000  29.683  27.813  1.00  0.00     0.134 A 
ATOM     49  C   UNL A   1      37.684  29.267  30.148  1.00  0.00     0.134 A 
ATOM     50  F   UNL A   1      38.770  29.715  26.715  1.00  0.00    -0.206 F 
ATOM     51  C   UNL A   1      36.673  30.102  27.702  1.00  0.00     0.040 A 
ATOM     52  C   UNL A   1      36.348  29.658  30.047  1.00  0.00     0.040 A 
ATOM     53  F   UNL A   1      38.135  28.867  31.347  1.00  0.00    -0.206 F 
ATOM     54  C   UNL A   1      35.842  30.084  28.821  1.00  0.00     0.006 A 
ENDBRANCH  26  47
BRANCH  38  55
ATOM     55  C   UNL A   1      44.409  32.321  31.157  1.00  0.00     0.057 A 
ATOM     56  C   UNL A   1      44.335  32.628  32.522  1.00  0.00     0.134 A 
ATOM     57  C   UNL A   1      44.781  33.347  30.281  1.00  0.00     0.134 A 
ATOM     58  F   UNL A   1      43.968  31.693  33.411  1.00  0.00    -0.206 F 
ATOM     59  C   UNL A   1      44.596  33.916  32.993  1.00  0.00     0.040 A 
ATOM     60  C   UNL A   1      45.069  34.631  30.743  1.00  0.00     0.040 A 
ATOM     61  F   UNL A   1      44.876  33.116  28.962  1.00  0.00    -0.206 F 
ATOM     62  C   UNL A   1      44.969  34.920  32.102  1.00  0.00     0.006 A 
ENDBRANCH  38  55
ENDBRANCH  12  13
ENDBRANCH   5   7
ENDBRANCH   2   3
ENDBRANCH   1   2
BRANCH   1  63
ATOM     63  C   UNL A   1      36.041  20.044  25.005  1.00  0.00     0.023 C 
BRANCH  63  64
ATOM     64  C   UNL A   1      35.616  21.343  25.689  1.00  0.00     0.116 C 
BRANCH  64  65
ATOM     65  N   UNL A   1      35.799  22.470  24.801  1.00  0.00    -0.356 N 
ATOM     66  C   UNL A   1      35.048  22.852  23.742  1.00  0.00     0.229 C 
ATOM     67  H   UNL A   1      36.580  23.039  24.994  1.00  0.00     0.163 HD
ATOM     68  O   UNL A   1      35.683  23.343  22.807  1.00  0.00    -0.275 OA
BRANCH  66  69
ATOM     69  C   UNL A   1      33.544  22.577  23.679  1.00  0.00     0.145 C 
ATOM     70  C   UNL A   1      33.047  22.859  22.246  1.00  0.00     0.276 C 
ATOM     71  C   UNL A   1      32.551  23.357  24.610  1.00  0.00     0.041 C 
ATOM     72  N   UNL A   1      32.150  24.003  22.297  1.00  0.00    -0.327 N 
ATOM     73  C   UNL A   1      31.569  24.049  23.624  1.00  0.00     0.270 C 
ATOM     74  C   UNL A   1      31.756  22.365  25.505  1.00  0.00     0.042 C 
ATOM     75  C   UNL A   1      33.181  24.389  25.569  1.00  0.00     0.042 C 
ATOM     76  H   UNL A   1      31.406  23.854  21.614  1.00  0.00     0.348 HD
ATOM     77  C   UNL A   1      30.801  23.082  26.459  1.00  0.00     0.161 C 
ATOM     78  C   UNL A   1      32.151  25.030  26.497  1.00  0.00     0.161 C 
ATOM     79  O   UNL A   1      31.501  24.021  27.270  1.00  0.00    -0.381 OA
BRANCH  72  80
ATOM     80  C   UNL A   1      32.636  25.272  21.744  1.00  0.00     0.338 C 
BRANCH  80  81
ATOM     81  C   UNL A   1      32.104  26.545  22.313  1.00  0.00     0.157 A 
ATOM     82  C   UNL A   1      32.600  27.457  23.224  1.00  0.00     0.052 A 
ATOM     83  O   UNL A   1      30.918  27.009  21.809  1.00  0.00    -0.463 OA
ATOM     84  C   UNL A   1      31.632  28.480  23.352  1.00  0.00     0.042 A 
ATOM     85  C   UNL A   1      30.641  28.178  22.448  1.00  0.00     0.195 A 
ENDBRANCH  80  81
ENDBRANCH  72  80
ENDBRANCH  66  69
ENDBRANCH  64  65
ENDBRANCH  63  64
ENDBRANCH   1  63
TORSDOF 13
ENDMDL
MODEL 3
REMARK VINA RESULT:     -11.6      0.230      6.232
REMARK SMILES O=C(NCCCCNC(=O)[C@@H]1C[N@H+](Cc2ccco2)CC12CCOCC2)c1ccc(-c2c3nc(c(-c4c(F)cccc4F)c4ccc([nH]4)c(-c4c(F)cccc4F)c4nc(c(-c5c(F)cccc5F)c5ccc2[nH]5)C=C4)C=C3)cc1
REMARK SMILES IDX 5 1 4 2 3 3 1 4 2 5 27 7 28 8 80 9 29 10 79 11 30 12 31 13
REMARK SMILES IDX 32 14 73 15 33 16 78 17 72 18 74 19 34 20 77 21 71 22 70 23
REMARK SMILES IDX 35 25 61 26 44 27 60 28 45 29 48 30 59 31 75 32 46 33 47 34
REMARK SMILES IDX 58 36 76 37 49 38 36 39 37 40 42 41 38 42 39 43 41 44 43 45
REMARK SMILES IDX 40 46 62 47 63 48 68 49 64 50 65 51 67 52 69 53 66 54 50 55
REMARK SMILES IDX 51 56 56 57 52 58 53 59 55 60 57 61 54 62 6 63 7 64 8 65
REMARK SMILES IDX 9 66 10 68 11 69 12 70 21 71 13 72 20 73 22 74 26 75 23 77
REMARK SMILES IDX 25 78 24 79 14 80 15 81 16 82 19 83 17 84 18 85
REMARK H PARENT 3 6 74 24 48 35 8 67 13 76
REMARK Flexibility Score: inf
ROOT
ATOM      1  C   UNL A   1      37.680  19.938  24.596  1.00  0.00     0.023 C 
ENDROOT
BRANCH   1   2
ATOM      2  C   UNL A   1      38.558  20.145  25.826  1.00  0.00     0.116 C 
BRANCH   2   3
ATOM      3  N   UNL A   1      39.732  19.289  25.814  1.00  0.00    -0.352 N 
ATOM      4  O   UNL A   1      41.937  18.809  25.804  1.00  0.00    -0.269 OA
ATOM      5  C   UNL A   1      41.045  19.617  26.047  1.00  0.00     0.251 C 
ATOM      6  H   UNL A   1      39.562  18.341  25.608  1.00  0.00     0.163 HD
BRANCH   5   7
ATOM      7  C   UNL A   1      41.382  20.954  26.575  1.00  0.00     0.039 A 
ATOM      8  C   UNL A   1      41.796  21.974  25.714  1.00  0.00     0.014 A 
ATOM      9  C   UNL A   1      41.273  21.193  27.949  1.00  0.00     0.014 A 
ATOM     10  C   UNL A   1      42.225  23.188  26.239  1.00  0.00     0.010 A 
ATOM     11  C   UNL A   1      41.628  22.441  28.466  1.00  0.00     0.010 A 
ATOM     12  C   UNL A   1      42.132  23.440  27.618  1.00  0.00    -0.014 A 
BRANCH  12  13
ATOM     13  C   UNL A   1      42.506  24.779  28.136  1.00  0.00     0.031 A 
ATOM     14  C   UNL A   1      41.473  25.845  28.367  1.00  0.00     0.074 A 
ATOM     15  C   UNL A   1      43.799  25.016  28.428  1.00  0.00     0.049 A 
ATOM     16  N   UNL A   1      41.632  27.057  28.837  1.00  0.00    -0.248 NA
ATOM     17  C   UNL A   1      40.083  25.515  28.018  1.00  0.00     0.031 C 
ATOM     18  C   UNL A   1      44.895  24.062  28.231  1.00  0.00     0.029 A 
ATOM     19  N   UNL A   1      44.412  26.118  28.966  1.00  0.00    -0.354 N 
ATOM     20  C   UNL A   1      40.371  27.639  28.827  1.00  0.00     0.074 A 
ATOM     21  C   UNL A   1      39.459  26.656  28.279  1.00  0.00     0.031 C 
ATOM     22  C   UNL A   1      46.034  24.602  28.687  1.00  0.00     0.029 A 
ATOM     23  C   UNL A   1      45.763  25.957  29.152  1.00  0.00     0.049 A 
ATOM     24  H   UNL A   1      43.930  26.945  29.197  1.00  0.00     0.167 HD
ATOM     25  C   UNL A   1      40.009  28.877  29.242  1.00  0.00     0.037 A 
ATOM     26  C   UNL A   1      46.686  26.808  29.632  1.00  0.00     0.037 A 
ATOM     27  C   UNL A   1      40.918  29.846  29.800  1.00  0.00     0.049 A 
ATOM     28  C   UNL A   1      46.258  28.177  30.070  1.00  0.00     0.074 A 
ATOM     29  C   UNL A   1      40.640  31.114  30.282  1.00  0.00     0.029 A 
ATOM     30  N   UNL A   1      42.284  29.655  29.947  1.00  0.00    -0.354 N 
ATOM     31  N   UNL A   1      45.058  28.700  30.084  1.00  0.00    -0.248 NA
ATOM     32  C   UNL A   1      47.315  29.074  30.556  1.00  0.00     0.031 C 
ATOM     33  C   UNL A   1      41.844  31.705  30.683  1.00  0.00     0.029 A 
ATOM     34  C   UNL A   1      42.866  30.789  30.493  1.00  0.00     0.049 A 
ATOM     35  H   UNL A   1      42.770  28.835  29.700  1.00  0.00     0.167 HD
ATOM     36  C   UNL A   1      45.210  29.983  30.591  1.00  0.00     0.074 A 
ATOM     37  C   UNL A   1      46.616  30.149  30.893  1.00  0.00     0.031 C 
ATOM     38  C   UNL A   1      44.268  30.939  30.785  1.00  0.00     0.037 A 
BRANCH  25  39
ATOM     39  C   UNL A   1      38.566  29.265  29.097  1.00  0.00     0.057 A 
ATOM     40  C   UNL A   1      37.680  29.243  30.181  1.00  0.00     0.134 A 
ATOM     41  C   UNL A   1      38.068  29.713  27.866  1.00  0.00     0.134 A 
ATOM     42  F   UNL A   1      38.090  28.815  31.385  1.00  0.00    -0.206 F 
ATOM     43  C   UNL A   1      36.347  29.635  30.044  1.00  0.00     0.040 A 
ATOM     44  C   UNL A   1      36.743  30.130  27.721  1.00  0.00     0.040 A 
ATOM     45  F   UNL A   1      38.864  29.767  26.788  1.00  0.00    -0.206 F 
ATOM     46  C   UNL A   1      35.877  30.087  28.811  1.00  0.00     0.006 A 
ENDBRANCH  25  39
BRANCH  26  47
ATOM     47  C   UNL A   1      48.105  26.382  29.721  1.00  0.00     0.057 A 
ATOM     48  C   UNL A   1      48.601  25.758  30.871  1.00  0.00     0.134 A 
ATOM     49  C   UNL A   1      48.989  26.572  28.654  1.00  0.00     0.134 A 
ATOM     50  F   UNL A   1      47.804  25.563  31.932  1.00  0.00    -0.206 F 
ATOM     51  C   UNL A   1      49.932  25.348  30.960  1.00  0.00     0.040 A 
ATOM     52  C   UNL A   1      50.316  26.144  28.719  1.00  0.00     0.040 A 
ATOM     53  F   UNL A   1      48.570  27.157  27.522  1.00  0.00    -0.206 F 
ATOM     54  C   UNL A   1      50.792  25.535  29.878  1.00  0.00     0.006 A 
ENDBRANCH  26  47
BRANCH  38  55
ATOM     55  C   UNL A   1      44.734  32.237  31.373  1.00  0.00     0.057 A 
ATOM     56  C   UNL A   1      44.779  32.445  32.757  1.00  0.00     0.134 A 
ATOM     57  C   UNL A   1      45.156  33.284  30.545  1.00  0.00     0.134 A 
ATOM     58  F   UNL A   1      44.373  31.486  33.602  1.00  0.00    -0.206 F 
ATOM     59  C   UNL A   1      45.206  33.659  33.297  1.00  0.00     0.040 A 
ATOM     60  C   UNL A   1      45.607  34.494  31.074  1.00  0.00     0.040 A 
ATOM     61  F   UNL A   1      45.142  33.147  29.210  1.00  0.00    -0.206 F 
ATOM     62  C   UNL A   1      45.626  34.686  32.453  1.00  0.00     0.006 A 
ENDBRANCH  38  55
ENDBRANCH  12  13
ENDBRANCH   5   7
ENDBRANCH   2   3
ENDBRANCH   1   2
BRANCH   1  63
ATOM     63  C   UNL A   1      36.173  19.895  24.873  1.00  0.00     0.023 C 
BRANCH  63  64
ATOM     64  C   UNL A   1      35.611  21.129  25.578  1.00  0.00     0.116 C 
BRANCH  64  65
ATOM     65  N   UNL A   1      35.817  22.313  24.774  1.00  0.00    -0.356 N 
ATOM     66  C   UNL A   1      35.071  22.787  23.748  1.00  0.00     0.229 C 
ATOM     67  H   UNL A   1      36.610  22.850  25.004  1.00  0.00     0.163 HD
ATOM     68  O   UNL A   1      35.715  23.331  22.849  1.00  0.00    -0.275 OA
BRANCH  66  69
ATOM     69  C   UNL A   1      33.562  22.549  23.671  1.00  0.00     0.145 C 
ATOM     70  C   UNL A   1      33.085  22.847  22.234  1.00  0.00     0.276 C 
ATOM     71  C   UNL A   1      32.580  23.351  24.594  1.00  0.00     0.041 C 
ATOM     72  N   UNL A   1      32.216  24.013  22.280  1.00  0.00    -0.327 N 
ATOM     73  C   UNL A   1      31.625  24.069  23.602  1.00  0.00     0.270 C 
ATOM     74  C   UNL A   1      31.753  22.376  25.480  1.00  0.00     0.042 C 
ATOM     75  C   UNL A   1      33.227  24.365  25.562  1.00  0.00     0.042 C 
ATOM     76  H   UNL A   1      31.475  23.883  21.590  1.00  0.00     0.348 HD
ATOM     77  C   UNL A   1      30.807  23.114  26.426  1.00  0.00     0.161 C 
ATOM     78  C   UNL A   1      32.204  25.028  26.482  1.00  0.00     0.161 C 
ATOM     79  O   UNL A   1      31.523  24.034  27.247  1.00  0.00    -0.381 OA
BRANCH  72  80
ATOM     80  C   UNL A   1      32.738  25.271  21.734  1.00  0.00     0.338 C 
BRANCH  80  81
ATOM     81  C   UNL A   1      32.194  26.555  22.265  1.00  0.00     0.157 A 
ATOM     82  C   UNL A   1      32.715  27.543  23.075  1.00  0.00     0.052 A 
ATOM     83  O   UNL A   1      30.952  26.935  21.829  1.00  0.00    -0.463 OA
ATOM     84  C   UNL A   1      31.713  28.532  23.216  1.00  0.00     0.042 A 
ATOM     85  C   UNL A   1      30.672  28.131  22.415  1.00  0.00     0.195 A 
ENDBRANCH  80  81
ENDBRANCH  72  80
ENDBRANCH  66  69
ENDBRANCH  64  65
ENDBRANCH  63  64
ENDBRANCH   1  63
TORSDOF 13
ENDMDL
