MODEL 1
REMARK VINA RESULT:     -12.4      0.000      0.000
REMARK SMILES CC(C)[C@@H](NC(=O)[C@@H]1CC[C@@H]2CCCC[C@@H]2[NH2+]1)C(=O)NCCCCNC(=O)c1ccc(-c2c3nc(c(-c4c(F)cccc4F)c4ccc([nH]4)c(-c4c(F)cccc4F)c4nc(c(-c5c(F)cccc5F)c5ccc2[nH]5)C=C4)C=C3)cc1
REMARK SMILES IDX 22 1 21 2 20 3 18 4 19 5 4 7 2 8 1 9 3 10 5 11 6 12 7 14
REMARK SMILES IDX 8 15 9 16 17 17 10 18 16 19 11 22 15 23 12 24 14 25 13 26
REMARK SMILES IDX 23 27 24 28 25 29 26 30 27 32 28 33 29 34 81 35 30 36 80 37
REMARK SMILES IDX 31 38 32 39 33 40 74 41 34 42 79 43 73 44 75 45 35 46 78 47
REMARK SMILES IDX 72 48 71 49 36 51 62 52 45 53 61 54 46 55 49 56 60 57 76 58
REMARK SMILES IDX 47 59 48 60 59 62 77 63 50 64 37 65 38 66 43 67 39 68 40 69
REMARK SMILES IDX 42 70 44 71 41 72 63 73 64 74 69 75 65 76 66 77 68 78 70 79
REMARK SMILES IDX 67 80 51 81 52 82 57 83 53 84 54 85 56 86 58 87 55 88
REMARK H PARENT 20 6 5 13 17 20 17 21 25 31 75 50 49 61
REMARK Flexibility Score: inf
ROOT
ATOM      1  C   UNL A   1      36.075  21.439  24.955  1.00  0.00     0.023 C 
ENDROOT
BRANCH   1   2
ATOM      2  C   UNL A   1      35.674  21.635  26.430  1.00  0.00     0.116 C 
BRANCH   2   3
ATOM      3  N   UNL A   1      34.756  22.773  26.702  1.00  0.00    -0.354 N 
ATOM      4  C   UNL A   1      34.415  23.748  25.729  1.00  0.00     0.242 C 
ATOM      5  O   UNL A   1      35.450  24.484  25.769  1.00  0.00    -0.273 OA
ATOM      6  H   UNL A   1      34.366  22.854  27.602  1.00  0.00     0.163 HD
BRANCH   4   7
ATOM      7  C   UNL A   1      32.648  24.125  24.649  1.00  0.00     0.174 C 
BRANCH   7   8
ATOM      8  C   UNL A   1      32.355  22.933  23.182  1.00  0.00     0.015 C 
ATOM      9  C   UNL A   1      33.029  23.749  21.925  1.00  0.00     0.010 C 
ATOM     10  C   UNL A   1      32.429  20.932  23.766  1.00  0.00     0.010 C 
ENDBRANCH   7   8
BRANCH   7  11
ATOM     11  N   UNL A   1      31.219  24.363  25.099  1.00  0.00    -0.339 N 
ATOM     12  C   UNL A   1      30.890  25.673  24.939  1.00  0.00     0.278 C 
ATOM     13  H   UNL A   1      30.617  23.669  25.454  1.00  0.00     0.164 HD
ATOM     14  O   UNL A   1      29.800  26.182  24.844  1.00  0.00    -0.268 OA
BRANCH  12  15
ATOM     15  C   UNL A   1      32.261  26.247  24.927  1.00  0.00     0.272 C 
ATOM     16  C   UNL A   1      32.365  27.086  26.638  1.00  0.00     0.076 C 
ATOM     17  N   UNL A   1      32.206  27.214  23.358  1.00  0.00    -0.333 N 
ATOM     18  C   UNL A   1      32.170  28.961  26.855  1.00  0.00     0.016 C 
ATOM     19  C   UNL A   1      31.801  28.983  23.451  1.00  0.00     0.186 C 
ATOM     20  H   UNL A   1      31.507  26.775  22.758  1.00  0.00     0.347 HD
ATOM     21  H   UNL A   1      33.166  27.193  23.014  1.00  0.00     0.347 HD
ATOM     22  C   UNL A   1      31.596  29.977  25.319  1.00  0.00     0.048 C 
ATOM     23  C   UNL A   1      30.501  29.293  22.057  1.00  0.00     0.065 C 
ATOM     24  C   UNL A   1      30.437  31.498  25.358  1.00  0.00     0.010 C 
ATOM     25  C   UNL A   1      29.176  30.616  22.410  1.00  0.00     0.006 C 
ATOM     26  C   UNL A   1      29.107  31.641  24.011  1.00  0.00     0.001 C 
ENDBRANCH  12  15
ENDBRANCH   7  11
ENDBRANCH   4   7
ENDBRANCH   2   3
ENDBRANCH   1   2
BRANCH   1  27
ATOM     27  C   UNL A   1      37.549  21.562  24.587  1.00  0.00     0.023 C 
BRANCH  27  28
ATOM     28  C   UNL A   1      38.535  21.313  25.703  1.00  0.00     0.116 C 
BRANCH  28  29
ATOM     29  N   UNL A   1      39.254  20.056  25.609  1.00  0.00    -0.352 N 
ATOM     30  C   UNL A   1      40.582  19.864  25.927  1.00  0.00     0.251 C 
ATOM     31  H   UNL A   1      38.750  19.273  25.289  1.00  0.00     0.163 HD
ATOM     32  O   UNL A   1      41.166  18.818  25.678  1.00  0.00    -0.269 OA
BRANCH  30  33
ATOM     33  C   UNL A   1      41.301  21.007  26.527  1.00  0.00     0.039 A 
ATOM     34  C   UNL A   1      41.883  21.955  25.684  1.00  0.00     0.014 A 
ATOM     35  C   UNL A   1      41.243  21.213  27.907  1.00  0.00     0.014 A 
ATOM     36  C   UNL A   1      42.322  23.165  26.224  1.00  0.00     0.010 A 
ATOM     37  C   UNL A   1      41.603  22.449  28.428  1.00  0.00     0.010 A 
ATOM     38  C   UNL A   1      42.132  23.442  27.589  1.00  0.00    -0.014 A 
BRANCH  38  39
ATOM     39  C   UNL A   1      42.450  24.780  28.148  1.00  0.00     0.031 A 
ATOM     40  C   UNL A   1      43.856  25.117  28.552  1.00  0.00     0.074 A 
ATOM     41  C   UNL A   1      41.455  25.660  28.372  1.00  0.00     0.049 A 
ATOM     42  N   UNL A   1      44.316  26.212  29.100  1.00  0.00    -0.248 NA
ATOM     43  C   UNL A   1      44.871  24.072  28.350  1.00  0.00     0.031 C 
ATOM     44  C   UNL A   1      40.031  25.419  28.121  1.00  0.00     0.029 A 
ATOM     45  N   UNL A   1      41.491  26.939  28.867  1.00  0.00    -0.354 N 
ATOM     46  C   UNL A   1      45.661  25.970  29.350  1.00  0.00     0.074 A 
ATOM     47  C   UNL A   1      45.937  24.618  28.915  1.00  0.00     0.031 C 
ATOM     48  C   UNL A   1      39.337  26.527  28.431  1.00  0.00     0.029 A 
ATOM     49  C   UNL A   1      40.262  27.549  28.907  1.00  0.00     0.049 A 
ATOM     50  H   UNL A   1      42.321  27.378  29.166  1.00  0.00     0.167 HD
ATOM     51  C   UNL A   1      46.585  26.804  29.882  1.00  0.00     0.037 A 
ATOM     52  C   UNL A   1      39.924  28.802  29.265  1.00  0.00     0.037 A 
ATOM     53  C   UNL A   1      46.330  28.168  30.256  1.00  0.00     0.049 A 
ATOM     54  C   UNL A   1      40.998  29.763  29.682  1.00  0.00     0.074 A 
ATOM     55  C   UNL A   1      47.209  29.111  30.758  1.00  0.00     0.029 A 
ATOM     56  N   UNL A   1      45.097  28.791  30.140  1.00  0.00    -0.354 N 
ATOM     57  N   UNL A   1      42.278  29.541  29.858  1.00  0.00    -0.248 NA
ATOM     58  C   UNL A   1      40.588  31.154  29.927  1.00  0.00     0.031 C 
ATOM     59  C   UNL A   1      46.509  30.311  30.937  1.00  0.00     0.029 A 
ATOM     60  C   UNL A   1      45.198  30.113  30.536  1.00  0.00     0.049 A 
ATOM     61  H   UNL A   1      44.272  28.357  29.823  1.00  0.00     0.167 HD
ATOM     62  C   UNL A   1      42.830  30.765  30.208  1.00  0.00     0.074 A 
ATOM     63  C   UNL A   1      41.748  31.728  30.214  1.00  0.00     0.031 C 
ATOM     64  C   UNL A   1      44.118  31.061  30.500  1.00  0.00     0.037 A 
BRANCH  51  65
ATOM     65  C   UNL A   1      47.963  26.251  30.072  1.00  0.00     0.057 A 
ATOM     66  C   UNL A   1      48.365  25.695  31.293  1.00  0.00     0.134 A 
ATOM     67  C   UNL A   1      48.900  26.293  29.034  1.00  0.00     0.134 A 
ATOM     68  F   UNL A   1      47.517  25.648  32.331  1.00  0.00    -0.206 F 
ATOM     69  C   UNL A   1      49.664  25.222  31.483  1.00  0.00     0.040 A 
ATOM     70  C   UNL A   1      50.197  25.806  29.206  1.00  0.00     0.040 A 
ATOM     71  F   UNL A   1      48.575  26.817  27.842  1.00  0.00    -0.206 F 
ATOM     72  C   UNL A   1      50.583  25.275  30.436  1.00  0.00     0.006 A 
ENDBRANCH  51  65
BRANCH  52  73
ATOM     73  C   UNL A   1      38.516  29.247  29.157  1.00  0.00     0.057 A 
ATOM     74  C   UNL A   1      38.000  29.690  27.933  1.00  0.00     0.134 A 
ATOM     75  C   UNL A   1      37.661  29.244  30.262  1.00  0.00     0.134 A 
ATOM     76  F   UNL A   1      38.782  29.727  26.845  1.00  0.00    -0.206 F 
ATOM     77  C   UNL A   1      36.682  30.131  27.815  1.00  0.00     0.040 A 
ATOM     78  C   UNL A   1      36.336  29.671  30.155  1.00  0.00     0.040 A 
ATOM     79  F   UNL A   1      38.099  28.823  31.457  1.00  0.00    -0.206 F 
ATOM     80  C   UNL A   1      35.845  30.121  28.929  1.00  0.00     0.006 A 
ENDBRANCH  52  73
BRANCH  64  81
ATOM     81  C   UNL A   1      44.433  32.491  30.805  1.00  0.00     0.057 A 
ATOM     82  C   UNL A   1      44.365  32.995  32.108  1.00  0.00     0.134 A 
ATOM     83  C   UNL A   1      44.839  33.360  29.785  1.00  0.00     0.134 A 
ATOM     84  F   UNL A   1      43.970  32.210  33.121  1.00  0.00    -0.206 F 
ATOM     85  C   UNL A   1      44.684  34.324  32.387  1.00  0.00     0.040 A 
ATOM     86  C   UNL A   1      45.170  34.688  30.054  1.00  0.00     0.040 A 
ATOM     87  F   UNL A   1      44.920  32.932  28.517  1.00  0.00    -0.206 F 
ATOM     88  C   UNL A   1      45.091  35.173  31.359  1.00  0.00     0.006 A 
ENDBRANCH  64  81
ENDBRANCH  38  39
ENDBRANCH  30  33
ENDBRANCH  28  29
ENDBRANCH  27  28
ENDBRANCH   1  27
TORSDOF 14
ENDMDL
MODEL 2
REMARK VINA RESULT:     -12.4      0.543      6.242
REMARK SMILES CC(C)[C@@H](NC(=O)[C@@H]1CC[C@@H]2CCCC[C@@H]2[NH2+]1)C(=O)NCCCCNC(=O)c1ccc(-c2c3nc(c(-c4c(F)cccc4F)c4ccc([nH]4)c(-c4c(F)cccc4F)c4nc(c(-c5c(F)cccc5F)c5ccc2[nH]5)C=C4)C=C3)cc1
REMARK SMILES IDX 22 1 21 2 20 3 18 4 19 5 4 7 2 8 1 9 3 10 5 11 6 12 7 14
REMARK SMILES IDX 8 15 9 16 17 17 10 18 16 19 11 22 15 23 12 24 14 25 13 26
REMARK SMILES IDX 23 27 24 28 25 29 26 30 27 32 28 33 29 34 81 35 30 36 80 37
REMARK SMILES IDX 31 38 32 39 33 40 74 41 34 42 79 43 73 44 75 45 35 46 78 47
REMARK SMILES IDX 72 48 71 49 36 51 62 52 45 53 61 54 46 55 49 56 60 57 76 58
REMARK SMILES IDX 47 59 48 60 59 62 77 63 50 64 37 65 38 66 43 67 39 68 40 69
REMARK SMILES IDX 42 70 44 71 41 72 63 73 64 74 69 75 65 76 66 77 68 78 70 79
REMARK SMILES IDX 67 80 51 81 52 82 57 83 53 84 54 85 56 86 58 87 55 88
REMARK H PARENT 20 6 5 13 17 20 17 21 25 31 75 50 49 61
REMARK Flexibility Score: inf
ROOT
ATOM      1  C   UNL A   1      36.012  21.459  24.942  1.00  0.00     0.023 C 
ENDROOT
BRANCH   1   2
ATOM      2  C   UNL A   1      35.571  21.613  26.410  1.00  0.00     0.116 C 
BRANCH   2   3
ATOM      3  N   UNL A   1      34.659  22.753  26.693  1.00  0.00    -0.354 N 
ATOM      4  C   UNL A   1      34.345  23.754  25.738  1.00  0.00     0.242 C 
ATOM      5  O   UNL A   1      35.385  24.479  25.815  1.00  0.00    -0.273 OA
ATOM      6  H   UNL A   1      34.253  22.815  27.587  1.00  0.00     0.163 HD
BRANCH   4   7
ATOM      7  C   UNL A   1      32.601  24.174  24.636  1.00  0.00     0.174 C 
BRANCH   7   8
ATOM      8  C   UNL A   1      32.336  23.036  23.121  1.00  0.00     0.015 C 
ATOM      9  C   UNL A   1      33.013  23.908  21.903  1.00  0.00     0.010 C 
ATOM     10  C   UNL A   1      32.430  21.015  23.628  1.00  0.00     0.010 C 
ENDBRANCH   7   8
BRANCH   7  11
ATOM     11  N   UNL A   1      31.164  24.399  25.064  1.00  0.00    -0.339 N 
ATOM     12  C   UNL A   1      30.833  25.710  24.922  1.00  0.00     0.278 C 
ATOM     13  H   UNL A   1      30.557  23.697  25.396  1.00  0.00     0.164 HD
ATOM     14  O   UNL A   1      29.743  26.217  24.817  1.00  0.00    -0.268 OA
BRANCH  12  15
ATOM     15  C   UNL A   1      32.202  26.289  24.945  1.00  0.00     0.272 C 
ATOM     16  C   UNL A   1      32.259  27.128  26.657  1.00  0.00     0.076 C 
ATOM     17  N   UNL A   1      32.184  27.255  23.375  1.00  0.00    -0.333 N 
ATOM     18  C   UNL A   1      32.052  29.004  26.869  1.00  0.00     0.016 C 
ATOM     19  C   UNL A   1      31.772  29.023  23.456  1.00  0.00     0.186 C 
ATOM     20  H   UNL A   1      31.503  26.814  22.757  1.00  0.00     0.347 HD
ATOM     21  H   UNL A   1      33.153  27.237  23.056  1.00  0.00     0.347 HD
ATOM     22  C   UNL A   1      31.514  30.017  25.318  1.00  0.00     0.048 C 
ATOM     23  C   UNL A   1      30.507  29.328  22.029  1.00  0.00     0.065 C 
ATOM     24  C   UNL A   1      30.350  31.535  25.326  1.00  0.00     0.010 C 
ATOM     25  C   UNL A   1      29.168  30.647  22.347  1.00  0.00     0.006 C 
ATOM     26  C   UNL A   1      29.055  31.672  23.945  1.00  0.00     0.001 C 
ENDBRANCH  12  15
ENDBRANCH   7  11
ENDBRANCH   4   7
ENDBRANCH   2   3
ENDBRANCH   1   2
BRANCH   1  27
ATOM     27  C   UNL A   1      37.452  21.809  24.582  1.00  0.00     0.023 C 
BRANCH  27  28
ATOM     28  C   UNL A   1      38.484  21.556  25.655  1.00  0.00     0.116 C 
BRANCH  28  29
ATOM     29  N   UNL A   1      39.112  20.249  25.598  1.00  0.00    -0.352 N 
ATOM     30  C   UNL A   1      40.414  19.968  25.957  1.00  0.00     0.251 C 
ATOM     31  H   UNL A   1      38.562  19.500  25.275  1.00  0.00     0.163 HD
ATOM     32  O   UNL A   1      40.927  18.878  25.739  1.00  0.00    -0.269 OA
BRANCH  30  33
ATOM     33  C   UNL A   1      41.197  21.065  26.562  1.00  0.00     0.039 A 
ATOM     34  C   UNL A   1      41.794  22.008  25.725  1.00  0.00     0.014 A 
ATOM     35  C   UNL A   1      41.186  21.239  27.948  1.00  0.00     0.014 A 
ATOM     36  C   UNL A   1      42.299  23.185  26.280  1.00  0.00     0.010 A 
ATOM     37  C   UNL A   1      41.612  22.447  28.487  1.00  0.00     0.010 A 
ATOM     38  C   UNL A   1      42.159  23.437  27.656  1.00  0.00    -0.014 A 
BRANCH  38  39
ATOM     39  C   UNL A   1      42.548  24.746  28.236  1.00  0.00     0.031 A 
ATOM     40  C   UNL A   1      41.513  25.806  28.474  1.00  0.00     0.074 A 
ATOM     41  C   UNL A   1      43.849  25.011  28.466  1.00  0.00     0.049 A 
ATOM     42  N   UNL A   1      41.669  27.025  28.926  1.00  0.00    -0.248 NA
ATOM     43  C   UNL A   1      40.125  25.468  28.121  1.00  0.00     0.031 C 
ATOM     44  C   UNL A   1      44.967  24.106  28.180  1.00  0.00     0.029 A 
ATOM     45  N   UNL A   1      44.453  26.126  28.991  1.00  0.00    -0.354 N 
ATOM     46  C   UNL A   1      40.411  27.611  28.868  1.00  0.00     0.074 A 
ATOM     47  C   UNL A   1      39.508  26.623  28.316  1.00  0.00     0.031 C 
ATOM     48  C   UNL A   1      46.114  24.689  28.567  1.00  0.00     0.029 A 
ATOM     49  C   UNL A   1      45.815  26.006  29.118  1.00  0.00     0.049 A 
ATOM     50  H   UNL A   1      43.956  26.935  29.251  1.00  0.00     0.167 HD
ATOM     51  C   UNL A   1      40.039  28.854  29.252  1.00  0.00     0.037 A 
ATOM     52  C   UNL A   1      46.717  26.855  29.645  1.00  0.00     0.037 A 
ATOM     53  C   UNL A   1      40.919  29.814  29.859  1.00  0.00     0.049 A 
ATOM     54  C   UNL A   1      46.250  28.156  30.226  1.00  0.00     0.074 A 
ATOM     55  C   UNL A   1      40.630  31.084  30.328  1.00  0.00     0.029 A 
ATOM     56  N   UNL A   1      42.266  29.594  30.104  1.00  0.00    -0.354 N 
ATOM     57  N   UNL A   1      45.047  28.676  30.220  1.00  0.00    -0.248 NA
ATOM     58  C   UNL A   1      47.259  28.980  30.910  1.00  0.00     0.031 C 
ATOM     59  C   UNL A   1      41.802  31.628  30.868  1.00  0.00     0.029 A 
ATOM     60  C   UNL A   1      42.815  30.691  30.741  1.00  0.00     0.049 A 
ATOM     61  H   UNL A   1      42.758  28.776  29.861  1.00  0.00     0.167 HD
ATOM     62  C   UNL A   1      45.146  29.871  30.918  1.00  0.00     0.074 A 
ATOM     63  C   UNL A   1      46.526  29.998  31.340  1.00  0.00     0.031 C 
ATOM     64  C   UNL A   1      44.181  30.781  31.183  1.00  0.00     0.037 A 
BRANCH  51  65
ATOM     65  C   UNL A   1      38.607  29.228  29.032  1.00  0.00     0.057 A 
ATOM     66  C   UNL A   1      37.671  29.185  30.073  1.00  0.00     0.134 A 
ATOM     67  C   UNL A   1      38.156  29.616  27.765  1.00  0.00     0.134 A 
ATOM     68  F   UNL A   1      38.042  28.800  31.304  1.00  0.00    -0.206 F 
ATOM     69  C   UNL A   1      36.327  29.490  29.856  1.00  0.00     0.040 A 
ATOM     70  C   UNL A   1      36.817  29.941  27.540  1.00  0.00     0.040 A 
ATOM     71  F   UNL A   1      39.003  29.674  26.727  1.00  0.00    -0.206 F 
ATOM     72  C   UNL A   1      35.898  29.871  28.586  1.00  0.00     0.006 A 
ENDBRANCH  51  65
BRANCH  52  73
ATOM     73  C   UNL A   1      48.142  26.462  29.727  1.00  0.00     0.057 A 
ATOM     74  C   UNL A   1      48.626  25.765  30.840  1.00  0.00     0.134 A 
ATOM     75  C   UNL A   1      49.047  26.771  28.708  1.00  0.00     0.134 A 
ATOM     76  F   UNL A   1      47.803  25.457  31.853  1.00  0.00    -0.206 F 
ATOM     77  C   UNL A   1      49.969  25.402  30.946  1.00  0.00     0.040 A 
ATOM     78  C   UNL A   1      50.390  26.403  28.794  1.00  0.00     0.040 A 
ATOM     79  F   UNL A   1      48.637  27.430  27.614  1.00  0.00    -0.206 F 
ATOM     80  C   UNL A   1      50.855  25.720  29.919  1.00  0.00     0.006 A 
ENDBRANCH  52  73
BRANCH  64  81
ATOM     81  C   UNL A   1      44.573  31.969  32.003  1.00  0.00     0.057 A 
ATOM     82  C   UNL A   1      45.059  33.140  31.412  1.00  0.00     0.134 A 
ATOM     83  C   UNL A   1      44.431  31.946  33.396  1.00  0.00     0.134 A 
ATOM     84  F   UNL A   1      45.227  33.212  30.084  1.00  0.00    -0.206 F 
ATOM     85  C   UNL A   1      45.400  34.252  32.183  1.00  0.00     0.040 A 
ATOM     86  C   UNL A   1      44.759  33.055  34.175  1.00  0.00     0.040 A 
ATOM     87  F   UNL A   1      43.972  30.850  34.017  1.00  0.00    -0.206 F 
ATOM     88  C   UNL A   1      45.247  34.212  33.568  1.00  0.00     0.006 A 
ENDBRANCH  64  81
ENDBRANCH  38  39
ENDBRANCH  30  33
ENDBRANCH  28  29
ENDBRANCH  27  28
ENDBRANCH   1  27
TORSDOF 14
ENDMDL
MODEL 3
REMARK VINA RESULT:     -12.2      2.994      8.779
REMARK SMILES CC(C)[C@@H](NC(=O)[C@@H]1CC[C@@H]2CCCC[C@@H]2[NH2+]1)C(=O)NCCCCNC(=O)c1ccc(-c2c3nc(c(-c4c(F)cccc4F)c4ccc([nH]4)c(-c4c(F)cccc4F)c4nc(c(-c5c(F)cccc5F)c5ccc2[nH]5)C=C4)C=C3)cc1
REMARK SMILES IDX 22 1 21 2 20 3 18 4 19 5 4 7 2 8 1 9 3 10 5 11 6 12 7 14
REMARK SMILES IDX 8 15 9 16 17 17 10 18 16 19 11 22 15 23 12 24 14 25 13 26
REMARK SMILES IDX 23 27 24 28 25 29 26 30 27 32 28 33 29 34 81 35 30 36 80 37
REMARK SMILES IDX 31 38 32 39 33 40 74 41 34 42 79 43 73 44 75 45 35 46 78 47
REMARK SMILES IDX 72 48 71 49 36 51 62 52 45 53 61 54 46 55 49 56 60 57 76 58
REMARK SMILES IDX 47 59 48 60 59 62 77 63 50 64 37 65 38 66 43 67 39 68 40 69
REMARK SMILES IDX 42 70 44 71 41 72 63 73 64 74 69 75 65 76 66 77 68 78 70 79
REMARK SMILES IDX 67 80 51 81 52 82 57 83 53 84 54 85 56 86 58 87 55 88
REMARK H PARENT 20 6 5 13 17 20 17 21 25 31 75 50 49 61
REMARK Flexibility Score: inf
ROOT
ATOM      1  C   UNL A   1      32.058  29.626  25.817  1.00  0.00     0.023 C 
ENDROOT
BRANCH   1   2
ATOM      2  C   UNL A   1      33.304  29.696  24.914  1.00  0.00     0.116 C 
BRANCH   2   3
ATOM      3  N   UNL A   1      33.887  28.387  24.515  1.00  0.00    -0.354 N 
ATOM      4  C   UNL A   1      33.469  27.149  25.070  1.00  0.00     0.242 C 
ATOM      5  O   UNL A   1      34.097  27.169  26.174  1.00  0.00    -0.273 OA
ATOM      6  H   UNL A   1      34.596  28.380  23.834  1.00  0.00     0.163 HD
BRANCH   4   7
ATOM      7  C   UNL A   1      32.349  25.546  24.291  1.00  0.00     0.174 C 
BRANCH   7   8
ATOM      8  C   UNL A   1      30.456  25.819  24.330  1.00  0.00     0.015 C 
ATOM      9  C   UNL A   1      30.061  25.323  25.847  1.00  0.00     0.010 C 
ATOM     10  C   UNL A   1      29.874  27.464  23.188  1.00  0.00     0.010 C 
ENDBRANCH   7   8
BRANCH   7  11
ATOM     11  N   UNL A   1      32.485  24.746  23.010  1.00  0.00    -0.339 N 
ATOM     12  C   UNL A   1      33.006  23.519  23.277  1.00  0.00     0.278 C 
ATOM     13  H   UNL A   1      32.231  25.068  22.114  1.00  0.00     0.164 HD
ATOM     14  O   UNL A   1      32.944  22.503  22.628  1.00  0.00    -0.268 OA
BRANCH  12  15
ATOM     15  C   UNL A   1      33.656  23.831  24.577  1.00  0.00     0.272 C 
ATOM     16  C   UNL A   1      35.505  23.863  24.110  1.00  0.00     0.076 C 
ATOM     17  N   UNL A   1      32.931  22.510  25.640  1.00  0.00    -0.333 N 
ATOM     18  C   UNL A   1      36.668  22.413  24.497  1.00  0.00     0.016 C 
ATOM     19  C   UNL A   1      33.884  20.983  25.885  1.00  0.00     0.186 C 
ATOM     20  H   UNL A   1      32.037  22.246  25.225  1.00  0.00     0.347 HD
ATOM     21  H   UNL A   1      32.884  22.930  26.569  1.00  0.00     0.347 HD
ATOM     22  C   UNL A   1      35.867  20.782  25.147  1.00  0.00     0.048 C 
ATOM     23  C   UNL A   1      32.624  19.539  25.640  1.00  0.00     0.065 C 
ATOM     24  C   UNL A   1      36.453  19.010  24.729  1.00  0.00     0.010 C 
ATOM     25  C   UNL A   1      33.308  17.937  24.866  1.00  0.00     0.006 C 
ATOM     26  C   UNL A   1      35.130  17.694  24.379  1.00  0.00     0.001 C 
ENDBRANCH  12  15
ENDBRANCH   7  11
ENDBRANCH   4   7
ENDBRANCH   2   3
ENDBRANCH   1   2
BRANCH   1  27
ATOM     27  C   UNL A   1      32.093  30.360  27.152  1.00  0.00     0.023 C 
BRANCH  27  28
ATOM     28  C   UNL A   1      33.106  31.474  27.271  1.00  0.00     0.116 C 
BRANCH  28  29
ATOM     29  N   UNL A   1      32.535  32.799  27.430  1.00  0.00    -0.352 N 
ATOM     30  C   UNL A   1      33.067  33.816  28.195  1.00  0.00     0.251 C 
ATOM     31  H   UNL A   1      31.696  32.988  26.951  1.00  0.00     0.163 HD
ATOM     32  O   UNL A   1      32.457  34.854  28.411  1.00  0.00    -0.269 OA
BRANCH  30  33
ATOM     33  C   UNL A   1      34.389  33.574  28.809  1.00  0.00     0.039 A 
ATOM     34  C   UNL A   1      34.459  32.850  30.000  1.00  0.00     0.014 A 
ATOM     35  C   UNL A   1      35.549  33.920  28.110  1.00  0.00     0.014 A 
ATOM     36  C   UNL A   1      35.699  32.385  30.440  1.00  0.00     0.010 A 
ATOM     37  C   UNL A   1      36.769  33.386  28.506  1.00  0.00     0.010 A 
ATOM     38  C   UNL A   1      36.853  32.601  29.666  1.00  0.00    -0.014 A 
BRANCH  38  39
ATOM     39  C   UNL A   1      38.149  31.982  30.040  1.00  0.00     0.031 A 
ATOM     40  C   UNL A   1      39.080  32.687  30.982  1.00  0.00     0.074 A 
ATOM     41  C   UNL A   1      38.524  30.825  29.461  1.00  0.00     0.049 A 
ATOM     42  N   UNL A   1      40.272  32.328  31.386  1.00  0.00    -0.248 NA
ATOM     43  C   UNL A   1      38.632  33.986  31.508  1.00  0.00     0.031 C 
ATOM     44  C   UNL A   1      37.758  30.089  28.450  1.00  0.00     0.029 A 
ATOM     45  N   UNL A   1      39.652  30.064  29.638  1.00  0.00    -0.354 N 
ATOM     46  C   UNL A   1      40.733  33.374  32.174  1.00  0.00     0.074 A 
ATOM     47  C   UNL A   1      39.703  34.391  32.173  1.00  0.00     0.031 C 
ATOM     48  C   UNL A   1      38.422  28.967  28.126  1.00  0.00     0.029 A 
ATOM     49  C   UNL A   1      39.659  28.908  28.896  1.00  0.00     0.049 A 
ATOM     50  H   UNL A   1      40.387  30.322  30.241  1.00  0.00     0.167 HD
ATOM     51  C   UNL A   1      41.901  33.472  32.849  1.00  0.00     0.037 A 
ATOM     52  C   UNL A   1      40.553  27.903  28.862  1.00  0.00     0.037 A 
ATOM     53  C   UNL A   1      42.898  32.439  32.905  1.00  0.00     0.049 A 
ATOM     54  C   UNL A   1      41.756  27.957  29.757  1.00  0.00     0.074 A 
ATOM     55  C   UNL A   1      44.095  32.421  33.600  1.00  0.00     0.029 A 
ATOM     56  N   UNL A   1      42.795  31.220  32.253  1.00  0.00    -0.354 N 
ATOM     57  N   UNL A   1      42.152  28.926  30.545  1.00  0.00    -0.248 NA
ATOM     58  C   UNL A   1      42.623  26.770  29.778  1.00  0.00     0.031 C 
ATOM     59  C   UNL A   1      44.712  31.184  33.376  1.00  0.00     0.029 A 
ATOM     60  C   UNL A   1      43.892  30.432  32.550  1.00  0.00     0.049 A 
ATOM     61  H   UNL A   1      42.050  30.953  31.666  1.00  0.00     0.167 HD
ATOM     62  C   UNL A   1      43.297  28.459  31.174  1.00  0.00     0.074 A 
ATOM     63  C   UNL A   1      43.530  27.116  30.682  1.00  0.00     0.031 C 
ATOM     64  C   UNL A   1      44.085  29.087  32.077  1.00  0.00     0.037 A 
BRANCH  51  65
ATOM     65  C   UNL A   1      42.146  34.749  33.592  1.00  0.00     0.057 A 
ATOM     66  C   UNL A   1      41.733  34.914  34.920  1.00  0.00     0.134 A 
ATOM     67  C   UNL A   1      42.783  35.828  32.968  1.00  0.00     0.134 A 
ATOM     68  F   UNL A   1      41.098  33.922  35.562  1.00  0.00    -0.206 F 
ATOM     69  C   UNL A   1      41.920  36.120  35.595  1.00  0.00     0.040 A 
ATOM     70  C   UNL A   1      42.993  37.033  33.640  1.00  0.00     0.040 A 
ATOM     71  F   UNL A   1      43.200  35.732  31.697  1.00  0.00    -0.206 F 
ATOM     72  C   UNL A   1      42.555  37.184  34.955  1.00  0.00     0.006 A 
ENDBRANCH  51  65
BRANCH  52  73
ATOM     73  C   UNL A   1      40.299  26.716  28.014  1.00  0.00     0.057 A 
ATOM     74  C   UNL A   1      40.872  26.615  26.740  1.00  0.00     0.134 A 
ATOM     75  C   UNL A   1      39.486  25.666  28.447  1.00  0.00     0.134 A 
ATOM     76  F   UNL A   1      41.648  27.601  26.269  1.00  0.00    -0.206 F 
ATOM     77  C   UNL A   1      40.629  25.514  25.917  1.00  0.00     0.040 A 
ATOM     78  C   UNL A   1      39.245  24.553  27.640  1.00  0.00     0.040 A 
ATOM     79  F   UNL A   1      38.918  25.706  29.662  1.00  0.00    -0.206 F 
ATOM     80  C   UNL A   1      39.814  24.479  26.368  1.00  0.00     0.006 A 
ENDBRANCH  52  73
BRANCH  64  81
ATOM     81  C   UNL A   1      45.243  28.314  32.624  1.00  0.00     0.057 A 
ATOM     82  C   UNL A   1      46.504  28.358  32.020  1.00  0.00     0.134 A 
ATOM     83  C   UNL A   1      45.097  27.545  33.784  1.00  0.00     0.134 A 
ATOM     84  F   UNL A   1      46.697  29.069  30.899  1.00  0.00    -0.206 F 
ATOM     85  C   UNL A   1      47.585  27.652  32.550  1.00  0.00     0.040 A 
ATOM     86  C   UNL A   1      46.173  26.844  34.328  1.00  0.00     0.040 A 
ATOM     87  F   UNL A   1      43.911  27.465  34.404  1.00  0.00    -0.206 F 
ATOM     88  C   UNL A   1      47.421  26.895  33.709  1.00  0.00     0.006 A 
ENDBRANCH  64  81
ENDBRANCH  38  39
ENDBRANCH  30  33
ENDBRANCH  28  29
ENDBRANCH  27  28
ENDBRANCH   1  27
TORSDOF 14
ENDMDL
