MODEL 1
REMARK VINA RESULT:     -12.6      0.000      0.000
REMARK SMILES COc1cc2c(CC(=O)NCCCCNC(=O)c3ccc(-c4c5nc(c(-c6c(F)cccc6F)c6ccc([nH]6)c(-c6c(F)cccc6F)c6nc(c(-c7c(F)cccc7F)c7ccc4[nH]7)C=C6)C=C5)cc3)c(C)n(C(=O)c3ccc(Cl)cc3)c2cc1Cl
REMARK SMILES IDX 12 1 11 2 10 3 8 4 9 5 7 7 6 8 3 9 4 10 86 11 5 12 85 13
REMARK SMILES IDX 87 14 84 15 72 16 74 17 73 18 2 19 1 20 75 21 76 22 77 23
REMARK SMILES IDX 78 24 83 25 79 26 82 27 80 28 81 29 13 30 14 31 15 32 16 33
REMARK SMILES IDX 17 35 18 36 19 37 71 38 20 39 70 40 21 41 22 42 23 43 64 44
REMARK SMILES IDX 24 45 69 46 63 47 65 48 25 49 68 50 62 51 61 52 26 54 52 55
REMARK SMILES IDX 35 56 51 57 36 58 39 59 50 60 66 61 37 62 38 63 49 65 67 66
REMARK SMILES IDX 40 67 27 68 28 69 33 70 29 71 30 72 32 73 34 74 31 75 53 76
REMARK SMILES IDX 54 77 59 78 55 79 56 80 58 81 60 82 57 83 41 84 42 85 47 86
REMARK SMILES IDX 43 87 44 88 46 89 48 90 45 91
REMARK H PARENT 10 6 15 34 65 53 39 64
REMARK Flexibility Score: inf
ROOT
ATOM      1  C   UNL A   1      40.625  21.280  27.180  1.00  0.00     0.023 C 
ENDROOT
BRANCH   1   2
ATOM      2  C   UNL A   1      39.516  22.276  26.844  1.00  0.00     0.116 C 
BRANCH   2   3
ATOM      3  N   UNL A   1      38.965  22.047  25.525  1.00  0.00    -0.356 N 
ATOM      4  C   UNL A   1      37.651  21.981  25.157  1.00  0.00     0.224 C 
ATOM      5  O   UNL A   1      37.385  21.774  23.971  1.00  0.00    -0.275 OA
ATOM      6  H   UNL A   1      39.620  21.923  24.800  1.00  0.00     0.163 HD
BRANCH   4   7
ATOM      7  C   UNL A   1      36.556  22.218  26.187  1.00  0.00     0.138 C 
BRANCH   7   8
ATOM      8  C   UNL A   1      35.168  22.014  25.645  1.00  0.00    -0.009 A 
ATOM      9  C   UNL A   1      34.429  18.492  24.336  1.00  0.00     0.138 A 
ATOM     10  C   UNL A   1      35.190  19.508  24.928  1.00  0.00     0.058 A 
ATOM     11  C   UNL A   1      33.124  18.753  23.936  1.00  0.00     0.085 A 
ATOM     12  C   UNL A   1      34.643  20.800  25.116  1.00  0.00     0.008 A 
ATOM     13  C   UNL A   1      32.587  20.037  24.068  1.00  0.00     0.051 A 
ATOM     14  Cl  UNL A   1      32.060  17.527  23.341  1.00  0.00    -0.080 Cl
ATOM     15  C   UNL A   1      33.328  21.050  24.713  1.00  0.00     0.058 A 
ATOM     16  C   UNL A   1      34.176  22.982  25.514  1.00  0.00     0.028 A 
ATOM     17  N   UNL A   1      32.988  22.350  25.122  1.00  0.00    -0.280 N 
ATOM     18  C   UNL A   1      34.294  24.450  25.793  1.00  0.00     0.065 C 
BRANCH   9  19
ATOM     19  O   UNL A   1      35.024  17.261  24.252  1.00  0.00    -0.495 OA
ATOM     20  C   UNL A   1      34.555  16.365  25.261  1.00  0.00     0.278 C 
ENDBRANCH   9  19
BRANCH  17  21
ATOM     21  C   UNL A   1      31.678  22.927  25.165  1.00  0.00     0.262 C 
ATOM     22  O   UNL A   1      30.821  22.413  25.853  1.00  0.00    -0.268 OA
BRANCH  21  23
ATOM     23  C   UNL A   1      31.274  24.129  24.408  1.00  0.00     0.040 A 
ATOM     24  C   UNL A   1      31.690  24.314  23.084  1.00  0.00     0.015 A 
ATOM     25  C   UNL A   1      30.521  25.104  25.068  1.00  0.00     0.015 A 
ATOM     26  C   UNL A   1      31.425  25.532  22.451  1.00  0.00     0.021 A 
ATOM     27  C   UNL A   1      30.249  26.313  24.426  1.00  0.00     0.021 A 
ATOM     28  C   UNL A   1      30.720  26.529  23.129  1.00  0.00     0.041 A 
ATOM     29  Cl  UNL A   1      30.454  28.051  22.372  1.00  0.00    -0.084 Cl
ENDBRANCH  21  23
ENDBRANCH  17  21
ENDBRANCH   7   8
ENDBRANCH   4   7
ENDBRANCH   2   3
ENDBRANCH   1   2
BRANCH   1  30
ATOM     30  C   UNL A   1      40.852  20.203  26.109  1.00  0.00     0.023 C 
BRANCH  30  31
ATOM     31  C   UNL A   1      42.114  19.363  26.323  1.00  0.00     0.116 C 
BRANCH  31  32
ATOM     32  N   UNL A   1      43.105  19.556  25.282  1.00  0.00    -0.352 N 
ATOM     33  C   UNL A   1      43.931  20.580  24.917  1.00  0.00     0.251 C 
ATOM     34  H   UNL A   1      43.203  18.767  24.704  1.00  0.00     0.163 HD
ATOM     35  O   UNL A   1      44.722  20.337  24.001  1.00  0.00    -0.269 OA
BRANCH  33  36
ATOM     36  C   UNL A   1      43.912  21.948  25.499  1.00  0.00     0.039 A 
ATOM     37  C   UNL A   1      44.614  22.356  26.632  1.00  0.00     0.014 A 
ATOM     38  C   UNL A   1      43.059  22.875  24.867  1.00  0.00     0.014 A 
ATOM     39  C   UNL A   1      44.414  23.619  27.169  1.00  0.00     0.010 A 
ATOM     40  C   UNL A   1      42.860  24.144  25.395  1.00  0.00     0.010 A 
ATOM     41  C   UNL A   1      43.505  24.493  26.575  1.00  0.00    -0.014 A 
BRANCH  41  42
ATOM     42  C   UNL A   1      43.300  25.777  27.230  1.00  0.00     0.031 A 
ATOM     43  C   UNL A   1      44.305  26.834  26.915  1.00  0.00     0.074 A 
ATOM     44  C   UNL A   1      42.232  26.029  28.010  1.00  0.00     0.049 A 
ATOM     45  N   UNL A   1      45.098  27.462  27.723  1.00  0.00    -0.248 NA
ATOM     46  C   UNL A   1      44.509  27.168  25.497  1.00  0.00     0.031 C 
ATOM     47  C   UNL A   1      41.025  25.220  28.190  1.00  0.00     0.029 A 
ATOM     48  N   UNL A   1      41.964  27.146  28.737  1.00  0.00    -0.354 N 
ATOM     49  C   UNL A   1      45.786  28.394  26.944  1.00  0.00     0.074 A 
ATOM     50  C   UNL A   1      45.476  28.082  25.573  1.00  0.00     0.031 C 
ATOM     51  C   UNL A   1      40.068  25.978  28.773  1.00  0.00     0.029 A 
ATOM     52  C   UNL A   1      40.638  27.271  29.119  1.00  0.00     0.049 A 
ATOM     53  H   UNL A   1      42.652  27.811  28.972  1.00  0.00     0.167 HD
ATOM     54  C   UNL A   1      46.405  29.477  27.493  1.00  0.00     0.037 A 
ATOM     55  C   UNL A   1      40.044  28.389  29.599  1.00  0.00     0.037 A 
ATOM     56  C   UNL A   1      46.673  29.280  28.893  1.00  0.00     0.049 A 
ATOM     57  C   UNL A   1      41.112  29.302  30.077  1.00  0.00     0.074 A 
ATOM     58  C   UNL A   1      47.396  28.361  29.632  1.00  0.00     0.029 A 
ATOM     59  N   UNL A   1      45.896  29.945  29.810  1.00  0.00    -0.354 N 
ATOM     60  N   UNL A   1      41.838  29.088  31.138  1.00  0.00    -0.248 NA
ATOM     61  C   UNL A   1      41.673  30.245  29.118  1.00  0.00     0.031 C 
ATOM     62  C   UNL A   1      46.638  28.172  30.826  1.00  0.00     0.029 A 
ATOM     63  C   UNL A   1      45.532  29.017  30.749  1.00  0.00     0.049 A 
ATOM     64  H   UNL A   1      45.650  30.898  29.796  1.00  0.00     0.167 HD
ATOM     65  C   UNL A   1      43.109  29.522  30.793  1.00  0.00     0.074 A 
ATOM     66  C   UNL A   1      42.928  30.303  29.571  1.00  0.00     0.031 C 
ATOM     67  C   UNL A   1      44.227  28.979  31.360  1.00  0.00     0.037 A 
BRANCH  54  68
ATOM     68  C   UNL A   1      46.426  30.854  26.863  1.00  0.00     0.057 A 
ATOM     69  C   UNL A   1      45.273  31.612  26.574  1.00  0.00     0.134 A 
ATOM     70  C   UNL A   1      47.632  31.585  26.857  1.00  0.00     0.134 A 
ATOM     71  F   UNL A   1      44.045  31.082  26.567  1.00  0.00    -0.206 F 
ATOM     72  C   UNL A   1      45.305  32.995  26.374  1.00  0.00     0.040 A 
ATOM     73  C   UNL A   1      47.668  32.977  26.707  1.00  0.00     0.040 A 
ATOM     74  F   UNL A   1      48.805  30.982  27.098  1.00  0.00    -0.206 F 
ATOM     75  C   UNL A   1      46.499  33.689  26.484  1.00  0.00     0.006 A 
ENDBRANCH  54  68
BRANCH  55  76
ATOM     76  C   UNL A   1      38.648  28.837  29.393  1.00  0.00     0.057 A 
ATOM     77  C   UNL A   1      38.231  29.415  28.181  1.00  0.00     0.134 A 
ATOM     78  C   UNL A   1      37.754  28.944  30.466  1.00  0.00     0.134 A 
ATOM     79  F   UNL A   1      39.039  29.452  27.112  1.00  0.00    -0.206 F 
ATOM     80  C   UNL A   1      36.998  30.061  28.043  1.00  0.00     0.040 A 
ATOM     81  C   UNL A   1      36.521  29.598  30.344  1.00  0.00     0.040 A 
ATOM     82  F   UNL A   1      38.081  28.467  31.675  1.00  0.00    -0.206 F 
ATOM     83  C   UNL A   1      36.143  30.165  29.130  1.00  0.00     0.006 A 
ENDBRANCH  55  76
BRANCH  67  84
ATOM     84  C   UNL A   1      44.051  28.059  32.531  1.00  0.00     0.057 A 
ATOM     85  C   UNL A   1      44.207  28.566  33.825  1.00  0.00     0.134 A 
ATOM     86  C   UNL A   1      43.883  26.672  32.408  1.00  0.00     0.134 A 
ATOM     87  F   UNL A   1      44.439  29.875  34.016  1.00  0.00    -0.206 F 
ATOM     88  C   UNL A   1      44.178  27.737  34.948  1.00  0.00     0.040 A 
ATOM     89  C   UNL A   1      43.816  25.835  33.526  1.00  0.00     0.040 A 
ATOM     90  F   UNL A   1      43.839  26.081  31.207  1.00  0.00    -0.206 F 
ATOM     91  C   UNL A   1      43.968  26.368  34.802  1.00  0.00     0.006 A 
ENDBRANCH  67  84
ENDBRANCH  41  42
ENDBRANCH  33  36
ENDBRANCH  31  32
ENDBRANCH  30  31
ENDBRANCH   1  30
TORSDOF 15
ENDMDL
MODEL 2
REMARK VINA RESULT:     -12.4      1.130      3.558
REMARK SMILES COc1cc2c(CC(=O)NCCCCNC(=O)c3ccc(-c4c5nc(c(-c6c(F)cccc6F)c6ccc([nH]6)c(-c6c(F)cccc6F)c6nc(c(-c7c(F)cccc7F)c7ccc4[nH]7)C=C6)C=C5)cc3)c(C)n(C(=O)c3ccc(Cl)cc3)c2cc1Cl
REMARK SMILES IDX 12 1 11 2 10 3 8 4 9 5 7 7 6 8 3 9 4 10 86 11 5 12 85 13
REMARK SMILES IDX 87 14 84 15 72 16 74 17 73 18 2 19 1 20 75 21 76 22 77 23
REMARK SMILES IDX 78 24 83 25 79 26 82 27 80 28 81 29 13 30 14 31 15 32 16 33
REMARK SMILES IDX 17 35 18 36 19 37 71 38 20 39 70 40 21 41 22 42 23 43 64 44
REMARK SMILES IDX 24 45 69 46 63 47 65 48 25 49 68 50 62 51 61 52 26 54 52 55
REMARK SMILES IDX 35 56 51 57 36 58 39 59 50 60 66 61 37 62 38 63 49 65 67 66
REMARK SMILES IDX 40 67 27 68 28 69 33 70 29 71 30 72 32 73 34 74 31 75 53 76
REMARK SMILES IDX 54 77 59 78 55 79 56 80 58 81 60 82 57 83 41 84 42 85 47 86
REMARK SMILES IDX 43 87 44 88 46 89 48 90 45 91
REMARK H PARENT 10 6 15 34 65 53 39 64
REMARK Flexibility Score: inf
ROOT
ATOM      1  C   UNL A   1      40.442  21.424  27.181  1.00  0.00     0.023 C 
ENDROOT
BRANCH   1   2
ATOM      2  C   UNL A   1      39.414  22.479  26.780  1.00  0.00     0.116 C 
BRANCH   2   3
ATOM      3  N   UNL A   1      38.927  22.275  25.432  1.00  0.00    -0.356 N 
ATOM      4  C   UNL A   1      37.667  22.487  24.946  1.00  0.00     0.224 C 
ATOM      5  O   UNL A   1      37.452  22.248  23.756  1.00  0.00    -0.275 OA
ATOM      6  H   UNL A   1      39.587  21.941  24.782  1.00  0.00     0.163 HD
BRANCH   4   7
ATOM      7  C   UNL A   1      36.586  23.060  25.850  1.00  0.00     0.138 C 
BRANCH   7   8
ATOM      8  C   UNL A   1      35.194  22.651  25.453  1.00  0.00    -0.009 A 
ATOM      9  C   UNL A   1      32.538  25.393  25.752  1.00  0.00     0.138 A 
ATOM     10  C   UNL A   1      33.822  24.837  25.815  1.00  0.00     0.058 A 
ATOM     11  C   UNL A   1      31.469  24.611  25.331  1.00  0.00     0.085 A 
ATOM     12  C   UNL A   1      34.040  23.484  25.460  1.00  0.00     0.008 A 
ATOM     13  C   UNL A   1      31.659  23.260  25.027  1.00  0.00     0.051 A 
ATOM     14  Cl  UNL A   1      29.883  25.248  25.073  1.00  0.00    -0.080 Cl
ATOM     15  C   UNL A   1      32.957  22.708  25.034  1.00  0.00     0.058 A 
ATOM     16  C   UNL A   1      34.781  21.380  25.064  1.00  0.00     0.028 A 
ATOM     17  N   UNL A   1      33.453  21.460  24.625  1.00  0.00    -0.280 N 
ATOM     18  C   UNL A   1      35.598  20.124  25.043  1.00  0.00     0.065 C 
BRANCH   9  19
ATOM     19  O   UNL A   1      32.440  26.726  26.056  1.00  0.00    -0.495 OA
ATOM     20  C   UNL A   1      33.717  27.360  26.123  1.00  0.00     0.278 C 
ENDBRANCH   9  19
BRANCH  17  21
ATOM     21  C   UNL A   1      32.757  20.459  23.873  1.00  0.00     0.262 C 
ATOM     22  O   UNL A   1      32.151  20.777  22.871  1.00  0.00    -0.268 OA
BRANCH  21  23
ATOM     23  C   UNL A   1      32.708  19.029  24.240  1.00  0.00     0.040 A 
ATOM     24  C   UNL A   1      32.431  18.635  25.555  1.00  0.00     0.015 A 
ATOM     25  C   UNL A   1      33.008  18.083  23.255  1.00  0.00     0.015 A 
ATOM     26  C   UNL A   1      32.551  17.287  25.901  1.00  0.00     0.021 A 
ATOM     27  C   UNL A   1      33.112  16.737  23.606  1.00  0.00     0.021 A 
ATOM     28  C   UNL A   1      32.904  16.348  24.930  1.00  0.00     0.041 A 
ATOM     29  Cl  UNL A   1      33.115  14.699  25.374  1.00  0.00    -0.084 Cl
ENDBRANCH  21  23
ENDBRANCH  17  21
ENDBRANCH   7   8
ENDBRANCH   4   7
ENDBRANCH   2   3
ENDBRANCH   1   2
BRANCH   1  30
ATOM     30  C   UNL A   1      40.674  20.333  26.125  1.00  0.00     0.023 C 
BRANCH  30  31
ATOM     31  C   UNL A   1      41.890  19.444  26.397  1.00  0.00     0.116 C 
BRANCH  31  32
ATOM     32  N   UNL A   1      42.941  19.606  25.412  1.00  0.00    -0.352 N 
ATOM     33  C   UNL A   1      43.808  20.609  25.085  1.00  0.00     0.251 C 
ATOM     34  H   UNL A   1      43.055  18.809  24.847  1.00  0.00     0.163 HD
ATOM     35  O   UNL A   1      44.643  20.340  24.217  1.00  0.00    -0.269 OA
BRANCH  33  36
ATOM     36  C   UNL A   1      43.786  21.983  25.653  1.00  0.00     0.039 A 
ATOM     37  C   UNL A   1      44.412  22.381  26.834  1.00  0.00     0.014 A 
ATOM     38  C   UNL A   1      43.012  22.928  24.951  1.00  0.00     0.014 A 
ATOM     39  C   UNL A   1      44.210  23.655  27.344  1.00  0.00     0.010 A 
ATOM     40  C   UNL A   1      42.812  24.207  25.452  1.00  0.00     0.010 A 
ATOM     41  C   UNL A   1      43.376  24.549  26.676  1.00  0.00    -0.014 A 
BRANCH  41  42
ATOM     42  C   UNL A   1      43.160  25.845  27.303  1.00  0.00     0.031 A 
ATOM     43  C   UNL A   1      44.169  26.897  26.983  1.00  0.00     0.074 A 
ATOM     44  C   UNL A   1      42.080  26.111  28.061  1.00  0.00     0.049 A 
ATOM     45  N   UNL A   1      44.949  27.540  27.790  1.00  0.00    -0.248 NA
ATOM     46  C   UNL A   1      44.394  27.204  25.562  1.00  0.00     0.031 C 
ATOM     47  C   UNL A   1      40.871  25.305  28.239  1.00  0.00     0.029 A 
ATOM     48  N   UNL A   1      41.801  27.242  28.764  1.00  0.00    -0.354 N 
ATOM     49  C   UNL A   1      45.649  28.458  27.004  1.00  0.00     0.074 A 
ATOM     50  C   UNL A   1      45.359  28.120  25.635  1.00  0.00     0.031 C 
ATOM     51  C   UNL A   1      39.906  26.073  28.793  1.00  0.00     0.029 A 
ATOM     52  C   UNL A   1      40.470  27.372  29.123  1.00  0.00     0.049 A 
ATOM     53  H   UNL A   1      42.485  27.911  28.996  1.00  0.00     0.167 HD
ATOM     54  C   UNL A   1      46.259  29.552  27.541  1.00  0.00     0.037 A 
ATOM     55  C   UNL A   1      39.868  28.499  29.573  1.00  0.00     0.037 A 
ATOM     56  C   UNL A   1      46.506  29.382  28.949  1.00  0.00     0.049 A 
ATOM     57  C   UNL A   1      40.928  29.422  30.050  1.00  0.00     0.074 A 
ATOM     58  C   UNL A   1      47.218  28.478  29.716  1.00  0.00     0.029 A 
ATOM     59  N   UNL A   1      45.715  30.064  29.842  1.00  0.00    -0.354 N 
ATOM     60  N   UNL A   1      41.638  29.229  31.125  1.00  0.00    -0.248 NA
ATOM     61  C   UNL A   1      41.503  30.346  29.081  1.00  0.00     0.031 C 
ATOM     62  C   UNL A   1      46.443  28.311  30.902  1.00  0.00     0.029 A 
ATOM     63  C   UNL A   1      45.337  29.153  30.793  1.00  0.00     0.049 A 
ATOM     64  H   UNL A   1      45.469  31.016  29.806  1.00  0.00     0.167 HD
ATOM     65  C   UNL A   1      42.914  29.657  30.791  1.00  0.00     0.074 A 
ATOM     66  C   UNL A   1      42.751  30.415  29.552  1.00  0.00     0.031 C 
ATOM     67  C   UNL A   1      44.024  29.126  31.385  1.00  0.00     0.037 A 
BRANCH  54  68
ATOM     68  C   UNL A   1      46.288  30.917  26.886  1.00  0.00     0.057 A 
ATOM     69  C   UNL A   1      45.140  31.670  26.570  1.00  0.00     0.134 A 
ATOM     70  C   UNL A   1      47.495  31.646  26.880  1.00  0.00     0.134 A 
ATOM     71  F   UNL A   1      43.912  31.141  26.558  1.00  0.00    -0.206 F 
ATOM     72  C   UNL A   1      45.176  33.049  26.343  1.00  0.00     0.040 A 
ATOM     73  C   UNL A   1      47.535  33.035  26.704  1.00  0.00     0.040 A 
ATOM     74  F   UNL A   1      48.665  31.047  27.146  1.00  0.00    -0.206 F 
ATOM     75  C   UNL A   1      46.368  33.744  26.455  1.00  0.00     0.006 A 
ENDBRANCH  54  68
BRANCH  55  76
ATOM     76  C   UNL A   1      38.475  28.942  29.338  1.00  0.00     0.057 A 
ATOM     77  C   UNL A   1      38.078  29.507  28.113  1.00  0.00     0.134 A 
ATOM     78  C   UNL A   1      37.562  29.057  30.393  1.00  0.00     0.134 A 
ATOM     79  F   UNL A   1      38.906  29.536  27.059  1.00  0.00    -0.206 F 
ATOM     80  C   UNL A   1      36.847  30.149  27.946  1.00  0.00     0.040 A 
ATOM     81  C   UNL A   1      36.330  29.707  30.243  1.00  0.00     0.040 A 
ATOM     82  F   UNL A   1      37.868  28.592  31.613  1.00  0.00    -0.206 F 
ATOM     83  C   UNL A   1      35.972  30.262  29.018  1.00  0.00     0.006 A 
ENDBRANCH  55  76
BRANCH  67  84
ATOM     84  C   UNL A   1      43.830  28.227  32.570  1.00  0.00     0.057 A 
ATOM     85  C   UNL A   1      43.889  28.775  33.856  1.00  0.00     0.134 A 
ATOM     86  C   UNL A   1      43.742  26.831  32.478  1.00  0.00     0.134 A 
ATOM     87  F   UNL A   1      44.042  30.099  34.021  1.00  0.00    -0.206 F 
ATOM     88  C   UNL A   1      43.840  27.975  34.999  1.00  0.00     0.040 A 
ATOM     89  C   UNL A   1      43.656  26.020  33.614  1.00  0.00     0.040 A 
ATOM     90  F   UNL A   1      43.795  26.208  31.293  1.00  0.00    -0.206 F 
ATOM     91  C   UNL A   1      43.709  26.594  34.880  1.00  0.00     0.006 A 
ENDBRANCH  67  84
ENDBRANCH  41  42
ENDBRANCH  33  36
ENDBRANCH  31  32
ENDBRANCH  30  31
ENDBRANCH   1  30
TORSDOF 15
ENDMDL
MODEL 3
REMARK VINA RESULT:     -12.3      2.703      7.985
REMARK SMILES COc1cc2c(CC(=O)NCCCCNC(=O)c3ccc(-c4c5nc(c(-c6c(F)cccc6F)c6ccc([nH]6)c(-c6c(F)cccc6F)c6nc(c(-c7c(F)cccc7F)c7ccc4[nH]7)C=C6)C=C5)cc3)c(C)n(C(=O)c3ccc(Cl)cc3)c2cc1Cl
REMARK SMILES IDX 12 1 11 2 10 3 8 4 9 5 7 7 6 8 3 9 4 10 86 11 5 12 85 13
REMARK SMILES IDX 87 14 84 15 72 16 74 17 73 18 2 19 1 20 75 21 76 22 77 23
REMARK SMILES IDX 78 24 83 25 79 26 82 27 80 28 81 29 13 30 14 31 15 32 16 33
REMARK SMILES IDX 17 35 18 36 19 37 71 38 20 39 70 40 21 41 22 42 23 43 64 44
REMARK SMILES IDX 24 45 69 46 63 47 65 48 25 49 68 50 62 51 61 52 26 54 52 55
REMARK SMILES IDX 35 56 51 57 36 58 39 59 50 60 66 61 37 62 38 63 49 65 67 66
REMARK SMILES IDX 40 67 27 68 28 69 33 70 29 71 30 72 32 73 34 74 31 75 53 76
REMARK SMILES IDX 54 77 59 78 55 79 56 80 58 81 60 82 57 83 41 84 42 85 47 86
REMARK SMILES IDX 43 87 44 88 46 89 48 90 45 91
REMARK H PARENT 10 6 15 34 65 53 39 64
REMARK Flexibility Score: inf
ROOT
ATOM      1  C   UNL A   1      31.853  29.028  27.446  1.00  0.00     0.023 C 
ENDROOT
BRANCH   1   2
ATOM      2  C   UNL A   1      31.530  27.809  26.586  1.00  0.00     0.116 C 
BRANCH   2   3
ATOM      3  N   UNL A   1      32.501  27.620  25.529  1.00  0.00    -0.356 N 
ATOM      4  C   UNL A   1      33.249  26.509  25.255  1.00  0.00     0.224 C 
ATOM      5  O   UNL A   1      34.029  26.550  24.301  1.00  0.00    -0.275 OA
ATOM      6  H   UNL A   1      32.640  28.389  24.930  1.00  0.00     0.163 HD
BRANCH   4   7
ATOM      7  C   UNL A   1      33.068  25.244  26.081  1.00  0.00     0.138 C 
BRANCH   7   8
ATOM      8  C   UNL A   1      33.386  23.983  25.324  1.00  0.00    -0.009 A 
ATOM      9  C   UNL A   1      36.949  22.659  25.779  1.00  0.00     0.138 A 
ATOM     10  C   UNL A   1      35.863  23.518  25.987  1.00  0.00     0.058 A 
ATOM     11  C   UNL A   1      36.811  21.566  24.933  1.00  0.00     0.085 A 
ATOM     12  C   UNL A   1      34.627  23.286  25.337  1.00  0.00     0.008 A 
ATOM     13  C   UNL A   1      35.614  21.352  24.244  1.00  0.00     0.051 A 
ATOM     14  Cl  UNL A   1      38.041  20.368  24.736  1.00  0.00    -0.080 Cl
ATOM     15  C   UNL A   1      34.499  22.181  24.490  1.00  0.00     0.058 A 
ATOM     16  C   UNL A   1      32.546  23.311  24.441  1.00  0.00     0.028 A 
ATOM     17  N   UNL A   1      33.158  22.104  24.078  1.00  0.00    -0.280 N 
ATOM     18  C   UNL A   1      31.186  23.735  23.976  1.00  0.00     0.065 C 
BRANCH   9  19
ATOM     19  O   UNL A   1      38.083  22.932  26.500  1.00  0.00    -0.495 OA
ATOM     20  C   UNL A   1      38.398  24.324  26.503  1.00  0.00     0.278 C 
ENDBRANCH   9  19
BRANCH  17  21
ATOM     21  C   UNL A   1      32.515  20.998  23.434  1.00  0.00     0.262 C 
ATOM     22  O   UNL A   1      31.885  21.183  22.414  1.00  0.00    -0.268 OA
BRANCH  21  23
ATOM     23  C   UNL A   1      32.553  19.609  23.936  1.00  0.00     0.040 A 
ATOM     24  C   UNL A   1      32.546  19.343  25.311  1.00  0.00     0.015 A 
ATOM     25  C   UNL A   1      32.659  18.572  23.004  1.00  0.00     0.015 A 
ATOM     26  C   UNL A   1      32.744  18.032  25.751  1.00  0.00     0.021 A 
ATOM     27  C   UNL A   1      32.843  17.264  23.452  1.00  0.00     0.021 A 
ATOM     28  C   UNL A   1      32.905  17.002  24.822  1.00  0.00     0.041 A 
ATOM     29  Cl  UNL A   1      33.214  15.401  25.368  1.00  0.00    -0.084 Cl
ENDBRANCH  21  23
ENDBRANCH  17  21
ENDBRANCH   7   8
ENDBRANCH   4   7
ENDBRANCH   2   3
ENDBRANCH   1   2
BRANCH   1  30
ATOM     30  C   UNL A   1      32.652  30.120  26.720  1.00  0.00     0.023 C 
BRANCH  30  31
ATOM     31  C   UNL A   1      34.046  30.371  27.302  1.00  0.00     0.116 C 
BRANCH  31  32
ATOM     32  N   UNL A   1      34.044  31.346  28.375  1.00  0.00    -0.352 N 
ATOM     33  C   UNL A   1      34.954  31.756  29.305  1.00  0.00     0.251 C 
ATOM     34  H   UNL A   1      33.186  31.821  28.450  1.00  0.00     0.163 HD
ATOM     35  O   UNL A   1      34.609  32.700  30.022  1.00  0.00    -0.269 OA
BRANCH  33  36
ATOM     36  C   UNL A   1      36.282  31.130  29.542  1.00  0.00     0.039 A 
ATOM     37  C   UNL A   1      37.514  31.773  29.426  1.00  0.00     0.014 A 
ATOM     38  C   UNL A   1      36.268  29.755  29.851  1.00  0.00     0.014 A 
ATOM     39  C   UNL A   1      38.696  31.056  29.532  1.00  0.00     0.010 A 
ATOM     40  C   UNL A   1      37.448  29.033  29.967  1.00  0.00     0.010 A 
ATOM     41  C   UNL A   1      38.660  29.681  29.759  1.00  0.00    -0.014 A 
BRANCH  41  42
ATOM     42  C   UNL A   1      39.938  28.985  29.796  1.00  0.00     0.031 A 
ATOM     43  C   UNL A   1      40.561  28.844  31.144  1.00  0.00     0.074 A 
ATOM     44  C   UNL A   1      40.493  28.432  28.701  1.00  0.00     0.049 A 
ATOM     45  N   UNL A   1      41.707  29.285  31.556  1.00  0.00    -0.248 NA
ATOM     46  C   UNL A   1      39.756  28.200  32.193  1.00  0.00     0.031 C 
ATOM     47  C   UNL A   1      39.894  28.228  27.381  1.00  0.00     0.029 A 
ATOM     48  N   UNL A   1      41.707  27.830  28.583  1.00  0.00    -0.354 N 
ATOM     49  C   UNL A   1      41.848  28.831  32.868  1.00  0.00     0.074 A 
ATOM     50  C   UNL A   1      40.572  28.281  33.245  1.00  0.00     0.031 C 
ATOM     51  C   UNL A   1      40.647  27.346  26.686  1.00  0.00     0.029 A 
ATOM     52  C   UNL A   1      41.837  27.031  27.460  1.00  0.00     0.049 A 
ATOM     53  H   UNL A   1      42.430  27.951  29.241  1.00  0.00     0.167 HD
ATOM     54  C   UNL A   1      43.063  28.763  33.482  1.00  0.00     0.037 A 
ATOM     55  C   UNL A   1      42.810  26.115  27.236  1.00  0.00     0.037 A 
ATOM     56  C   UNL A   1      44.026  29.622  32.845  1.00  0.00     0.049 A 
ATOM     57  C   UNL A   1      43.942  26.423  28.145  1.00  0.00     0.074 A 
ATOM     58  C   UNL A   1      44.112  30.979  32.593  1.00  0.00     0.029 A 
ATOM     59  N   UNL A   1      45.000  29.050  32.063  1.00  0.00    -0.354 N 
ATOM     60  N   UNL A   1      44.723  27.459  28.019  1.00  0.00    -0.248 NA
ATOM     61  C   UNL A   1      43.933  25.807  29.466  1.00  0.00     0.031 C 
ATOM     62  C   UNL A   1      44.746  31.077  31.319  1.00  0.00     0.029 A 
ATOM     63  C   UNL A   1      45.038  29.778  30.904  1.00  0.00     0.049 A 
ATOM     64  H   UNL A   1      45.560  28.273  32.290  1.00  0.00     0.167 HD
ATOM     65  C   UNL A   1      44.969  27.880  29.317  1.00  0.00     0.074 A 
ATOM     66  C   UNL A   1      44.530  26.775  30.167  1.00  0.00     0.031 C 
ATOM     67  C   UNL A   1      45.239  29.188  29.605  1.00  0.00     0.037 A 
BRANCH  54  68
ATOM     68  C   UNL A   1      43.484  27.644  34.412  1.00  0.00     0.057 A 
ATOM     69  C   UNL A   1      43.576  27.770  35.813  1.00  0.00     0.134 A 
ATOM     70  C   UNL A   1      43.469  26.317  33.936  1.00  0.00     0.134 A 
ATOM     71  F   UNL A   1      43.574  28.955  36.432  1.00  0.00    -0.206 F 
ATOM     72  C   UNL A   1      43.574  26.669  36.675  1.00  0.00     0.040 A 
ATOM     73  C   UNL A   1      43.416  25.210  34.793  1.00  0.00     0.040 A 
ATOM     74  F   UNL A   1      43.403  26.056  32.622  1.00  0.00    -0.206 F 
ATOM     75  C   UNL A   1      43.448  25.386  36.169  1.00  0.00     0.006 A 
ENDBRANCH  54  68
BRANCH  55  76
ATOM     76  C   UNL A   1      42.699  24.829  26.512  1.00  0.00     0.057 A 
ATOM     77  C   UNL A   1      42.037  23.722  27.072  1.00  0.00     0.134 A 
ATOM     78  C   UNL A   1      43.459  24.575  25.363  1.00  0.00     0.134 A 
ATOM     79  F   UNL A   1      41.354  23.828  28.221  1.00  0.00    -0.206 F 
ATOM     80  C   UNL A   1      42.124  22.439  26.524  1.00  0.00     0.040 A 
ATOM     81  C   UNL A   1      43.564  23.292  24.810  1.00  0.00     0.040 A 
ATOM     82  F   UNL A   1      44.166  25.555  24.783  1.00  0.00    -0.206 F 
ATOM     83  C   UNL A   1      42.901  22.218  25.395  1.00  0.00     0.006 A 
ENDBRANCH  55  76
BRANCH  67  84
ATOM     84  C   UNL A   1      45.487  30.127  28.462  1.00  0.00     0.057 A 
ATOM     85  C   UNL A   1      46.802  30.483  28.147  1.00  0.00     0.134 A 
ATOM     86  C   UNL A   1      44.465  30.797  27.773  1.00  0.00     0.134 A 
ATOM     87  F   UNL A   1      47.830  29.932  28.812  1.00  0.00    -0.206 F 
ATOM     88  C   UNL A   1      47.092  31.445  27.177  1.00  0.00     0.040 A 
ATOM     89  C   UNL A   1      44.741  31.736  26.775  1.00  0.00     0.040 A 
ATOM     90  F   UNL A   1      43.176  30.606  28.085  1.00  0.00    -0.206 F 
ATOM     91  C   UNL A   1      46.060  32.065  26.478  1.00  0.00     0.006 A 
ENDBRANCH  67  84
ENDBRANCH  41  42
ENDBRANCH  33  36
ENDBRANCH  31  32
ENDBRANCH  30  31
ENDBRANCH   1  30
TORSDOF 15
ENDMDL
