MODEL 1
REMARK VINA RESULT:     -10.4      0.000      0.000
REMARK SMILES C[C@H](C(=O)NCCCCNC(=O)c1ccc(-c2c3nc(c(-c4c(F)cccc4F)c4ccc([nH]4)c(-c4c(F)cccc4F)c4nc(c(-c5c(F)cccc5F)c5ccc2[nH]5)C=C4)C=C3)cc1)[C@H](C)[N@@H+]1CC[C@H]([NH+](C)C)C1
REMARK SMILES IDX 7 1 6 2 5 3 3 4 4 5 2 7 1 8 67 9 68 10 69 11 70 12 76 13
REMARK SMILES IDX 71 15 72 16 73 17 74 18 75 19 8 21 9 22 10 23 11 24 12 26
REMARK SMILES IDX 13 27 14 28 66 29 15 30 65 31 16 32 17 33 18 34 59 35 19 36
REMARK SMILES IDX 64 37 58 38 60 39 20 40 63 41 57 42 56 43 21 45 47 46 30 47
REMARK SMILES IDX 46 48 31 49 34 50 45 51 61 52 32 53 33 54 44 56 62 57 35 58
REMARK SMILES IDX 22 59 23 60 28 61 24 62 25 63 27 64 29 65 26 66 48 67 49 68
REMARK SMILES IDX 54 69 50 70 51 71 53 72 55 73 52 74 36 75 37 76 42 77 38 78
REMARK SMILES IDX 39 79 41 80 43 81 40 82
REMARK H PARENT 5 6 69 14 73 20 10 25 60 44 34 55
REMARK Flexibility Score: inf
ROOT
ATOM      1  C   UNL A   1      38.896  22.307  26.186  1.00  0.00     0.023 C 
ENDROOT
BRANCH   1   2
ATOM      2  C   UNL A   1      37.666  23.112  25.779  1.00  0.00     0.116 C 
BRANCH   2   3
ATOM      3  N   UNL A   1      37.356  22.987  24.371  1.00  0.00    -0.356 N 
ATOM      4  C   UNL A   1      36.179  23.119  23.699  1.00  0.00     0.228 C 
ATOM      5  O   UNL A   1      36.263  23.106  22.466  1.00  0.00    -0.275 OA
ATOM      6  H   UNL A   1      38.129  22.768  23.802  1.00  0.00     0.163 HD
BRANCH   4   7
ATOM      7  C   UNL A   1      34.839  23.280  24.427  1.00  0.00     0.133 C 
ATOM      8  C   UNL A   1      34.449  24.768  24.364  1.00  0.00     0.024 C 
BRANCH   7   9
ATOM      9  C   UNL A   1      33.622  22.402  23.947  1.00  0.00     0.193 C 
ATOM     10  C   UNL A   1      32.397  23.247  23.548  1.00  0.00     0.076 C 
BRANCH   9  11
ATOM     11  N   UNL A   1      33.295  21.179  24.714  1.00  0.00    -0.327 N 
ATOM     12  C   UNL A   1      34.434  20.463  25.311  1.00  0.00     0.269 C 
ATOM     13  C   UNL A   1      32.480  20.183  24.007  1.00  0.00     0.328 C 
ATOM     14  H   UNL A   1      32.742  21.604  25.459  1.00  0.00     0.348 HD
ATOM     15  C   UNL A   1      34.451  19.065  24.695  1.00  0.00     0.132 C 
ATOM     16  C   UNL A   1      32.974  18.788  24.426  1.00  0.00     0.245 C 
BRANCH  16  17
ATOM     17  N   UNL A   1      32.653  17.666  23.514  1.00  0.00    -0.333 N 
ATOM     18  C   UNL A   1      32.305  18.153  22.175  1.00  0.00     0.332 C 
ATOM     19  C   UNL A   1      33.692  16.644  23.432  1.00  0.00     0.332 C 
ATOM     20  H   UNL A   1      31.841  17.208  23.929  1.00  0.00     0.348 HD
ENDBRANCH  16  17
ENDBRANCH   9  11
ENDBRANCH   7   9
ENDBRANCH   4   7
ENDBRANCH   2   3
ENDBRANCH   1   2
BRANCH   1  21
ATOM     21  C   UNL A   1      39.072  20.963  25.488  1.00  0.00     0.023 C 
BRANCH  21  22
ATOM     22  C   UNL A   1      39.573  19.838  26.370  1.00  0.00     0.116 C 
BRANCH  22  23
ATOM     23  N   UNL A   1      40.790  19.231  25.860  1.00  0.00    -0.352 N 
ATOM     24  C   UNL A   1      42.057  19.750  25.783  1.00  0.00     0.251 C 
ATOM     25  H   UNL A   1      40.691  18.312  25.522  1.00  0.00     0.163 HD
ATOM     26  O   UNL A   1      42.928  19.137  25.167  1.00  0.00    -0.269 OA
BRANCH  24  27
ATOM     27  C   UNL A   1      42.370  21.052  26.408  1.00  0.00     0.039 A 
ATOM     28  C   UNL A   1      42.695  22.130  25.582  1.00  0.00     0.014 A 
ATOM     29  C   UNL A   1      42.347  21.218  27.795  1.00  0.00     0.014 A 
ATOM     30  C   UNL A   1      42.950  23.378  26.148  1.00  0.00     0.010 A 
ATOM     31  C   UNL A   1      42.491  22.485  28.348  1.00  0.00     0.010 A 
ATOM     32  C   UNL A   1      42.818  23.576  27.534  1.00  0.00    -0.014 A 
BRANCH  32  33
ATOM     33  C   UNL A   1      43.049  24.914  28.132  1.00  0.00     0.031 A 
ATOM     34  C   UNL A   1      44.435  25.333  28.544  1.00  0.00     0.074 A 
ATOM     35  C   UNL A   1      42.005  25.744  28.319  1.00  0.00     0.049 A 
ATOM     36  N   UNL A   1      44.836  26.469  29.057  1.00  0.00    -0.248 NA
ATOM     37  C   UNL A   1      45.510  24.340  28.384  1.00  0.00     0.031 C 
ATOM     38  C   UNL A   1      40.606  25.425  28.028  1.00  0.00     0.029 A 
ATOM     39  N   UNL A   1      41.960  27.031  28.793  1.00  0.00    -0.354 N 
ATOM     40  C   UNL A   1      46.201  26.326  29.272  1.00  0.00     0.074 A 
ATOM     41  C   UNL A   1      46.547  24.969  28.915  1.00  0.00     0.031 C 
ATOM     42  C   UNL A   1      39.846  26.499  28.290  1.00  0.00     0.029 A 
ATOM     43  C   UNL A   1      40.696  27.570  28.800  1.00  0.00     0.049 A 
ATOM     44  H   UNL A   1      42.756  27.521  29.100  1.00  0.00     0.167 HD
ATOM     45  C   UNL A   1      47.094  27.252  29.692  1.00  0.00     0.037 A 
ATOM     46  C   UNL A   1      40.272  28.792  29.173  1.00  0.00     0.037 A 
ATOM     47  C   UNL A   1      46.748  28.605  30.040  1.00  0.00     0.049 A 
ATOM     48  C   UNL A   1      41.284  29.801  29.639  1.00  0.00     0.074 A 
ATOM     49  C   UNL A   1      47.581  29.632  30.447  1.00  0.00     0.029 A 
ATOM     50  N   UNL A   1      45.459  29.118  30.020  1.00  0.00    -0.354 N 
ATOM     51  N   UNL A   1      42.584  29.674  29.766  1.00  0.00    -0.248 NA
ATOM     52  C   UNL A   1      40.773  31.131  29.999  1.00  0.00     0.031 C 
ATOM     53  C   UNL A   1      46.790  30.754  30.718  1.00  0.00     0.029 A 
ATOM     54  C   UNL A   1      45.473  30.444  30.424  1.00  0.00     0.049 A 
ATOM     55  H   UNL A   1      44.655  28.614  29.759  1.00  0.00     0.167 HD
ATOM     56  C   UNL A   1      43.047  30.911  30.195  1.00  0.00     0.074 A 
ATOM     57  C   UNL A   1      41.892  31.782  30.278  1.00  0.00     0.031 C 
ATOM     58  C   UNL A   1      44.312  31.294  30.500  1.00  0.00     0.037 A 
BRANCH  45  59
ATOM     59  C   UNL A   1      48.536  26.835  29.776  1.00  0.00     0.057 A 
ATOM     60  C   UNL A   1      49.060  26.232  30.928  1.00  0.00     0.134 A 
ATOM     61  C   UNL A   1      49.400  27.004  28.688  1.00  0.00     0.134 A 
ATOM     62  F   UNL A   1      48.290  26.053  32.012  1.00  0.00    -0.206 F 
ATOM     63  C   UNL A   1      50.397  25.836  31.005  1.00  0.00     0.040 A 
ATOM     64  C   UNL A   1      50.732  26.585  28.741  1.00  0.00     0.040 A 
ATOM     65  F   UNL A   1      48.966  27.570  27.553  1.00  0.00    -0.206 F 
ATOM     66  C   UNL A   1      51.235  26.005  29.904  1.00  0.00     0.006 A 
ENDBRANCH  45  59
BRANCH  46  67
ATOM     67  C   UNL A   1      38.828  29.136  29.105  1.00  0.00     0.057 A 
ATOM     68  C   UNL A   1      38.008  29.069  30.239  1.00  0.00     0.134 A 
ATOM     69  C   UNL A   1      38.227  29.517  27.900  1.00  0.00     0.134 A 
ATOM     70  F   UNL A   1      38.520  28.696  31.422  1.00  0.00    -0.206 F 
ATOM     71  C   UNL A   1      36.640  29.336  30.169  1.00  0.00     0.040 A 
ATOM     72  C   UNL A   1      36.867  29.818  27.822  1.00  0.00     0.040 A 
ATOM     73  F   UNL A   1      38.958  29.613  26.779  1.00  0.00    -0.206 F 
ATOM     74  C   UNL A   1      36.067  29.716  28.958  1.00  0.00     0.006 A 
ENDBRANCH  46  67
BRANCH  58  75
ATOM     75  C   UNL A   1      44.509  32.723  30.916  1.00  0.00     0.057 A 
ATOM     76  C   UNL A   1      44.755  33.740  29.985  1.00  0.00     0.134 A 
ATOM     77  C   UNL A   1      44.442  33.087  32.267  1.00  0.00     0.134 A 
ATOM     78  F   UNL A   1      44.842  33.458  28.676  1.00  0.00    -0.206 F 
ATOM     79  C   UNL A   1      44.966  35.060  30.385  1.00  0.00     0.040 A 
ATOM     80  C   UNL A   1      44.618  34.409  32.677  1.00  0.00     0.040 A 
ATOM     81  F   UNL A   1      44.198  32.165  33.211  1.00  0.00    -0.206 F 
ATOM     82  C   UNL A   1      44.894  35.398  31.736  1.00  0.00     0.006 A 
ENDBRANCH  58  75
ENDBRANCH  32  33
ENDBRANCH  24  27
ENDBRANCH  22  23
ENDBRANCH  21  22
ENDBRANCH   1  21
TORSDOF 14
ENDMDL
MODEL 2
REMARK VINA RESULT:     -10.3      2.032      3.596
REMARK SMILES C[C@H](C(=O)NCCCCNC(=O)c1ccc(-c2c3nc(c(-c4c(F)cccc4F)c4ccc([nH]4)c(-c4c(F)cccc4F)c4nc(c(-c5c(F)cccc5F)c5ccc2[nH]5)C=C4)C=C3)cc1)[C@H](C)[N@@H+]1CC[C@H]([NH+](C)C)C1
REMARK SMILES IDX 7 1 6 2 5 3 3 4 4 5 2 7 1 8 67 9 68 10 69 11 70 12 76 13
REMARK SMILES IDX 71 15 72 16 73 17 74 18 75 19 8 21 9 22 10 23 11 24 12 26
REMARK SMILES IDX 13 27 14 28 66 29 15 30 65 31 16 32 17 33 18 34 59 35 19 36
REMARK SMILES IDX 64 37 58 38 60 39 20 40 63 41 57 42 56 43 21 45 47 46 30 47
REMARK SMILES IDX 46 48 31 49 34 50 45 51 61 52 32 53 33 54 44 56 62 57 35 58
REMARK SMILES IDX 22 59 23 60 28 61 24 62 25 63 27 64 29 65 26 66 48 67 49 68
REMARK SMILES IDX 54 69 50 70 51 71 53 72 55 73 52 74 36 75 37 76 42 77 38 78
REMARK SMILES IDX 39 79 41 80 43 81 40 82
REMARK H PARENT 5 6 69 14 73 20 10 25 60 44 34 55
REMARK Flexibility Score: inf
ROOT
ATOM      1  C   UNL A   1      36.533  20.447  24.991  1.00  0.00     0.023 C 
ENDROOT
BRANCH   1   2
ATOM      2  C   UNL A   1      36.762  21.869  25.493  1.00  0.00     0.116 C 
BRANCH   2   3
ATOM      3  N   UNL A   1      35.809  22.266  26.506  1.00  0.00    -0.356 N 
ATOM      4  C   UNL A   1      34.520  22.694  26.404  1.00  0.00     0.228 C 
ATOM      5  O   UNL A   1      33.909  22.811  27.471  1.00  0.00    -0.275 OA
ATOM      6  H   UNL A   1      36.151  22.219  27.428  1.00  0.00     0.163 HD
BRANCH   4   7
ATOM      7  C   UNL A   1      33.871  23.004  25.049  1.00  0.00     0.133 C 
ATOM      8  C   UNL A   1      32.765  21.958  24.811  1.00  0.00     0.024 C 
BRANCH   7   9
ATOM      9  C   UNL A   1      33.281  24.447  24.820  1.00  0.00     0.193 C 
ATOM     10  C   UNL A   1      33.902  25.160  23.604  1.00  0.00     0.076 C 
BRANCH   9  11
ATOM     11  N   UNL A   1      33.080  25.317  26.001  1.00  0.00    -0.327 N 
ATOM     12  C   UNL A   1      31.685  25.567  26.394  1.00  0.00     0.269 C 
ATOM     13  C   UNL A   1      33.757  26.619  25.954  1.00  0.00     0.328 C 
ATOM     14  H   UNL A   1      33.525  24.728  26.706  1.00  0.00     0.348 HD
ATOM     15  C   UNL A   1      31.458  27.074  26.288  1.00  0.00     0.132 C 
ATOM     16  C   UNL A   1      32.831  27.655  26.614  1.00  0.00     0.245 C 
BRANCH  16  17
ATOM     17  N   UNL A   1      33.065  29.075  26.266  1.00  0.00    -0.333 N 
ATOM     18  C   UNL A   1      32.852  29.313  24.834  1.00  0.00     0.332 C 
ATOM     19  C   UNL A   1      32.288  30.022  27.062  1.00  0.00     0.332 C 
ATOM     20  H   UNL A   1      34.042  29.251  26.496  1.00  0.00     0.348 HD
ENDBRANCH  16  17
ENDBRANCH   9  11
ENDBRANCH   7   9
ENDBRANCH   4   7
ENDBRANCH   2   3
ENDBRANCH   1   2
BRANCH   1  21
ATOM     21  C   UNL A   1      37.762  19.546  24.961  1.00  0.00     0.023 C 
BRANCH  21  22
ATOM     22  C   UNL A   1      38.944  20.040  25.769  1.00  0.00     0.116 C 
BRANCH  22  23
ATOM     23  N   UNL A   1      40.043  19.090  25.784  1.00  0.00    -0.352 N 
ATOM     24  C   UNL A   1      41.376  19.302  26.027  1.00  0.00     0.251 C 
ATOM     25  H   UNL A   1      39.794  18.157  25.594  1.00  0.00     0.163 HD
ATOM     26  O   UNL A   1      42.181  18.392  25.835  1.00  0.00    -0.269 OA
BRANCH  24  27
ATOM     27  C   UNL A   1      41.849  20.625  26.488  1.00  0.00     0.039 A 
ATOM     28  C   UNL A   1      42.165  21.593  25.534  1.00  0.00     0.014 A 
ATOM     29  C   UNL A   1      41.986  20.915  27.849  1.00  0.00     0.014 A 
ATOM     30  C   UNL A   1      42.570  22.861  25.947  1.00  0.00     0.010 A 
ATOM     31  C   UNL A   1      42.281  22.210  28.258  1.00  0.00     0.010 A 
ATOM     32  C   UNL A   1      42.601  23.192  27.313  1.00  0.00    -0.014 A 
BRANCH  32  33
ATOM     33  C   UNL A   1      42.993  24.554  27.752  1.00  0.00     0.031 A 
ATOM     34  C   UNL A   1      44.443  24.956  27.779  1.00  0.00     0.074 A 
ATOM     35  C   UNL A   1      42.041  25.423  28.143  1.00  0.00     0.049 A 
ATOM     36  N   UNL A   1      44.976  26.107  28.105  1.00  0.00    -0.248 NA
ATOM     37  C   UNL A   1      45.430  23.926  27.415  1.00  0.00     0.031 C 
ATOM     38  C   UNL A   1      40.609  25.128  28.231  1.00  0.00     0.029 A 
ATOM     39  N   UNL A   1      42.133  26.735  28.535  1.00  0.00    -0.354 N 
ATOM     40  C   UNL A   1      46.349  25.937  27.981  1.00  0.00     0.074 A 
ATOM     41  C   UNL A   1      46.575  24.554  27.632  1.00  0.00     0.031 C 
ATOM     42  C   UNL A   1      39.953  26.236  28.609  1.00  0.00     0.029 A 
ATOM     43  C   UNL A   1      40.919  27.309  28.824  1.00  0.00     0.049 A 
ATOM     44  H   UNL A   1      42.987  27.218  28.602  1.00  0.00     0.167 HD
ATOM     45  C   UNL A   1      47.331  26.860  28.107  1.00  0.00     0.037 A 
ATOM     46  C   UNL A   1      40.619  28.561  29.216  1.00  0.00     0.037 A 
ATOM     47  C   UNL A   1      47.102  28.239  28.448  1.00  0.00     0.049 A 
ATOM     48  C   UNL A   1      41.729  29.566  29.353  1.00  0.00     0.074 A 
ATOM     49  C   UNL A   1      48.024  29.263  28.571  1.00  0.00     0.029 A 
ATOM     50  N   UNL A   1      45.856  28.787  28.719  1.00  0.00    -0.354 N 
ATOM     51  N   UNL A   1      43.017  29.409  29.159  1.00  0.00    -0.248 NA
ATOM     52  C   UNL A   1      41.342  30.927  29.747  1.00  0.00     0.031 C 
ATOM     53  C   UNL A   1      47.342  30.420  28.962  1.00  0.00     0.029 A 
ATOM     54  C   UNL A   1      45.988  30.132  29.026  1.00  0.00     0.049 A 
ATOM     55  H   UNL A   1      45.006  28.292  28.699  1.00  0.00     0.167 HD
ATOM     56  C   UNL A   1      43.589  30.654  29.382  1.00  0.00     0.074 A 
ATOM     57  C   UNL A   1      42.505  31.561  29.698  1.00  0.00     0.031 C 
ATOM     58  C   UNL A   1      44.895  31.017  29.337  1.00  0.00     0.037 A 
BRANCH  45  59
ATOM     59  C   UNL A   1      48.742  26.407  27.854  1.00  0.00     0.057 A 
ATOM     60  C   UNL A   1      49.306  26.442  26.570  1.00  0.00     0.134 A 
ATOM     61  C   UNL A   1      49.556  25.965  28.902  1.00  0.00     0.134 A 
ATOM     62  F   UNL A   1      48.576  26.842  25.518  1.00  0.00    -0.206 F 
ATOM     63  C   UNL A   1      50.619  26.029  26.335  1.00  0.00     0.040 A 
ATOM     64  C   UNL A   1      50.881  25.577  28.685  1.00  0.00     0.040 A 
ATOM     65  F   UNL A   1      49.084  25.908  30.156  1.00  0.00    -0.206 F 
ATOM     66  C   UNL A   1      51.413  25.603  27.398  1.00  0.00     0.006 A 
ENDBRANCH  45  59
BRANCH  46  67
ATOM     67  C   UNL A   1      39.208  28.941  29.491  1.00  0.00     0.057 A 
ATOM     68  C   UNL A   1      38.636  28.759  30.756  1.00  0.00     0.134 A 
ATOM     69  C   UNL A   1      38.391  29.475  28.488  1.00  0.00     0.134 A 
ATOM     70  F   UNL A   1      39.363  28.239  31.757  1.00  0.00    -0.206 F 
ATOM     71  C   UNL A   1      37.297  29.062  31.004  1.00  0.00     0.040 A 
ATOM     72  C   UNL A   1      37.059  29.812  28.730  1.00  0.00     0.040 A 
ATOM     73  F   UNL A   1      38.880  29.687  27.256  1.00  0.00    -0.206 F 
ATOM     74  C   UNL A   1      36.505  29.594  29.989  1.00  0.00     0.006 A 
ENDBRANCH  46  67
BRANCH  58  75
ATOM     75  C   UNL A   1      45.211  32.461  29.604  1.00  0.00     0.057 A 
ATOM     76  C   UNL A   1      45.214  33.420  28.582  1.00  0.00     0.134 A 
ATOM     77  C   UNL A   1      45.504  32.898  30.901  1.00  0.00     0.134 A 
ATOM     78  F   UNL A   1      44.953  33.066  27.316  1.00  0.00    -0.206 F 
ATOM     79  C   UNL A   1      45.538  34.754  28.836  1.00  0.00     0.040 A 
ATOM     80  C   UNL A   1      45.795  34.236  31.173  1.00  0.00     0.040 A 
ATOM     81  F   UNL A   1      45.505  32.035  31.929  1.00  0.00    -0.206 F 
ATOM     82  C   UNL A   1      45.825  35.165  30.137  1.00  0.00     0.006 A 
ENDBRANCH  58  75
ENDBRANCH  32  33
ENDBRANCH  24  27
ENDBRANCH  22  23
ENDBRANCH  21  22
ENDBRANCH   1  21
TORSDOF 14
ENDMDL
MODEL 3
REMARK VINA RESULT:     -10.3      3.653      8.336
REMARK SMILES C[C@H](C(=O)NCCCCNC(=O)c1ccc(-c2c3nc(c(-c4c(F)cccc4F)c4ccc([nH]4)c(-c4c(F)cccc4F)c4nc(c(-c5c(F)cccc5F)c5ccc2[nH]5)C=C4)C=C3)cc1)[C@H](C)[N@@H+]1CC[C@H]([NH+](C)C)C1
REMARK SMILES IDX 7 1 6 2 5 3 3 4 4 5 2 7 1 8 67 9 68 10 69 11 70 12 76 13
REMARK SMILES IDX 71 15 72 16 73 17 74 18 75 19 8 21 9 22 10 23 11 24 12 26
REMARK SMILES IDX 13 27 14 28 66 29 15 30 65 31 16 32 17 33 18 34 59 35 19 36
REMARK SMILES IDX 64 37 58 38 60 39 20 40 63 41 57 42 56 43 21 45 47 46 30 47
REMARK SMILES IDX 46 48 31 49 34 50 45 51 61 52 32 53 33 54 44 56 62 57 35 58
REMARK SMILES IDX 22 59 23 60 28 61 24 62 25 63 27 64 29 65 26 66 48 67 49 68
REMARK SMILES IDX 54 69 50 70 51 71 53 72 55 73 52 74 36 75 37 76 42 77 38 78
REMARK SMILES IDX 39 79 41 80 43 81 40 82
REMARK H PARENT 5 6 69 14 73 20 10 25 60 44 34 55
REMARK Flexibility Score: inf
ROOT
ATOM      1  C   UNL A   1      32.269  27.820  26.957  1.00  0.00     0.023 C 
ENDROOT
BRANCH   1   2
ATOM      2  C   UNL A   1      31.304  27.032  26.078  1.00  0.00     0.116 C 
BRANCH   2   3
ATOM      3  N   UNL A   1      30.908  25.772  26.670  1.00  0.00    -0.356 N 
ATOM      4  C   UNL A   1      31.465  24.533  26.591  1.00  0.00     0.228 C 
ATOM      5  O   UNL A   1      30.981  23.680  27.341  1.00  0.00    -0.275 OA
ATOM      6  H   UNL A   1      30.096  25.820  27.225  1.00  0.00     0.163 HD
BRANCH   4   7
ATOM      7  C   UNL A   1      32.624  24.221  25.636  1.00  0.00     0.133 C 
ATOM      8  C   UNL A   1      33.645  23.361  26.405  1.00  0.00     0.024 C 
BRANCH   7   9
ATOM      9  C   UNL A   1      32.289  23.526  24.262  1.00  0.00     0.193 C 
ATOM     10  C   UNL A   1      32.775  22.065  24.197  1.00  0.00     0.076 C 
BRANCH   9  11
ATOM     11  N   UNL A   1      32.505  24.297  23.017  1.00  0.00    -0.327 N 
ATOM     12  C   UNL A   1      33.816  24.951  22.877  1.00  0.00     0.269 C 
ATOM     13  C   UNL A   1      31.483  25.305  22.707  1.00  0.00     0.328 C 
ATOM     14  H   UNL A   1      32.442  23.531  22.346  1.00  0.00     0.348 HD
ATOM     15  C   UNL A   1      33.553  26.452  22.773  1.00  0.00     0.132 C 
ATOM     16  C   UNL A   1      32.192  26.518  22.083  1.00  0.00     0.245 C 
BRANCH  16  17
ATOM     17  N   UNL A   1      31.471  27.811  22.133  1.00  0.00    -0.333 N 
ATOM     18  C   UNL A   1      30.117  27.642  22.671  1.00  0.00     0.332 C 
ATOM     19  C   UNL A   1      32.180  28.865  22.854  1.00  0.00     0.332 C 
ATOM     20  H   UNL A   1      31.413  28.123  21.164  1.00  0.00     0.348 HD
ENDBRANCH  16  17
ENDBRANCH   9  11
ENDBRANCH   7   9
ENDBRANCH   4   7
ENDBRANCH   2   3
ENDBRANCH   1   2
BRANCH   1  21
ATOM     21  C   UNL A   1      33.742  27.733  26.572  1.00  0.00     0.023 C 
BRANCH  21  22
ATOM     22  C   UNL A   1      34.318  28.982  25.937  1.00  0.00     0.116 C 
BRANCH  22  23
ATOM     23  N   UNL A   1      33.874  30.197  26.597  1.00  0.00    -0.352 N 
ATOM     24  C   UNL A   1      34.419  30.856  27.668  1.00  0.00     0.251 C 
ATOM     25  H   UNL A   1      33.063  30.608  26.218  1.00  0.00     0.163 HD
ATOM     26  O   UNL A   1      33.803  31.787  28.187  1.00  0.00    -0.269 OA
BRANCH  24  27
ATOM     27  C   UNL A   1      35.725  30.435  28.218  1.00  0.00     0.039 A 
ATOM     28  C   UNL A   1      35.742  29.564  29.308  1.00  0.00     0.014 A 
ATOM     29  C   UNL A   1      36.927  30.893  27.671  1.00  0.00     0.014 A 
ATOM     30  C   UNL A   1      36.962  29.118  29.815  1.00  0.00     0.010 A 
ATOM     31  C   UNL A   1      38.136  30.362  28.104  1.00  0.00     0.010 A 
ATOM     32  C   UNL A   1      38.170  29.487  29.197  1.00  0.00    -0.014 A 
BRANCH  32  33
ATOM     33  C   UNL A   1      39.468  28.981  29.710  1.00  0.00     0.031 A 
ATOM     34  C   UNL A   1      40.093  29.596  30.933  1.00  0.00     0.074 A 
ATOM     35  C   UNL A   1      40.089  27.978  29.061  1.00  0.00     0.049 A 
ATOM     36  N   UNL A   1      41.204  29.271  31.544  1.00  0.00    -0.248 NA
ATOM     37  C   UNL A   1      39.393  30.742  31.539  1.00  0.00     0.031 C 
ATOM     38  C   UNL A   1      39.620  27.350  27.824  1.00  0.00     0.029 A 
ATOM     39  N   UNL A   1      41.248  27.304  29.356  1.00  0.00    -0.354 N 
ATOM     40  C   UNL A   1      41.330  30.165  32.601  1.00  0.00     0.074 A 
ATOM     41  C   UNL A   1      40.231  31.097  32.501  1.00  0.00     0.031 C 
ATOM     42  C   UNL A   1      40.459  26.357  27.489  1.00  0.00     0.029 A 
ATOM     43  C   UNL A   1      41.542  26.301  28.465  1.00  0.00     0.049 A 
ATOM     44  H   UNL A   1      41.814  27.520  30.131  1.00  0.00     0.167 HD
ATOM     45  C   UNL A   1      42.255  30.184  33.589  1.00  0.00     0.037 A 
ATOM     46  C   UNL A   1      42.570  25.432  28.441  1.00  0.00     0.037 A 
ATOM     47  C   UNL A   1      43.345  29.249  33.690  1.00  0.00     0.049 A 
ATOM     48  C   UNL A   1      43.586  25.476  29.548  1.00  0.00     0.074 A 
ATOM     49  C   UNL A   1      44.320  29.162  34.667  1.00  0.00     0.029 A 
ATOM     50  N   UNL A   1      43.602  28.237  32.776  1.00  0.00    -0.354 N 
ATOM     51  N   UNL A   1      43.650  26.281  30.582  1.00  0.00    -0.248 NA
ATOM     52  C   UNL A   1      44.666  24.481  29.493  1.00  0.00     0.031 C 
ATOM     53  C   UNL A   1      45.194  28.126  34.321  1.00  0.00     0.029 A 
ATOM     54  C   UNL A   1      44.730  27.531  33.159  1.00  0.00     0.049 A 
ATOM     55  H   UNL A   1      43.063  28.051  31.974  1.00  0.00     0.167 HD
ATOM     56  C   UNL A   1      44.759  25.873  31.313  1.00  0.00     0.074 A 
ATOM     57  C   UNL A   1      45.319  24.733  30.618  1.00  0.00     0.031 C 
ATOM     58  C   UNL A   1      45.273  26.397  32.453  1.00  0.00     0.037 A 
BRANCH  45  59
ATOM     59  C   UNL A   1      42.112  31.239  34.650  1.00  0.00     0.057 A 
ATOM     60  C   UNL A   1      41.298  31.045  35.774  1.00  0.00     0.134 A 
ATOM     61  C   UNL A   1      42.819  32.444  34.567  1.00  0.00     0.134 A 
ATOM     62  F   UNL A   1      40.582  29.918  35.909  1.00  0.00    -0.206 F 
ATOM     63  C   UNL A   1      41.171  32.021  36.764  1.00  0.00     0.040 A 
ATOM     64  C   UNL A   1      42.724  33.417  35.566  1.00  0.00     0.040 A 
ATOM     65  F   UNL A   1      43.619  32.696  33.521  1.00  0.00    -0.206 F 
ATOM     66  C   UNL A   1      41.893  33.209  36.664  1.00  0.00     0.006 A 
ENDBRANCH  45  59
BRANCH  46  67
ATOM     67  C   UNL A   1      42.681  24.435  27.344  1.00  0.00     0.057 A 
ATOM     68  C   UNL A   1      43.317  24.747  26.136  1.00  0.00     0.134 A 
ATOM     69  C   UNL A   1      42.132  23.153  27.469  1.00  0.00     0.134 A 
ATOM     70  F   UNL A   1      43.850  25.963  25.948  1.00  0.00    -0.206 F 
ATOM     71  C   UNL A   1      43.374  23.834  25.082  1.00  0.00     0.040 A 
ATOM     72  C   UNL A   1      42.210  22.219  26.435  1.00  0.00     0.040 A 
ATOM     73  F   UNL A   1      41.520  22.785  28.605  1.00  0.00    -0.206 F 
ATOM     74  C   UNL A   1      42.823  22.563  25.232  1.00  0.00     0.006 A 
ENDBRANCH  46  67
BRANCH  58  75
ATOM     75  C   UNL A   1      46.480  25.718  33.031  1.00  0.00     0.057 A 
ATOM     76  C   UNL A   1      46.371  24.675  33.961  1.00  0.00     0.134 A 
ATOM     77  C   UNL A   1      47.769  26.104  32.643  1.00  0.00     0.134 A 
ATOM     78  F   UNL A   1      45.166  24.264  34.384  1.00  0.00    -0.206 F 
ATOM     79  C   UNL A   1      47.500  24.070  34.515  1.00  0.00     0.040 A 
ATOM     80  C   UNL A   1      48.906  25.483  33.164  1.00  0.00     0.040 A 
ATOM     81  F   UNL A   1      47.947  27.087  31.747  1.00  0.00    -0.206 F 
ATOM     82  C   UNL A   1      48.773  24.472  34.112  1.00  0.00     0.006 A 
ENDBRANCH  58  75
ENDBRANCH  32  33
ENDBRANCH  24  27
ENDBRANCH  22  23
ENDBRANCH  21  22
ENDBRANCH   1  21
TORSDOF 14
ENDMDL
