MODEL 1
REMARK VINA RESULT:     -11.0      0.000      0.000
REMARK SMILES CC(C)N(CCCC(=O)NCCCCNC(=O)c1ccc(-c2c3nc(c(-c4c(F)cccc4F)c4ccc([nH]4)c(-c4c(F)cccc4F)c4nc(c(-c5c(F)cccc5F)c5ccc2[nH]5)C=C4)C=C3)cc1)c1cc(Cl)c(Cl)cc1[N+](=O)[O-]
REMARK SMILES IDX 11 1 10 2 8 3 9 4 7 6 6 7 5 8 4 9 2 10 1 11 3 12 72 13 73 14
REMARK SMILES IDX 79 15 74 16 78 17 75 18 76 19 77 20 80 21 81 22 82 23 12 24
REMARK SMILES IDX 13 25 14 26 15 27 16 28 17 30 18 31 19 32 71 33 20 34 70 35
REMARK SMILES IDX 21 36 22 37 23 38 64 39 24 40 69 41 63 42 65 43 25 44 68 45
REMARK SMILES IDX 62 46 61 47 26 49 52 50 35 51 51 52 36 53 39 54 50 55 66 56
REMARK SMILES IDX 37 57 38 58 49 60 67 61 40 62 27 63 28 64 33 65 29 66 30 67
REMARK SMILES IDX 32 68 34 69 31 70 53 71 54 72 59 73 55 74 56 75 58 76 60 77
REMARK SMILES IDX 57 78 41 79 42 80 47 81 43 82 44 83 46 84 48 85 45 86
REMARK H PARENT 10 5 15 29 65 48 39 59
REMARK Flexibility Score: inf
ROOT
ATOM      1  C   UNL A   1      31.695  29.267  24.951  1.00  0.00     0.116 C 
ENDROOT
BRANCH   1   2
ATOM      2  N   UNL A   1      32.630  29.320  23.849  1.00  0.00    -0.356 N 
ATOM      3  C   UNL A   1      33.562  28.396  23.485  1.00  0.00     0.220 C 
ATOM      4  O   UNL A   1      34.437  28.723  22.685  1.00  0.00    -0.275 OA
ATOM      5  H   UNL A   1      32.588  30.129  23.290  1.00  0.00     0.163 HD
BRANCH   3   6
ATOM      6  C   UNL A   1      33.458  26.977  24.010  1.00  0.00     0.102 C 
BRANCH   6   7
ATOM      7  C   UNL A   1      32.894  25.927  23.047  1.00  0.00     0.031 C 
BRANCH   7   8
ATOM      8  C   UNL A   1      32.131  24.718  23.606  1.00  0.00     0.117 C 
BRANCH   8   9
ATOM      9  N   UNL A   1      32.528  24.127  24.920  1.00  0.00    -0.364 N 
BRANCH   9  10
ATOM     10  C   UNL A   1      31.644  24.490  26.068  1.00  0.00     0.076 C 
ATOM     11  C   UNL A   1      30.411  25.301  25.685  1.00  0.00     0.030 C 
ATOM     12  C   UNL A   1      31.285  23.280  26.921  1.00  0.00     0.030 C 
ENDBRANCH   9  10
BRANCH   9  13
ATOM     13  C   UNL A   1      33.588  23.239  25.033  1.00  0.00     0.117 A 
ATOM     14  C   UNL A   1      34.811  23.747  25.519  1.00  0.00     0.055 A 
ATOM     15  C   UNL A   1      33.623  21.871  24.686  1.00  0.00     0.294 A 
ATOM     16  C   UNL A   1      36.008  23.009  25.506  1.00  0.00     0.062 A 
ATOM     17  C   UNL A   1      34.805  21.101  24.699  1.00  0.00     0.110 A 
ATOM     18  Cl  UNL A   1      37.458  23.826  25.964  1.00  0.00    -0.083 Cl
ATOM     19  C   UNL A   1      36.006  21.684  25.076  1.00  0.00     0.066 A 
ATOM     20  Cl  UNL A   1      37.438  20.731  24.959  1.00  0.00    -0.082 Cl
BRANCH  15  21
ATOM     21  N   UNL A   1      32.468  21.145  24.210  1.00  0.00     0.065 N 
ATOM     22  O   UNL A   1      31.883  20.430  25.035  1.00  0.00    -0.258 OA
ATOM     23  O   UNL A   1      32.222  21.198  23.000  1.00  0.00    -0.258 OA
ENDBRANCH  15  21
ENDBRANCH   9  13
ENDBRANCH   8   9
ENDBRANCH   7   8
ENDBRANCH   6   7
ENDBRANCH   3   6
ENDBRANCH   1   2
BRANCH   1  24
ATOM     24  C   UNL A   1      32.346  29.854  26.206  1.00  0.00     0.023 C 
BRANCH  24  25
ATOM     25  C   UNL A   1      31.878  31.261  26.535  1.00  0.00     0.023 C 
BRANCH  25  26
ATOM     26  C   UNL A   1      32.926  32.103  27.248  1.00  0.00     0.116 C 
BRANCH  26  27
ATOM     27  N   UNL A   1      32.518  33.481  27.492  1.00  0.00    -0.352 N 
ATOM     28  C   UNL A   1      33.050  34.382  28.383  1.00  0.00     0.251 C 
ATOM     29  H   UNL A   1      31.765  33.808  26.948  1.00  0.00     0.163 HD
ATOM     30  O   UNL A   1      32.553  35.490  28.555  1.00  0.00    -0.269 OA
BRANCH  28  31
ATOM     31  C   UNL A   1      34.231  33.970  29.162  1.00  0.00     0.039 A 
ATOM     32  C   UNL A   1      34.061  33.113  30.249  1.00  0.00     0.014 A 
ATOM     33  C   UNL A   1      35.509  34.353  28.743  1.00  0.00     0.014 A 
ATOM     34  C   UNL A   1      35.186  32.563  30.859  1.00  0.00     0.010 A 
ATOM     35  C   UNL A   1      36.622  33.726  29.287  1.00  0.00     0.010 A 
ATOM     36  C   UNL A   1      36.470  32.823  30.347  1.00  0.00    -0.014 A 
BRANCH  36  37
ATOM     37  C   UNL A   1      37.657  32.132  30.899  1.00  0.00     0.031 A 
ATOM     38  C   UNL A   1      38.160  32.465  32.274  1.00  0.00     0.074 A 
ATOM     39  C   UNL A   1      38.310  31.236  30.134  1.00  0.00     0.049 A 
ATOM     40  N   UNL A   1      39.164  31.945  32.933  1.00  0.00    -0.248 NA
ATOM     41  C   UNL A   1      37.470  33.549  32.992  1.00  0.00     0.031 C 
ATOM     42  C   UNL A   1      37.970  30.897  28.748  1.00  0.00     0.029 A 
ATOM     43  N   UNL A   1      39.390  30.439  30.413  1.00  0.00    -0.354 N 
ATOM     44  C   UNL A   1      39.226  32.640  34.134  1.00  0.00     0.074 A 
ATOM     45  C   UNL A   1      38.207  33.665  34.085  1.00  0.00     0.031 C 
ATOM     46  C   UNL A   1      38.796  29.929  28.317  1.00  0.00     0.029 A 
ATOM     47  C   UNL A   1      39.733  29.596  29.384  1.00  0.00     0.049 A 
ATOM     48  H   UNL A   1      39.874  30.469  31.270  1.00  0.00     0.167 HD
ATOM     49  C   UNL A   1      40.037  32.421  35.195  1.00  0.00     0.037 A 
ATOM     50  C   UNL A   1      40.686  28.649  29.318  1.00  0.00     0.037 A 
ATOM     51  C   UNL A   1      41.031  31.382  35.247  1.00  0.00     0.049 A 
ATOM     52  C   UNL A   1      41.542  28.394  30.527  1.00  0.00     0.074 A 
ATOM     53  C   UNL A   1      41.860  31.032  36.297  1.00  0.00     0.029 A 
ATOM     54  N   UNL A   1      41.329  30.525  34.198  1.00  0.00    -0.354 N 
ATOM     55  N   UNL A   1      41.528  28.995  31.691  1.00  0.00    -0.248 NA
ATOM     56  C   UNL A   1      42.533  27.315  30.416  1.00  0.00     0.031 C 
ATOM     57  C   UNL A   1      42.685  29.985  35.871  1.00  0.00     0.029 A 
ATOM     58  C   UNL A   1      42.340  29.655  34.570  1.00  0.00     0.049 A 
ATOM     59  H   UNL A   1      40.886  30.534  33.318  1.00  0.00     0.167 HD
ATOM     60  C   UNL A   1      42.493  28.357  32.460  1.00  0.00     0.074 A 
ATOM     61  C   UNL A   1      43.053  27.305  31.634  1.00  0.00     0.031 C 
ATOM     62  C   UNL A   1      42.885  28.620  33.730  1.00  0.00     0.037 A 
BRANCH  49  63
ATOM     63  C   UNL A   1      39.863  33.316  36.387  1.00  0.00     0.057 A 
ATOM     64  C   UNL A   1      40.612  34.491  36.541  1.00  0.00     0.134 A 
ATOM     65  C   UNL A   1      38.930  33.010  37.384  1.00  0.00     0.134 A 
ATOM     66  F   UNL A   1      41.535  34.834  35.630  1.00  0.00    -0.206 F 
ATOM     67  C   UNL A   1      40.459  35.315  37.658  1.00  0.00     0.040 A 
ATOM     68  C   UNL A   1      38.747  33.840  38.492  1.00  0.00     0.040 A 
ATOM     69  F   UNL A   1      38.179  31.901  37.298  1.00  0.00    -0.206 F 
ATOM     70  C   UNL A   1      39.519  34.992  38.634  1.00  0.00     0.006 A 
ENDBRANCH  49  63
BRANCH  50  71
ATOM     71  C   UNL A   1      40.843  27.836  28.087  1.00  0.00     0.057 A 
ATOM     72  C   UNL A   1      41.643  28.279  27.027  1.00  0.00     0.134 A 
ATOM     73  C   UNL A   1      40.199  26.603  27.936  1.00  0.00     0.134 A 
ATOM     74  F   UNL A   1      42.274  29.460  27.106  1.00  0.00    -0.206 F 
ATOM     75  C   UNL A   1      41.778  27.538  25.852  1.00  0.00     0.040 A 
ATOM     76  C   UNL A   1      40.344  25.839  26.776  1.00  0.00     0.040 A 
ATOM     77  F   UNL A   1      39.427  26.116  28.920  1.00  0.00    -0.206 F 
ATOM     78  C   UNL A   1      41.130  26.312  25.727  1.00  0.00     0.006 A 
ENDBRANCH  50  71
BRANCH  62  79
ATOM     79  C   UNL A   1      43.957  27.740  34.301  1.00  0.00     0.057 A 
ATOM     80  C   UNL A   1      45.312  28.089  34.234  1.00  0.00     0.134 A 
ATOM     81  C   UNL A   1      43.630  26.532  34.930  1.00  0.00     0.134 A 
ATOM     82  F   UNL A   1      45.691  29.227  33.632  1.00  0.00    -0.206 F 
ATOM     83  C   UNL A   1      46.306  27.252  34.741  1.00  0.00     0.040 A 
ATOM     84  C   UNL A   1      44.613  25.700  35.466  1.00  0.00     0.040 A 
ATOM     85  F   UNL A   1      42.350  26.144  35.036  1.00  0.00    -0.206 F 
ATOM     86  C   UNL A   1      45.957  26.055  35.362  1.00  0.00     0.006 A 
ENDBRANCH  62  79
ENDBRANCH  36  37
ENDBRANCH  28  31
ENDBRANCH  26  27
ENDBRANCH  25  26
ENDBRANCH  24  25
ENDBRANCH   1  24
TORSDOF 17
ENDMDL
MODEL 2
REMARK VINA RESULT:     -11.0      3.374      4.779
REMARK SMILES CC(C)N(CCCC(=O)NCCCCNC(=O)c1ccc(-c2c3nc(c(-c4c(F)cccc4F)c4ccc([nH]4)c(-c4c(F)cccc4F)c4nc(c(-c5c(F)cccc5F)c5ccc2[nH]5)C=C4)C=C3)cc1)c1cc(Cl)c(Cl)cc1[N+](=O)[O-]
REMARK SMILES IDX 11 1 10 2 8 3 9 4 7 6 6 7 5 8 4 9 2 10 1 11 3 12 72 13 73 14
REMARK SMILES IDX 79 15 74 16 78 17 75 18 76 19 77 20 80 21 81 22 82 23 12 24
REMARK SMILES IDX 13 25 14 26 15 27 16 28 17 30 18 31 19 32 71 33 20 34 70 35
REMARK SMILES IDX 21 36 22 37 23 38 64 39 24 40 69 41 63 42 65 43 25 44 68 45
REMARK SMILES IDX 62 46 61 47 26 49 52 50 35 51 51 52 36 53 39 54 50 55 66 56
REMARK SMILES IDX 37 57 38 58 49 60 67 61 40 62 27 63 28 64 33 65 29 66 30 67
REMARK SMILES IDX 32 68 34 69 31 70 53 71 54 72 59 73 55 74 56 75 58 76 60 77
REMARK SMILES IDX 57 78 41 79 42 80 47 81 43 82 44 83 46 84 48 85 45 86
REMARK H PARENT 10 5 15 29 65 48 39 59
REMARK Flexibility Score: inf
ROOT
ATOM      1  C   UNL A   1      31.392  28.367  24.341  1.00  0.00     0.116 C 
ENDROOT
BRANCH   1   2
ATOM      2  N   UNL A   1      32.253  28.531  23.191  1.00  0.00    -0.356 N 
ATOM      3  C   UNL A   1      33.367  27.821  22.861  1.00  0.00     0.220 C 
ATOM      4  O   UNL A   1      34.114  28.264  21.990  1.00  0.00    -0.275 OA
ATOM      5  H   UNL A   1      32.002  29.249  22.566  1.00  0.00     0.163 HD
BRANCH   3   6
ATOM      6  C   UNL A   1      33.622  26.476  23.512  1.00  0.00     0.102 C 
BRANCH   6   7
ATOM      7  C   UNL A   1      32.969  25.257  22.852  1.00  0.00     0.031 C 
BRANCH   7   8
ATOM      8  C   UNL A   1      32.111  24.305  23.697  1.00  0.00     0.117 C 
BRANCH   8   9
ATOM      9  N   UNL A   1      32.622  23.806  25.011  1.00  0.00    -0.364 N 
BRANCH   9  10
ATOM     10  C   UNL A   1      31.824  24.228  26.200  1.00  0.00     0.076 C 
ATOM     11  C   UNL A   1      30.671  25.175  25.885  1.00  0.00     0.030 C 
ATOM     12  C   UNL A   1      31.369  23.039  27.037  1.00  0.00     0.030 C 
ENDBRANCH   9  10
BRANCH   9  13
ATOM     13  C   UNL A   1      33.706  22.944  25.094  1.00  0.00     0.117 A 
ATOM     14  C   UNL A   1      34.930  23.483  25.543  1.00  0.00     0.055 A 
ATOM     15  C   UNL A   1      33.764  21.577  24.749  1.00  0.00     0.294 A 
ATOM     16  C   UNL A   1      36.144  22.774  25.496  1.00  0.00     0.062 A 
ATOM     17  C   UNL A   1      34.965  20.835  24.729  1.00  0.00     0.110 A 
ATOM     18  Cl  UNL A   1      37.587  23.627  25.909  1.00  0.00    -0.083 Cl
ATOM     19  C   UNL A   1      36.161  21.449  25.069  1.00  0.00     0.066 A 
ATOM     20  Cl  UNL A   1      37.612  20.529  24.913  1.00  0.00    -0.082 Cl
BRANCH  15  21
ATOM     21  N   UNL A   1      32.614  20.821  24.309  1.00  0.00     0.065 N 
ATOM     22  O   UNL A   1      32.340  20.880  23.102  1.00  0.00    -0.258 OA
ATOM     23  O   UNL A   1      31.928  20.272  25.177  1.00  0.00    -0.258 OA
ENDBRANCH  15  21
ENDBRANCH   9  13
ENDBRANCH   8   9
ENDBRANCH   7   8
ENDBRANCH   6   7
ENDBRANCH   3   6
ENDBRANCH   1   2
BRANCH   1  24
ATOM     24  C   UNL A   1      31.871  29.278  25.475  1.00  0.00     0.023 C 
BRANCH  24  25
ATOM     25  C   UNL A   1      32.340  28.523  26.707  1.00  0.00     0.023 C 
BRANCH  25  26
ATOM     26  C   UNL A   1      33.712  28.958  27.204  1.00  0.00     0.116 C 
BRANCH  26  27
ATOM     27  N   UNL A   1      33.724  30.265  27.848  1.00  0.00    -0.352 N 
ATOM     28  C   UNL A   1      34.753  30.869  28.530  1.00  0.00     0.251 C 
ATOM     29  H   UNL A   1      32.888  30.781  27.787  1.00  0.00     0.163 HD
ATOM     30  O   UNL A   1      34.604  31.941  29.106  1.00  0.00    -0.269 OA
BRANCH  28  31
ATOM     31  C   UNL A   1      36.052  30.175  28.580  1.00  0.00     0.039 A 
ATOM     32  C   UNL A   1      36.903  30.247  27.477  1.00  0.00     0.014 A 
ATOM     33  C   UNL A   1      36.460  29.545  29.760  1.00  0.00     0.014 A 
ATOM     34  C   UNL A   1      38.205  29.768  27.595  1.00  0.00     0.010 A 
ATOM     35  C   UNL A   1      37.785  29.161  29.906  1.00  0.00     0.010 A 
ATOM     36  C   UNL A   1      38.670  29.272  28.826  1.00  0.00    -0.014 A 
BRANCH  36  37
ATOM     37  C   UNL A   1      40.091  28.893  28.999  1.00  0.00     0.031 A 
ATOM     38  C   UNL A   1      41.058  29.843  29.644  1.00  0.00     0.074 A 
ATOM     39  C   UNL A   1      40.516  27.706  28.524  1.00  0.00     0.049 A 
ATOM     40  N   UNL A   1      42.330  29.674  29.905  1.00  0.00    -0.248 NA
ATOM     41  C   UNL A   1      40.543  31.170  30.015  1.00  0.00     0.031 C 
ATOM     42  C   UNL A   1      39.690  26.739  27.795  1.00  0.00     0.029 A 
ATOM     43  N   UNL A   1      41.747  27.106  28.589  1.00  0.00    -0.354 N 
ATOM     44  C   UNL A   1      42.761  30.870  30.462  1.00  0.00     0.074 A 
ATOM     45  C   UNL A   1      41.638  31.780  30.437  1.00  0.00     0.031 C 
ATOM     46  C   UNL A   1      40.425  25.648  27.523  1.00  0.00     0.029 A 
ATOM     47  C   UNL A   1      41.775  25.848  28.037  1.00  0.00     0.049 A 
ATOM     48  H   UNL A   1      42.536  27.535  28.992  1.00  0.00     0.167 HD
ATOM     49  C   UNL A   1      43.976  31.171  30.979  1.00  0.00     0.037 A 
ATOM     50  C   UNL A   1      42.775  24.950  27.971  1.00  0.00     0.037 A 
ATOM     51  C   UNL A   1      45.082  30.252  31.024  1.00  0.00     0.049 A 
ATOM     52  C   UNL A   1      44.100  25.291  28.595  1.00  0.00     0.074 A 
ATOM     53  C   UNL A   1      46.333  30.433  31.584  1.00  0.00     0.029 A 
ATOM     54  N   UNL A   1      45.064  28.974  30.486  1.00  0.00    -0.354 N 
ATOM     55  N   UNL A   1      44.468  26.392  29.203  1.00  0.00    -0.248 NA
ATOM     56  C   UNL A   1      45.141  24.256  28.537  1.00  0.00     0.031 C 
ATOM     57  C   UNL A   1      47.085  29.276  31.353  1.00  0.00     0.029 A 
ATOM     58  C   UNL A   1      46.288  28.359  30.687  1.00  0.00     0.049 A 
ATOM     59  H   UNL A   1      44.294  28.564  30.028  1.00  0.00     0.167 HD
ATOM     60  C   UNL A   1      45.776  26.178  29.618  1.00  0.00     0.074 A 
ATOM     61  C   UNL A   1      46.124  24.830  29.214  1.00  0.00     0.031 C 
ATOM     62  C   UNL A   1      46.615  27.019  30.270  1.00  0.00     0.037 A 
BRANCH  49  63
ATOM     63  C   UNL A   1      44.156  32.548  31.550  1.00  0.00     0.057 A 
ATOM     64  C   UNL A   1      43.938  32.816  32.908  1.00  0.00     0.134 A 
ATOM     65  C   UNL A   1      44.565  33.613  30.739  1.00  0.00     0.134 A 
ATOM     66  F   UNL A   1      43.528  31.843  33.737  1.00  0.00    -0.206 F 
ATOM     67  C   UNL A   1      44.092  34.100  33.434  1.00  0.00     0.040 A 
ATOM     68  C   UNL A   1      44.750  34.896  31.259  1.00  0.00     0.040 A 
ATOM     69  F   UNL A   1      44.793  33.426  29.431  1.00  0.00    -0.206 F 
ATOM     70  C   UNL A   1      44.505  35.143  32.609  1.00  0.00     0.006 A 
ENDBRANCH  49  63
BRANCH  50  71
ATOM     71  C   UNL A   1      42.548  23.626  27.342  1.00  0.00     0.057 A 
ATOM     72  C   UNL A   1      42.143  22.525  28.105  1.00  0.00     0.134 A 
ATOM     73  C   UNL A   1      42.731  23.426  25.969  1.00  0.00     0.134 A 
ATOM     74  F   UNL A   1      41.965  22.650  29.429  1.00  0.00    -0.206 F 
ATOM     75  C   UNL A   1      41.951  21.267  27.531  1.00  0.00     0.040 A 
ATOM     76  C   UNL A   1      42.520  22.180  25.377  1.00  0.00     0.040 A 
ATOM     77  F   UNL A   1      43.107  24.445  25.180  1.00  0.00    -0.206 F 
ATOM     78  C   UNL A   1      42.137  21.094  26.162  1.00  0.00     0.006 A 
ENDBRANCH  50  71
BRANCH  62  79
ATOM     79  C   UNL A   1      47.980  26.492  30.597  1.00  0.00     0.057 A 
ATOM     80  C   UNL A   1      48.244  25.826  31.802  1.00  0.00     0.134 A 
ATOM     81  C   UNL A   1      49.041  26.644  29.696  1.00  0.00     0.134 A 
ATOM     82  F   UNL A   1      47.273  25.660  32.713  1.00  0.00    -0.206 F 
ATOM     83  C   UNL A   1      49.522  25.363  32.114  1.00  0.00     0.040 A 
ATOM     84  C   UNL A   1      50.317  26.161  29.984  1.00  0.00     0.040 A 
ATOM     85  F   UNL A   1      48.852  27.263  28.521  1.00  0.00    -0.206 F 
ATOM     86  C   UNL A   1      50.562  25.527  31.201  1.00  0.00     0.006 A 
ENDBRANCH  62  79
ENDBRANCH  36  37
ENDBRANCH  28  31
ENDBRANCH  26  27
ENDBRANCH  25  26
ENDBRANCH  24  25
ENDBRANCH   1  24
TORSDOF 17
ENDMDL
MODEL 3
REMARK VINA RESULT:     -11.0      2.020      2.405
REMARK SMILES CC(C)N(CCCC(=O)NCCCCNC(=O)c1ccc(-c2c3nc(c(-c4c(F)cccc4F)c4ccc([nH]4)c(-c4c(F)cccc4F)c4nc(c(-c5c(F)cccc5F)c5ccc2[nH]5)C=C4)C=C3)cc1)c1cc(Cl)c(Cl)cc1[N+](=O)[O-]
REMARK SMILES IDX 11 1 10 2 8 3 9 4 7 6 6 7 5 8 4 9 2 10 1 11 3 12 72 13 73 14
REMARK SMILES IDX 79 15 74 16 78 17 75 18 76 19 77 20 80 21 81 22 82 23 12 24
REMARK SMILES IDX 13 25 14 26 15 27 16 28 17 30 18 31 19 32 71 33 20 34 70 35
REMARK SMILES IDX 21 36 22 37 23 38 64 39 24 40 69 41 63 42 65 43 25 44 68 45
REMARK SMILES IDX 62 46 61 47 26 49 52 50 35 51 51 52 36 53 39 54 50 55 66 56
REMARK SMILES IDX 37 57 38 58 49 60 67 61 40 62 27 63 28 64 33 65 29 66 30 67
REMARK SMILES IDX 32 68 34 69 31 70 53 71 54 72 59 73 55 74 56 75 58 76 60 77
REMARK SMILES IDX 57 78 41 79 42 80 47 81 43 82 44 83 46 84 48 85 45 86
REMARK H PARENT 10 5 15 29 65 48 39 59
REMARK Flexibility Score: inf
ROOT
ATOM      1  C   UNL A   1      31.376  29.013  25.403  1.00  0.00     0.116 C 
ENDROOT
BRANCH   1   2
ATOM      2  N   UNL A   1      30.975  29.132  24.018  1.00  0.00    -0.356 N 
ATOM      3  C   UNL A   1      30.308  28.227  23.250  1.00  0.00     0.220 C 
ATOM      4  O   UNL A   1      30.280  28.393  22.031  1.00  0.00    -0.275 OA
ATOM      5  H   UNL A   1      31.216  29.976  23.574  1.00  0.00     0.163 HD
BRANCH   3   6
ATOM      6  C   UNL A   1      29.555  27.089  23.912  1.00  0.00     0.102 C 
BRANCH   6   7
ATOM      7  C   UNL A   1      30.173  25.692  23.790  1.00  0.00     0.031 C 
BRANCH   7   8
ATOM      8  C   UNL A   1      30.953  25.101  24.973  1.00  0.00     0.117 C 
BRANCH   8   9
ATOM      9  N   UNL A   1      32.300  24.492  24.750  1.00  0.00    -0.364 N 
BRANCH   9  10
ATOM     10  C   UNL A   1      33.438  25.457  24.752  1.00  0.00     0.076 C 
ATOM     11  C   UNL A   1      33.532  26.329  23.505  1.00  0.00     0.030 C 
ATOM     12  C   UNL A   1      33.484  26.288  26.029  1.00  0.00     0.030 C 
ENDBRANCH   9  10
BRANCH   9  13
ATOM     13  C   UNL A   1      32.472  23.119  24.639  1.00  0.00     0.117 A 
ATOM     14  C   UNL A   1      32.306  22.546  23.361  1.00  0.00     0.055 A 
ATOM     15  C   UNL A   1      32.762  22.189  25.660  1.00  0.00     0.294 A 
ATOM     16  C   UNL A   1      32.265  21.157  23.141  1.00  0.00     0.062 A 
ATOM     17  C   UNL A   1      32.763  20.793  25.456  1.00  0.00     0.110 A 
ATOM     18  Cl  UNL A   1      31.874  20.607  21.552  1.00  0.00    -0.083 Cl
ATOM     19  C   UNL A   1      32.477  20.278  24.200  1.00  0.00     0.066 A 
ATOM     20  Cl  UNL A   1      32.374  18.565  24.036  1.00  0.00    -0.082 Cl
BRANCH  15  21
ATOM     21  N   UNL A   1      33.012  22.571  27.031  1.00  0.00     0.065 N 
ATOM     22  O   UNL A   1      32.017  22.753  27.747  1.00  0.00    -0.258 OA
ATOM     23  O   UNL A   1      34.183  22.798  27.354  1.00  0.00    -0.258 OA
ENDBRANCH  15  21
ENDBRANCH   9  13
ENDBRANCH   8   9
ENDBRANCH   7   8
ENDBRANCH   6   7
ENDBRANCH   3   6
ENDBRANCH   1   2
BRANCH   1  24
ATOM     24  C   UNL A   1      32.421  30.084  25.729  1.00  0.00     0.023 C 
BRANCH  24  25
ATOM     25  C   UNL A   1      31.993  31.038  26.830  1.00  0.00     0.023 C 
BRANCH  25  26
ATOM     26  C   UNL A   1      33.086  32.006  27.258  1.00  0.00     0.116 C 
BRANCH  26  27
ATOM     27  N   UNL A   1      32.600  33.333  27.615  1.00  0.00    -0.352 N 
ATOM     28  C   UNL A   1      33.157  34.239  28.485  1.00  0.00     0.251 C 
ATOM     29  H   UNL A   1      31.765  33.616  27.177  1.00  0.00     0.163 HD
ATOM     30  O   UNL A   1      32.596  35.293  28.768  1.00  0.00    -0.269 OA
BRANCH  28  31
ATOM     31  C   UNL A   1      34.450  33.898  29.105  1.00  0.00     0.039 A 
ATOM     32  C   UNL A   1      34.466  33.077  30.232  1.00  0.00     0.014 A 
ATOM     33  C   UNL A   1      35.642  34.310  28.500  1.00  0.00     0.014 A 
ATOM     34  C   UNL A   1      35.686  32.590  30.696  1.00  0.00     0.010 A 
ATOM     35  C   UNL A   1      36.843  33.744  28.903  1.00  0.00     0.010 A 
ATOM     36  C   UNL A   1      36.875  32.876  30.002  1.00  0.00    -0.014 A 
BRANCH  36  37
ATOM     37  C   UNL A   1      38.154  32.248  30.406  1.00  0.00     0.031 A 
ATOM     38  C   UNL A   1      39.002  32.870  31.477  1.00  0.00     0.074 A 
ATOM     39  C   UNL A   1      38.570  31.138  29.766  1.00  0.00     0.049 A 
ATOM     40  N   UNL A   1      40.134  32.449  31.980  1.00  0.00    -0.248 NA
ATOM     41  C   UNL A   1      38.540  34.152  32.032  1.00  0.00     0.031 C 
ATOM     42  C   UNL A   1      37.877  30.494  28.646  1.00  0.00     0.029 A 
ATOM     43  N   UNL A   1      39.673  30.350  29.968  1.00  0.00    -0.354 N 
ATOM     44  C   UNL A   1      40.518  33.414  32.902  1.00  0.00     0.074 A 
ATOM     45  C   UNL A   1      39.538  34.475  32.839  1.00  0.00     0.031 C 
ATOM     46  C   UNL A   1      38.546  29.385  28.293  1.00  0.00     0.029 A 
ATOM     47  C   UNL A   1      39.723  29.251  29.144  1.00  0.00     0.049 A 
ATOM     48  H   UNL A   1      40.364  30.551  30.640  1.00  0.00     0.167 HD
ATOM     49  C   UNL A   1      41.574  33.399  33.749  1.00  0.00     0.037 A 
ATOM     50  C   UNL A   1      40.611  28.241  29.096  1.00  0.00     0.037 A 
ATOM     51  C   UNL A   1      42.531  32.328  33.825  1.00  0.00     0.049 A 
ATOM     52  C   UNL A   1      41.747  28.225  30.079  1.00  0.00     0.074 A 
ATOM     53  C   UNL A   1      43.599  32.183  34.690  1.00  0.00     0.029 A 
ATOM     54  N   UNL A   1      42.531  31.215  32.997  1.00  0.00    -0.354 N 
ATOM     55  N   UNL A   1      42.047  29.097  31.010  1.00  0.00    -0.248 NA
ATOM     56  C   UNL A   1      42.658  27.074  30.013  1.00  0.00     0.031 C 
ATOM     57  C   UNL A   1      44.267  30.998  34.364  1.00  0.00     0.029 A 
ATOM     58  C   UNL A   1      43.590  30.383  33.322  1.00  0.00     0.049 A 
ATOM     59  H   UNL A   1      41.875  31.041  32.284  1.00  0.00     0.167 HD
ATOM     60  C   UNL A   1      43.168  28.593  31.656  1.00  0.00     0.074 A 
ATOM     61  C   UNL A   1      43.477  27.326  31.024  1.00  0.00     0.031 C 
ATOM     62  C   UNL A   1      43.882  29.130  32.675  1.00  0.00     0.037 A 
BRANCH  49  63
ATOM     63  C   UNL A   1      41.730  34.575  34.669  1.00  0.00     0.057 A 
ATOM     64  C   UNL A   1      42.489  35.697  34.308  1.00  0.00     0.134 A 
ATOM     65  C   UNL A   1      41.107  34.593  35.922  1.00  0.00     0.134 A 
ATOM     66  F   UNL A   1      43.126  35.737  33.127  1.00  0.00    -0.206 F 
ATOM     67  C   UNL A   1      42.645  36.783  35.171  1.00  0.00     0.040 A 
ATOM     68  C   UNL A   1      41.233  35.685  36.784  1.00  0.00     0.040 A 
ATOM     69  F   UNL A   1      40.366  33.552  36.330  1.00  0.00    -0.206 F 
ATOM     70  C   UNL A   1      42.010  36.780  36.411  1.00  0.00     0.006 A 
ENDBRANCH  49  63
BRANCH  50  71
ATOM     71  C   UNL A   1      40.429  27.137  28.122  1.00  0.00     0.057 A 
ATOM     72  C   UNL A   1      41.049  27.173  26.867  1.00  0.00     0.134 A 
ATOM     73  C   UNL A   1      39.634  26.024  28.416  1.00  0.00     0.134 A 
ATOM     74  F   UNL A   1      41.812  28.221  26.521  1.00  0.00    -0.206 F 
ATOM     75  C   UNL A   1      40.865  26.155  25.931  1.00  0.00     0.040 A 
ATOM     76  C   UNL A   1      39.460  24.987  27.498  1.00  0.00     0.040 A 
ATOM     77  F   UNL A   1      39.022  25.924  29.606  1.00  0.00    -0.206 F 
ATOM     78  C   UNL A   1      40.071  25.055  26.248  1.00  0.00     0.006 A 
ENDBRANCH  50  71
BRANCH  62  79
ATOM     79  C   UNL A   1      45.050  28.334  33.174  1.00  0.00     0.057 A 
ATOM     80  C   UNL A   1      46.341  28.516  32.660  1.00  0.00     0.134 A 
ATOM     81  C   UNL A   1      44.886  27.379  34.185  1.00  0.00     0.134 A 
ATOM     82  F   UNL A   1      46.562  29.407  31.680  1.00  0.00    -0.206 F 
ATOM     83  C   UNL A   1      47.419  27.752  33.107  1.00  0.00     0.040 A 
ATOM     84  C   UNL A   1      45.961  26.628  34.660  1.00  0.00     0.040 A 
ATOM     85  F   UNL A   1      43.678  27.162  34.727  1.00  0.00    -0.206 F 
ATOM     86  C   UNL A   1      47.230  26.807  34.113  1.00  0.00     0.006 A 
ENDBRANCH  62  79
ENDBRANCH  36  37
ENDBRANCH  28  31
ENDBRANCH  26  27
ENDBRANCH  25  26
ENDBRANCH  24  25
ENDBRANCH   1  24
TORSDOF 17
ENDMDL
