MODEL 1
REMARK VINA RESULT:     -11.8      0.000      0.000
REMARK SMILES CC(C)(C)OC(=O)N1CCC[C@H]1C(=O)N[C@@H](Cc1ccccc1)C(=O)NCCCCNC(=O)c1ccc(-c2c3nc(c(-c4c(F)cccc4F)c4ccc([nH]4)c(-c4c(F)cccc4F)c4nc(c(-c5c(F)cccc5F)c5ccc2[nH]5)C=C4)C=C3)cc1
REMARK SMILES IDX 27 1 26 2 24 3 25 4 16 6 15 7 13 8 14 9 12 11 8 12 9 13
REMARK SMILES IDX 10 14 11 15 6 16 7 17 5 18 2 19 1 20 3 21 4 22 17 23 18 24
REMARK SMILES IDX 19 25 23 26 20 27 22 28 21 29 28 30 29 31 30 32 31 33 32 34
REMARK SMILES IDX 33 36 34 37 35 38 87 39 36 40 86 41 37 42 38 43 39 44 80 45
REMARK SMILES IDX 40 46 85 47 79 48 81 49 41 50 84 51 78 52 77 53 42 55 68 56
REMARK SMILES IDX 51 57 67 58 52 59 55 60 66 61 82 62 53 63 54 64 65 66 83 67
REMARK SMILES IDX 56 68 43 69 44 70 49 71 45 72 46 73 48 74 50 75 47 76 69 77
REMARK SMILES IDX 70 78 75 79 71 80 72 81 74 82 76 83 73 84 57 85 58 86 63 87
REMARK SMILES IDX 59 88 60 89 62 90 64 91 61 92
REMARK H PARENT 26 5 15 10 31 35 81 54 55 65
REMARK Flexibility Score: inf
ROOT
ATOM      1  C   UNL A   1      31.956  29.948  25.715  1.00  0.00     0.116 C 
ENDROOT
BRANCH   1   2
ATOM      2  N   UNL A   1      32.948  29.704  24.698  1.00  0.00    -0.354 N 
ATOM      3  C   UNL A   1      32.952  28.740  23.734  1.00  0.00     0.242 C 
ATOM      4  O   UNL A   1      33.694  28.927  22.762  1.00  0.00    -0.273 OA
ATOM      5  H   UNL A   1      33.722  30.313  24.700  1.00  0.00     0.163 HD
BRANCH   3   6
ATOM      6  C   UNL A   1      32.021  27.501  23.760  1.00  0.00     0.175 C 
BRANCH   6   7
ATOM      7  N   UNL A   1      31.460  27.153  25.069  1.00  0.00    -0.342 N 
ATOM      8  C   UNL A   1      31.160  25.943  25.627  1.00  0.00     0.243 C 
ATOM      9  O   UNL A   1      30.467  25.983  26.648  1.00  0.00    -0.273 OA
ATOM     10  H   UNL A   1      31.263  27.927  25.646  1.00  0.00     0.164 HD
BRANCH   8  11
ATOM     11  C   UNL A   1      31.724  24.620  25.044  1.00  0.00     0.178 C 
ATOM     12  N   UNL A   1      32.824  24.089  25.855  1.00  0.00    -0.296 N 
ATOM     13  C   UNL A   1      32.440  22.880  26.549  1.00  0.00     0.124 C 
ATOM     14  C   UNL A   1      31.465  22.252  25.580  1.00  0.00     0.024 C 
ATOM     15  C   UNL A   1      30.712  23.461  25.039  1.00  0.00     0.037 C 
BRANCH  12  16
ATOM     16  C   UNL A   1      34.100  24.597  25.786  1.00  0.00     0.410 C 
ATOM     17  O   UNL A   1      34.352  25.785  25.701  1.00  0.00    -0.224 OA
BRANCH  16  18
ATOM     18  O   UNL A   1      35.009  23.593  25.742  1.00  0.00    -0.444 OA
BRANCH  18  19
ATOM     19  C   UNL A   1      35.501  22.977  24.524  1.00  0.00     0.106 C 
ATOM     20  C   UNL A   1      35.230  21.477  24.719  1.00  0.00     0.056 C 
ATOM     21  C   UNL A   1      37.009  23.219  24.456  1.00  0.00     0.056 C 
ATOM     22  C   UNL A   1      34.808  23.427  23.235  1.00  0.00     0.056 C 
ENDBRANCH  18  19
ENDBRANCH  16  18
ENDBRANCH  12  16
ENDBRANCH   8  11
ENDBRANCH   6   7
BRANCH   6  23
ATOM     23  C   UNL A   1      30.975  27.464  22.608  1.00  0.00     0.070 C 
BRANCH  23  24
ATOM     24  C   UNL A   1      29.858  28.487  22.556  1.00  0.00    -0.045 A 
ATOM     25  C   UNL A   1      30.043  29.767  22.009  1.00  0.00     0.004 A 
ATOM     26  C   UNL A   1      28.603  28.175  23.100  1.00  0.00     0.004 A 
ATOM     27  C   UNL A   1      28.969  30.655  21.888  1.00  0.00     0.000 A 
ATOM     28  C   UNL A   1      27.541  29.081  23.019  1.00  0.00     0.000 A 
ATOM     29  C   UNL A   1      27.716  30.308  22.385  1.00  0.00     0.000 A 
ENDBRANCH  23  24
ENDBRANCH   6  23
ENDBRANCH   3   6
ENDBRANCH   1   2
BRANCH   1  30
ATOM     30  C   UNL A   1      31.030  31.116  25.434  1.00  0.00     0.023 C 
BRANCH  30  31
ATOM     31  C   UNL A   1      31.019  32.205  26.496  1.00  0.00     0.023 C 
BRANCH  31  32
ATOM     32  C   UNL A   1      32.383  32.762  26.890  1.00  0.00     0.116 C 
BRANCH  32  33
ATOM     33  N   UNL A   1      32.337  34.011  27.642  1.00  0.00    -0.352 N 
ATOM     34  C   UNL A   1      33.253  34.496  28.550  1.00  0.00     0.251 C 
ATOM     35  H   UNL A   1      31.551  34.582  27.479  1.00  0.00     0.163 HD
ATOM     36  O   UNL A   1      33.068  35.555  29.138  1.00  0.00    -0.269 OA
BRANCH  34  37
ATOM     37  C   UNL A   1      34.451  33.682  28.837  1.00  0.00     0.039 A 
ATOM     38  C   UNL A   1      35.712  34.207  28.553  1.00  0.00     0.014 A 
ATOM     39  C   UNL A   1      34.318  32.469  29.516  1.00  0.00     0.014 A 
ATOM     40  C   UNL A   1      36.848  33.568  29.055  1.00  0.00     0.010 A 
ATOM     41  C   UNL A   1      35.441  31.885  30.088  1.00  0.00     0.010 A 
ATOM     42  C   UNL A   1      36.715  32.439  29.880  1.00  0.00    -0.014 A 
BRANCH  42  43
ATOM     43  C   UNL A   1      37.885  31.830  30.566  1.00  0.00     0.031 A 
ATOM     44  C   UNL A   1      38.676  30.754  29.878  1.00  0.00     0.074 A 
ATOM     45  C   UNL A   1      38.170  32.169  31.839  1.00  0.00     0.049 A 
ATOM     46  N   UNL A   1      39.638  30.004  30.351  1.00  0.00    -0.248 NA
ATOM     47  C   UNL A   1      38.311  30.456  28.484  1.00  0.00     0.031 C 
ATOM     48  C   UNL A   1      37.447  33.160  32.640  1.00  0.00     0.029 A 
ATOM     49  N   UNL A   1      39.139  31.701  32.693  1.00  0.00    -0.354 N 
ATOM     50  C   UNL A   1      39.974  29.134  29.323  1.00  0.00     0.074 A 
ATOM     51  C   UNL A   1      39.079  29.410  28.222  1.00  0.00     0.031 C 
ATOM     52  C   UNL A   1      38.011  33.241  33.856  1.00  0.00     0.029 A 
ATOM     53  C   UNL A   1      39.107  32.281  33.938  1.00  0.00     0.049 A 
ATOM     54  H   UNL A   1      39.797  31.014  32.436  1.00  0.00     0.167 HD
ATOM     55  C   UNL A   1      40.958  28.204  29.290  1.00  0.00     0.037 A 
ATOM     56  C   UNL A   1      39.868  32.056  35.026  1.00  0.00     0.037 A 
ATOM     57  C   UNL A   1      41.873  27.954  30.371  1.00  0.00     0.049 A 
ATOM     58  C   UNL A   1      40.957  31.022  34.962  1.00  0.00     0.074 A 
ATOM     59  C   UNL A   1      42.943  27.078  30.409  1.00  0.00     0.029 A 
ATOM     60  N   UNL A   1      41.828  28.588  31.604  1.00  0.00    -0.354 N 
ATOM     61  N   UNL A   1      41.303  30.247  33.963  1.00  0.00    -0.248 NA
ATOM     62  C   UNL A   1      41.762  30.829  36.178  1.00  0.00     0.031 C 
ATOM     63  C   UNL A   1      43.526  27.157  31.678  1.00  0.00     0.029 A 
ATOM     64  C   UNL A   1      42.843  28.111  32.415  1.00  0.00     0.049 A 
ATOM     65  H   UNL A   1      41.172  29.274  31.862  1.00  0.00     0.167 HD
ATOM     66  C   UNL A   1      42.381  29.500  34.416  1.00  0.00     0.074 A 
ATOM     67  C   UNL A   1      42.639  29.918  35.779  1.00  0.00     0.031 C 
ATOM     68  C   UNL A   1      43.096  28.552  33.763  1.00  0.00     0.037 A 
BRANCH  55  69
ATOM     69  C   UNL A   1      41.099  27.398  28.033  1.00  0.00     0.057 A 
ATOM     70  C   UNL A   1      41.871  27.847  26.953  1.00  0.00     0.134 A 
ATOM     71  C   UNL A   1      40.475  26.151  27.908  1.00  0.00     0.134 A 
ATOM     72  F   UNL A   1      42.481  29.040  27.004  1.00  0.00    -0.206 F 
ATOM     73  C   UNL A   1      41.993  27.098  25.782  1.00  0.00     0.040 A 
ATOM     74  C   UNL A   1      40.613  25.379  26.753  1.00  0.00     0.040 A 
ATOM     75  F   UNL A   1      39.726  25.659  28.906  1.00  0.00    -0.206 F 
ATOM     76  C   UNL A   1      41.368  25.856  25.683  1.00  0.00     0.006 A 
ENDBRANCH  55  69
BRANCH  56  77
ATOM     77  C   UNL A   1      39.647  32.842  36.267  1.00  0.00     0.057 A 
ATOM     78  C   UNL A   1      40.387  34.002  36.523  1.00  0.00     0.134 A 
ATOM     79  C   UNL A   1      38.710  32.449  37.229  1.00  0.00     0.134 A 
ATOM     80  F   UNL A   1      41.314  34.418  35.648  1.00  0.00    -0.206 F 
ATOM     81  C   UNL A   1      40.218  34.734  37.700  1.00  0.00     0.040 A 
ATOM     82  C   UNL A   1      38.514  33.183  38.401  1.00  0.00     0.040 A 
ATOM     83  F   UNL A   1      37.966  31.349  37.042  1.00  0.00    -0.206 F 
ATOM     84  C   UNL A   1      39.275  34.326  38.642  1.00  0.00     0.006 A 
ENDBRANCH  56  77
BRANCH  68  85
ATOM     85  C   UNL A   1      44.248  27.931  34.492  1.00  0.00     0.057 A 
ATOM     86  C   UNL A   1      44.104  26.751  35.232  1.00  0.00     0.134 A 
ATOM     87  C   UNL A   1      45.529  28.491  34.406  1.00  0.00     0.134 A 
ATOM     88  F   UNL A   1      42.900  26.174  35.363  1.00  0.00    -0.206 F 
ATOM     89  C   UNL A   1      45.193  26.157  35.873  1.00  0.00     0.040 A 
ATOM     90  C   UNL A   1      46.628  27.895  35.023  1.00  0.00     0.040 A 
ATOM     91  F   UNL A   1      45.734  29.618  33.705  1.00  0.00    -0.206 F 
ATOM     92  C   UNL A   1      46.461  26.725  35.762  1.00  0.00     0.006 A 
ENDBRANCH  68  85
ENDBRANCH  42  43
ENDBRANCH  34  37
ENDBRANCH  32  33
ENDBRANCH  31  32
ENDBRANCH  30  31
ENDBRANCH   1  30
TORSDOF 18
ENDMDL
MODEL 2
REMARK VINA RESULT:     -11.7      0.478      6.059
REMARK SMILES CC(C)(C)OC(=O)N1CCC[C@H]1C(=O)N[C@@H](Cc1ccccc1)C(=O)NCCCCNC(=O)c1ccc(-c2c3nc(c(-c4c(F)cccc4F)c4ccc([nH]4)c(-c4c(F)cccc4F)c4nc(c(-c5c(F)cccc5F)c5ccc2[nH]5)C=C4)C=C3)cc1
REMARK SMILES IDX 27 1 26 2 24 3 25 4 16 6 15 7 13 8 14 9 12 11 8 12 9 13
REMARK SMILES IDX 10 14 11 15 6 16 7 17 5 18 2 19 1 20 3 21 4 22 17 23 18 24
REMARK SMILES IDX 19 25 23 26 20 27 22 28 21 29 28 30 29 31 30 32 31 33 32 34
REMARK SMILES IDX 33 36 34 37 35 38 87 39 36 40 86 41 37 42 38 43 39 44 80 45
REMARK SMILES IDX 40 46 85 47 79 48 81 49 41 50 84 51 78 52 77 53 42 55 68 56
REMARK SMILES IDX 51 57 67 58 52 59 55 60 66 61 82 62 53 63 54 64 65 66 83 67
REMARK SMILES IDX 56 68 43 69 44 70 49 71 45 72 46 73 48 74 50 75 47 76 69 77
REMARK SMILES IDX 70 78 75 79 71 80 72 81 74 82 76 83 73 84 57 85 58 86 63 87
REMARK SMILES IDX 59 88 60 89 62 90 64 91 61 92
REMARK H PARENT 26 5 15 10 31 35 81 54 55 65
REMARK Flexibility Score: inf
ROOT
ATOM      1  C   UNL A   1      31.846  29.940  25.700  1.00  0.00     0.116 C 
ENDROOT
BRANCH   1   2
ATOM      2  N   UNL A   1      32.872  29.704  24.715  1.00  0.00    -0.354 N 
ATOM      3  C   UNL A   1      32.921  28.733  23.760  1.00  0.00     0.242 C 
ATOM      4  O   UNL A   1      33.689  28.923  22.810  1.00  0.00    -0.273 OA
ATOM      5  H   UNL A   1      33.636  30.326  24.736  1.00  0.00     0.163 HD
BRANCH   3   6
ATOM      6  C   UNL A   1      32.010  27.479  23.769  1.00  0.00     0.175 C 
BRANCH   6   7
ATOM      7  N   UNL A   1      31.449  27.107  25.071  1.00  0.00    -0.342 N 
ATOM      8  C   UNL A   1      31.174  25.887  25.618  1.00  0.00     0.243 C 
ATOM      9  O   UNL A   1      30.473  25.902  26.635  1.00  0.00    -0.273 OA
ATOM     10  H   UNL A   1      31.230  27.872  25.653  1.00  0.00     0.164 HD
BRANCH   8  11
ATOM     11  C   UNL A   1      31.772  24.581  25.029  1.00  0.00     0.178 C 
ATOM     12  N   UNL A   1      32.869  24.062  25.853  1.00  0.00    -0.296 N 
ATOM     13  C   UNL A   1      32.496  22.837  26.525  1.00  0.00     0.124 C 
ATOM     14  C   UNL A   1      31.550  22.202  25.533  1.00  0.00     0.024 C 
ATOM     15  C   UNL A   1      30.783  23.403  24.993  1.00  0.00     0.037 C 
BRANCH  12  16
ATOM     16  C   UNL A   1      34.135  24.594  25.811  1.00  0.00     0.410 C 
ATOM     17  O   UNL A   1      34.368  25.776  25.627  1.00  0.00    -0.224 OA
BRANCH  16  18
ATOM     18  O   UNL A   1      35.067  23.615  25.919  1.00  0.00    -0.444 OA
BRANCH  18  19
ATOM     19  C   UNL A   1      35.719  22.970  24.795  1.00  0.00     0.106 C 
ATOM     20  C   UNL A   1      37.195  23.378  24.924  1.00  0.00     0.056 C 
ATOM     21  C   UNL A   1      35.135  23.563  23.514  1.00  0.00     0.056 C 
ATOM     22  C   UNL A   1      35.644  21.440  24.782  1.00  0.00     0.056 C 
ENDBRANCH  18  19
ENDBRANCH  16  18
ENDBRANCH  12  16
ENDBRANCH   8  11
ENDBRANCH   6   7
BRANCH   6  23
ATOM     23  C   UNL A   1      30.970  27.437  22.611  1.00  0.00     0.070 C 
BRANCH  23  24
ATOM     24  C   UNL A   1      29.830  28.435  22.572  1.00  0.00    -0.045 A 
ATOM     25  C   UNL A   1      28.545  28.120  23.041  1.00  0.00     0.004 A 
ATOM     26  C   UNL A   1      30.039  29.708  22.018  1.00  0.00     0.004 A 
ATOM     27  C   UNL A   1      27.539  29.092  23.080  1.00  0.00     0.000 A 
ATOM     28  C   UNL A   1      29.019  30.665  22.016  1.00  0.00     0.000 A 
ATOM     29  C   UNL A   1      27.780  30.367  22.576  1.00  0.00     0.000 A 
ENDBRANCH  23  24
ENDBRANCH   6  23
ENDBRANCH   3   6
ENDBRANCH   1   2
BRANCH   1  30
ATOM     30  C   UNL A   1      30.958  31.137  25.420  1.00  0.00     0.023 C 
BRANCH  30  31
ATOM     31  C   UNL A   1      31.008  32.240  26.467  1.00  0.00     0.023 C 
BRANCH  31  32
ATOM     32  C   UNL A   1      32.373  32.883  26.688  1.00  0.00     0.116 C 
BRANCH  32  33
ATOM     33  N   UNL A   1      32.359  34.061  27.550  1.00  0.00    -0.352 N 
ATOM     34  C   UNL A   1      33.281  34.433  28.504  1.00  0.00     0.251 C 
ATOM     35  H   UNL A   1      31.592  34.668  27.434  1.00  0.00     0.163 HD
ATOM     36  O   UNL A   1      33.124  35.441  29.182  1.00  0.00    -0.269 OA
BRANCH  34  37
ATOM     37  C   UNL A   1      34.450  33.559  28.723  1.00  0.00     0.039 A 
ATOM     38  C   UNL A   1      35.728  34.119  28.710  1.00  0.00     0.014 A 
ATOM     39  C   UNL A   1      34.259  32.223  29.083  1.00  0.00     0.014 A 
ATOM     40  C   UNL A   1      36.810  33.366  29.171  1.00  0.00     0.010 A 
ATOM     41  C   UNL A   1      35.319  31.508  29.624  1.00  0.00     0.010 A 
ATOM     42  C   UNL A   1      36.601  32.078  29.693  1.00  0.00    -0.014 A 
BRANCH  42  43
ATOM     43  C   UNL A   1      37.696  31.312  30.343  1.00  0.00     0.031 A 
ATOM     44  C   UNL A   1      38.050  31.586  31.777  1.00  0.00     0.074 A 
ATOM     45  C   UNL A   1      38.436  30.449  29.618  1.00  0.00     0.049 A 
ATOM     46  N   UNL A   1      39.051  31.130  32.485  1.00  0.00    -0.248 NA
ATOM     47  C   UNL A   1      37.181  32.528  32.501  1.00  0.00     0.031 C 
ATOM     48  C   UNL A   1      38.233  30.132  28.203  1.00  0.00     0.029 A 
ATOM     49  N   UNL A   1      39.526  29.690  29.972  1.00  0.00    -0.354 N 
ATOM     50  C   UNL A   1      38.946  31.747  33.724  1.00  0.00     0.074 A 
ATOM     51  C   UNL A   1      37.818  32.649  33.656  1.00  0.00     0.031 C 
ATOM     52  C   UNL A   1      39.151  29.230  27.817  1.00  0.00     0.029 A 
ATOM     53  C   UNL A   1      40.032  28.936  28.941  1.00  0.00     0.049 A 
ATOM     54  H   UNL A   1      39.908  29.687  30.880  1.00  0.00     0.167 HD
ATOM     55  C   UNL A   1      39.706  31.560  34.829  1.00  0.00     0.037 A 
ATOM     56  C   UNL A   1      41.095  28.108  28.905  1.00  0.00     0.037 A 
ATOM     57  C   UNL A   1      40.804  30.635  34.909  1.00  0.00     0.049 A 
ATOM     58  C   UNL A   1      41.919  27.914  30.147  1.00  0.00     0.074 A 
ATOM     59  C   UNL A   1      41.594  30.328  36.003  1.00  0.00     0.029 A 
ATOM     60  N   UNL A   1      41.263  29.863  33.852  1.00  0.00    -0.354 N 
ATOM     61  N   UNL A   1      41.772  28.458  31.330  1.00  0.00    -0.248 NA
ATOM     62  C   UNL A   1      43.059  26.990  30.049  1.00  0.00     0.031 C 
ATOM     63  C   UNL A   1      42.554  29.394  35.599  1.00  0.00     0.029 A 
ATOM     64  C   UNL A   1      42.336  29.091  34.264  1.00  0.00     0.049 A 
ATOM     65  H   UNL A   1      40.884  29.866  32.944  1.00  0.00     0.167 HD
ATOM     66  C   UNL A   1      42.777  27.922  32.123  1.00  0.00     0.074 A 
ATOM     67  C   UNL A   1      43.524  27.003  31.290  1.00  0.00     0.031 C 
ATOM     68  C   UNL A   1      43.056  28.168  33.426  1.00  0.00     0.037 A 
BRANCH  55  69
ATOM     69  C   UNL A   1      39.360  32.367  36.045  1.00  0.00     0.057 A 
ATOM     70  C   UNL A   1      39.939  33.620  36.286  1.00  0.00     0.134 A 
ATOM     71  C   UNL A   1      38.424  31.897  36.974  1.00  0.00     0.134 A 
ATOM     72  F   UNL A   1      40.854  34.119  35.443  1.00  0.00    -0.206 F 
ATOM     73  C   UNL A   1      39.620  34.364  37.422  1.00  0.00     0.040 A 
ATOM     74  C   UNL A   1      38.075  32.644  38.099  1.00  0.00     0.040 A 
ATOM     75  F   UNL A   1      37.829  30.707  36.801  1.00  0.00    -0.206 F 
ATOM     76  C   UNL A   1      38.680  33.879  38.330  1.00  0.00     0.006 A 
ENDBRANCH  55  69
BRANCH  56  77
ATOM     77  C   UNL A   1      41.429  27.378  27.656  1.00  0.00     0.057 A 
ATOM     78  C   UNL A   1      40.949  26.082  27.431  1.00  0.00     0.134 A 
ATOM     79  C   UNL A   1      42.244  27.943  26.669  1.00  0.00     0.134 A 
ATOM     80  F   UNL A   1      40.180  25.479  28.350  1.00  0.00    -0.206 F 
ATOM     81  C   UNL A   1      41.281  25.368  26.279  1.00  0.00     0.040 A 
ATOM     82  C   UNL A   1      42.567  27.249  25.502  1.00  0.00     0.040 A 
ATOM     83  F   UNL A   1      42.733  29.183  26.822  1.00  0.00    -0.206 F 
ATOM     84  C   UNL A   1      42.091  25.953  25.307  1.00  0.00     0.006 A 
ENDBRANCH  56  77
BRANCH  68  85
ATOM     85  C   UNL A   1      44.188  27.405  34.045  1.00  0.00     0.057 A 
ATOM     86  C   UNL A   1      45.496  27.905  34.055  1.00  0.00     0.134 A 
ATOM     87  C   UNL A   1      43.954  26.183  34.688  1.00  0.00     0.134 A 
ATOM     88  F   UNL A   1      45.786  29.064  33.445  1.00  0.00    -0.206 F 
ATOM     89  C   UNL A   1      46.536  27.206  34.672  1.00  0.00     0.040 A 
ATOM     90  C   UNL A   1      44.980  25.488  35.327  1.00  0.00     0.040 A 
ATOM     91  F   UNL A   1      42.721  25.655  34.719  1.00  0.00    -0.206 F 
ATOM     92  C   UNL A   1      46.277  25.998  35.318  1.00  0.00     0.006 A 
ENDBRANCH  68  85
ENDBRANCH  42  43
ENDBRANCH  34  37
ENDBRANCH  32  33
ENDBRANCH  31  32
ENDBRANCH  30  31
ENDBRANCH   1  30
TORSDOF 18
ENDMDL
MODEL 3
REMARK VINA RESULT:     -11.7      2.025      3.010
REMARK SMILES CC(C)(C)OC(=O)N1CCC[C@H]1C(=O)N[C@@H](Cc1ccccc1)C(=O)NCCCCNC(=O)c1ccc(-c2c3nc(c(-c4c(F)cccc4F)c4ccc([nH]4)c(-c4c(F)cccc4F)c4nc(c(-c5c(F)cccc5F)c5ccc2[nH]5)C=C4)C=C3)cc1
REMARK SMILES IDX 27 1 26 2 24 3 25 4 16 6 15 7 13 8 14 9 12 11 8 12 9 13
REMARK SMILES IDX 10 14 11 15 6 16 7 17 5 18 2 19 1 20 3 21 4 22 17 23 18 24
REMARK SMILES IDX 19 25 23 26 20 27 22 28 21 29 28 30 29 31 30 32 31 33 32 34
REMARK SMILES IDX 33 36 34 37 35 38 87 39 36 40 86 41 37 42 38 43 39 44 80 45
REMARK SMILES IDX 40 46 85 47 79 48 81 49 41 50 84 51 78 52 77 53 42 55 68 56
REMARK SMILES IDX 51 57 67 58 52 59 55 60 66 61 82 62 53 63 54 64 65 66 83 67
REMARK SMILES IDX 56 68 43 69 44 70 49 71 45 72 46 73 48 74 50 75 47 76 69 77
REMARK SMILES IDX 70 78 75 79 71 80 72 81 74 82 76 83 73 84 57 85 58 86 63 87
REMARK SMILES IDX 59 88 60 89 62 90 64 91 61 92
REMARK H PARENT 26 5 15 10 31 35 81 54 55 65
REMARK Flexibility Score: inf
ROOT
ATOM      1  C   UNL A   1      32.228  27.175  26.351  1.00  0.00     0.116 C 
ENDROOT
BRANCH   1   2
ATOM      2  N   UNL A   1      31.217  26.259  26.814  1.00  0.00    -0.354 N 
ATOM      3  C   UNL A   1      30.465  25.388  26.082  1.00  0.00     0.242 C 
ATOM      4  O   UNL A   1      29.928  24.460  26.699  1.00  0.00    -0.273 OA
ATOM      5  H   UNL A   1      31.048  26.262  27.784  1.00  0.00     0.163 HD
BRANCH   3   6
ATOM      6  C   UNL A   1      30.334  25.459  24.539  1.00  0.00     0.175 C 
BRANCH   6   7
ATOM      7  N   UNL A   1      30.527  24.194  23.824  1.00  0.00    -0.342 N 
ATOM      8  C   UNL A   1      31.637  23.417  23.653  1.00  0.00     0.243 C 
ATOM      9  O   UNL A   1      31.545  22.537  22.791  1.00  0.00    -0.273 OA
ATOM     10  H   UNL A   1      29.715  23.844  23.390  1.00  0.00     0.164 HD
BRANCH   8  11
ATOM     11  C   UNL A   1      32.897  23.596  24.541  1.00  0.00     0.178 C 
ATOM     12  N   UNL A   1      33.692  22.366  24.617  1.00  0.00    -0.296 N 
ATOM     13  C   UNL A   1      34.948  22.500  23.912  1.00  0.00     0.124 C 
ATOM     14  C   UNL A   1      35.272  23.962  24.111  1.00  0.00     0.024 C 
ATOM     15  C   UNL A   1      33.904  24.622  23.995  1.00  0.00     0.037 C 
BRANCH  12  16
ATOM     16  C   UNL A   1      33.341  21.311  25.425  1.00  0.00     0.410 C 
ATOM     17  O   UNL A   1      32.569  21.404  26.363  1.00  0.00    -0.224 OA
BRANCH  16  18
ATOM     18  O   UNL A   1      34.032  20.197  25.081  1.00  0.00    -0.444 OA
BRANCH  18  19
ATOM     19  C   UNL A   1      33.428  18.934  24.704  1.00  0.00     0.106 C 
ATOM     20  C   UNL A   1      34.616  18.048  24.297  1.00  0.00     0.056 C 
ATOM     21  C   UNL A   1      32.539  19.188  23.486  1.00  0.00     0.056 C 
ATOM     22  C   UNL A   1      32.654  18.218  25.815  1.00  0.00     0.056 C 
ENDBRANCH  18  19
ENDBRANCH  16  18
ENDBRANCH  12  16
ENDBRANCH   8  11
ENDBRANCH   6   7
BRANCH   6  23
ATOM     23  C   UNL A   1      29.106  26.272  24.039  1.00  0.00     0.070 C 
BRANCH  23  24
ATOM     24  C   UNL A   1      29.304  27.583  23.303  1.00  0.00    -0.045 A 
ATOM     25  C   UNL A   1      28.224  28.394  22.920  1.00  0.00     0.004 A 
ATOM     26  C   UNL A   1      30.599  27.996  22.955  1.00  0.00     0.004 A 
ATOM     27  C   UNL A   1      28.443  29.643  22.328  1.00  0.00     0.000 A 
ATOM     28  C   UNL A   1      30.814  29.224  22.322  1.00  0.00     0.000 A 
ATOM     29  C   UNL A   1      29.739  30.061  22.038  1.00  0.00     0.000 A 
ENDBRANCH  23  24
ENDBRANCH   6  23
ENDBRANCH   3   6
ENDBRANCH   1   2
BRANCH   1  30
ATOM     30  C   UNL A   1      32.560  28.298  27.315  1.00  0.00     0.023 C 
BRANCH  30  31
ATOM     31  C   UNL A   1      32.047  29.672  26.912  1.00  0.00     0.023 C 
BRANCH  31  32
ATOM     32  C   UNL A   1      33.026  30.827  27.096  1.00  0.00     0.116 C 
BRANCH  32  33
ATOM     33  N   UNL A   1      32.403  32.142  27.207  1.00  0.00    -0.352 N 
ATOM     34  C   UNL A   1      32.895  33.272  27.823  1.00  0.00     0.251 C 
ATOM     35  H   UNL A   1      31.517  32.233  26.787  1.00  0.00     0.163 HD
ATOM     36  O   UNL A   1      32.243  34.308  27.869  1.00  0.00    -0.269 OA
BRANCH  34  37
ATOM     37  C   UNL A   1      34.218  33.192  28.474  1.00  0.00     0.039 A 
ATOM     38  C   UNL A   1      34.311  32.649  29.756  1.00  0.00     0.014 A 
ATOM     39  C   UNL A   1      35.367  33.521  27.752  1.00  0.00     0.014 A 
ATOM     40  C   UNL A   1      35.569  32.327  30.273  1.00  0.00     0.010 A 
ATOM     41  C   UNL A   1      36.607  33.119  28.230  1.00  0.00     0.010 A 
ATOM     42  C   UNL A   1      36.719  32.500  29.486  1.00  0.00    -0.014 A 
BRANCH  42  43
ATOM     43  C   UNL A   1      38.052  32.018  29.934  1.00  0.00     0.031 A 
ATOM     44  C   UNL A   1      38.584  30.709  29.422  1.00  0.00     0.074 A 
ATOM     45  C   UNL A   1      38.734  32.702  30.875  1.00  0.00     0.049 A 
ATOM     46  N   UNL A   1      39.652  30.049  29.790  1.00  0.00    -0.248 NA
ATOM     47  C   UNL A   1      37.787  30.035  28.384  1.00  0.00     0.031 C 
ATOM     48  C   UNL A   1      38.304  33.957  31.494  1.00  0.00     0.029 A 
ATOM     49  N   UNL A   1      39.931  32.424  31.490  1.00  0.00    -0.354 N 
ATOM     50  C   UNL A   1      39.641  28.876  29.047  1.00  0.00     0.074 A 
ATOM     51  C   UNL A   1      38.434  28.888  28.250  1.00  0.00     0.031 C 
ATOM     52  C   UNL A   1      39.232  34.352  32.382  1.00  0.00     0.029 A 
ATOM     53  C   UNL A   1      40.301  33.359  32.427  1.00  0.00     0.049 A 
ATOM     54  H   UNL A   1      40.473  31.629  31.279  1.00  0.00     0.167 HD
ATOM     55  C   UNL A   1      40.566  27.887  29.014  1.00  0.00     0.037 A 
ATOM     56  C   UNL A   1      41.376  33.405  33.237  1.00  0.00     0.037 A 
ATOM     57  C   UNL A   1      41.784  27.892  29.778  1.00  0.00     0.049 A 
ATOM     58  C   UNL A   1      42.391  32.298  33.177  1.00  0.00     0.074 A 
ATOM     59  C   UNL A   1      42.813  26.968  29.765  1.00  0.00     0.029 A 
ATOM     60  N   UNL A   1      42.138  28.876  30.690  1.00  0.00    -0.354 N 
ATOM     61  N   UNL A   1      42.398  31.223  32.427  1.00  0.00    -0.248 NA
ATOM     62  C   UNL A   1      43.548  32.409  34.078  1.00  0.00     0.031 C 
ATOM     63  C   UNL A   1      43.777  27.375  30.694  1.00  0.00     0.029 A 
ATOM     64  C   UNL A   1      43.364  28.573  31.256  1.00  0.00     0.049 A 
ATOM     65  H   UNL A   1      41.597  29.670  30.903  1.00  0.00     0.167 HD
ATOM     66  C   UNL A   1      43.569  30.548  32.740  1.00  0.00     0.074 A 
ATOM     67  C   UNL A   1      44.253  31.336  33.744  1.00  0.00     0.031 C 
ATOM     68  C   UNL A   1      44.038  29.379  32.241  1.00  0.00     0.037 A 
BRANCH  55  69
ATOM     69  C   UNL A   1      40.296  26.724  28.106  1.00  0.00     0.057 A 
ATOM     70  C   UNL A   1      40.840  26.654  26.817  1.00  0.00     0.134 A 
ATOM     71  C   UNL A   1      39.501  25.653  28.532  1.00  0.00     0.134 A 
ATOM     72  F   UNL A   1      41.597  27.655  26.344  1.00  0.00    -0.206 F 
ATOM     73  C   UNL A   1      40.580  25.574  25.973  1.00  0.00     0.040 A 
ATOM     74  C   UNL A   1      39.257  24.554  27.708  1.00  0.00     0.040 A 
ATOM     75  F   UNL A   1      38.953  25.654  29.757  1.00  0.00    -0.206 F 
ATOM     76  C   UNL A   1      39.791  24.516  26.421  1.00  0.00     0.006 A 
ENDBRANCH  55  69
BRANCH  56  77
ATOM     77  C   UNL A   1      41.565  34.552  34.161  1.00  0.00     0.057 A 
ATOM     78  C   UNL A   1      42.291  35.681  33.764  1.00  0.00     0.134 A 
ATOM     79  C   UNL A   1      41.044  34.544  35.460  1.00  0.00     0.134 A 
ATOM     80  F   UNL A   1      42.832  35.739  32.539  1.00  0.00    -0.206 F 
ATOM     81  C   UNL A   1      42.508  36.753  34.631  1.00  0.00     0.040 A 
ATOM     82  C   UNL A   1      41.235  35.619  36.331  1.00  0.00     0.040 A 
ATOM     83  F   UNL A   1      40.335  33.494  35.900  1.00  0.00    -0.206 F 
ATOM     84  C   UNL A   1      41.976  36.725  35.919  1.00  0.00     0.006 A 
ENDBRANCH  56  77
BRANCH  68  85
ATOM     85  C   UNL A   1      45.369  28.900  32.738  1.00  0.00     0.057 A 
ATOM     86  C   UNL A   1      46.568  29.300  32.137  1.00  0.00     0.134 A 
ATOM     87  C   UNL A   1      45.451  28.075  33.866  1.00  0.00     0.134 A 
ATOM     88  F   UNL A   1      46.555  30.080  31.045  1.00  0.00    -0.206 F 
ATOM     89  C   UNL A   1      47.805  28.883  32.634  1.00  0.00     0.040 A 
ATOM     90  C   UNL A   1      46.680  27.670  34.385  1.00  0.00     0.040 A 
ATOM     91  F   UNL A   1      44.337  27.663  34.491  1.00  0.00    -0.206 F 
ATOM     92  C   UNL A   1      47.862  28.073  33.767  1.00  0.00     0.006 A 
ENDBRANCH  68  85
ENDBRANCH  42  43
ENDBRANCH  34  37
ENDBRANCH  32  33
ENDBRANCH  31  32
ENDBRANCH  30  31
ENDBRANCH   1  30
TORSDOF 18
ENDMDL
