MODEL 1
REMARK VINA RESULT:     -11.6      0.000      0.000
REMARK SMILES C[C@H]1[C@@H](C(=O)NCCCCNC(=O)c2ccc(-c3c4nc(c(-c5c(F)cccc5F)c5ccc([nH]5)c(-c5c(F)cccc5F)c5nc(c(-c6c(F)cccc6F)c6ccc3[nH]6)C=C5)C=C4)cc2)CCN1C(=O)NCC(C1CC1)C1CC1
REMARK SMILES IDX 7 1 6 2 4 3 5 4 3 6 1 7 2 8 70 9 68 10 69 11 71 12 72 13
REMARK SMILES IDX 73 14 74 16 75 17 76 18 77 19 78 20 79 21 80 22 81 23 8 24
REMARK SMILES IDX 9 25 10 26 11 27 12 28 13 30 14 31 15 32 67 33 16 34 66 35
REMARK SMILES IDX 17 36 18 37 19 38 60 39 20 40 65 41 59 42 61 43 21 44 64 45
REMARK SMILES IDX 58 46 57 47 22 49 48 50 31 51 47 52 32 53 35 54 46 55 62 56
REMARK SMILES IDX 33 57 34 58 45 60 63 61 36 62 23 63 24 64 29 65 25 66 26 67
REMARK SMILES IDX 28 68 30 69 27 70 49 71 50 72 55 73 51 74 52 75 54 76 56 77
REMARK SMILES IDX 53 78 37 79 38 80 43 81 39 82 40 83 42 84 44 85 41 86
REMARK H PARENT 6 5 73 15 11 29 61 48 35 59
REMARK Flexibility Score: inf
ROOT
ATOM      1  C   UNL A   1      33.108  29.873  25.930  1.00  0.00     0.116 C 
ENDROOT
BRANCH   1   2
ATOM      2  N   UNL A   1      32.608  29.680  24.581  1.00  0.00    -0.356 N 
ATOM      3  C   UNL A   1      31.912  28.652  24.016  1.00  0.00     0.225 C 
ATOM      4  O   UNL A   1      31.727  28.712  22.799  1.00  0.00    -0.275 OA
ATOM      5  H   UNL A   1      32.807  30.422  23.965  1.00  0.00     0.163 HD
BRANCH   3   6
ATOM      6  C   UNL A   1      31.298  27.545  24.868  1.00  0.00     0.102 C 
ATOM      7  C   UNL A   1      33.490  26.116  24.666  1.00  0.00     0.032 C 
ATOM      8  C   UNL A   1      32.211  26.445  25.431  1.00  0.00     0.096 C 
ATOM      9  N   UNL A   1      31.401  25.240  25.461  1.00  0.00    -0.321 N 
ATOM     10  C   UNL A   1      30.146  26.781  24.184  1.00  0.00     0.037 C 
ATOM     11  C   UNL A   1      30.468  25.303  24.351  1.00  0.00     0.122 C 
BRANCH   9  12
ATOM     12  C   UNL A   1      31.609  24.058  26.103  1.00  0.00     0.317 C 
ATOM     13  O   UNL A   1      31.353  23.931  27.305  1.00  0.00    -0.249 OA
ATOM     14  N   UNL A   1      32.071  22.952  25.485  1.00  0.00    -0.338 N 
ATOM     15  H   UNL A   1      32.105  22.184  26.101  1.00  0.00     0.165 HD
BRANCH  14  16
ATOM     16  C   UNL A   1      32.534  22.581  24.147  1.00  0.00     0.121 C 
BRANCH  16  17
ATOM     17  C   UNL A   1      33.803  21.702  24.186  1.00  0.00     0.014 C 
BRANCH  17  18
ATOM     18  C   UNL A   1      35.075  22.458  24.539  1.00  0.00    -0.006 C 
ATOM     19  C   UNL A   1      36.466  22.135  24.039  1.00  0.00     0.004 C 
ATOM     20  C   UNL A   1      35.742  23.342  23.509  1.00  0.00     0.004 C 
ENDBRANCH  17  18
BRANCH  17  21
ATOM     21  C   UNL A   1      33.711  20.466  25.077  1.00  0.00    -0.006 C 
ATOM     22  C   UNL A   1      32.614  19.434  24.958  1.00  0.00     0.004 C 
ATOM     23  C   UNL A   1      34.031  19.068  24.598  1.00  0.00     0.004 C 
ENDBRANCH  17  21
ENDBRANCH  16  17
ENDBRANCH  14  16
ENDBRANCH   9  12
ENDBRANCH   3   6
ENDBRANCH   1   2
BRANCH   1  24
ATOM     24  C   UNL A   1      31.996  30.395  26.845  1.00  0.00     0.023 C 
BRANCH  24  25
ATOM     25  C   UNL A   1      31.736  31.889  26.775  1.00  0.00     0.023 C 
BRANCH  25  26
ATOM     26  C   UNL A   1      32.844  32.740  27.359  1.00  0.00     0.116 C 
BRANCH  26  27
ATOM     27  N   UNL A   1      32.438  34.107  27.671  1.00  0.00    -0.352 N 
ATOM     28  C   UNL A   1      32.981  34.984  28.582  1.00  0.00     0.251 C 
ATOM     29  H   UNL A   1      31.668  34.448  27.160  1.00  0.00     0.163 HD
ATOM     30  O   UNL A   1      32.468  36.080  28.782  1.00  0.00    -0.269 OA
BRANCH  28  31
ATOM     31  C   UNL A   1      34.166  34.558  29.355  1.00  0.00     0.039 A 
ATOM     32  C   UNL A   1      33.987  33.896  30.571  1.00  0.00     0.014 A 
ATOM     33  C   UNL A   1      35.440  34.706  28.806  1.00  0.00     0.014 A 
ATOM     34  C   UNL A   1      35.082  33.282  31.180  1.00  0.00     0.010 A 
ATOM     35  C   UNL A   1      36.496  33.988  29.345  1.00  0.00     0.010 A 
ATOM     36  C   UNL A   1      36.332  33.271  30.539  1.00  0.00    -0.014 A 
BRANCH  36  37
ATOM     37  C   UNL A   1      37.497  32.537  31.095  1.00  0.00     0.031 A 
ATOM     38  C   UNL A   1      38.108  32.995  32.391  1.00  0.00     0.074 A 
ATOM     39  C   UNL A   1      38.064  31.535  30.393  1.00  0.00     0.049 A 
ATOM     40  N   UNL A   1      39.204  32.590  32.978  1.00  0.00    -0.248 NA
ATOM     41  C   UNL A   1      37.423  34.094  33.092  1.00  0.00     0.031 C 
ATOM     42  C   UNL A   1      37.616  31.047  29.086  1.00  0.00     0.029 A 
ATOM     43  N   UNL A   1      39.155  30.754  30.679  1.00  0.00    -0.354 N 
ATOM     44  C   UNL A   1      39.359  33.411  34.087  1.00  0.00     0.074 A 
ATOM     45  C   UNL A   1      38.285  34.377  34.056  1.00  0.00     0.031 C 
ATOM     46  C   UNL A   1      38.402  30.027  28.703  1.00  0.00     0.029 A 
ATOM     47  C   UNL A   1      39.428  29.812  29.717  1.00  0.00     0.049 A 
ATOM     48  H   UNL A   1      39.692  30.859  31.498  1.00  0.00     0.167 HD
ATOM     49  C   UNL A   1      40.291  33.346  35.067  1.00  0.00     0.037 A 
ATOM     50  C   UNL A   1      40.398  28.880  29.664  1.00  0.00     0.037 A 
ATOM     51  C   UNL A   1      41.312  32.339  35.135  1.00  0.00     0.049 A 
ATOM     52  C   UNL A   1      41.383  28.783  30.795  1.00  0.00     0.074 A 
ATOM     53  C   UNL A   1      42.250  32.126  36.128  1.00  0.00     0.029 A 
ATOM     54  N   UNL A   1      41.515  31.361  34.172  1.00  0.00    -0.354 N 
ATOM     55  N   UNL A   1      41.477  29.524  31.873  1.00  0.00    -0.248 NA
ATOM     56  C   UNL A   1      42.391  27.717  30.708  1.00  0.00     0.031 C 
ATOM     57  C   UNL A   1      43.037  31.030  35.756  1.00  0.00     0.029 A 
ATOM     58  C   UNL A   1      42.567  30.544  34.546  1.00  0.00     0.049 A 
ATOM     59  H   UNL A   1      40.989  31.263  33.346  1.00  0.00     0.167 HD
ATOM     60  C   UNL A   1      42.536  29.000  32.603  1.00  0.00     0.074 A 
ATOM     61  C   UNL A   1      43.044  27.871  31.851  1.00  0.00     0.031 C 
ATOM     62  C   UNL A   1      43.045  29.417  33.787  1.00  0.00     0.037 A 
BRANCH  49  63
ATOM     63  C   UNL A   1      40.222  34.381  36.149  1.00  0.00     0.057 A 
ATOM     64  C   UNL A   1      39.428  34.203  37.291  1.00  0.00     0.134 A 
ATOM     65  C   UNL A   1      40.958  35.568  36.053  1.00  0.00     0.134 A 
ATOM     66  F   UNL A   1      38.684  33.095  37.435  1.00  0.00    -0.206 F 
ATOM     67  C   UNL A   1      39.341  35.183  38.280  1.00  0.00     0.040 A 
ATOM     68  C   UNL A   1      40.901  36.544  37.050  1.00  0.00     0.040 A 
ATOM     69  F   UNL A   1      41.739  35.802  34.987  1.00  0.00    -0.206 F 
ATOM     70  C   UNL A   1      40.085  36.356  38.163  1.00  0.00     0.006 A 
ENDBRANCH  49  63
BRANCH  50  71
ATOM     71  C   UNL A   1      40.459  27.931  28.524  1.00  0.00     0.057 A 
ATOM     72  C   UNL A   1      41.192  28.242  27.371  1.00  0.00     0.134 A 
ATOM     73  C   UNL A   1      39.789  26.704  28.550  1.00  0.00     0.134 A 
ATOM     74  F   UNL A   1      41.841  29.412  27.281  1.00  0.00    -0.206 F 
ATOM     75  C   UNL A   1      41.242  27.375  26.279  1.00  0.00     0.040 A 
ATOM     76  C   UNL A   1      39.846  25.818  27.473  1.00  0.00     0.040 A 
ATOM     77  F   UNL A   1      39.077  26.343  29.628  1.00  0.00    -0.206 F 
ATOM     78  C   UNL A   1      40.569  26.156  26.330  1.00  0.00     0.006 A 
ENDBRANCH  50  71
BRANCH  62  79
ATOM     79  C   UNL A   1      44.184  28.630  34.357  1.00  0.00     0.057 A 
ATOM     80  C   UNL A   1      45.516  28.983  34.111  1.00  0.00     0.134 A 
ATOM     81  C   UNL A   1      43.944  27.539  35.201  1.00  0.00     0.134 A 
ATOM     82  F   UNL A   1      45.809  30.012  33.302  1.00  0.00    -0.206 F 
ATOM     83  C   UNL A   1      46.572  28.265  34.672  1.00  0.00     0.040 A 
ATOM     84  C   UNL A   1      44.992  26.827  35.784  1.00  0.00     0.040 A 
ATOM     85  F   UNL A   1      42.688  27.158  35.480  1.00  0.00    -0.206 F 
ATOM     86  C   UNL A   1      46.311  27.188  35.518  1.00  0.00     0.006 A 
ENDBRANCH  62  79
ENDBRANCH  36  37
ENDBRANCH  28  31
ENDBRANCH  26  27
ENDBRANCH  25  26
ENDBRANCH  24  25
ENDBRANCH   1  24
TORSDOF 16
ENDMDL
MODEL 2
REMARK VINA RESULT:     -11.3      4.134      9.385
REMARK SMILES C[C@H]1[C@@H](C(=O)NCCCCNC(=O)c2ccc(-c3c4nc(c(-c5c(F)cccc5F)c5ccc([nH]5)c(-c5c(F)cccc5F)c5nc(c(-c6c(F)cccc6F)c6ccc3[nH]6)C=C5)C=C4)cc2)CCN1C(=O)NCC(C1CC1)C1CC1
REMARK SMILES IDX 7 1 6 2 4 3 5 4 3 6 1 7 2 8 70 9 68 10 69 11 71 12 72 13
REMARK SMILES IDX 73 14 74 16 75 17 76 18 77 19 78 20 79 21 80 22 81 23 8 24
REMARK SMILES IDX 9 25 10 26 11 27 12 28 13 30 14 31 15 32 67 33 16 34 66 35
REMARK SMILES IDX 17 36 18 37 19 38 60 39 20 40 65 41 59 42 61 43 21 44 64 45
REMARK SMILES IDX 58 46 57 47 22 49 48 50 31 51 47 52 32 53 35 54 46 55 62 56
REMARK SMILES IDX 33 57 34 58 45 60 63 61 36 62 23 63 24 64 29 65 25 66 26 67
REMARK SMILES IDX 28 68 30 69 27 70 49 71 50 72 55 73 51 74 52 75 54 76 56 77
REMARK SMILES IDX 53 78 37 79 38 80 43 81 39 82 40 83 42 84 44 85 41 86
REMARK H PARENT 6 5 73 15 11 29 61 48 35 59
REMARK Flexibility Score: inf
ROOT
ATOM      1  C   UNL A   1      35.340  20.656  25.022  1.00  0.00     0.116 C 
ENDROOT
BRANCH   1   2
ATOM      2  N   UNL A   1      34.396  21.236  25.961  1.00  0.00    -0.356 N 
ATOM      3  C   UNL A   1      33.477  22.234  25.815  1.00  0.00     0.225 C 
ATOM      4  O   UNL A   1      32.892  22.601  26.836  1.00  0.00    -0.275 OA
ATOM      5  H   UNL A   1      34.425  20.840  26.862  1.00  0.00     0.163 HD
BRANCH   3   6
ATOM      6  C   UNL A   1      33.113  22.784  24.439  1.00  0.00     0.102 C 
ATOM      7  C   UNL A   1      34.515  24.956  24.891  1.00  0.00     0.032 C 
ATOM      8  C   UNL A   1      33.892  23.989  23.888  1.00  0.00     0.096 C 
ATOM      9  N   UNL A   1      32.939  24.741  23.093  1.00  0.00    -0.321 N 
ATOM     10  C   UNL A   1      31.630  23.178  24.283  1.00  0.00     0.037 C 
ATOM     11  C   UNL A   1      31.630  24.581  23.697  1.00  0.00     0.122 C 
BRANCH   9  12
ATOM     12  C   UNL A   1      33.146  25.727  22.176  1.00  0.00     0.317 C 
ATOM     13  O   UNL A   1      33.332  25.461  20.984  1.00  0.00    -0.249 OA
ATOM     14  N   UNL A   1      33.132  27.039  22.486  1.00  0.00    -0.338 N 
ATOM     15  H   UNL A   1      33.248  27.599  21.684  1.00  0.00     0.165 HD
BRANCH  14  16
ATOM     16  C   UNL A   1      32.993  27.859  23.690  1.00  0.00     0.121 C 
BRANCH  16  17
ATOM     17  C   UNL A   1      31.538  27.903  24.208  1.00  0.00     0.014 C 
BRANCH  17  18
ATOM     18  C   UNL A   1      31.416  27.916  25.724  1.00  0.00    -0.006 C 
ATOM     19  C   UNL A   1      31.145  26.714  26.602  1.00  0.00     0.004 C 
ATOM     20  C   UNL A   1      32.517  27.330  26.578  1.00  0.00     0.004 C 
ENDBRANCH  17  18
BRANCH  17  21
ATOM     21  C   UNL A   1      30.680  29.031  23.642  1.00  0.00    -0.006 C 
ATOM     22  C   UNL A   1      30.588  29.347  22.168  1.00  0.00     0.004 C 
ATOM     23  C   UNL A   1      29.387  28.799  22.894  1.00  0.00     0.004 C 
ENDBRANCH  17  21
ENDBRANCH  16  17
ENDBRANCH  14  16
ENDBRANCH   9  12
ENDBRANCH   3   6
ENDBRANCH   1   2
BRANCH   1  24
ATOM     24  C   UNL A   1      36.642  21.461  25.005  1.00  0.00     0.023 C 
BRANCH  24  25
ATOM     25  C   UNL A   1      37.902  20.664  24.718  1.00  0.00     0.023 C 
BRANCH  25  26
ATOM     26  C   UNL A   1      38.933  20.713  25.826  1.00  0.00     0.116 C 
BRANCH  26  27
ATOM     27  N   UNL A   1      39.881  19.602  25.801  1.00  0.00    -0.352 N 
ATOM     28  C   UNL A   1      41.217  19.599  26.133  1.00  0.00     0.251 C 
ATOM     29  H   UNL A   1      39.514  18.738  25.505  1.00  0.00     0.163 HD
ATOM     30  O   UNL A   1      41.899  18.590  25.981  1.00  0.00    -0.269 OA
BRANCH  28  31
ATOM     31  C   UNL A   1      41.827  20.849  26.629  1.00  0.00     0.039 A 
ATOM     32  C   UNL A   1      42.264  21.808  25.713  1.00  0.00     0.014 A 
ATOM     33  C   UNL A   1      41.844  21.115  27.998  1.00  0.00     0.014 A 
ATOM     34  C   UNL A   1      42.612  23.079  26.170  1.00  0.00     0.010 A 
ATOM     35  C   UNL A   1      42.065  22.412  28.433  1.00  0.00     0.010 A 
ATOM     36  C   UNL A   1      42.456  23.409  27.526  1.00  0.00    -0.014 A 
BRANCH  36  37
ATOM     37  C   UNL A   1      42.708  24.779  28.038  1.00  0.00     0.031 A 
ATOM     38  C   UNL A   1      44.100  25.166  28.457  1.00  0.00     0.074 A 
ATOM     39  C   UNL A   1      41.681  25.633  28.224  1.00  0.00     0.049 A 
ATOM     40  N   UNL A   1      44.513  26.252  29.057  1.00  0.00    -0.248 NA
ATOM     41  C   UNL A   1      45.162  24.174  28.216  1.00  0.00     0.031 C 
ATOM     42  C   UNL A   1      40.273  25.351  27.934  1.00  0.00     0.029 A 
ATOM     43  N   UNL A   1      41.666  26.913  28.718  1.00  0.00    -0.354 N 
ATOM     44  C   UNL A   1      45.865  26.053  29.301  1.00  0.00     0.074 A 
ATOM     45  C   UNL A   1      46.190  24.720  28.847  1.00  0.00     0.031 C 
ATOM     46  C   UNL A   1      39.538  26.439  28.219  1.00  0.00     0.029 A 
ATOM     47  C   UNL A   1      40.415  27.480  28.745  1.00  0.00     0.049 A 
ATOM     48  H   UNL A   1      42.476  27.381  29.024  1.00  0.00     0.167 HD
ATOM     49  C   UNL A   1      46.768  26.915  29.825  1.00  0.00     0.037 A 
ATOM     50  C   UNL A   1      40.023  28.704  29.147  1.00  0.00     0.037 A 
ATOM     51  C   UNL A   1      46.459  28.265  30.207  1.00  0.00     0.049 A 
ATOM     52  C   UNL A   1      41.054  29.668  29.664  1.00  0.00     0.074 A 
ATOM     53  C   UNL A   1      47.315  29.250  30.663  1.00  0.00     0.029 A 
ATOM     54  N   UNL A   1      45.190  28.822  30.157  1.00  0.00    -0.354 N 
ATOM     55  N   UNL A   1      42.343  29.490  29.827  1.00  0.00    -0.248 NA
ATOM     56  C   UNL A   1      40.579  31.006  30.045  1.00  0.00     0.031 C 
ATOM     57  C   UNL A   1      46.558  30.401  30.911  1.00  0.00     0.029 A 
ATOM     58  C   UNL A   1      45.239  30.139  30.579  1.00  0.00     0.049 A 
ATOM     59  H   UNL A   1      44.376  28.352  29.866  1.00  0.00     0.167 HD
ATOM     60  C   UNL A   1      42.836  30.697  30.305  1.00  0.00     0.074 A 
ATOM     61  C   UNL A   1      41.709  31.603  30.394  1.00  0.00     0.031 C 
ATOM     62  C   UNL A   1      44.105  31.025  30.644  1.00  0.00     0.037 A 
BRANCH  49  63
ATOM     63  C   UNL A   1      48.174  26.422  29.986  1.00  0.00     0.057 A 
ATOM     64  C   UNL A   1      48.604  25.786  31.160  1.00  0.00     0.134 A 
ATOM     65  C   UNL A   1      49.112  26.580  28.958  1.00  0.00     0.134 A 
ATOM     66  F   UNL A   1      47.759  25.620  32.190  1.00  0.00    -0.206 F 
ATOM     67  C   UNL A   1      49.922  25.358  31.319  1.00  0.00     0.040 A 
ATOM     68  C   UNL A   1      50.427  26.130  29.095  1.00  0.00     0.040 A 
ATOM     69  F   UNL A   1      48.768  27.179  27.807  1.00  0.00    -0.206 F 
ATOM     70  C   UNL A   1      50.836  25.526  30.281  1.00  0.00     0.006 A 
ENDBRANCH  49  63
BRANCH  50  71
ATOM     71  C   UNL A   1      38.599  29.106  29.034  1.00  0.00     0.057 A 
ATOM     72  C   UNL A   1      38.082  29.575  27.819  1.00  0.00     0.134 A 
ATOM     73  C   UNL A   1      37.726  29.041  30.124  1.00  0.00     0.134 A 
ATOM     74  F   UNL A   1      38.875  29.675  26.743  1.00  0.00    -0.206 F 
ATOM     75  C   UNL A   1      36.752  29.982  27.698  1.00  0.00     0.040 A 
ATOM     76  C   UNL A   1      36.389  29.425  30.012  1.00  0.00     0.040 A 
ATOM     77  F   UNL A   1      38.158  28.593  31.312  1.00  0.00    -0.206 F 
ATOM     78  C   UNL A   1      35.900  29.904  28.797  1.00  0.00     0.006 A 
ENDBRANCH  50  71
BRANCH  62  79
ATOM     79  C   UNL A   1      44.349  32.429  31.107  1.00  0.00     0.057 A 
ATOM     80  C   UNL A   1      44.636  33.460  30.205  1.00  0.00     0.134 A 
ATOM     81  C   UNL A   1      44.246  32.759  32.464  1.00  0.00     0.134 A 
ATOM     82  F   UNL A   1      44.759  33.203  28.894  1.00  0.00    -0.206 F 
ATOM     83  C   UNL A   1      44.830  34.771  30.640  1.00  0.00     0.040 A 
ATOM     84  C   UNL A   1      44.416  34.070  32.907  1.00  0.00     0.040 A 
ATOM     85  F   UNL A   1      43.965  31.815  33.375  1.00  0.00    -0.206 F 
ATOM     86  C   UNL A   1      44.712  35.081  31.994  1.00  0.00     0.006 A 
ENDBRANCH  62  79
ENDBRANCH  36  37
ENDBRANCH  28  31
ENDBRANCH  26  27
ENDBRANCH  25  26
ENDBRANCH  24  25
ENDBRANCH   1  24
TORSDOF 16
ENDMDL
MODEL 3
REMARK VINA RESULT:     -11.1      5.162     10.914
REMARK SMILES C[C@H]1[C@@H](C(=O)NCCCCNC(=O)c2ccc(-c3c4nc(c(-c5c(F)cccc5F)c5ccc([nH]5)c(-c5c(F)cccc5F)c5nc(c(-c6c(F)cccc6F)c6ccc3[nH]6)C=C5)C=C4)cc2)CCN1C(=O)NCC(C1CC1)C1CC1
REMARK SMILES IDX 7 1 6 2 4 3 5 4 3 6 1 7 2 8 70 9 68 10 69 11 71 12 72 13
REMARK SMILES IDX 73 14 74 16 75 17 76 18 77 19 78 20 79 21 80 22 81 23 8 24
REMARK SMILES IDX 9 25 10 26 11 27 12 28 13 30 14 31 15 32 67 33 16 34 66 35
REMARK SMILES IDX 17 36 18 37 19 38 60 39 20 40 65 41 59 42 61 43 21 44 64 45
REMARK SMILES IDX 58 46 57 47 22 49 48 50 31 51 47 52 32 53 35 54 46 55 62 56
REMARK SMILES IDX 33 57 34 58 45 60 63 61 36 62 23 63 24 64 29 65 25 66 26 67
REMARK SMILES IDX 28 68 30 69 27 70 49 71 50 72 55 73 51 74 52 75 54 76 56 77
REMARK SMILES IDX 53 78 37 79 38 80 43 81 39 82 40 83 42 84 44 85 41 86
REMARK H PARENT 6 5 73 15 11 29 61 48 35 59
REMARK Flexibility Score: inf
ROOT
ATOM      1  C   UNL A   1      34.258  34.642  28.560  1.00  0.00     0.116 C 
ENDROOT
BRANCH   1   2
ATOM      2  N   UNL A   1      33.187  35.122  29.416  1.00  0.00    -0.356 N 
ATOM      3  C   UNL A   1      33.154  35.390  30.754  1.00  0.00     0.225 C 
ATOM      4  O   UNL A   1      32.054  35.672  31.233  1.00  0.00    -0.275 OA
ATOM      5  H   UNL A   1      32.336  35.282  28.949  1.00  0.00     0.163 HD
BRANCH   3   6
ATOM      6  C   UNL A   1      34.432  35.447  31.584  1.00  0.00     0.102 C 
ATOM      7  C   UNL A   1      34.209  32.899  32.176  1.00  0.00     0.032 C 
ATOM      8  C   UNL A   1      35.097  34.131  32.020  1.00  0.00     0.096 C 
ATOM      9  N   UNL A   1      35.694  34.404  33.315  1.00  0.00    -0.321 N 
ATOM     10  C   UNL A   1      34.309  36.267  32.884  1.00  0.00     0.037 C 
ATOM     11  C   UNL A   1      34.864  35.383  33.991  1.00  0.00     0.122 C 
BRANCH   9  12
ATOM     12  C   UNL A   1      36.618  33.696  34.022  1.00  0.00     0.317 C 
ATOM     13  O   UNL A   1      36.321  33.145  35.087  1.00  0.00    -0.249 OA
ATOM     14  N   UNL A   1      37.889  33.520  33.609  1.00  0.00    -0.338 N 
ATOM     15  H   UNL A   1      38.390  32.938  34.226  1.00  0.00     0.165 HD
BRANCH  14  16
ATOM     16  C   UNL A   1      38.728  33.959  32.493  1.00  0.00     0.121 C 
BRANCH  16  17
ATOM     17  C   UNL A   1      39.066  32.807  31.521  1.00  0.00     0.014 C 
BRANCH  17  18
ATOM     18  C   UNL A   1      38.886  33.156  30.052  1.00  0.00    -0.006 C 
ATOM     19  C   UNL A   1      37.828  34.074  29.483  1.00  0.00     0.004 C 
ATOM     20  C   UNL A   1      39.259  34.532  29.549  1.00  0.00     0.004 C 
ENDBRANCH  17  18
BRANCH  17  21
ATOM     21  C   UNL A   1      40.448  32.184  31.706  1.00  0.00    -0.006 C 
ATOM     22  C   UNL A   1      41.264  32.331  32.968  1.00  0.00     0.004 C 
ATOM     23  C   UNL A   1      40.710  30.983  32.586  1.00  0.00     0.004 C 
ENDBRANCH  17  21
ENDBRANCH  16  17
ENDBRANCH  14  16
ENDBRANCH   9  12
ENDBRANCH   3   6
ENDBRANCH   1   2
BRANCH   1  24
ATOM     24  C   UNL A   1      34.127  33.134  28.333  1.00  0.00     0.023 C 
BRANCH  24  25
ATOM     25  C   UNL A   1      35.368  32.441  27.800  1.00  0.00     0.023 C 
BRANCH  25  26
ATOM     26  C   UNL A   1      35.532  31.011  28.270  1.00  0.00     0.116 C 
BRANCH  26  27
ATOM     27  N   UNL A   1      35.498  30.858  29.722  1.00  0.00    -0.352 N 
ATOM     28  C   UNL A   1      36.387  30.203  30.544  1.00  0.00     0.251 C 
ATOM     29  H   UNL A   1      34.732  31.281  30.175  1.00  0.00     0.163 HD
ATOM     30  O   UNL A   1      36.170  30.099  31.747  1.00  0.00    -0.269 OA
BRANCH  28  31
ATOM     31  C   UNL A   1      37.584  29.583  29.941  1.00  0.00     0.039 A 
ATOM     32  C   UNL A   1      37.989  29.977  28.663  1.00  0.00     0.014 A 
ATOM     33  C   UNL A   1      38.366  28.710  30.696  1.00  0.00     0.014 A 
ATOM     34  C   UNL A   1      39.240  29.580  28.192  1.00  0.00     0.010 A 
ATOM     35  C   UNL A   1      39.657  28.426  30.281  1.00  0.00     0.010 A 
ATOM     36  C   UNL A   1      40.109  28.853  29.023  1.00  0.00    -0.014 A 
BRANCH  36  37
ATOM     37  C   UNL A   1      41.491  28.504  28.606  1.00  0.00     0.031 A 
ATOM     38  C   UNL A   1      41.795  27.100  28.159  1.00  0.00     0.074 A 
ATOM     39  C   UNL A   1      42.483  29.408  28.727  1.00  0.00     0.049 A 
ATOM     40  N   UNL A   1      42.949  26.549  27.889  1.00  0.00    -0.248 NA
ATOM     41  C   UNL A   1      40.651  26.179  28.054  1.00  0.00     0.031 C 
ATOM     42  C   UNL A   1      42.336  30.779  29.223  1.00  0.00     0.029 A 
ATOM     43  N   UNL A   1      43.823  29.301  28.450  1.00  0.00    -0.354 N 
ATOM     44  C   UNL A   1      42.673  25.213  27.627  1.00  0.00     0.074 A 
ATOM     45  C   UNL A   1      41.256  25.022  27.833  1.00  0.00     0.031 C 
ATOM     46  C   UNL A   1      43.528  31.395  29.180  1.00  0.00     0.029 A 
ATOM     47  C   UNL A   1      44.530  30.455  28.689  1.00  0.00     0.049 A 
ATOM     48  H   UNL A   1      44.239  28.475  28.113  1.00  0.00     0.167 HD
ATOM     49  C   UNL A   1      43.516  24.239  27.214  1.00  0.00     0.037 A 
ATOM     50  C   UNL A   1      45.840  30.722  28.526  1.00  0.00     0.037 A 
ATOM     51  C   UNL A   1      44.910  24.449  26.937  1.00  0.00     0.049 A 
ATOM     52  C   UNL A   1      46.746  29.642  28.004  1.00  0.00     0.074 A 
ATOM     53  C   UNL A   1      45.834  23.554  26.430  1.00  0.00     0.029 A 
ATOM     54  N   UNL A   1      45.575  25.651  27.130  1.00  0.00    -0.354 N 
ATOM     55  N   UNL A   1      46.459  28.401  27.695  1.00  0.00    -0.248 NA
ATOM     56  C   UNL A   1      48.157  30.001  27.800  1.00  0.00     0.031 C 
ATOM     57  C   UNL A   1      47.067  24.210  26.336  1.00  0.00     0.029 A 
ATOM     58  C   UNL A   1      46.900  25.520  26.755  1.00  0.00     0.049 A 
ATOM     59  H   UNL A   1      45.165  26.474  27.481  1.00  0.00     0.167 HD
ATOM     60  C   UNL A   1      47.644  27.838  27.238  1.00  0.00     0.074 A 
ATOM     61  C   UNL A   1      48.651  28.878  27.299  1.00  0.00     0.031 C 
ATOM     62  C   UNL A   1      47.879  26.575  26.811  1.00  0.00     0.037 A 
BRANCH  49  63
ATOM     63  C   UNL A   1      42.939  22.870  27.017  1.00  0.00     0.057 A 
ATOM     64  C   UNL A   1      42.686  22.351  25.739  1.00  0.00     0.134 A 
ATOM     65  C   UNL A   1      42.632  22.056  28.115  1.00  0.00     0.134 A 
ATOM     66  F   UNL A   1      42.940  23.088  24.646  1.00  0.00    -0.206 F 
ATOM     67  C   UNL A   1      42.118  21.090  25.561  1.00  0.00     0.040 A 
ATOM     68  C   UNL A   1      42.090  20.780  27.948  1.00  0.00     0.040 A 
ATOM     69  F   UNL A   1      42.850  22.489  29.367  1.00  0.00    -0.206 F 
ATOM     70  C   UNL A   1      41.823  20.298  26.669  1.00  0.00     0.006 A 
ENDBRANCH  49  63
BRANCH  50  71
ATOM     71  C   UNL A   1      46.366  32.080  28.812  1.00  0.00     0.057 A 
ATOM     72  C   UNL A   1      46.858  32.404  30.083  1.00  0.00     0.134 A 
ATOM     73  C   UNL A   1      46.387  33.083  27.838  1.00  0.00     0.134 A 
ATOM     74  F   UNL A   1      46.848  31.488  31.063  1.00  0.00    -0.206 F 
ATOM     75  C   UNL A   1      47.334  33.681  30.381  1.00  0.00     0.040 A 
ATOM     76  C   UNL A   1      46.879  34.359  28.115  1.00  0.00     0.040 A 
ATOM     77  F   UNL A   1      45.938  32.833  26.599  1.00  0.00    -0.206 F 
ATOM     78  C   UNL A   1      47.348  34.663  29.392  1.00  0.00     0.006 A 
ENDBRANCH  50  71
BRANCH  62  79
ATOM     79  C   UNL A   1      49.266  26.258  26.343  1.00  0.00     0.057 A 
ATOM     80  C   UNL A   1      49.718  26.638  25.074  1.00  0.00     0.134 A 
ATOM     81  C   UNL A   1      50.173  25.610  27.190  1.00  0.00     0.134 A 
ATOM     82  F   UNL A   1      48.892  27.252  24.213  1.00  0.00    -0.206 F 
ATOM     83  C   UNL A   1      51.022  26.368  24.657  1.00  0.00     0.040 A 
ATOM     84  C   UNL A   1      51.484  25.354  26.792  1.00  0.00     0.040 A 
ATOM     85  F   UNL A   1      49.800  25.228  28.422  1.00  0.00    -0.206 F 
ATOM     86  C   UNL A   1      51.911  25.731  25.521  1.00  0.00     0.006 A 
ENDBRANCH  62  79
ENDBRANCH  36  37
ENDBRANCH  28  31
ENDBRANCH  26  27
ENDBRANCH  25  26
ENDBRANCH  24  25
ENDBRANCH   1  24
TORSDOF 16
ENDMDL
