MODEL 1
REMARK VINA RESULT:     -10.5      0.000      0.000
REMARK SMILES CCC[C@H]1CC[C@H](C(=O)NCCCCNC(=O)c2ccc(-c3c4nc(c(-c5c(F)cccc5F)c5ccc([nH]5)c(-c5c(F)cccc5F)c5nc(c(-c6c(F)cccc6F)c6ccc3[nH]6)C=C5)C=C4)cc2)[C@H](Sc2ccncc2)C1
REMARK SMILES IDX 12 1 11 2 10 3 8 4 9 5 7 7 4 8 5 9 80 10 6 11 72 12 3 13
REMARK SMILES IDX 2 14 1 15 73 16 74 17 75 18 79 19 76 20 78 21 77 22 13 23
REMARK SMILES IDX 14 24 15 25 16 26 17 28 18 29 19 30 71 31 20 32 70 33 21 34
REMARK SMILES IDX 22 35 23 36 64 37 24 38 69 39 63 40 65 41 25 42 68 43 62 44
REMARK SMILES IDX 61 45 26 47 52 48 35 49 51 50 36 51 39 52 50 53 66 54 37 55
REMARK SMILES IDX 38 56 49 58 67 59 40 60 27 61 28 62 33 63 29 64 30 65 32 66
REMARK SMILES IDX 34 67 31 68 53 69 54 70 59 71 55 72 56 73 58 74 60 75 57 76
REMARK SMILES IDX 41 77 42 78 47 79 43 80 44 81 46 82 48 83 45 84
REMARK H PARENT 10 6 15 27 65 46 39 57
REMARK Flexibility Score: inf
ROOT
ATOM      1  C   UNL A   1      31.551  28.099  26.078  1.00  0.00     0.023 C 
ENDROOT
BRANCH   1   2
ATOM      2  C   UNL A   1      31.596  26.848  26.949  1.00  0.00     0.116 C 
BRANCH   2   3
ATOM      3  N   UNL A   1      31.276  25.645  26.222  1.00  0.00    -0.356 N 
ATOM      4  C   UNL A   1      31.995  24.824  25.423  1.00  0.00     0.224 C 
ATOM      5  O   UNL A   1      31.389  23.814  25.035  1.00  0.00    -0.275 OA
ATOM      6  H   UNL A   1      30.338  25.364  26.326  1.00  0.00     0.163 HD
BRANCH   4   7
ATOM      7  C   UNL A   1      33.426  25.059  24.920  1.00  0.00     0.092 C 
ATOM      8  C   UNL A   1      35.441  22.781  24.755  1.00  0.00    -0.010 C 
ATOM      9  C   UNL A   1      35.034  23.433  26.101  1.00  0.00     0.004 C 
ATOM     10  C   UNL A   1      34.490  23.101  23.572  1.00  0.00     0.019 C 
ATOM     11  C   UNL A   1      34.474  24.845  26.016  1.00  0.00     0.015 C 
ATOM     12  C   UNL A   1      33.938  24.526  23.577  1.00  0.00     0.064 C 
BRANCH   8  13
ATOM     13  C   UNL A   1      36.921  23.116  24.454  1.00  0.00     0.003 C 
BRANCH  13  14
ATOM     14  C   UNL A   1      37.792  23.408  25.685  1.00  0.00    -0.003 C 
ATOM     15  C   UNL A   1      38.688  22.264  26.126  1.00  0.00     0.004 C 
ENDBRANCH  13  14
ENDBRANCH   8  13
BRANCH  12  16
ATOM     16  S   UNL A   1      32.982  24.960  22.054  1.00  0.00    -0.122 SA
BRANCH  16  17
ATOM     17  C   UNL A   1      32.386  26.608  22.340  1.00  0.00     0.011 A 
ATOM     18  C   UNL A   1      33.284  27.672  22.377  1.00  0.00     0.035 A 
ATOM     19  C   UNL A   1      31.021  26.880  22.372  1.00  0.00     0.035 A 
ATOM     20  C   UNL A   1      32.787  28.953  22.533  1.00  0.00     0.112 A 
ATOM     21  C   UNL A   1      30.618  28.201  22.501  1.00  0.00     0.112 A 
ATOM     22  N   UNL A   1      31.472  29.240  22.612  1.00  0.00    -0.265 NA
ENDBRANCH  16  17
ENDBRANCH  12  16
ENDBRANCH   4   7
ENDBRANCH   2   3
ENDBRANCH   1   2
BRANCH   1  23
ATOM     23  C   UNL A   1      32.878  28.843  25.986  1.00  0.00     0.023 C 
BRANCH  23  24
ATOM     24  C   UNL A   1      33.688  28.878  27.278  1.00  0.00     0.116 C 
BRANCH  24  25
ATOM     25  N   UNL A   1      33.746  30.186  27.919  1.00  0.00    -0.352 N 
ATOM     26  C   UNL A   1      34.833  30.783  28.523  1.00  0.00     0.251 C 
ATOM     27  H   UNL A   1      32.909  30.706  27.919  1.00  0.00     0.163 HD
ATOM     28  O   UNL A   1      34.742  31.869  29.070  1.00  0.00    -0.269 OA
BRANCH  26  29
ATOM     29  C   UNL A   1      36.107  30.036  28.536  1.00  0.00     0.039 A 
ATOM     30  C   UNL A   1      36.949  30.119  27.426  1.00  0.00     0.014 A 
ATOM     31  C   UNL A   1      36.519  29.387  29.703  1.00  0.00     0.014 A 
ATOM     32  C   UNL A   1      38.252  29.631  27.521  1.00  0.00     0.010 A 
ATOM     33  C   UNL A   1      37.841  28.978  29.821  1.00  0.00     0.010 A 
ATOM     34  C   UNL A   1      38.723  29.107  28.737  1.00  0.00    -0.014 A 
BRANCH  34  35
ATOM     35  C   UNL A   1      40.140  28.699  28.906  1.00  0.00     0.031 A 
ATOM     36  C   UNL A   1      41.135  29.672  29.468  1.00  0.00     0.074 A 
ATOM     37  C   UNL A   1      40.546  27.488  28.477  1.00  0.00     0.049 A 
ATOM     38  N   UNL A   1      42.429  29.545  29.609  1.00  0.00    -0.248 NA
ATOM     39  C   UNL A   1      40.609  30.980  29.892  1.00  0.00     0.031 C 
ATOM     40  C   UNL A   1      39.690  26.473  27.856  1.00  0.00     0.029 A 
ATOM     41  N   UNL A   1      41.790  26.907  28.489  1.00  0.00    -0.354 N 
ATOM     42  C   UNL A   1      42.873  30.761  30.111  1.00  0.00     0.074 A 
ATOM     43  C   UNL A   1      41.721  31.631  30.200  1.00  0.00     0.031 C 
ATOM     44  C   UNL A   1      40.428  25.386  27.576  1.00  0.00     0.029 A 
ATOM     45  C   UNL A   1      41.812  25.637  27.966  1.00  0.00     0.049 A 
ATOM     46  H   UNL A   1      42.591  27.359  28.840  1.00  0.00     0.167 HD
ATOM     47  C   UNL A   1      44.123  31.115  30.490  1.00  0.00     0.037 A 
ATOM     48  C   UNL A   1      42.834  24.773  27.821  1.00  0.00     0.037 A 
ATOM     49  C   UNL A   1      45.260  30.235  30.443  1.00  0.00     0.049 A 
ATOM     50  C   UNL A   1      44.209  25.178  28.275  1.00  0.00     0.074 A 
ATOM     51  C   UNL A   1      46.554  30.472  30.873  1.00  0.00     0.029 A 
ATOM     52  N   UNL A   1      45.234  28.943  29.941  1.00  0.00    -0.354 N 
ATOM     53  N   UNL A   1      44.602  26.307  28.813  1.00  0.00    -0.248 NA
ATOM     54  C   UNL A   1      45.281  24.186  28.106  1.00  0.00     0.031 C 
ATOM     55  C   UNL A   1      47.318  29.332  30.607  1.00  0.00     0.029 A 
ATOM     56  C   UNL A   1      46.492  28.373  30.041  1.00  0.00     0.049 A 
ATOM     57  H   UNL A   1      44.439  28.497  29.569  1.00  0.00     0.167 HD
ATOM     58  C   UNL A   1      45.956  26.152  29.073  1.00  0.00     0.074 A 
ATOM     59  C   UNL A   1      46.316  24.818  28.642  1.00  0.00     0.031 C 
ATOM     60  C   UNL A   1      46.825  27.037  29.618  1.00  0.00     0.037 A 
BRANCH  47  61
ATOM     61  C   UNL A   1      44.313  32.511  31.000  1.00  0.00     0.057 A 
ATOM     62  C   UNL A   1      44.178  32.822  32.360  1.00  0.00     0.134 A 
ATOM     63  C   UNL A   1      44.634  33.556  30.127  1.00  0.00     0.134 A 
ATOM     64  F   UNL A   1      43.854  31.869  33.247  1.00  0.00    -0.206 F 
ATOM     65  C   UNL A   1      44.323  34.129  32.828  1.00  0.00     0.040 A 
ATOM     66  C   UNL A   1      44.808  34.863  30.586  1.00  0.00     0.040 A 
ATOM     67  F   UNL A   1      44.781  33.325  28.813  1.00  0.00    -0.206 F 
ATOM     68  C   UNL A   1      44.643  35.154  31.939  1.00  0.00     0.006 A 
ENDBRANCH  47  61
BRANCH  48  69
ATOM     69  C   UNL A   1      42.593  23.421  27.259  1.00  0.00     0.057 A 
ATOM     70  C   UNL A   1      42.184  22.366  28.084  1.00  0.00     0.134 A 
ATOM     71  C   UNL A   1      42.774  23.145  25.899  1.00  0.00     0.134 A 
ATOM     72  F   UNL A   1      42.014  22.566  29.399  1.00  0.00    -0.206 F 
ATOM     73  C   UNL A   1      41.979  21.081  27.581  1.00  0.00     0.040 A 
ATOM     74  C   UNL A   1      42.553  21.868  25.379  1.00  0.00     0.040 A 
ATOM     75  F   UNL A   1      43.158  24.114  25.056  1.00  0.00    -0.206 F 
ATOM     76  C   UNL A   1      42.161  20.830  26.223  1.00  0.00     0.006 A 
ENDBRANCH  48  69
BRANCH  60  77
ATOM     77  C   UNL A   1      48.238  26.577  29.815  1.00  0.00     0.057 A 
ATOM     78  C   UNL A   1      49.224  26.790  28.844  1.00  0.00     0.134 A 
ATOM     79  C   UNL A   1      48.622  25.949  31.007  1.00  0.00     0.134 A 
ATOM     80  F   UNL A   1      48.913  27.373  27.677  1.00  0.00    -0.206 F 
ATOM     81  C   UNL A   1      50.542  26.381  29.045  1.00  0.00     0.040 A 
ATOM     82  C   UNL A   1      49.942  25.555  31.228  1.00  0.00     0.040 A 
ATOM     83  F   UNL A   1      47.725  25.722  31.977  1.00  0.00    -0.206 F 
ATOM     84  C   UNL A   1      50.906  25.767  30.244  1.00  0.00     0.006 A 
ENDBRANCH  60  77
ENDBRANCH  34  35
ENDBRANCH  26  29
ENDBRANCH  24  25
ENDBRANCH  23  24
ENDBRANCH   1  23
TORSDOF 15
ENDMDL
MODEL 2
REMARK VINA RESULT:     -10.4      4.052      5.829
REMARK SMILES CCC[C@H]1CC[C@H](C(=O)NCCCCNC(=O)c2ccc(-c3c4nc(c(-c5c(F)cccc5F)c5ccc([nH]5)c(-c5c(F)cccc5F)c5nc(c(-c6c(F)cccc6F)c6ccc3[nH]6)C=C5)C=C4)cc2)[C@H](Sc2ccncc2)C1
REMARK SMILES IDX 12 1 11 2 10 3 8 4 9 5 7 7 4 8 5 9 80 10 6 11 72 12 3 13
REMARK SMILES IDX 2 14 1 15 73 16 74 17 75 18 79 19 76 20 78 21 77 22 13 23
REMARK SMILES IDX 14 24 15 25 16 26 17 28 18 29 19 30 71 31 20 32 70 33 21 34
REMARK SMILES IDX 22 35 23 36 64 37 24 38 69 39 63 40 65 41 25 42 68 43 62 44
REMARK SMILES IDX 61 45 26 47 52 48 35 49 51 50 36 51 39 52 50 53 66 54 37 55
REMARK SMILES IDX 38 56 49 58 67 59 40 60 27 61 28 62 33 63 29 64 30 65 32 66
REMARK SMILES IDX 34 67 31 68 53 69 54 70 59 71 55 72 56 73 58 74 60 75 57 76
REMARK SMILES IDX 41 77 42 78 47 79 43 80 44 81 46 82 48 83 45 84
REMARK H PARENT 10 6 15 27 65 46 39 57
REMARK Flexibility Score: inf
ROOT
ATOM      1  C   UNL A   1      32.448  30.400  26.897  1.00  0.00     0.023 C 
ENDROOT
BRANCH   1   2
ATOM      2  C   UNL A   1      32.005  29.802  25.565  1.00  0.00     0.116 C 
BRANCH   2   3
ATOM      3  N   UNL A   1      33.088  29.665  24.624  1.00  0.00    -0.356 N 
ATOM      4  C   UNL A   1      33.513  28.648  23.840  1.00  0.00     0.224 C 
ATOM      5  O   UNL A   1      34.447  28.935  23.076  1.00  0.00    -0.275 OA
ATOM      6  H   UNL A   1      33.632  30.480  24.533  1.00  0.00     0.163 HD
BRANCH   4   7
ATOM      7  C   UNL A   1      33.000  27.201  23.859  1.00  0.00     0.092 C 
ATOM      8  C   UNL A   1      31.286  26.159  26.151  1.00  0.00    -0.010 C 
ATOM      9  C   UNL A   1      32.812  26.384  26.292  1.00  0.00     0.004 C 
ATOM     10  C   UNL A   1      30.646  26.847  24.917  1.00  0.00     0.019 C 
ATOM     11  C   UNL A   1      33.610  26.379  24.997  1.00  0.00     0.015 C 
ATOM     12  C   UNL A   1      31.523  26.836  23.665  1.00  0.00     0.064 C 
BRANCH   8  13
ATOM     13  C   UNL A   1      30.985  24.643  26.227  1.00  0.00     0.003 C 
BRANCH  13  14
ATOM     14  C   UNL A   1      32.034  23.802  26.968  1.00  0.00    -0.003 C 
ATOM     15  C   UNL A   1      32.627  22.657  26.165  1.00  0.00     0.004 C 
ENDBRANCH  13  14
ENDBRANCH   8  13
BRANCH  12  16
ATOM     16  S   UNL A   1      30.669  27.464  22.150  1.00  0.00    -0.122 SA
BRANCH  16  17
ATOM     17  C   UNL A   1      29.433  28.588  22.752  1.00  0.00     0.011 A 
ATOM     18  C   UNL A   1      29.757  29.927  22.957  1.00  0.00     0.035 A 
ATOM     19  C   UNL A   1      28.104  28.193  22.876  1.00  0.00     0.035 A 
ATOM     20  C   UNL A   1      28.760  30.796  23.361  1.00  0.00     0.112 A 
ATOM     21  C   UNL A   1      27.169  29.143  23.258  1.00  0.00     0.112 A 
ATOM     22  N   UNL A   1      27.473  30.429  23.532  1.00  0.00    -0.265 NA
ENDBRANCH  16  17
ENDBRANCH  12  16
ENDBRANCH   4   7
ENDBRANCH   2   3
ENDBRANCH   1   2
BRANCH   1  23
ATOM     23  C   UNL A   1      31.924  31.808  27.153  1.00  0.00     0.023 C 
BRANCH  23  24
ATOM     24  C   UNL A   1      33.000  32.877  27.313  1.00  0.00     0.116 C 
BRANCH  24  25
ATOM     25  N   UNL A   1      32.489  34.202  27.642  1.00  0.00    -0.352 N 
ATOM     26  C   UNL A   1      32.977  35.086  28.583  1.00  0.00     0.251 C 
ATOM     27  H   UNL A   1      31.702  34.502  27.131  1.00  0.00     0.163 HD
ATOM     28  O   UNL A   1      32.429  36.154  28.799  1.00  0.00    -0.269 OA
BRANCH  26  29
ATOM     29  C   UNL A   1      34.160  34.673  29.365  1.00  0.00     0.039 A 
ATOM     30  C   UNL A   1      33.969  34.095  30.620  1.00  0.00     0.014 A 
ATOM     31  C   UNL A   1      35.429  34.728  28.784  1.00  0.00     0.014 A 
ATOM     32  C   UNL A   1      35.046  33.478  31.257  1.00  0.00     0.010 A 
ATOM     33  C   UNL A   1      36.478  34.041  29.381  1.00  0.00     0.010 A 
ATOM     34  C   UNL A   1      36.294  33.399  30.616  1.00  0.00    -0.014 A 
BRANCH  34  35
ATOM     35  C   UNL A   1      37.422  32.640  31.210  1.00  0.00     0.031 A 
ATOM     36  C   UNL A   1      37.990  33.060  32.535  1.00  0.00     0.074 A 
ATOM     37  C   UNL A   1      37.990  31.631  30.520  1.00  0.00     0.049 A 
ATOM     38  N   UNL A   1      39.028  32.591  33.178  1.00  0.00    -0.248 NA
ATOM     39  C   UNL A   1      37.322  34.185  33.210  1.00  0.00     0.031 C 
ATOM     40  C   UNL A   1      37.574  31.165  29.195  1.00  0.00     0.029 A 
ATOM     41  N   UNL A   1      39.051  30.820  30.836  1.00  0.00    -0.354 N 
ATOM     42  C   UNL A   1      39.153  33.379  34.313  1.00  0.00     0.074 A 
ATOM     43  C   UNL A   1      38.119  34.389  34.247  1.00  0.00     0.031 C 
ATOM     44  C   UNL A   1      38.349  30.132  28.827  1.00  0.00     0.029 A 
ATOM     45  C   UNL A   1      39.337  29.883  29.873  1.00  0.00     0.049 A 
ATOM     46  H   UNL A   1      39.560  30.900  31.675  1.00  0.00     0.167 HD
ATOM     47  C   UNL A   1      40.032  33.258  35.336  1.00  0.00     0.037 A 
ATOM     48  C   UNL A   1      40.288  28.931  29.839  1.00  0.00     0.037 A 
ATOM     49  C   UNL A   1      41.030  32.226  35.423  1.00  0.00     0.049 A 
ATOM     50  C   UNL A   1      41.236  28.797  30.999  1.00  0.00     0.074 A 
ATOM     51  C   UNL A   1      41.921  31.971  36.451  1.00  0.00     0.029 A 
ATOM     52  N   UNL A   1      41.265  31.274  34.443  1.00  0.00    -0.354 N 
ATOM     53  N   UNL A   1      41.298  29.505  32.100  1.00  0.00    -0.248 NA
ATOM     54  C   UNL A   1      42.241  27.729  30.912  1.00  0.00     0.031 C 
ATOM     55  C   UNL A   1      42.712  30.879  36.082  1.00  0.00     0.029 A 
ATOM     56  C   UNL A   1      42.292  30.435  34.838  1.00  0.00     0.049 A 
ATOM     57  H   UNL A   1      40.773  31.205  33.593  1.00  0.00     0.167 HD
ATOM     58  C   UNL A   1      42.327  28.952  32.849  1.00  0.00     0.074 A 
ATOM     59  C   UNL A   1      42.856  27.845  32.081  1.00  0.00     0.031 C 
ATOM     60  C   UNL A   1      42.794  29.329  34.064  1.00  0.00     0.037 A 
BRANCH  47  61
ATOM     61  C   UNL A   1      39.934  34.263  36.444  1.00  0.00     0.057 A 
ATOM     62  C   UNL A   1      40.556  35.516  36.358  1.00  0.00     0.134 A 
ATOM     63  C   UNL A   1      39.210  33.978  37.607  1.00  0.00     0.134 A 
ATOM     64  F   UNL A   1      41.279  35.842  35.275  1.00  0.00    -0.206 F 
ATOM     65  C   UNL A   1      40.490  36.436  37.403  1.00  0.00     0.040 A 
ATOM     66  C   UNL A   1      39.115  34.902  38.650  1.00  0.00     0.040 A 
ATOM     67  F   UNL A   1      38.588  32.799  37.752  1.00  0.00    -0.206 F 
ATOM     68  C   UNL A   1      39.764  36.132  38.553  1.00  0.00     0.006 A 
ENDBRANCH  47  61
BRANCH  48  69
ATOM     69  C   UNL A   1      40.368  27.998  28.688  1.00  0.00     0.057 A 
ATOM     70  C   UNL A   1      39.690  26.773  28.712  1.00  0.00     0.134 A 
ATOM     71  C   UNL A   1      41.125  28.295  27.549  1.00  0.00     0.134 A 
ATOM     72  F   UNL A   1      38.966  26.425  29.785  1.00  0.00    -0.206 F 
ATOM     73  C   UNL A   1      39.775  25.869  27.653  1.00  0.00     0.040 A 
ATOM     74  C   UNL A   1      41.202  27.408  26.473  1.00  0.00     0.040 A 
ATOM     75  F   UNL A   1      41.792  29.455  27.462  1.00  0.00    -0.206 F 
ATOM     76  C   UNL A   1      40.531  26.188  26.527  1.00  0.00     0.006 A 
ENDBRANCH  48  69
BRANCH  60  77
ATOM     77  C   UNL A   1      43.905  28.514  34.653  1.00  0.00     0.057 A 
ATOM     78  C   UNL A   1      45.250  28.858  34.468  1.00  0.00     0.134 A 
ATOM     79  C   UNL A   1      43.623  27.395  35.447  1.00  0.00     0.134 A 
ATOM     80  F   UNL A   1      45.582  29.911  33.705  1.00  0.00    -0.206 F 
ATOM     81  C   UNL A   1      46.277  28.108  35.040  1.00  0.00     0.040 A 
ATOM     82  C   UNL A   1      44.641  26.650  36.042  1.00  0.00     0.040 A 
ATOM     83  F   UNL A   1      42.355  27.018  35.667  1.00  0.00    -0.206 F 
ATOM     84  C   UNL A   1      45.974  27.004  35.836  1.00  0.00     0.006 A 
ENDBRANCH  60  77
ENDBRANCH  34  35
ENDBRANCH  26  29
ENDBRANCH  24  25
ENDBRANCH  23  24
ENDBRANCH   1  23
TORSDOF 15
ENDMDL
MODEL 3
REMARK VINA RESULT:     -10.4      1.872      2.970
REMARK SMILES CCC[C@H]1CC[C@H](C(=O)NCCCCNC(=O)c2ccc(-c3c4nc(c(-c5c(F)cccc5F)c5ccc([nH]5)c(-c5c(F)cccc5F)c5nc(c(-c6c(F)cccc6F)c6ccc3[nH]6)C=C5)C=C4)cc2)[C@H](Sc2ccncc2)C1
REMARK SMILES IDX 12 1 11 2 10 3 8 4 9 5 7 7 4 8 5 9 80 10 6 11 72 12 3 13
REMARK SMILES IDX 2 14 1 15 73 16 74 17 75 18 79 19 76 20 78 21 77 22 13 23
REMARK SMILES IDX 14 24 15 25 16 26 17 28 18 29 19 30 71 31 20 32 70 33 21 34
REMARK SMILES IDX 22 35 23 36 64 37 24 38 69 39 63 40 65 41 25 42 68 43 62 44
REMARK SMILES IDX 61 45 26 47 52 48 35 49 51 50 36 51 39 52 50 53 66 54 37 55
REMARK SMILES IDX 38 56 49 58 67 59 40 60 27 61 28 62 33 63 29 64 30 65 32 66
REMARK SMILES IDX 34 67 31 68 53 69 54 70 59 71 55 72 56 73 58 74 60 75 57 76
REMARK SMILES IDX 41 77 42 78 47 79 43 80 44 81 46 82 48 83 45 84
REMARK H PARENT 10 6 15 27 65 46 39 57
REMARK Flexibility Score: inf
ROOT
ATOM      1  C   UNL A   1      31.659  27.733  26.690  1.00  0.00     0.023 C 
ENDROOT
BRANCH   1   2
ATOM      2  C   UNL A   1      31.602  26.443  25.878  1.00  0.00     0.116 C 
BRANCH   2   3
ATOM      3  N   UNL A   1      31.580  25.261  26.703  1.00  0.00    -0.356 N 
ATOM      4  C   UNL A   1      32.210  24.066  26.629  1.00  0.00     0.224 C 
ATOM      5  O   UNL A   1      32.005  23.310  27.591  1.00  0.00    -0.275 OA
ATOM      6  H   UNL A   1      30.983  25.339  27.481  1.00  0.00     0.163 HD
BRANCH   4   7
ATOM      7  C   UNL A   1      33.072  23.556  25.466  1.00  0.00     0.092 C 
ATOM      8  C   UNL A   1      35.778  22.247  25.958  1.00  0.00    -0.010 C 
ATOM      9  C   UNL A   1      35.562  23.777  26.077  1.00  0.00     0.004 C 
ATOM     10  C   UNL A   1      34.471  21.412  25.948  1.00  0.00     0.019 C 
ATOM     11  C   UNL A   1      34.375  24.345  25.314  1.00  0.00     0.015 C 
ATOM     12  C   UNL A   1      33.313  22.066  25.195  1.00  0.00     0.064 C 
BRANCH   8  13
ATOM     13  C   UNL A   1      36.695  21.956  24.746  1.00  0.00     0.003 C 
BRANCH  13  14
ATOM     14  C   UNL A   1      38.089  21.411  25.093  1.00  0.00    -0.003 C 
ATOM     15  C   UNL A   1      38.822  22.168  26.188  1.00  0.00     0.004 C 
ENDBRANCH  13  14
ENDBRANCH   8  13
BRANCH  12  16
ATOM     16  S   UNL A   1      31.834  20.971  25.008  1.00  0.00    -0.122 SA
BRANCH  16  17
ATOM     17  C   UNL A   1      32.488  19.391  24.533  1.00  0.00     0.011 A 
ATOM     18  C   UNL A   1      32.840  18.465  25.512  1.00  0.00     0.035 A 
ATOM     19  C   UNL A   1      32.512  18.997  23.197  1.00  0.00     0.035 A 
ATOM     20  C   UNL A   1      33.283  17.216  25.114  1.00  0.00     0.112 A 
ATOM     21  C   UNL A   1      32.945  17.715  22.898  1.00  0.00     0.112 A 
ATOM     22  N   UNL A   1      33.359  16.826  23.825  1.00  0.00    -0.265 NA
ENDBRANCH  16  17
ENDBRANCH  12  16
ENDBRANCH   4   7
ENDBRANCH   2   3
ENDBRANCH   1   2
BRANCH   1  23
ATOM     23  C   UNL A   1      32.772  28.685  26.271  1.00  0.00     0.023 C 
BRANCH  23  24
ATOM     24  C   UNL A   1      33.904  28.838  27.280  1.00  0.00     0.116 C 
BRANCH  24  25
ATOM     25  N   UNL A   1      33.940  30.130  27.956  1.00  0.00    -0.352 N 
ATOM     26  C   UNL A   1      35.013  30.721  28.592  1.00  0.00     0.251 C 
ATOM     27  H   UNL A   1      33.098  30.641  27.958  1.00  0.00     0.163 HD
ATOM     28  O   UNL A   1      34.903  31.792  29.165  1.00  0.00    -0.269 OA
BRANCH  26  29
ATOM     29  C   UNL A   1      36.294  29.987  28.604  1.00  0.00     0.039 A 
ATOM     30  C   UNL A   1      37.132  30.074  27.492  1.00  0.00     0.014 A 
ATOM     31  C   UNL A   1      36.714  29.344  29.771  1.00  0.00     0.014 A 
ATOM     32  C   UNL A   1      38.440  29.599  27.585  1.00  0.00     0.010 A 
ATOM     33  C   UNL A   1      38.041  28.949  29.888  1.00  0.00     0.010 A 
ATOM     34  C   UNL A   1      38.919  29.083  28.800  1.00  0.00    -0.014 A 
BRANCH  34  35
ATOM     35  C   UNL A   1      40.340  28.689  28.968  1.00  0.00     0.031 A 
ATOM     36  C   UNL A   1      41.324  29.669  29.538  1.00  0.00     0.074 A 
ATOM     37  C   UNL A   1      40.759  27.486  28.529  1.00  0.00     0.049 A 
ATOM     38  N   UNL A   1      42.620  29.554  29.679  1.00  0.00    -0.248 NA
ATOM     39  C   UNL A   1      40.784  30.967  29.972  1.00  0.00     0.031 C 
ATOM     40  C   UNL A   1      39.915  26.468  27.899  1.00  0.00     0.029 A 
ATOM     41  N   UNL A   1      42.009  26.919  28.537  1.00  0.00    -0.354 N 
ATOM     42  C   UNL A   1      43.050  30.771  30.190  1.00  0.00     0.074 A 
ATOM     43  C   UNL A   1      41.888  31.628  30.286  1.00  0.00     0.031 C 
ATOM     44  C   UNL A   1      40.665  25.391  27.611  1.00  0.00     0.029 A 
ATOM     45  C   UNL A   1      42.046  25.653  28.004  1.00  0.00     0.049 A 
ATOM     46  H   UNL A   1      42.806  27.377  28.892  1.00  0.00     0.167 HD
ATOM     47  C   UNL A   1      44.296  31.136  30.573  1.00  0.00     0.037 A 
ATOM     48  C   UNL A   1      43.078  24.802  27.852  1.00  0.00     0.037 A 
ATOM     49  C   UNL A   1      45.442  30.269  30.520  1.00  0.00     0.049 A 
ATOM     50  C   UNL A   1      44.448  25.219  28.310  1.00  0.00     0.074 A 
ATOM     51  C   UNL A   1      46.733  30.517  30.953  1.00  0.00     0.029 A 
ATOM     52  N   UNL A   1      45.431  28.981  30.008  1.00  0.00    -0.354 N 
ATOM     53  N   UNL A   1      44.828  26.347  28.858  1.00  0.00    -0.248 NA
ATOM     54  C   UNL A   1      45.530  24.240  28.135  1.00  0.00     0.031 C 
ATOM     55  C   UNL A   1      47.509  29.387  30.678  1.00  0.00     0.029 A 
ATOM     56  C   UNL A   1      46.695  28.424  30.104  1.00  0.00     0.049 A 
ATOM     57  H   UNL A   1      44.641  28.529  29.631  1.00  0.00     0.167 HD
ATOM     58  C   UNL A   1      46.184  26.205  29.117  1.00  0.00     0.074 A 
ATOM     59  C   UNL A   1      46.558  24.879  28.675  1.00  0.00     0.031 C 
ATOM     60  C   UNL A   1      47.043  27.095  29.670  1.00  0.00     0.037 A 
BRANCH  47  61
ATOM     61  C   UNL A   1      44.470  32.530  31.095  1.00  0.00     0.057 A 
ATOM     62  C   UNL A   1      44.314  32.832  32.455  1.00  0.00     0.134 A 
ATOM     63  C   UNL A   1      44.798  33.582  30.233  1.00  0.00     0.134 A 
ATOM     64  F   UNL A   1      43.983  31.871  33.331  1.00  0.00    -0.206 F 
ATOM     65  C   UNL A   1      44.444  34.136  32.932  1.00  0.00     0.040 A 
ATOM     66  C   UNL A   1      44.957  34.887  30.702  1.00  0.00     0.040 A 
ATOM     67  F   UNL A   1      44.965  33.360  28.920  1.00  0.00    -0.206 F 
ATOM     68  C   UNL A   1      44.771  35.168  32.055  1.00  0.00     0.006 A 
ENDBRANCH  47  61
BRANCH  48  69
ATOM     69  C   UNL A   1      42.852  23.452  27.279  1.00  0.00     0.057 A 
ATOM     70  C   UNL A   1      42.433  22.392  28.092  1.00  0.00     0.134 A 
ATOM     71  C   UNL A   1      43.056  23.184  25.921  1.00  0.00     0.134 A 
ATOM     72  F   UNL A   1      42.240  22.584  29.405  1.00  0.00    -0.206 F 
ATOM     73  C   UNL A   1      42.242  21.108  27.579  1.00  0.00     0.040 A 
ATOM     74  C   UNL A   1      42.850  21.909  25.390  1.00  0.00     0.040 A 
ATOM     75  F   UNL A   1      43.451  24.159  25.090  1.00  0.00    -0.206 F 
ATOM     76  C   UNL A   1      42.448  20.865  26.222  1.00  0.00     0.006 A 
ENDBRANCH  48  69
BRANCH  60  77
ATOM     77  C   UNL A   1      48.460  26.649  29.865  1.00  0.00     0.057 A 
ATOM     78  C   UNL A   1      49.455  26.924  28.919  1.00  0.00     0.134 A 
ATOM     79  C   UNL A   1      48.840  25.971  31.030  1.00  0.00     0.134 A 
ATOM     80  F   UNL A   1      49.150  27.558  27.776  1.00  0.00    -0.206 F 
ATOM     81  C   UNL A   1      50.778  26.527  29.118  1.00  0.00     0.040 A 
ATOM     82  C   UNL A   1      50.162  25.587  31.250  1.00  0.00     0.040 A 
ATOM     83  F   UNL A   1      47.933  25.683  31.975  1.00  0.00    -0.206 F 
ATOM     84  C   UNL A   1      51.135  25.862  30.290  1.00  0.00     0.006 A 
ENDBRANCH  60  77
ENDBRANCH  34  35
ENDBRANCH  26  29
ENDBRANCH  24  25
ENDBRANCH  23  24
ENDBRANCH   1  23
TORSDOF 15
ENDMDL
