MODEL 1
REMARK VINA RESULT:     -11.4      0.000      0.000
REMARK SMILES Cn1cc(/C=C/C(=O)N(CC(=O)NCCCCNC(=O)c2ccc(-c3c4nc(c(-c5c(F)cccc5F)c5ccc([nH]5)c(-c5c(F)cccc5F)c5nc(c(-c6c(F)cccc6F)c6ccc3[nH]6)C=C5)C=C4)cc2)C(C)(C)C)cn1
REMARK SMILES IDX 14 1 13 2 11 3 12 4 10 6 9 7 7 8 8 9 6 10 5 11 4 12 1 13
REMARK SMILES IDX 2 14 3 15 80 16 79 17 75 18 76 19 77 20 78 21 15 22 16 23
REMARK SMILES IDX 17 24 18 25 19 26 20 28 21 29 22 30 74 31 23 32 73 33 24 34
REMARK SMILES IDX 25 35 26 36 67 37 27 38 72 39 66 40 68 41 28 42 71 43 65 44
REMARK SMILES IDX 64 45 29 47 55 48 38 49 54 50 39 51 42 52 53 53 69 54 40 55
REMARK SMILES IDX 41 56 52 58 70 59 43 60 30 61 31 62 36 63 32 64 33 65 35 66
REMARK SMILES IDX 37 67 34 68 56 69 57 70 62 71 58 72 59 73 61 74 63 75 60 76
REMARK SMILES IDX 44 77 45 78 50 79 46 80 47 81 49 82 51 83 48 84
REMARK H PARENT 13 5 18 27 68 46 42 57
REMARK Flexibility Score: inf
ROOT
ATOM      1  C   UNL A   1      36.874  22.737  25.408  1.00  0.00     0.116 C 
ENDROOT
BRANCH   1   2
ATOM      2  N   UNL A   1      36.029  22.344  26.518  1.00  0.00    -0.355 N 
ATOM      3  C   UNL A   1      34.724  22.605  26.807  1.00  0.00     0.239 C 
ATOM      4  O   UNL A   1      34.201  21.868  27.653  1.00  0.00    -0.273 OA
ATOM      5  H   UNL A   1      36.484  21.784  27.188  1.00  0.00     0.163 HD
BRANCH   3   6
ATOM      6  C   UNL A   1      33.847  23.627  26.052  1.00  0.00     0.220 C 
BRANCH   6   7
ATOM      7  N   UNL A   1      32.917  23.118  25.037  1.00  0.00    -0.325 N 
BRANCH   7   8
ATOM      8  C   UNL A   1      33.270  22.209  24.038  1.00  0.00     0.247 C 
ATOM      9  O   UNL A   1      33.769  22.578  22.970  1.00  0.00    -0.270 OA
BRANCH   8  10
ATOM     10  C   UNL A   1      33.063  20.715  24.115  1.00  0.00     0.072 C 
ATOM     11  C   UNL A   1      33.808  19.720  24.624  1.00  0.00     0.017 C 
BRANCH  11  12
ATOM     12  C   UNL A   1      33.588  18.322  24.472  1.00  0.00     0.013 A 
ATOM     13  C   UNL A   1      32.511  15.084  25.607  1.00  0.00     0.173 C 
ATOM     14  N   UNL A   1      33.012  16.265  24.947  1.00  0.00    -0.275 N 
ATOM     15  C   UNL A   1      32.930  17.549  25.401  1.00  0.00     0.116 A 
ATOM     16  N   UNL A   1      33.674  16.152  23.780  1.00  0.00    -0.181 NA
ATOM     17  C   UNL A   1      34.026  17.410  23.492  1.00  0.00     0.143 A 
ENDBRANCH  11  12
ENDBRANCH   8  10
ENDBRANCH   7   8
BRANCH   7  18
ATOM     18  C   UNL A   1      31.463  23.587  25.130  1.00  0.00     0.035 C 
ATOM     19  C   UNL A   1      30.788  23.659  23.748  1.00  0.00     0.034 C 
ATOM     20  C   UNL A   1      30.647  22.646  26.047  1.00  0.00     0.034 C 
ATOM     21  C   UNL A   1      31.288  25.007  25.742  1.00  0.00     0.034 C 
ENDBRANCH   7  18
ENDBRANCH   6   7
ENDBRANCH   3   6
ENDBRANCH   1   2
BRANCH   1  22
ATOM     22  C   UNL A   1      37.174  21.634  24.405  1.00  0.00     0.023 C 
BRANCH  22  23
ATOM     23  C   UNL A   1      37.774  20.368  25.001  1.00  0.00     0.023 C 
BRANCH  23  24
ATOM     24  C   UNL A   1      39.085  20.590  25.739  1.00  0.00     0.116 C 
BRANCH  24  25
ATOM     25  N   UNL A   1      39.909  19.391  25.813  1.00  0.00    -0.352 N 
ATOM     26  C   UNL A   1      41.258  19.300  26.065  1.00  0.00     0.251 C 
ATOM     27  H   UNL A   1      39.441  18.537  25.663  1.00  0.00     0.163 HD
ATOM     28  O   UNL A   1      41.848  18.232  25.982  1.00  0.00    -0.269 OA
BRANCH  26  29
ATOM     29  C   UNL A   1      41.992  20.534  26.405  1.00  0.00     0.039 A 
ATOM     30  C   UNL A   1      42.414  21.378  25.376  1.00  0.00     0.014 A 
ATOM     31  C   UNL A   1      42.180  20.886  27.744  1.00  0.00     0.014 A 
ATOM     32  C   UNL A   1      42.959  22.623  25.693  1.00  0.00     0.010 A 
ATOM     33  C   UNL A   1      42.654  22.152  28.054  1.00  0.00     0.010 A 
ATOM     34  C   UNL A   1      43.043  23.034  27.033  1.00  0.00    -0.014 A 
BRANCH  34  35
ATOM     35  C   UNL A   1      43.537  24.380  27.409  1.00  0.00     0.031 A 
ATOM     36  C   UNL A   1      42.557  25.422  27.865  1.00  0.00     0.074 A 
ATOM     37  C   UNL A   1      44.835  24.694  27.236  1.00  0.00     0.049 A 
ATOM     38  N   UNL A   1      42.743  26.700  28.070  1.00  0.00    -0.248 NA
ATOM     39  C   UNL A   1      41.173  24.971  28.084  1.00  0.00     0.031 C 
ATOM     40  C   UNL A   1      45.875  23.778  26.763  1.00  0.00     0.029 A 
ATOM     41  N   UNL A   1      45.496  25.882  27.416  1.00  0.00    -0.354 N 
ATOM     42  C   UNL A   1      41.497  27.210  28.409  1.00  0.00     0.074 A 
ATOM     43  C   UNL A   1      40.555  26.114  28.344  1.00  0.00     0.031 C 
ATOM     44  C   UNL A   1      47.044  24.436  26.700  1.00  0.00     0.029 A 
ATOM     45  C   UNL A   1      46.829  25.827  27.087  1.00  0.00     0.049 A 
ATOM     46  H   UNL A   1      45.057  26.697  27.750  1.00  0.00     0.167 HD
ATOM     47  C   UNL A   1      41.172  28.476  28.759  1.00  0.00     0.037 A 
ATOM     48  C   UNL A   1      47.765  26.794  27.081  1.00  0.00     0.037 A 
ATOM     49  C   UNL A   1      42.119  29.552  28.864  1.00  0.00     0.049 A 
ATOM     50  C   UNL A   1      47.381  28.190  27.489  1.00  0.00     0.074 A 
ATOM     51  C   UNL A   1      41.901  30.856  29.269  1.00  0.00     0.029 A 
ATOM     52  N   UNL A   1      43.470  29.443  28.568  1.00  0.00    -0.354 N 
ATOM     53  N   UNL A   1      46.209  28.651  27.849  1.00  0.00    -0.248 NA
ATOM     54  C   UNL A   1      48.450  29.199  27.490  1.00  0.00     0.031 C 
ATOM     55  C   UNL A   1      43.116  31.546  29.193  1.00  0.00     0.029 A 
ATOM     56  C   UNL A   1      44.096  30.659  28.774  1.00  0.00     0.049 A 
ATOM     57  H   UNL A   1      43.916  28.622  28.259  1.00  0.00     0.167 HD
ATOM     58  C   UNL A   1      46.403  29.992  28.152  1.00  0.00     0.074 A 
ATOM     59  C   UNL A   1      47.807  30.271  27.934  1.00  0.00     0.031 C 
ATOM     60  C   UNL A   1      45.500  30.908  28.576  1.00  0.00     0.037 A 
BRANCH  47  61
ATOM     61  C   UNL A   1      39.730  28.759  29.059  1.00  0.00     0.057 A 
ATOM     62  C   UNL A   1      39.209  28.634  30.354  1.00  0.00     0.134 A 
ATOM     63  C   UNL A   1      38.861  29.186  28.048  1.00  0.00     0.134 A 
ATOM     64  F   UNL A   1      39.987  28.216  31.363  1.00  0.00    -0.206 F 
ATOM     65  C   UNL A   1      37.866  28.899  30.626  1.00  0.00     0.040 A 
ATOM     66  C   UNL A   1      37.522  29.478  28.314  1.00  0.00     0.040 A 
ATOM     67  F   UNL A   1      39.298  29.329  26.788  1.00  0.00    -0.206 F 
ATOM     68  C   UNL A   1      37.020  29.329  29.606  1.00  0.00     0.006 A 
ENDBRANCH  47  61
BRANCH  48  69
ATOM     69  C   UNL A   1      49.161  26.474  26.697  1.00  0.00     0.057 A 
ATOM     70  C   UNL A   1      49.606  26.665  25.383  1.00  0.00     0.134 A 
ATOM     71  C   UNL A   1      50.082  25.974  27.624  1.00  0.00     0.134 A 
ATOM     72  F   UNL A   1      48.763  27.125  24.447  1.00  0.00    -0.206 F 
ATOM     73  C   UNL A   1      50.912  26.355  25.001  1.00  0.00     0.040 A 
ATOM     74  C   UNL A   1      51.398  25.681  27.260  1.00  0.00     0.040 A 
ATOM     75  F   UNL A   1      49.720  25.777  28.900  1.00  0.00    -0.206 F 
ATOM     76  C   UNL A   1      51.814  25.866  25.944  1.00  0.00     0.006 A 
ENDBRANCH  48  69
BRANCH  60  77
ATOM     77  C   UNL A   1      46.006  32.284  28.884  1.00  0.00     0.057 A 
ATOM     78  C   UNL A   1      46.497  32.624  30.149  1.00  0.00     0.134 A 
ATOM     79  C   UNL A   1      46.067  33.256  27.878  1.00  0.00     0.134 A 
ATOM     80  F   UNL A   1      46.454  31.739  31.156  1.00  0.00    -0.206 F 
ATOM     81  C   UNL A   1      47.025  33.890  30.406  1.00  0.00     0.040 A 
ATOM     82  C   UNL A   1      46.611  34.518  28.116  1.00  0.00     0.040 A 
ATOM     83  F   UNL A   1      45.619  32.987  26.642  1.00  0.00    -0.206 F 
ATOM     84  C   UNL A   1      47.091  34.839  29.386  1.00  0.00     0.006 A 
ENDBRANCH  60  77
ENDBRANCH  34  35
ENDBRANCH  26  29
ENDBRANCH  24  25
ENDBRANCH  23  24
ENDBRANCH  22  23
ENDBRANCH   1  22
TORSDOF 16
ENDMDL
MODEL 2
REMARK VINA RESULT:     -11.3      1.720      6.485
REMARK SMILES Cn1cc(/C=C/C(=O)N(CC(=O)NCCCCNC(=O)c2ccc(-c3c4nc(c(-c5c(F)cccc5F)c5ccc([nH]5)c(-c5c(F)cccc5F)c5nc(c(-c6c(F)cccc6F)c6ccc3[nH]6)C=C5)C=C4)cc2)C(C)(C)C)cn1
REMARK SMILES IDX 14 1 13 2 11 3 12 4 10 6 9 7 7 8 8 9 6 10 5 11 4 12 1 13
REMARK SMILES IDX 2 14 3 15 80 16 79 17 75 18 76 19 77 20 78 21 15 22 16 23
REMARK SMILES IDX 17 24 18 25 19 26 20 28 21 29 22 30 74 31 23 32 73 33 24 34
REMARK SMILES IDX 25 35 26 36 67 37 27 38 72 39 66 40 68 41 28 42 71 43 65 44
REMARK SMILES IDX 64 45 29 47 55 48 38 49 54 50 39 51 42 52 53 53 69 54 40 55
REMARK SMILES IDX 41 56 52 58 70 59 43 60 30 61 31 62 36 63 32 64 33 65 35 66
REMARK SMILES IDX 37 67 34 68 56 69 57 70 62 71 58 72 59 73 61 74 63 75 60 76
REMARK SMILES IDX 44 77 45 78 50 79 46 80 47 81 49 82 51 83 48 84
REMARK H PARENT 13 5 18 27 68 46 42 57
REMARK Flexibility Score: inf
ROOT
ATOM      1  C   UNL A   1      36.796  22.489  25.525  1.00  0.00     0.116 C 
ENDROOT
BRANCH   1   2
ATOM      2  N   UNL A   1      35.873  22.234  26.613  1.00  0.00    -0.355 N 
ATOM      3  C   UNL A   1      34.592  22.639  26.835  1.00  0.00     0.239 C 
ATOM      4  O   UNL A   1      33.964  21.997  27.688  1.00  0.00    -0.273 OA
ATOM      5  H   UNL A   1      36.243  21.663  27.325  1.00  0.00     0.163 HD
BRANCH   3   6
ATOM      6  C   UNL A   1      33.853  23.708  26.001  1.00  0.00     0.220 C 
BRANCH   6   7
ATOM      7  N   UNL A   1      32.928  23.248  24.958  1.00  0.00    -0.325 N 
BRANCH   7   8
ATOM      8  C   UNL A   1      33.300  22.438  23.883  1.00  0.00     0.247 C 
ATOM      9  O   UNL A   1      33.851  22.902  22.880  1.00  0.00    -0.270 OA
BRANCH   8  10
ATOM     10  C   UNL A   1      33.054  20.951  23.795  1.00  0.00     0.072 C 
ATOM     11  C   UNL A   1      33.159  19.958  24.693  1.00  0.00     0.017 C 
BRANCH  11  12
ATOM     12  C   UNL A   1      33.074  18.560  24.439  1.00  0.00     0.013 A 
ATOM     13  C   UNL A   1      32.726  15.118  25.420  1.00  0.00     0.173 C 
ATOM     14  N   UNL A   1      32.892  16.410  24.798  1.00  0.00    -0.275 N 
ATOM     15  C   UNL A   1      32.781  17.626  25.406  1.00  0.00     0.116 A 
ATOM     16  N   UNL A   1      33.232  16.490  23.499  1.00  0.00    -0.181 NA
ATOM     17  C   UNL A   1      33.344  17.806  23.281  1.00  0.00     0.143 A 
ENDBRANCH  11  12
ENDBRANCH   8  10
ENDBRANCH   7   8
BRANCH   7  18
ATOM     18  C   UNL A   1      31.460  23.651  25.107  1.00  0.00     0.035 C 
ATOM     19  C   UNL A   1      30.755  23.788  23.743  1.00  0.00     0.034 C 
ATOM     20  C   UNL A   1      30.698  22.620  25.972  1.00  0.00     0.034 C 
ATOM     21  C   UNL A   1      31.241  25.020  25.815  1.00  0.00     0.034 C 
ENDBRANCH   7  18
ENDBRANCH   6   7
ENDBRANCH   3   6
ENDBRANCH   1   2
BRANCH   1  22
ATOM     22  C   UNL A   1      36.912  21.370  24.503  1.00  0.00     0.023 C 
BRANCH  22  23
ATOM     23  C   UNL A   1      37.741  20.174  24.950  1.00  0.00     0.023 C 
BRANCH  23  24
ATOM     24  C   UNL A   1      38.996  20.544  25.726  1.00  0.00     0.116 C 
BRANCH  24  25
ATOM     25  N   UNL A   1      39.982  19.471  25.762  1.00  0.00    -0.352 N 
ATOM     26  C   UNL A   1      41.312  19.549  26.104  1.00  0.00     0.251 C 
ATOM     27  H   UNL A   1      39.653  18.577  25.512  1.00  0.00     0.163 HD
ATOM     28  O   UNL A   1      42.055  18.587  25.980  1.00  0.00    -0.269 OA
BRANCH  26  29
ATOM     29  C   UNL A   1      41.834  20.839  26.594  1.00  0.00     0.039 A 
ATOM     30  C   UNL A   1      42.354  21.753  25.676  1.00  0.00     0.014 A 
ATOM     31  C   UNL A   1      41.727  21.165  27.948  1.00  0.00     0.014 A 
ATOM     32  C   UNL A   1      42.696  23.036  26.107  1.00  0.00     0.010 A 
ATOM     33  C   UNL A   1      41.999  22.462  28.359  1.00  0.00     0.010 A 
ATOM     34  C   UNL A   1      42.481  23.410  27.442  1.00  0.00    -0.014 A 
BRANCH  34  35
ATOM     35  C   UNL A   1      42.751  24.786  27.923  1.00  0.00     0.031 A 
ATOM     36  C   UNL A   1      44.138  25.151  28.368  1.00  0.00     0.074 A 
ATOM     37  C   UNL A   1      41.737  25.662  28.062  1.00  0.00     0.049 A 
ATOM     38  N   UNL A   1      44.554  26.227  28.982  1.00  0.00    -0.248 NA
ATOM     39  C   UNL A   1      45.191  24.152  28.119  1.00  0.00     0.031 C 
ATOM     40  C   UNL A   1      40.341  25.410  27.701  1.00  0.00     0.029 A 
ATOM     41  N   UNL A   1      41.724  26.936  28.571  1.00  0.00    -0.354 N 
ATOM     42  C   UNL A   1      45.905  26.022  29.222  1.00  0.00     0.074 A 
ATOM     43  C   UNL A   1      46.232  24.704  28.725  1.00  0.00     0.031 C 
ATOM     44  C   UNL A   1      39.610  26.499  27.990  1.00  0.00     0.029 A 
ATOM     45  C   UNL A   1      40.475  27.507  28.594  1.00  0.00     0.049 A 
ATOM     46  H   UNL A   1      42.535  27.397  28.888  1.00  0.00     0.167 HD
ATOM     47  C   UNL A   1      46.797  26.865  29.793  1.00  0.00     0.037 A 
ATOM     48  C   UNL A   1      40.074  28.702  29.066  1.00  0.00     0.037 A 
ATOM     49  C   UNL A   1      46.477  28.191  30.246  1.00  0.00     0.049 A 
ATOM     50  C   UNL A   1      41.087  29.627  29.682  1.00  0.00     0.074 A 
ATOM     51  C   UNL A   1      47.321  29.147  30.783  1.00  0.00     0.029 A 
ATOM     52  N   UNL A   1      45.209  28.751  30.208  1.00  0.00    -0.354 N 
ATOM     53  N   UNL A   1      42.370  29.439  29.865  1.00  0.00    -0.248 NA
ATOM     54  C   UNL A   1      40.596  30.929  30.156  1.00  0.00     0.031 C 
ATOM     55  C   UNL A   1      46.559  30.277  31.095  1.00  0.00     0.029 A 
ATOM     56  C   UNL A   1      45.246  30.036  30.719  1.00  0.00     0.049 A 
ATOM     57  H   UNL A   1      44.403  28.301  29.867  1.00  0.00     0.167 HD
ATOM     58  C   UNL A   1      42.847  30.608  30.443  1.00  0.00     0.074 A 
ATOM     59  C   UNL A   1      41.715  31.501  30.580  1.00  0.00     0.031 C 
ATOM     60  C   UNL A   1      44.112  30.916  30.822  1.00  0.00     0.037 A 
BRANCH  47  61
ATOM     61  C   UNL A   1      48.206  26.376  29.950  1.00  0.00     0.057 A 
ATOM     62  C   UNL A   1      49.170  26.572  28.952  1.00  0.00     0.134 A 
ATOM     63  C   UNL A   1      48.608  25.723  31.121  1.00  0.00     0.134 A 
ATOM     64  F   UNL A   1      48.844  27.178  27.801  1.00  0.00    -0.206 F 
ATOM     65  C   UNL A   1      50.479  26.114  29.104  1.00  0.00     0.040 A 
ATOM     66  C   UNL A   1      49.922  25.283  31.295  1.00  0.00     0.040 A 
ATOM     67  F   UNL A   1      47.735  25.506  32.116  1.00  0.00    -0.206 F 
ATOM     68  C   UNL A   1      50.860  25.472  30.281  1.00  0.00     0.006 A 
ENDBRANCH  47  61
BRANCH  48  69
ATOM     69  C   UNL A   1      38.649  29.103  28.958  1.00  0.00     0.057 A 
ATOM     70  C   UNL A   1      37.788  28.997  30.056  1.00  0.00     0.134 A 
ATOM     71  C   UNL A   1      38.115  29.599  27.763  1.00  0.00     0.134 A 
ATOM     72  F   UNL A   1      38.239  28.512  31.222  1.00  0.00    -0.206 F 
ATOM     73  C   UNL A   1      36.442  29.356  29.967  1.00  0.00     0.040 A 
ATOM     74  C   UNL A   1      36.776  29.982  27.666  1.00  0.00     0.040 A 
ATOM     75  F   UNL A   1      38.891  29.732  26.677  1.00  0.00    -0.206 F 
ATOM     76  C   UNL A   1      35.935  29.855  28.769  1.00  0.00     0.006 A 
ENDBRANCH  48  69
BRANCH  60  77
ATOM     77  C   UNL A   1      44.351  32.289  31.373  1.00  0.00     0.057 A 
ATOM     78  C   UNL A   1      44.638  33.377  30.541  1.00  0.00     0.134 A 
ATOM     79  C   UNL A   1      44.222  32.532  32.745  1.00  0.00     0.134 A 
ATOM     80  F   UNL A   1      44.786  33.204  29.219  1.00  0.00    -0.206 F 
ATOM     81  C   UNL A   1      44.797  34.663  31.060  1.00  0.00     0.040 A 
ATOM     82  C   UNL A   1      44.358  33.816  33.273  1.00  0.00     0.040 A 
ATOM     83  F   UNL A   1      43.940  31.530  33.592  1.00  0.00    -0.206 F 
ATOM     84  C   UNL A   1      44.649  34.887  32.428  1.00  0.00     0.006 A 
ENDBRANCH  60  77
ENDBRANCH  34  35
ENDBRANCH  26  29
ENDBRANCH  24  25
ENDBRANCH  23  24
ENDBRANCH  22  23
ENDBRANCH   1  22
TORSDOF 16
ENDMDL
MODEL 3
REMARK VINA RESULT:     -11.1      5.852     10.934
REMARK SMILES Cn1cc(/C=C/C(=O)N(CC(=O)NCCCCNC(=O)c2ccc(-c3c4nc(c(-c5c(F)cccc5F)c5ccc([nH]5)c(-c5c(F)cccc5F)c5nc(c(-c6c(F)cccc6F)c6ccc3[nH]6)C=C5)C=C4)cc2)C(C)(C)C)cn1
REMARK SMILES IDX 14 1 13 2 11 3 12 4 10 6 9 7 7 8 8 9 6 10 5 11 4 12 1 13
REMARK SMILES IDX 2 14 3 15 80 16 79 17 75 18 76 19 77 20 78 21 15 22 16 23
REMARK SMILES IDX 17 24 18 25 19 26 20 28 21 29 22 30 74 31 23 32 73 33 24 34
REMARK SMILES IDX 25 35 26 36 67 37 27 38 72 39 66 40 68 41 28 42 71 43 65 44
REMARK SMILES IDX 64 45 29 47 55 48 38 49 54 50 39 51 42 52 53 53 69 54 40 55
REMARK SMILES IDX 41 56 52 58 70 59 43 60 30 61 31 62 36 63 32 64 33 65 35 66
REMARK SMILES IDX 37 67 34 68 56 69 57 70 62 71 58 72 59 73 61 74 63 75 60 76
REMARK SMILES IDX 44 77 45 78 50 79 46 80 47 81 49 82 51 83 48 84
REMARK H PARENT 13 5 18 27 68 46 42 57
REMARK Flexibility Score: inf
ROOT
ATOM      1  C   UNL A   1      32.458  29.858  25.876  1.00  0.00     0.116 C 
ENDROOT
BRANCH   1   2
ATOM      2  N   UNL A   1      33.336  29.711  24.732  1.00  0.00    -0.355 N 
ATOM      3  C   UNL A   1      33.641  28.639  23.950  1.00  0.00     0.239 C 
ATOM      4  O   UNL A   1      34.169  28.900  22.860  1.00  0.00    -0.273 OA
ATOM      5  H   UNL A   1      33.798  30.542  24.474  1.00  0.00     0.163 HD
BRANCH   3   6
ATOM      6  C   UNL A   1      33.237  27.182  24.262  1.00  0.00     0.220 C 
BRANCH   6   7
ATOM      7  N   UNL A   1      31.877  26.756  23.911  1.00  0.00    -0.325 N 
BRANCH   7   8
ATOM      8  C   UNL A   1      31.166  27.235  22.808  1.00  0.00     0.247 C 
ATOM      9  O   UNL A   1      31.117  26.610  21.745  1.00  0.00    -0.270 OA
BRANCH   8  10
ATOM     10  C   UNL A   1      30.423  28.549  22.763  1.00  0.00     0.072 C 
ATOM     11  C   UNL A   1      29.115  28.851  22.710  1.00  0.00     0.017 C 
BRANCH  11  12
ATOM     12  C   UNL A   1      28.541  30.134  22.485  1.00  0.00     0.013 A 
ATOM     13  C   UNL A   1      27.638  32.951  20.439  1.00  0.00     0.173 C 
ATOM     14  N   UNL A   1      27.908  31.953  21.446  1.00  0.00    -0.275 N 
ATOM     15  C   UNL A   1      28.398  30.697  21.238  1.00  0.00     0.116 A 
ATOM     16  N   UNL A   1      27.718  32.243  22.747  1.00  0.00    -0.181 NA
ATOM     17  C   UNL A   1      28.106  31.130  23.380  1.00  0.00     0.143 A 
ENDBRANCH  11  12
ENDBRANCH   8  10
ENDBRANCH   7   8
BRANCH   7  18
ATOM     18  C   UNL A   1      31.238  25.681  24.792  1.00  0.00     0.035 C 
ATOM     19  C   UNL A   1      31.879  25.622  26.192  1.00  0.00     0.034 C 
ATOM     20  C   UNL A   1      29.718  25.931  24.938  1.00  0.00     0.034 C 
ATOM     21  C   UNL A   1      31.362  24.236  24.228  1.00  0.00     0.034 C 
ENDBRANCH   7  18
ENDBRANCH   6   7
ENDBRANCH   3   6
ENDBRANCH   1   2
BRANCH   1  22
ATOM     22  C   UNL A   1      31.152  30.583  25.597  1.00  0.00     0.023 C 
BRANCH  22  23
ATOM     23  C   UNL A   1      31.076  32.004  26.138  1.00  0.00     0.023 C 
BRANCH  23  24
ATOM     24  C   UNL A   1      32.268  32.407  26.992  1.00  0.00     0.116 C 
BRANCH  24  25
ATOM     25  N   UNL A   1      32.181  33.776  27.484  1.00  0.00    -0.352 N 
ATOM     26  C   UNL A   1      33.031  34.424  28.350  1.00  0.00     0.251 C 
ATOM     27  H   UNL A   1      31.418  34.304  27.154  1.00  0.00     0.163 HD
ATOM     28  O   UNL A   1      32.773  35.543  28.771  1.00  0.00    -0.269 OA
BRANCH  26  29
ATOM     29  C   UNL A   1      34.250  33.722  28.791  1.00  0.00     0.039 A 
ATOM     30  C   UNL A   1      35.496  34.203  28.385  1.00  0.00     0.014 A 
ATOM     31  C   UNL A   1      34.152  32.643  29.673  1.00  0.00     0.014 A 
ATOM     32  C   UNL A   1      36.655  33.648  28.930  1.00  0.00     0.010 A 
ATOM     33  C   UNL A   1      35.301  32.142  30.267  1.00  0.00     0.010 A 
ATOM     34  C   UNL A   1      36.562  32.643  29.905  1.00  0.00    -0.014 A 
BRANCH  34  35
ATOM     35  C   UNL A   1      37.764  32.085  30.571  1.00  0.00     0.031 A 
ATOM     36  C   UNL A   1      38.521  30.972  29.908  1.00  0.00     0.074 A 
ATOM     37  C   UNL A   1      38.102  32.499  31.807  1.00  0.00     0.049 A 
ATOM     38  N   UNL A   1      39.482  30.224  30.385  1.00  0.00    -0.248 NA
ATOM     39  C   UNL A   1      38.117  30.629  28.533  1.00  0.00     0.031 C 
ATOM     40  C   UNL A   1      37.420  33.546  32.569  1.00  0.00     0.029 A 
ATOM     41  N   UNL A   1      39.095  32.068  32.650  1.00  0.00    -0.354 N 
ATOM     42  C   UNL A   1      39.773  29.306  29.387  1.00  0.00     0.074 A 
ATOM     43  C   UNL A   1      38.863  29.561  28.292  1.00  0.00     0.031 C 
ATOM     44  C   UNL A   1      38.021  33.683  33.762  1.00  0.00     0.029 A 
ATOM     45  C   UNL A   1      39.101  32.707  33.866  1.00  0.00     0.049 A 
ATOM     46  H   UNL A   1      39.742  31.367  32.405  1.00  0.00     0.167 HD
ATOM     47  C   UNL A   1      40.726  28.345  29.378  1.00  0.00     0.037 A 
ATOM     48  C   UNL A   1      39.879  32.512  34.947  1.00  0.00     0.037 A 
ATOM     49  C   UNL A   1      41.657  28.123  30.450  1.00  0.00     0.049 A 
ATOM     50  C   UNL A   1      40.941  31.449  34.907  1.00  0.00     0.074 A 
ATOM     51  C   UNL A   1      42.699  27.215  30.514  1.00  0.00     0.029 A 
ATOM     52  N   UNL A   1      41.661  28.824  31.647  1.00  0.00    -0.354 N 
ATOM     53  N   UNL A   1      41.235  30.614  33.940  1.00  0.00    -0.248 NA
ATOM     54  C   UNL A   1      41.778  31.299  36.106  1.00  0.00     0.031 C 
ATOM     55  C   UNL A   1      43.318  27.348  31.761  1.00  0.00     0.029 A 
ATOM     56  C   UNL A   1      42.682  28.364  32.458  1.00  0.00     0.049 A 
ATOM     57  H   UNL A   1      41.031  29.542  31.882  1.00  0.00     0.167 HD
ATOM     58  C   UNL A   1      42.311  29.866  34.399  1.00  0.00     0.074 A 
ATOM     59  C   UNL A   1      42.618  30.344  35.730  1.00  0.00     0.031 C 
ATOM     60  C   UNL A   1      42.986  28.873  33.770  1.00  0.00     0.037 A 
BRANCH  47  61
ATOM     61  C   UNL A   1      40.810  27.468  28.164  1.00  0.00     0.057 A 
ATOM     62  C   UNL A   1      40.114  26.254  28.082  1.00  0.00     0.134 A 
ATOM     63  C   UNL A   1      41.575  27.852  27.057  1.00  0.00     0.134 A 
ATOM     64  F   UNL A   1      39.375  25.823  29.116  1.00  0.00    -0.206 F 
ATOM     65  C   UNL A   1      40.197  25.442  26.951  1.00  0.00     0.040 A 
ATOM     66  C   UNL A   1      41.644  27.060  25.909  1.00  0.00     0.040 A 
ATOM     67  F   UNL A   1      42.263  29.004  27.069  1.00  0.00    -0.206 F 
ATOM     68  C   UNL A   1      40.959  25.848  25.857  1.00  0.00     0.006 A 
ENDBRANCH  47  61
BRANCH  48  69
ATOM     69  C   UNL A   1      39.698  33.357  36.153  1.00  0.00     0.057 A 
ATOM     70  C   UNL A   1      38.860  32.948  37.197  1.00  0.00     0.134 A 
ATOM     71  C   UNL A   1      40.354  34.585  36.295  1.00  0.00     0.134 A 
ATOM     72  F   UNL A   1      38.191  31.788  37.110  1.00  0.00    -0.206 F 
ATOM     73  C   UNL A   1      38.667  33.737  38.332  1.00  0.00     0.040 A 
ATOM     74  C   UNL A   1      40.187  35.374  37.435  1.00  0.00     0.040 A 
ATOM     75  F   UNL A   1      41.177  35.029  35.334  1.00  0.00    -0.206 F 
ATOM     76  C   UNL A   1      39.337  34.952  38.455  1.00  0.00     0.006 A 
ENDBRANCH  48  69
BRANCH  60  77
ATOM     77  C   UNL A   1      44.155  28.271  34.489  1.00  0.00     0.057 A 
ATOM     78  C   UNL A   1      45.436  28.830  34.413  1.00  0.00     0.134 A 
ATOM     79  C   UNL A   1      43.977  27.161  35.324  1.00  0.00     0.134 A 
ATOM     80  F   UNL A   1      45.671  29.887  33.620  1.00  0.00    -0.206 F 
ATOM     81  C   UNL A   1      46.503  28.299  35.137  1.00  0.00     0.040 A 
ATOM     82  C   UNL A   1      45.031  26.633  36.069  1.00  0.00     0.040 A 
ATOM     83  F   UNL A   1      42.770  26.586  35.444  1.00  0.00    -0.206 F 
ATOM     84  C   UNL A   1      46.300  27.202  35.975  1.00  0.00     0.006 A 
ENDBRANCH  60  77
ENDBRANCH  34  35
ENDBRANCH  26  29
ENDBRANCH  24  25
ENDBRANCH  23  24
ENDBRANCH  22  23
ENDBRANCH   1  22
TORSDOF 16
ENDMDL
