MODEL 1
REMARK VINA RESULT:     -12.3      0.000      0.000
REMARK SMILES COc1ccc([C@H]2CC(c3ccccc3)=NN2C(=O)CCCC(=O)NCCCCNC(=O)c2ccc(-c3c4nc(c(-c5c(F)cccc5F)c5ccc([nH]5)c(-c5c(F)cccc5F)c5nc(c(-c6c(F)cccc6F)c6ccc3[nH]6)C=C5)C=C4)cc2)cc1
REMARK SMILES IDX 23 1 24 2 25 3 22 5 21 6 20 7 18 8 19 9 17 10 7 11 8 12 9 13
REMARK SMILES IDX 16 14 6 15 3 16 4 17 88 18 5 19 87 20 2 21 1 22 10 23 11 24
REMARK SMILES IDX 15 25 12 26 14 27 13 28 26 29 27 30 28 31 29 32 30 33 31 34
REMARK SMILES IDX 32 36 33 37 34 38 86 39 35 40 85 41 36 42 37 43 38 44 79 45
REMARK SMILES IDX 39 46 84 47 78 48 80 49 40 50 83 51 77 52 76 53 41 55 67 56
REMARK SMILES IDX 50 57 66 58 51 59 54 60 65 61 81 62 52 63 53 64 64 66 82 67
REMARK SMILES IDX 55 68 42 69 43 70 48 71 44 72 45 73 47 74 49 75 46 76 68 77
REMARK SMILES IDX 69 78 74 79 70 80 71 81 73 82 75 83 72 84 56 85 57 86 62 87
REMARK SMILES IDX 58 88 59 89 61 90 63 91 60 92
REMARK H PARENT 25 4 30 35 80 54 54 65
REMARK Flexibility Score: inf
ROOT
ATOM      1  C   UNL A   1      33.340  27.627  26.532  1.00  0.00     0.220 C 
ATOM      2  O   UNL A   1      34.164  26.785  26.163  1.00  0.00    -0.275 OA
ATOM      3  N   UNL A   1      33.770  28.913  26.574  1.00  0.00    -0.356 N 
ATOM      4  H   UNL A   1      34.597  29.097  26.072  1.00  0.00     0.163 HD
ENDROOT
BRANCH   1   5
ATOM      5  C   UNL A   1      31.880  27.248  26.708  1.00  0.00     0.100 C 
BRANCH   5   6
ATOM      6  C   UNL A   1      31.185  26.016  26.175  1.00  0.00     0.020 C 
BRANCH   6   7
ATOM      7  C   UNL A   1      31.714  24.601  26.421  1.00  0.00     0.103 C 
BRANCH   7   8
ATOM      8  C   UNL A   1      31.076  23.244  26.054  1.00  0.00     0.243 C 
ATOM      9  O   UNL A   1      30.056  22.949  26.703  1.00  0.00    -0.273 OA
BRANCH   8  10
ATOM     10  N   UNL A   1      31.412  22.497  24.930  1.00  0.00    -0.225 N 
ATOM     11  C   UNL A   1      31.373  22.765  23.471  1.00  0.00     0.147 C 
ATOM     12  C   UNL A   1      31.992  21.530  22.820  1.00  0.00     0.091 C 
ATOM     13  C   UNL A   1      32.338  20.745  24.041  1.00  0.00     0.071 C 
ATOM     14  N   UNL A   1      32.015  21.270  25.177  1.00  0.00    -0.174 NA
BRANCH  11  15
ATOM     15  C   UNL A   1      32.097  24.024  23.020  1.00  0.00    -0.023 A 
ATOM     16  C   UNL A   1      33.260  26.565  22.851  1.00  0.00     0.118 A 
ATOM     17  C   UNL A   1      31.901  26.407  22.595  1.00  0.00     0.047 A 
ATOM     18  C   UNL A   1      34.060  25.446  23.080  1.00  0.00     0.047 A 
ATOM     19  C   UNL A   1      31.326  25.137  22.630  1.00  0.00     0.010 A 
ATOM     20  C   UNL A   1      33.483  24.176  23.151  1.00  0.00     0.010 A 
BRANCH  16  21
ATOM     21  O   UNL A   1      33.687  27.853  23.008  1.00  0.00    -0.497 OA
ATOM     22  C   UNL A   1      32.647  28.819  23.080  1.00  0.00     0.278 C 
ENDBRANCH  16  21
ENDBRANCH  11  15
BRANCH  13  23
ATOM     23  C   UNL A   1      32.997  19.441  23.922  1.00  0.00    -0.002 A 
ATOM     24  C   UNL A   1      34.181  19.200  24.621  1.00  0.00     0.010 A 
ATOM     25  C   UNL A   1      32.452  18.473  23.078  1.00  0.00     0.010 A 
ATOM     26  C   UNL A   1      34.824  17.971  24.474  1.00  0.00     0.001 A 
ATOM     27  C   UNL A   1      33.108  17.252  22.923  1.00  0.00     0.001 A 
ATOM     28  C   UNL A   1      34.291  17.001  23.622  1.00  0.00     0.000 A 
ENDBRANCH  13  23
ENDBRANCH   8  10
ENDBRANCH   7   8
ENDBRANCH   6   7
ENDBRANCH   5   6
ENDBRANCH   1   5
BRANCH   3  29
ATOM     29  C   UNL A   1      33.193  30.046  27.245  1.00  0.00     0.116 C 
BRANCH  29  30
ATOM     30  C   UNL A   1      32.084  30.645  26.385  1.00  0.00     0.023 C 
BRANCH  30  31
ATOM     31  C   UNL A   1      31.654  32.027  26.868  1.00  0.00     0.023 C 
BRANCH  31  32
ATOM     32  C   UNL A   1      32.807  32.879  27.375  1.00  0.00     0.116 C 
BRANCH  32  33
ATOM     33  N   UNL A   1      32.415  34.252  27.663  1.00  0.00    -0.352 N 
ATOM     34  C   UNL A   1      32.973  35.095  28.592  1.00  0.00     0.251 C 
ATOM     35  H   UNL A   1      31.669  34.615  27.134  1.00  0.00     0.163 HD
ATOM     36  O   UNL A   1      32.492  36.192  28.842  1.00  0.00    -0.269 OA
BRANCH  34  37
ATOM     37  C   UNL A   1      34.166  34.612  29.303  1.00  0.00     0.039 A 
ATOM     38  C   UNL A   1      34.005  33.926  30.507  1.00  0.00     0.014 A 
ATOM     39  C   UNL A   1      35.415  34.718  28.685  1.00  0.00     0.014 A 
ATOM     40  C   UNL A   1      35.107  33.293  31.073  1.00  0.00     0.010 A 
ATOM     41  C   UNL A   1      36.490  34.019  29.210  1.00  0.00     0.010 A 
ATOM     42  C   UNL A   1      36.348  33.309  30.411  1.00  0.00    -0.014 A 
BRANCH  42  43
ATOM     43  C   UNL A   1      37.520  32.602  30.975  1.00  0.00     0.031 A 
ATOM     44  C   UNL A   1      38.102  33.061  32.281  1.00  0.00     0.074 A 
ATOM     45  C   UNL A   1      38.089  31.596  30.285  1.00  0.00     0.049 A 
ATOM     46  N   UNL A   1      39.146  32.608  32.925  1.00  0.00    -0.248 NA
ATOM     47  C   UNL A   1      37.444  34.205  32.932  1.00  0.00     0.031 C 
ATOM     48  C   UNL A   1      37.651  31.109  28.976  1.00  0.00     0.029 A 
ATOM     49  N   UNL A   1      39.165  30.803  30.591  1.00  0.00    -0.354 N 
ATOM     50  C   UNL A   1      39.278  33.421  34.042  1.00  0.00     0.074 A 
ATOM     51  C   UNL A   1      38.250  34.434  33.956  1.00  0.00     0.031 C 
ATOM     52  C   UNL A   1      38.430  30.079  28.606  1.00  0.00     0.029 A 
ATOM     53  C   UNL A   1      39.436  29.851  29.639  1.00  0.00     0.049 A 
ATOM     54  H   UNL A   1      39.693  30.906  31.416  1.00  0.00     0.167 HD
ATOM     55  C   UNL A   1      40.156  33.312  35.066  1.00  0.00     0.037 A 
ATOM     56  C   UNL A   1      40.386  28.898  29.612  1.00  0.00     0.037 A 
ATOM     57  C   UNL A   1      41.150  32.279  35.163  1.00  0.00     0.049 A 
ATOM     58  C   UNL A   1      41.332  28.780  30.774  1.00  0.00     0.074 A 
ATOM     59  C   UNL A   1      42.045  32.034  36.188  1.00  0.00     0.029 A 
ATOM     60  N   UNL A   1      41.376  31.312  34.193  1.00  0.00    -0.354 N 
ATOM     61  N   UNL A   1      41.399  29.507  31.863  1.00  0.00    -0.248 NA
ATOM     62  C   UNL A   1      42.329  27.702  30.708  1.00  0.00     0.031 C 
ATOM     63  C   UNL A   1      42.836  30.939  35.823  1.00  0.00     0.029 A 
ATOM     64  C   UNL A   1      42.408  30.478  34.589  1.00  0.00     0.049 A 
ATOM     65  H   UNL A   1      40.878  31.232  33.347  1.00  0.00     0.167 HD
ATOM     66  C   UNL A   1      42.425  28.962  32.622  1.00  0.00     0.074 A 
ATOM     67  C   UNL A   1      42.942  27.832  31.876  1.00  0.00     0.031 C 
ATOM     68  C   UNL A   1      42.901  29.358  33.828  1.00  0.00     0.037 A 
BRANCH  55  69
ATOM     69  C   UNL A   1      40.062  34.334  36.160  1.00  0.00     0.057 A 
ATOM     70  C   UNL A   1      40.786  35.534  36.113  1.00  0.00     0.134 A 
ATOM     71  C   UNL A   1      39.240  34.120  37.272  1.00  0.00     0.134 A 
ATOM     72  F   UNL A   1      41.607  35.792  35.084  1.00  0.00    -0.206 F 
ATOM     73  C   UNL A   1      40.721  36.468  37.148  1.00  0.00     0.040 A 
ATOM     74  C   UNL A   1      39.144  35.060  38.300  1.00  0.00     0.040 A 
ATOM     75  F   UNL A   1      38.519  32.994  37.380  1.00  0.00    -0.206 F 
ATOM     76  C   UNL A   1      39.892  36.234  38.243  1.00  0.00     0.006 A 
ENDBRANCH  55  69
BRANCH  56  77
ATOM     77  C   UNL A   1      40.459  27.954  28.470  1.00  0.00     0.057 A 
ATOM     78  C   UNL A   1      41.195  28.268  27.322  1.00  0.00     0.134 A 
ATOM     79  C   UNL A   1      39.798  26.721  28.494  1.00  0.00     0.134 A 
ATOM     80  F   UNL A   1      41.837  29.442  27.233  1.00  0.00    -0.206 F 
ATOM     81  C   UNL A   1      41.259  27.399  26.231  1.00  0.00     0.040 A 
ATOM     82  C   UNL A   1      39.872  25.831  27.420  1.00  0.00     0.040 A 
ATOM     83  F   UNL A   1      39.083  26.356  29.568  1.00  0.00    -0.206 F 
ATOM     84  C   UNL A   1      40.599  26.173  26.281  1.00  0.00     0.006 A 
ENDBRANCH  56  77
BRANCH  68  85
ATOM     85  C   UNL A   1      44.017  28.552  34.420  1.00  0.00     0.057 A 
ATOM     86  C   UNL A   1      43.771  27.426  35.216  1.00  0.00     0.134 A 
ATOM     87  C   UNL A   1      45.352  28.885  34.161  1.00  0.00     0.134 A 
ATOM     88  F   UNL A   1      42.515  27.063  35.510  1.00  0.00    -0.206 F 
ATOM     89  C   UNL A   1      44.817  26.672  35.752  1.00  0.00     0.040 A 
ATOM     90  C   UNL A   1      46.405  28.126  34.670  1.00  0.00     0.040 A 
ATOM     91  F   UNL A   1      45.654  29.948  33.397  1.00  0.00    -0.206 F 
ATOM     92  C   UNL A   1      46.138  27.018  35.473  1.00  0.00     0.006 A 
ENDBRANCH  68  85
ENDBRANCH  42  43
ENDBRANCH  34  37
ENDBRANCH  32  33
ENDBRANCH  31  32
ENDBRANCH  30  31
ENDBRANCH  29  30
ENDBRANCH   3  29
TORSDOF 18
ENDMDL
MODEL 2
REMARK VINA RESULT:     -12.3      1.360      2.130
REMARK SMILES COc1ccc([C@H]2CC(c3ccccc3)=NN2C(=O)CCCC(=O)NCCCCNC(=O)c2ccc(-c3c4nc(c(-c5c(F)cccc5F)c5ccc([nH]5)c(-c5c(F)cccc5F)c5nc(c(-c6c(F)cccc6F)c6ccc3[nH]6)C=C5)C=C4)cc2)cc1
REMARK SMILES IDX 23 1 24 2 25 3 22 5 21 6 20 7 18 8 19 9 17 10 7 11 8 12 9 13
REMARK SMILES IDX 16 14 6 15 3 16 4 17 88 18 5 19 87 20 2 21 1 22 10 23 11 24
REMARK SMILES IDX 15 25 12 26 14 27 13 28 26 29 27 30 28 31 29 32 30 33 31 34
REMARK SMILES IDX 32 36 33 37 34 38 86 39 35 40 85 41 36 42 37 43 38 44 79 45
REMARK SMILES IDX 39 46 84 47 78 48 80 49 40 50 83 51 77 52 76 53 41 55 67 56
REMARK SMILES IDX 50 57 66 58 51 59 54 60 65 61 81 62 52 63 53 64 64 66 82 67
REMARK SMILES IDX 55 68 42 69 43 70 48 71 44 72 45 73 47 74 49 75 46 76 68 77
REMARK SMILES IDX 69 78 74 79 70 80 71 81 73 82 75 83 72 84 56 85 57 86 62 87
REMARK SMILES IDX 58 88 59 89 61 90 63 91 60 92
REMARK H PARENT 25 4 30 35 80 54 54 65
REMARK Flexibility Score: inf
ROOT
ATOM      1  C   UNL A   1      33.553  28.534  24.446  1.00  0.00     0.220 C 
ATOM      2  O   UNL A   1      34.061  28.561  23.321  1.00  0.00    -0.275 OA
ATOM      3  N   UNL A   1      33.536  29.706  25.129  1.00  0.00    -0.356 N 
ATOM      4  H   UNL A   1      33.689  30.512  24.584  1.00  0.00     0.163 HD
ENDROOT
BRANCH   1   5
ATOM      5  C   UNL A   1      32.801  27.302  24.920  1.00  0.00     0.100 C 
BRANCH   5   6
ATOM      6  C   UNL A   1      33.108  26.457  26.135  1.00  0.00     0.020 C 
BRANCH   6   7
ATOM      7  C   UNL A   1      32.080  25.514  26.763  1.00  0.00     0.103 C 
BRANCH   7   8
ATOM      8  C   UNL A   1      32.041  23.970  26.756  1.00  0.00     0.243 C 
ATOM      9  O   UNL A   1      31.129  23.463  27.435  1.00  0.00    -0.273 OA
BRANCH   8  10
ATOM     10  N   UNL A   1      32.769  23.170  25.883  1.00  0.00    -0.225 N 
ATOM     11  C   UNL A   1      32.493  22.602  24.540  1.00  0.00     0.147 C 
ATOM     12  C   UNL A   1      33.787  21.907  24.125  1.00  0.00     0.091 C 
ATOM     13  C   UNL A   1      34.641  22.230  25.306  1.00  0.00     0.071 C 
ATOM     14  N   UNL A   1      34.081  22.906  26.255  1.00  0.00    -0.174 NA
BRANCH  11  15
ATOM     15  C   UNL A   1      32.066  23.607  23.482  1.00  0.00    -0.023 A 
ATOM     16  C   UNL A   1      31.405  25.928  22.063  1.00  0.00     0.118 A 
ATOM     17  C   UNL A   1      30.453  25.319  22.876  1.00  0.00     0.047 A 
ATOM     18  C   UNL A   1      32.646  25.323  21.869  1.00  0.00     0.047 A 
ATOM     19  C   UNL A   1      30.762  24.136  23.548  1.00  0.00     0.010 A 
ATOM     20  C   UNL A   1      32.972  24.156  22.566  1.00  0.00     0.010 A 
BRANCH  16  21
ATOM     21  O   UNL A   1      31.092  27.184  21.625  1.00  0.00    -0.497 OA
ATOM     22  C   UNL A   1      30.272  27.935  22.510  1.00  0.00     0.278 C 
ENDBRANCH  16  21
ENDBRANCH  11  15
BRANCH  13  23
ATOM     23  C   UNL A   1      36.033  21.775  25.362  1.00  0.00    -0.002 A 
ATOM     24  C   UNL A   1      37.037  22.670  25.735  1.00  0.00     0.010 A 
ATOM     25  C   UNL A   1      36.339  20.462  25.001  1.00  0.00     0.010 A 
ATOM     26  C   UNL A   1      38.364  22.241  25.750  1.00  0.00     0.001 A 
ATOM     27  C   UNL A   1      37.670  20.045  25.002  1.00  0.00     0.001 A 
ATOM     28  C   UNL A   1      38.680  20.932  25.378  1.00  0.00     0.000 A 
ENDBRANCH  13  23
ENDBRANCH   8  10
ENDBRANCH   7   8
ENDBRANCH   6   7
ENDBRANCH   5   6
ENDBRANCH   1   5
BRANCH   3  29
ATOM     29  C   UNL A   1      33.329  29.942  26.531  1.00  0.00     0.116 C 
BRANCH  29  30
ATOM     30  C   UNL A   1      31.868  30.304  26.783  1.00  0.00     0.023 C 
BRANCH  30  31
ATOM     31  C   UNL A   1      31.628  31.811  26.753  1.00  0.00     0.023 C 
BRANCH  31  32
ATOM     32  C   UNL A   1      32.765  32.619  27.359  1.00  0.00     0.116 C 
BRANCH  32  33
ATOM     33  N   UNL A   1      32.400  34.005  27.621  1.00  0.00    -0.352 N 
ATOM     34  C   UNL A   1      32.987  34.861  28.519  1.00  0.00     0.251 C 
ATOM     35  H   UNL A   1      31.650  34.368  27.096  1.00  0.00     0.163 HD
ATOM     36  O   UNL A   1      32.528  35.971  28.751  1.00  0.00    -0.269 OA
BRANCH  34  37
ATOM     37  C   UNL A   1      34.184  34.376  29.221  1.00  0.00     0.039 A 
ATOM     38  C   UNL A   1      34.028  33.601  30.370  1.00  0.00     0.014 A 
ATOM     39  C   UNL A   1      35.440  34.573  28.640  1.00  0.00     0.014 A 
ATOM     40  C   UNL A   1      35.144  32.973  30.916  1.00  0.00     0.010 A 
ATOM     41  C   UNL A   1      36.532  33.881  29.138  1.00  0.00     0.010 A 
ATOM     42  C   UNL A   1      36.395  33.083  30.283  1.00  0.00    -0.014 A 
BRANCH  42  43
ATOM     43  C   UNL A   1      37.583  32.384  30.822  1.00  0.00     0.031 A 
ATOM     44  C   UNL A   1      38.220  32.878  32.089  1.00  0.00     0.074 A 
ATOM     45  C   UNL A   1      38.118  31.353  30.142  1.00  0.00     0.049 A 
ATOM     46  N   UNL A   1      39.286  32.436  32.705  1.00  0.00    -0.248 NA
ATOM     47  C   UNL A   1      37.597  34.048  32.730  1.00  0.00     0.031 C 
ATOM     48  C   UNL A   1      37.625  30.829  28.867  1.00  0.00     0.029 A 
ATOM     49  N   UNL A   1      39.199  30.560  30.430  1.00  0.00    -0.354 N 
ATOM     50  C   UNL A   1      39.468  33.283  33.791  1.00  0.00     0.074 A 
ATOM     51  C   UNL A   1      38.444  34.301  33.714  1.00  0.00     0.031 C 
ATOM     52  C   UNL A   1      38.382  29.782  28.499  1.00  0.00     0.029 A 
ATOM     53  C   UNL A   1      39.426  29.578  29.498  1.00  0.00     0.049 A 
ATOM     54  H   UNL A   1      39.760  30.685  31.230  1.00  0.00     0.167 HD
ATOM     55  C   UNL A   1      40.385  33.198  34.782  1.00  0.00     0.037 A 
ATOM     56  C   UNL A   1      40.367  28.617  29.463  1.00  0.00     0.037 A 
ATOM     57  C   UNL A   1      41.375  32.160  34.872  1.00  0.00     0.049 A 
ATOM     58  C   UNL A   1      41.358  28.526  30.590  1.00  0.00     0.074 A 
ATOM     59  C   UNL A   1      42.308  31.939  35.869  1.00  0.00     0.029 A 
ATOM     60  N   UNL A   1      41.555  31.162  33.925  1.00  0.00    -0.354 N 
ATOM     61  N   UNL A   1      41.473  29.286  31.653  1.00  0.00    -0.248 NA
ATOM     62  C   UNL A   1      42.343  27.439  30.518  1.00  0.00     0.031 C 
ATOM     63  C   UNL A   1      43.076  30.827  35.507  1.00  0.00     0.029 A 
ATOM     64  C   UNL A   1      42.595  30.332  34.305  1.00  0.00     0.049 A 
ATOM     65  H   UNL A   1      41.023  31.061  33.102  1.00  0.00     0.167 HD
ATOM     66  C   UNL A   1      42.525  28.756  32.388  1.00  0.00     0.074 A 
ATOM     67  C   UNL A   1      43.003  27.600  31.657  1.00  0.00     0.031 C 
ATOM     68  C   UNL A   1      43.050  29.186  33.561  1.00  0.00     0.037 A 
BRANCH  55  69
ATOM     69  C   UNL A   1      40.341  34.253  35.847  1.00  0.00     0.057 A 
ATOM     70  C   UNL A   1      39.558  34.106  37.001  1.00  0.00     0.134 A 
ATOM     71  C   UNL A   1      41.090  35.429  35.722  1.00  0.00     0.134 A 
ATOM     72  F   UNL A   1      38.802  33.012  37.173  1.00  0.00    -0.206 F 
ATOM     73  C   UNL A   1      39.496  35.104  37.975  1.00  0.00     0.040 A 
ATOM     74  C   UNL A   1      41.059  36.422  36.703  1.00  0.00     0.040 A 
ATOM     75  F   UNL A   1      41.862  35.634  34.644  1.00  0.00    -0.206 F 
ATOM     76  C   UNL A   1      40.254  36.264  37.829  1.00  0.00     0.006 A 
ENDBRANCH  55  69
BRANCH  56  77
ATOM     77  C   UNL A   1      40.388  27.637  28.349  1.00  0.00     0.057 A 
ATOM     78  C   UNL A   1      39.655  26.447  28.424  1.00  0.00     0.134 A 
ATOM     79  C   UNL A   1      41.135  27.861  27.188  1.00  0.00     0.134 A 
ATOM     80  F   UNL A   1      38.932  26.168  29.519  1.00  0.00    -0.206 F 
ATOM     81  C   UNL A   1      39.677  25.506  27.393  1.00  0.00     0.040 A 
ATOM     82  C   UNL A   1      41.149  26.940  26.139  1.00  0.00     0.040 A 
ATOM     83  F   UNL A   1      41.851  28.986  27.049  1.00  0.00    -0.206 F 
ATOM     84  C   UNL A   1      40.423  25.754  26.243  1.00  0.00     0.006 A 
ENDBRANCH  56  77
BRANCH  68  85
ATOM     85  C   UNL A   1      44.183  28.389  34.133  1.00  0.00     0.057 A 
ATOM     86  C   UNL A   1      43.961  27.288  34.970  1.00  0.00     0.134 A 
ATOM     87  C   UNL A   1      45.509  28.704  33.814  1.00  0.00     0.134 A 
ATOM     88  F   UNL A   1      42.714  26.943  35.323  1.00  0.00    -0.206 F 
ATOM     89  C   UNL A   1      45.022  26.542  35.488  1.00  0.00     0.040 A 
ATOM     90  C   UNL A   1      46.576  27.952  34.304  1.00  0.00     0.040 A 
ATOM     91  F   UNL A   1      45.789  29.742  33.009  1.00  0.00    -0.206 F 
ATOM     92  C   UNL A   1      46.334  26.870  35.149  1.00  0.00     0.006 A 
ENDBRANCH  68  85
ENDBRANCH  42  43
ENDBRANCH  34  37
ENDBRANCH  32  33
ENDBRANCH  31  32
ENDBRANCH  30  31
ENDBRANCH  29  30
ENDBRANCH   3  29
TORSDOF 18
ENDMDL
MODEL 3
REMARK VINA RESULT:     -12.2      1.849      6.386
REMARK SMILES COc1ccc([C@H]2CC(c3ccccc3)=NN2C(=O)CCCC(=O)NCCCCNC(=O)c2ccc(-c3c4nc(c(-c5c(F)cccc5F)c5ccc([nH]5)c(-c5c(F)cccc5F)c5nc(c(-c6c(F)cccc6F)c6ccc3[nH]6)C=C5)C=C4)cc2)cc1
REMARK SMILES IDX 23 1 24 2 25 3 22 5 21 6 20 7 18 8 19 9 17 10 7 11 8 12 9 13
REMARK SMILES IDX 16 14 6 15 3 16 4 17 88 18 5 19 87 20 2 21 1 22 10 23 11 24
REMARK SMILES IDX 15 25 12 26 14 27 13 28 26 29 27 30 28 31 29 32 30 33 31 34
REMARK SMILES IDX 32 36 33 37 34 38 86 39 35 40 85 41 36 42 37 43 38 44 79 45
REMARK SMILES IDX 39 46 84 47 78 48 80 49 40 50 83 51 77 52 76 53 41 55 67 56
REMARK SMILES IDX 50 57 66 58 51 59 54 60 65 61 81 62 52 63 53 64 64 66 82 67
REMARK SMILES IDX 55 68 42 69 43 70 48 71 44 72 45 73 47 74 49 75 46 76 68 77
REMARK SMILES IDX 69 78 74 79 70 80 71 81 73 82 75 83 72 84 56 85 57 86 62 87
REMARK SMILES IDX 58 88 59 89 61 90 63 91 60 92
REMARK H PARENT 25 4 30 35 80 54 54 65
REMARK Flexibility Score: inf
ROOT
ATOM      1  C   UNL A   1      33.708  28.203  22.824  1.00  0.00     0.220 C 
ATOM      2  O   UNL A   1      34.150  28.438  21.696  1.00  0.00    -0.275 OA
ATOM      3  N   UNL A   1      33.516  29.275  23.634  1.00  0.00    -0.356 N 
ATOM      4  H   UNL A   1      33.497  30.147  23.177  1.00  0.00     0.163 HD
ENDROOT
BRANCH   1   5
ATOM      5  C   UNL A   1      33.210  26.813  23.180  1.00  0.00     0.100 C 
BRANCH   5   6
ATOM      6  C   UNL A   1      34.045  25.619  23.583  1.00  0.00     0.020 C 
BRANCH   6   7
ATOM      7  C   UNL A   1      34.259  25.220  25.044  1.00  0.00     0.103 C 
BRANCH   7   8
ATOM      8  C   UNL A   1      34.565  23.829  25.640  1.00  0.00     0.243 C 
ATOM      9  O   UNL A   1      35.545  23.787  26.405  1.00  0.00    -0.273 OA
BRANCH   8  10
ATOM     10  N   UNL A   1      33.704  22.739  25.572  1.00  0.00    -0.225 N 
ATOM     11  C   UNL A   1      32.287  22.525  25.957  1.00  0.00     0.147 C 
ATOM     12  C   UNL A   1      31.956  21.108  25.497  1.00  0.00     0.091 C 
ATOM     13  C   UNL A   1      33.255  20.735  24.863  1.00  0.00     0.071 C 
ATOM     14  N   UNL A   1      34.197  21.618  24.915  1.00  0.00    -0.174 NA
BRANCH  11  15
ATOM     15  C   UNL A   1      31.296  23.519  25.373  1.00  0.00    -0.023 A 
ATOM     16  C   UNL A   1      30.058  25.761  24.241  1.00  0.00     0.118 A 
ATOM     17  C   UNL A   1      30.272  25.708  25.615  1.00  0.00     0.047 A 
ATOM     18  C   UNL A   1      30.357  24.654  23.447  1.00  0.00     0.047 A 
ATOM     19  C   UNL A   1      30.845  24.575  26.191  1.00  0.00     0.010 A 
ATOM     20  C   UNL A   1      30.962  23.529  24.014  1.00  0.00     0.010 A 
BRANCH  16  21
ATOM     21  O   UNL A   1      29.699  26.982  23.744  1.00  0.00    -0.497 OA
ATOM     22  C   UNL A   1      28.298  27.192  23.636  1.00  0.00     0.278 C 
ENDBRANCH  16  21
ENDBRANCH  11  15
BRANCH  13  23
ATOM     23  C   UNL A   1      33.426  19.420  24.238  1.00  0.00    -0.002 A 
ATOM     24  C   UNL A   1      32.493  18.977  23.299  1.00  0.00     0.010 A 
ATOM     25  C   UNL A   1      34.497  18.613  24.623  1.00  0.00     0.010 A 
ATOM     26  C   UNL A   1      32.640  17.709  22.735  1.00  0.00     0.001 A 
ATOM     27  C   UNL A   1      34.628  17.340  24.068  1.00  0.00     0.001 A 
ATOM     28  C   UNL A   1      33.703  16.890  23.124  1.00  0.00     0.000 A 
ENDBRANCH  13  23
ENDBRANCH   8  10
ENDBRANCH   7   8
ENDBRANCH   6   7
ENDBRANCH   5   6
ENDBRANCH   1   5
BRANCH   3  29
ATOM     29  C   UNL A   1      33.336  29.322  25.058  1.00  0.00     0.116 C 
BRANCH  29  30
ATOM     30  C   UNL A   1      31.960  29.895  25.387  1.00  0.00     0.023 C 
BRANCH  30  31
ATOM     31  C   UNL A   1      31.858  30.375  26.832  1.00  0.00     0.023 C 
BRANCH  31  32
ATOM     32  C   UNL A   1      32.956  31.352  27.225  1.00  0.00     0.116 C 
BRANCH  32  33
ATOM     33  N   UNL A   1      32.470  32.715  27.392  1.00  0.00    -0.352 N 
ATOM     34  C   UNL A   1      33.059  33.722  28.115  1.00  0.00     0.251 C 
ATOM     35  H   UNL A   1      31.627  32.939  26.936  1.00  0.00     0.163 HD
ATOM     36  O   UNL A   1      32.508  34.800  28.292  1.00  0.00    -0.269 OA
BRANCH  34  37
ATOM     37  C   UNL A   1      34.379  33.442  28.699  1.00  0.00     0.039 A 
ATOM     38  C   UNL A   1      34.451  32.780  29.924  1.00  0.00     0.014 A 
ATOM     39  C   UNL A   1      35.526  33.710  27.947  1.00  0.00     0.014 A 
ATOM     40  C   UNL A   1      35.688  32.333  30.377  1.00  0.00     0.010 A 
ATOM     41  C   UNL A   1      36.743  33.193  28.362  1.00  0.00     0.010 A 
ATOM     42  C   UNL A   1      36.836  32.508  29.583  1.00  0.00    -0.014 A 
BRANCH  42  43
ATOM     43  C   UNL A   1      38.152  32.000  30.027  1.00  0.00     0.031 A 
ATOM     44  C   UNL A   1      38.655  30.687  29.498  1.00  0.00     0.074 A 
ATOM     45  C   UNL A   1      38.859  32.686  30.944  1.00  0.00     0.049 A 
ATOM     46  N   UNL A   1      39.757  30.046  29.789  1.00  0.00    -0.248 NA
ATOM     47  C   UNL A   1      37.785  29.983  28.542  1.00  0.00     0.031 C 
ATOM     48  C   UNL A   1      38.440  33.938  31.578  1.00  0.00     0.029 A 
ATOM     49  N   UNL A   1      40.083  32.423  31.506  1.00  0.00    -0.354 N 
ATOM     50  C   UNL A   1      39.702  28.862  29.067  1.00  0.00     0.074 A 
ATOM     51  C   UNL A   1      38.432  28.841  28.378  1.00  0.00     0.031 C 
ATOM     52  C   UNL A   1      39.405  34.351  32.416  1.00  0.00     0.029 A 
ATOM     53  C   UNL A   1      40.496  33.382  32.398  1.00  0.00     0.049 A 
ATOM     54  H   UNL A   1      40.614  31.622  31.290  1.00  0.00     0.167 HD
ATOM     55  C   UNL A   1      40.642  27.893  28.962  1.00  0.00     0.037 A 
ATOM     56  C   UNL A   1      41.634  33.468  33.112  1.00  0.00     0.037 A 
ATOM     57  C   UNL A   1      41.918  27.940  29.621  1.00  0.00     0.049 A 
ATOM     58  C   UNL A   1      42.674  32.395  32.957  1.00  0.00     0.074 A 
ATOM     59  C   UNL A   1      42.971  27.048  29.531  1.00  0.00     0.029 A 
ATOM     60  N   UNL A   1      42.315  28.943  30.494  1.00  0.00    -0.354 N 
ATOM     61  N   UNL A   1      42.644  31.316  32.212  1.00  0.00    -0.248 NA
ATOM     62  C   UNL A   1      43.910  32.555  33.735  1.00  0.00     0.031 C 
ATOM     63  C   UNL A   1      43.993  27.493  30.376  1.00  0.00     0.029 A 
ATOM     64  C   UNL A   1      43.592  28.683  30.962  1.00  0.00     0.049 A 
ATOM     65  H   UNL A   1      41.769  29.723  30.745  1.00  0.00     0.167 HD
ATOM     66  C   UNL A   1      43.863  30.682  32.410  1.00  0.00     0.074 A 
ATOM     67  C   UNL A   1      44.616  31.506  33.334  1.00  0.00     0.031 C 
ATOM     68  C   UNL A   1      44.321  29.522  31.879  1.00  0.00     0.037 A 
BRANCH  55  69
ATOM     69  C   UNL A   1      40.317  26.715  28.093  1.00  0.00     0.057 A 
ATOM     70  C   UNL A   1      39.493  25.673  28.540  1.00  0.00     0.134 A 
ATOM     71  C   UNL A   1      40.829  26.620  26.794  1.00  0.00     0.134 A 
ATOM     72  F   UNL A   1      38.985  25.693  29.782  1.00  0.00    -0.206 F 
ATOM     73  C   UNL A   1      39.218  24.563  27.740  1.00  0.00     0.040 A 
ATOM     74  C   UNL A   1      40.538  25.529  25.973  1.00  0.00     0.040 A 
ATOM     75  F   UNL A   1      41.623  27.583  26.302  1.00  0.00    -0.206 F 
ATOM     76  C   UNL A   1      39.737  24.493  26.449  1.00  0.00     0.006 A 
ENDBRANCH  55  69
BRANCH  56  77
ATOM     77  C   UNL A   1      41.868  34.635  33.998  1.00  0.00     0.057 A 
ATOM     78  C   UNL A   1      42.456  35.806  33.506  1.00  0.00     0.134 A 
ATOM     79  C   UNL A   1      41.514  34.612  35.352  1.00  0.00     0.134 A 
ATOM     80  F   UNL A   1      42.831  35.883  32.221  1.00  0.00    -0.206 F 
ATOM     81  C   UNL A   1      42.699  36.906  34.330  1.00  0.00     0.040 A 
ATOM     82  C   UNL A   1      41.731  35.712  36.183  1.00  0.00     0.040 A 
ATOM     83  F   UNL A   1      40.938  33.523  35.883  1.00  0.00    -0.206 F 
ATOM     84  C   UNL A   1      42.332  36.862  35.673  1.00  0.00     0.006 A 
ENDBRANCH  56  77
BRANCH  68  85
ATOM     85  C   UNL A   1      45.703  29.093  32.267  1.00  0.00     0.057 A 
ATOM     86  C   UNL A   1      46.830  29.488  31.535  1.00  0.00     0.134 A 
ATOM     87  C   UNL A   1      45.912  28.305  33.405  1.00  0.00     0.134 A 
ATOM     88  F   UNL A   1      46.695  30.233  30.428  1.00  0.00    -0.206 F 
ATOM     89  C   UNL A   1      48.116  29.096  31.912  1.00  0.00     0.040 A 
ATOM     90  C   UNL A   1      47.194  27.927  33.806  1.00  0.00     0.040 A 
ATOM     91  F   UNL A   1      44.874  27.901  34.155  1.00  0.00    -0.206 F 
ATOM     92  C   UNL A   1      48.300  28.318  33.054  1.00  0.00     0.006 A 
ENDBRANCH  68  85
ENDBRANCH  42  43
ENDBRANCH  34  37
ENDBRANCH  32  33
ENDBRANCH  31  32
ENDBRANCH  30  31
ENDBRANCH  29  30
ENDBRANCH   3  29
TORSDOF 18
ENDMDL
