MODEL 1
REMARK VINA RESULT:     -11.5      0.000      0.000
REMARK SMILES O=C(NCCCCNC(=O)[C@@H]1C[NH2+]CCN1C(=O)N[C@@H]1CCOC1)c1ccc(-c2c3nc(c(-c4c(F)cccc4F)c4ccc([nH]4)c(-c4c(F)cccc4F)c4nc(c(-c5c(F)cccc5F)c5ccc2[nH]5)C=C4)C=C3)cc1
REMARK SMILES IDX 5 1 4 2 3 3 1 4 2 5 25 7 26 8 78 9 27 10 77 11 28 12 29 13
REMARK SMILES IDX 30 14 71 15 31 16 76 17 70 18 72 19 32 20 75 21 69 22 68 23
REMARK SMILES IDX 33 25 59 26 42 27 58 28 43 29 46 30 57 31 73 32 44 33 45 34
REMARK SMILES IDX 56 36 74 37 47 38 34 39 35 40 40 41 36 42 37 43 39 44 41 45
REMARK SMILES IDX 38 46 60 47 61 48 66 49 62 50 63 51 65 52 67 53 64 54 48 55
REMARK SMILES IDX 49 56 54 57 50 58 51 59 53 60 55 61 52 62 6 63 7 64 8 65
REMARK SMILES IDX 9 66 10 68 11 69 12 70 16 71 13 72 15 73 14 74 17 77 18 78
REMARK SMILES IDX 19 79 20 81 21 82 24 83 22 84 23 85
REMARK H PARENT 3 6 72 24 46 35 8 67 13 75 13 76 19 80
REMARK Flexibility Score: inf
ROOT
ATOM      1  C   UNL A   1      31.255  31.849  26.485  1.00  0.00     0.023 C 
ENDROOT
BRANCH   1   2
ATOM      2  C   UNL A   1      32.576  32.485  26.889  1.00  0.00     0.116 C 
BRANCH   2   3
ATOM      3  N   UNL A   1      32.389  33.830  27.414  1.00  0.00    -0.352 N 
ATOM      4  O   UNL A   1      32.603  35.496  28.924  1.00  0.00    -0.269 OA
ATOM      5  C   UNL A   1      33.041  34.457  28.454  1.00  0.00     0.251 C 
ATOM      6  H   UNL A   1      31.699  34.369  26.963  1.00  0.00     0.163 HD
BRANCH   5   7
ATOM      7  C   UNL A   1      34.276  33.851  29.002  1.00  0.00     0.039 A 
ATOM      8  C   UNL A   1      34.191  32.753  29.856  1.00  0.00     0.014 A 
ATOM      9  C   UNL A   1      35.524  34.381  28.660  1.00  0.00     0.014 A 
ATOM     10  C   UNL A   1      35.328  32.293  30.499  1.00  0.00     0.010 A 
ATOM     11  C   UNL A   1      36.686  33.836  29.220  1.00  0.00     0.010 A 
ATOM     12  C   UNL A   1      36.595  32.803  30.165  1.00  0.00    -0.014 A 
BRANCH  12  13
ATOM     13  C   UNL A   1      37.790  32.152  30.758  1.00  0.00     0.031 A 
ATOM     14  C   UNL A   1      38.260  32.469  32.150  1.00  0.00     0.074 A 
ATOM     15  C   UNL A   1      38.412  31.200  30.033  1.00  0.00     0.049 A 
ATOM     16  N   UNL A   1      39.236  31.921  32.829  1.00  0.00    -0.248 NA
ATOM     17  C   UNL A   1      37.556  33.540  32.871  1.00  0.00     0.031 C 
ATOM     18  C   UNL A   1      38.058  30.827  28.659  1.00  0.00     0.029 A 
ATOM     19  N   UNL A   1      39.437  30.349  30.351  1.00  0.00    -0.354 N 
ATOM     20  C   UNL A   1      39.268  32.577  34.053  1.00  0.00     0.074 A 
ATOM     21  C   UNL A   1      38.236  33.593  34.010  1.00  0.00     0.031 C 
ATOM     22  C   UNL A   1      38.805  29.781  28.280  1.00  0.00     0.029 A 
ATOM     23  C   UNL A   1      39.739  29.458  29.349  1.00  0.00     0.049 A 
ATOM     24  H   UNL A   1      39.912  30.373  31.213  1.00  0.00     0.167 HD
ATOM     25  C   UNL A   1      40.076  32.344  35.116  1.00  0.00     0.037 A 
ATOM     26  C   UNL A   1      40.675  28.494  29.288  1.00  0.00     0.037 A 
ATOM     27  C   UNL A   1      41.102  31.330  35.150  1.00  0.00     0.049 A 
ATOM     28  C   UNL A   1      41.564  28.274  30.475  1.00  0.00     0.074 A 
ATOM     29  C   UNL A   1      41.967  31.012  36.183  1.00  0.00     0.029 A 
ATOM     30  N   UNL A   1      41.401  30.469  34.103  1.00  0.00    -0.354 N 
ATOM     31  N   UNL A   1      41.562  28.888  31.633  1.00  0.00    -0.248 NA
ATOM     32  C   UNL A   1      42.585  27.227  30.347  1.00  0.00     0.031 C 
ATOM     33  C   UNL A   1      42.817  29.990  35.747  1.00  0.00     0.029 A 
ATOM     34  C   UNL A   1      42.447  29.632  34.461  1.00  0.00     0.049 A 
ATOM     35  H   UNL A   1      40.938  30.454  33.235  1.00  0.00     0.167 HD
ATOM     36  C   UNL A   1      42.575  28.298  32.375  1.00  0.00     0.074 A 
ATOM     37  C   UNL A   1      43.142  27.252  31.549  1.00  0.00     0.031 C 
ATOM     38  C   UNL A   1      43.005  28.603  33.623  1.00  0.00     0.037 A 
BRANCH  25  39
ATOM     39  C   UNL A   1      39.893  33.201  36.336  1.00  0.00     0.057 A 
ATOM     40  C   UNL A   1      40.582  34.410  36.498  1.00  0.00     0.134 A 
ATOM     41  C   UNL A   1      38.966  32.850  37.327  1.00  0.00     0.134 A 
ATOM     42  F   UNL A   1      41.491  34.801  35.592  1.00  0.00    -0.206 F 
ATOM     43  C   UNL A   1      40.366  35.232  37.606  1.00  0.00     0.040 A 
ATOM     44  C   UNL A   1      38.723  33.676  38.427  1.00  0.00     0.040 A 
ATOM     45  F   UNL A   1      38.265  31.711  37.232  1.00  0.00    -0.206 F 
ATOM     46  C   UNL A   1      39.426  34.870  38.570  1.00  0.00     0.006 A 
ENDBRANCH  25  39
BRANCH  26  47
ATOM     47  C   UNL A   1      40.832  27.691  28.049  1.00  0.00     0.057 A 
ATOM     48  C   UNL A   1      40.194  26.455  27.893  1.00  0.00     0.134 A 
ATOM     49  C   UNL A   1      41.632  28.142  26.991  1.00  0.00     0.134 A 
ATOM     50  F   UNL A   1      39.425  25.962  28.875  1.00  0.00    -0.206 F 
ATOM     51  C   UNL A   1      40.367  25.685  26.742  1.00  0.00     0.040 A 
ATOM     52  C   UNL A   1      41.787  27.399  25.821  1.00  0.00     0.040 A 
ATOM     53  F   UNL A   1      42.261  29.324  27.073  1.00  0.00    -0.206 F 
ATOM     54  C   UNL A   1      41.161  26.160  25.699  1.00  0.00     0.006 A 
ENDBRANCH  26  47
BRANCH  38  55
ATOM     55  C   UNL A   1      44.135  27.776  34.163  1.00  0.00     0.057 A 
ATOM     56  C   UNL A   1      45.472  28.173  34.026  1.00  0.00     0.134 A 
ATOM     57  C   UNL A   1      43.884  26.565  34.820  1.00  0.00     0.134 A 
ATOM     58  F   UNL A   1      45.781  29.315  33.393  1.00  0.00    -0.206 F 
ATOM     59  C   UNL A   1      46.521  27.376  34.488  1.00  0.00     0.040 A 
ATOM     60  C   UNL A   1      44.923  25.774  35.312  1.00  0.00     0.040 A 
ATOM     61  F   UNL A   1      42.627  26.130  34.991  1.00  0.00    -0.206 F 
ATOM     62  C   UNL A   1      46.246  26.174  35.136  1.00  0.00     0.006 A 
ENDBRANCH  38  55
ENDBRANCH  12  13
ENDBRANCH   5   7
ENDBRANCH   2   3
ENDBRANCH   1   2
BRANCH   1  63
ATOM     63  C   UNL A   1      31.405  30.558  25.685  1.00  0.00     0.023 C 
BRANCH  63  64
ATOM     64  C   UNL A   1      32.648  29.740  26.026  1.00  0.00     0.116 C 
BRANCH  64  65
ATOM     65  N   UNL A   1      33.492  29.530  24.861  1.00  0.00    -0.354 N 
ATOM     66  C   UNL A   1      33.632  28.420  24.072  1.00  0.00     0.248 C 
ATOM     67  H   UNL A   1      34.045  30.301  24.600  1.00  0.00     0.163 HD
ATOM     68  O   UNL A   1      34.347  28.516  23.073  1.00  0.00    -0.272 OA
BRANCH  66  69
ATOM     69  C   UNL A   1      32.886  27.129  24.439  1.00  0.00     0.231 C 
ATOM     70  C   UNL A   1      34.004  26.060  24.574  1.00  0.00     0.296 C 
ATOM     71  N   UNL A   1      31.727  26.628  23.652  1.00  0.00    -0.302 N 
ATOM     72  N   UNL A   1      33.522  24.763  25.092  1.00  0.00    -0.343 N 
ATOM     73  C   UNL A   1      31.273  25.312  24.129  1.00  0.00     0.183 C 
ATOM     74  C   UNL A   1      32.428  24.292  24.220  1.00  0.00     0.282 C 
ATOM     75  H   UNL A   1      33.177  24.879  26.044  1.00  0.00     0.346 HD
ATOM     76  H   UNL A   1      34.282  24.084  25.099  1.00  0.00     0.346 HD
BRANCH  71  77
ATOM     77  C   UNL A   1      31.493  26.878  22.326  1.00  0.00     0.318 C 
ATOM     78  O   UNL A   1      31.803  26.080  21.439  1.00  0.00    -0.249 OA
ATOM     79  N   UNL A   1      30.744  27.933  21.942  1.00  0.00    -0.333 N 
ATOM     80  H   UNL A   1      30.748  28.079  20.968  1.00  0.00     0.165 HD
BRANCH  79  81
ATOM     81  C   UNL A   1      29.934  28.897  22.660  1.00  0.00     0.112 C 
ATOM     82  C   UNL A   1      28.548  28.429  23.053  1.00  0.00     0.056 C 
ATOM     83  C   UNL A   1      29.678  30.176  21.880  1.00  0.00     0.185 C 
ATOM     84  C   UNL A   1      27.671  29.657  22.861  1.00  0.00     0.162 C 
ATOM     85  O   UNL A   1      28.525  30.752  22.505  1.00  0.00    -0.379 OA
ENDBRANCH  79  81
ENDBRANCH  71  77
ENDBRANCH  66  69
ENDBRANCH  64  65
ENDBRANCH  63  64
ENDBRANCH   1  63
TORSDOF 13
ENDMDL
MODEL 2
REMARK VINA RESULT:     -11.5      4.779      9.678
REMARK SMILES O=C(NCCCCNC(=O)[C@@H]1C[NH2+]CCN1C(=O)N[C@@H]1CCOC1)c1ccc(-c2c3nc(c(-c4c(F)cccc4F)c4ccc([nH]4)c(-c4c(F)cccc4F)c4nc(c(-c5c(F)cccc5F)c5ccc2[nH]5)C=C4)C=C3)cc1
REMARK SMILES IDX 5 1 4 2 3 3 1 4 2 5 25 7 26 8 78 9 27 10 77 11 28 12 29 13
REMARK SMILES IDX 30 14 71 15 31 16 76 17 70 18 72 19 32 20 75 21 69 22 68 23
REMARK SMILES IDX 33 25 59 26 42 27 58 28 43 29 46 30 57 31 73 32 44 33 45 34
REMARK SMILES IDX 56 36 74 37 47 38 34 39 35 40 40 41 36 42 37 43 39 44 41 45
REMARK SMILES IDX 38 46 60 47 61 48 66 49 62 50 63 51 65 52 67 53 64 54 48 55
REMARK SMILES IDX 49 56 54 57 50 58 51 59 53 60 55 61 52 62 6 63 7 64 8 65
REMARK SMILES IDX 9 66 10 68 11 69 12 70 16 71 13 72 15 73 14 74 17 77 18 78
REMARK SMILES IDX 19 79 20 81 21 82 24 83 22 84 23 85
REMARK H PARENT 3 6 72 24 46 35 8 67 13 75 13 76 19 80
REMARK Flexibility Score: inf
ROOT
ATOM      1  C   UNL A   1      37.796  19.570  24.914  1.00  0.00     0.023 C 
ENDROOT
BRANCH   1   2
ATOM      2  C   UNL A   1      38.948  20.146  25.723  1.00  0.00     0.116 C 
BRANCH   2   3
ATOM      3  N   UNL A   1      40.087  19.239  25.759  1.00  0.00    -0.352 N 
ATOM      4  O   UNL A   1      42.278  18.690  25.758  1.00  0.00    -0.269 OA
ATOM      5  C   UNL A   1      41.415  19.520  26.001  1.00  0.00     0.251 C 
ATOM      6  H   UNL A   1      39.881  18.292  25.587  1.00  0.00     0.163 HD
BRANCH   5   7
ATOM      7  C   UNL A   1      41.785  20.844  26.550  1.00  0.00     0.039 A 
ATOM      8  C   UNL A   1      41.722  21.069  27.924  1.00  0.00     0.014 A 
ATOM      9  C   UNL A   1      42.199  21.865  25.689  1.00  0.00     0.014 A 
ATOM     10  C   UNL A   1      41.905  22.349  28.420  1.00  0.00     0.010 A 
ATOM     11  C   UNL A   1      42.501  23.130  26.208  1.00  0.00     0.010 A 
ATOM     12  C   UNL A   1      42.332  23.390  27.576  1.00  0.00    -0.014 A 
BRANCH  12  13
ATOM     13  C   UNL A   1      42.679  24.694  28.194  1.00  0.00     0.031 A 
ATOM     14  C   UNL A   1      44.095  25.060  28.537  1.00  0.00     0.074 A 
ATOM     15  C   UNL A   1      41.684  25.587  28.376  1.00  0.00     0.049 A 
ATOM     16  N   UNL A   1      44.558  26.192  29.005  1.00  0.00    -0.248 NA
ATOM     17  C   UNL A   1      45.124  24.027  28.343  1.00  0.00     0.031 C 
ATOM     18  C   UNL A   1      40.266  25.331  28.102  1.00  0.00     0.029 A 
ATOM     19  N   UNL A   1      41.709  26.891  28.793  1.00  0.00    -0.354 N 
ATOM     20  C   UNL A   1      45.925  26.012  29.162  1.00  0.00     0.074 A 
ATOM     21  C   UNL A   1      46.215  24.645  28.778  1.00  0.00     0.031 C 
ATOM     22  C   UNL A   1      39.570  26.460  28.292  1.00  0.00     0.029 A 
ATOM     23  C   UNL A   1      40.474  27.495  28.773  1.00  0.00     0.049 A 
ATOM     24  H   UNL A   1      42.530  27.352  29.080  1.00  0.00     0.167 HD
ATOM     25  C   UNL A   1      46.854  26.907  29.579  1.00  0.00     0.037 A 
ATOM     26  C   UNL A   1      40.103  28.741  29.117  1.00  0.00     0.037 A 
ATOM     27  C   UNL A   1      46.557  28.267  29.962  1.00  0.00     0.049 A 
ATOM     28  C   UNL A   1      41.152  29.702  29.590  1.00  0.00     0.074 A 
ATOM     29  C   UNL A   1      47.430  29.252  30.391  1.00  0.00     0.029 A 
ATOM     30  N   UNL A   1      45.289  28.832  29.960  1.00  0.00    -0.354 N 
ATOM     31  N   UNL A   1      42.445  29.520  29.709  1.00  0.00    -0.248 NA
ATOM     32  C   UNL A   1      40.691  31.041  29.977  1.00  0.00     0.031 C 
ATOM     33  C   UNL A   1      46.686  30.399  30.690  1.00  0.00     0.029 A 
ATOM     34  C   UNL A   1      45.356  30.146  30.397  1.00  0.00     0.049 A 
ATOM     35  H   UNL A   1      44.465  28.368  29.689  1.00  0.00     0.167 HD
ATOM     36  C   UNL A   1      42.954  30.723  30.178  1.00  0.00     0.074 A 
ATOM     37  C   UNL A   1      41.835  31.636  30.283  1.00  0.00     0.031 C 
ATOM     38  C   UNL A   1      44.230  31.039  30.504  1.00  0.00     0.037 A 
BRANCH  25  39
ATOM     39  C   UNL A   1      48.283  26.452  29.651  1.00  0.00     0.057 A 
ATOM     40  C   UNL A   1      49.183  26.677  28.601  1.00  0.00     0.134 A 
ATOM     41  C   UNL A   1      48.786  25.845  30.810  1.00  0.00     0.134 A 
ATOM     42  F   UNL A   1      48.766  27.244  27.458  1.00  0.00    -0.206 F 
ATOM     43  C   UNL A   1      50.525  26.303  28.694  1.00  0.00     0.040 A 
ATOM     44  C   UNL A   1      50.132  25.490  30.925  1.00  0.00     0.040 A 
ATOM     45  F   UNL A   1      47.983  25.607  31.858  1.00  0.00    -0.206 F 
ATOM     46  C   UNL A   1      51.005  25.716  29.864  1.00  0.00     0.006 A 
ENDBRANCH  25  39
BRANCH  26  47
ATOM     47  C   UNL A   1      38.673  29.133  29.051  1.00  0.00     0.057 A 
ATOM     48  C   UNL A   1      38.094  29.589  27.861  1.00  0.00     0.134 A 
ATOM     49  C   UNL A   1      37.852  29.068  30.184  1.00  0.00     0.134 A 
ATOM     50  F   UNL A   1      38.830  29.688  26.745  1.00  0.00    -0.206 F 
ATOM     51  C   UNL A   1      36.758  29.988  27.807  1.00  0.00     0.040 A 
ATOM     52  C   UNL A   1      36.506  29.431  30.136  1.00  0.00     0.040 A 
ATOM     53  F   UNL A   1      38.343  28.629  31.353  1.00  0.00    -0.206 F 
ATOM     54  C   UNL A   1      35.959  29.904  28.946  1.00  0.00     0.006 A 
ENDBRANCH  26  47
BRANCH  38  55
ATOM     55  C   UNL A   1      44.472  32.439  30.988  1.00  0.00     0.057 A 
ATOM     56  C   UNL A   1      44.766  33.485  30.104  1.00  0.00     0.134 A 
ATOM     57  C   UNL A   1      44.419  32.742  32.354  1.00  0.00     0.134 A 
ATOM     58  F   UNL A   1      44.848  33.258  28.784  1.00  0.00    -0.206 F 
ATOM     59  C   UNL A   1      45.037  34.775  30.564  1.00  0.00     0.040 A 
ATOM     60  C   UNL A   1      44.659  34.033  32.824  1.00  0.00     0.040 A 
ATOM     61  F   UNL A   1      44.135  31.788  33.253  1.00  0.00    -0.206 F 
ATOM     62  C   UNL A   1      44.981  35.051  31.928  1.00  0.00     0.006 A 
ENDBRANCH  38  55
ENDBRANCH  12  13
ENDBRANCH   5   7
ENDBRANCH   2   3
ENDBRANCH   1   2
BRANCH   1  63
ATOM     63  C   UNL A   1      36.512  20.391  24.989  1.00  0.00     0.023 C 
BRANCH  63  64
ATOM     64  C   UNL A   1      36.700  21.821  25.490  1.00  0.00     0.116 C 
BRANCH  64  65
ATOM     65  N   UNL A   1      35.876  22.097  26.655  1.00  0.00    -0.354 N 
ATOM     66  C   UNL A   1      34.650  22.700  26.735  1.00  0.00     0.248 C 
ATOM     67  H   UNL A   1      36.257  21.806  27.515  1.00  0.00     0.163 HD
ATOM     68  O   UNL A   1      34.103  22.736  27.839  1.00  0.00    -0.272 OA
BRANCH  66  69
ATOM     69  C   UNL A   1      34.002  23.274  25.467  1.00  0.00     0.231 C 
ATOM     70  C   UNL A   1      33.765  24.773  25.797  1.00  0.00     0.296 C 
ATOM     71  N   UNL A   1      32.814  22.650  24.827  1.00  0.00    -0.302 N 
ATOM     72  N   UNL A   1      33.297  25.566  24.642  1.00  0.00    -0.343 N 
ATOM     73  C   UNL A   1      32.309  23.459  23.706  1.00  0.00     0.183 C 
ATOM     74  C   UNL A   1      32.076  24.932  24.107  1.00  0.00     0.282 C 
ATOM     75  H   UNL A   1      34.018  25.585  23.922  1.00  0.00     0.346 HD
ATOM     76  H   UNL A   1      33.097  26.523  24.931  1.00  0.00     0.346 HD
BRANCH  71  77
ATOM     77  C   UNL A   1      31.871  21.887  25.463  1.00  0.00     0.318 C 
ATOM     78  O   UNL A   1      30.850  22.374  25.954  1.00  0.00    -0.249 OA
ATOM     79  N   UNL A   1      31.928  20.539  25.422  1.00  0.00    -0.333 N 
ATOM     80  H   UNL A   1      31.272  20.104  26.015  1.00  0.00     0.165 HD
BRANCH  79  81
ATOM     81  C   UNL A   1      32.751  19.596  24.692  1.00  0.00     0.112 C 
ATOM     82  C   UNL A   1      32.408  19.422  23.227  1.00  0.00     0.056 C 
ATOM     83  C   UNL A   1      32.694  18.183  25.247  1.00  0.00     0.185 C 
ATOM     84  C   UNL A   1      32.611  17.937  22.969  1.00  0.00     0.162 C 
ATOM     85  O   UNL A   1      33.140  17.354  24.168  1.00  0.00    -0.379 OA
ENDBRANCH  79  81
ENDBRANCH  71  77
ENDBRANCH  66  69
ENDBRANCH  64  65
ENDBRANCH  63  64
ENDBRANCH   1  63
TORSDOF 13
ENDMDL
MODEL 3
REMARK VINA RESULT:     -11.3      5.474     10.488
REMARK SMILES O=C(NCCCCNC(=O)[C@@H]1C[NH2+]CCN1C(=O)N[C@@H]1CCOC1)c1ccc(-c2c3nc(c(-c4c(F)cccc4F)c4ccc([nH]4)c(-c4c(F)cccc4F)c4nc(c(-c5c(F)cccc5F)c5ccc2[nH]5)C=C4)C=C3)cc1
REMARK SMILES IDX 5 1 4 2 3 3 1 4 2 5 25 7 26 8 78 9 27 10 77 11 28 12 29 13
REMARK SMILES IDX 30 14 71 15 31 16 76 17 70 18 72 19 32 20 75 21 69 22 68 23
REMARK SMILES IDX 33 25 59 26 42 27 58 28 43 29 46 30 57 31 73 32 44 33 45 34
REMARK SMILES IDX 56 36 74 37 47 38 34 39 35 40 40 41 36 42 37 43 39 44 41 45
REMARK SMILES IDX 38 46 60 47 61 48 66 49 62 50 63 51 65 52 67 53 64 54 48 55
REMARK SMILES IDX 49 56 54 57 50 58 51 59 53 60 55 61 52 62 6 63 7 64 8 65
REMARK SMILES IDX 9 66 10 68 11 69 12 70 16 71 13 72 15 73 14 74 17 77 18 78
REMARK SMILES IDX 19 79 20 81 21 82 24 83 22 84 23 85
REMARK H PARENT 3 6 72 24 46 35 8 67 13 75 13 76 19 80
REMARK Flexibility Score: inf
ROOT
ATOM      1  C   UNL A   1      38.127  19.413  24.853  1.00  0.00     0.023 C 
ENDROOT
BRANCH   1   2
ATOM      2  C   UNL A   1      39.186  19.844  25.857  1.00  0.00     0.116 C 
BRANCH   2   3
ATOM      3  N   UNL A   1      40.324  18.936  25.864  1.00  0.00    -0.352 N 
ATOM      4  O   UNL A   1      42.509  18.378  25.760  1.00  0.00    -0.269 OA
ATOM      5  C   UNL A   1      41.663  19.221  26.018  1.00  0.00     0.251 C 
ATOM      6  H   UNL A   1      40.106  17.983  25.742  1.00  0.00     0.163 HD
BRANCH   5   7
ATOM      7  C   UNL A   1      42.066  20.565  26.491  1.00  0.00     0.039 A 
ATOM      8  C   UNL A   1      42.421  21.548  25.569  1.00  0.00     0.014 A 
ATOM      9  C   UNL A   1      42.087  20.845  27.861  1.00  0.00     0.014 A 
ATOM     10  C   UNL A   1      42.957  22.745  26.014  1.00  0.00     0.010 A 
ATOM     11  C   UNL A   1      42.517  22.101  28.306  1.00  0.00     0.010 A 
ATOM     12  C   UNL A   1      42.980  23.053  27.386  1.00  0.00    -0.014 A 
BRANCH  12  13
ATOM     13  C   UNL A   1      43.403  24.418  27.790  1.00  0.00     0.031 A 
ATOM     14  C   UNL A   1      44.838  24.857  27.726  1.00  0.00     0.074 A 
ATOM     15  C   UNL A   1      42.442  25.292  28.152  1.00  0.00     0.049 A 
ATOM     16  N   UNL A   1      45.344  26.041  27.968  1.00  0.00    -0.248 NA
ATOM     17  C   UNL A   1      45.837  23.844  27.354  1.00  0.00     0.031 C 
ATOM     18  C   UNL A   1      41.016  24.968  28.274  1.00  0.00     0.029 A 
ATOM     19  N   UNL A   1      42.502  26.629  28.446  1.00  0.00    -0.354 N 
ATOM     20  C   UNL A   1      46.714  25.918  27.781  1.00  0.00     0.074 A 
ATOM     21  C   UNL A   1      46.968  24.532  27.443  1.00  0.00     0.031 C 
ATOM     22  C   UNL A   1      40.332  26.087  28.549  1.00  0.00     0.029 A 
ATOM     23  C   UNL A   1      41.273  27.189  28.697  1.00  0.00     0.049 A 
ATOM     24  H   UNL A   1      43.343  27.139  28.473  1.00  0.00     0.167 HD
ATOM     25  C   UNL A   1      47.669  26.876  27.873  1.00  0.00     0.037 A 
ATOM     26  C   UNL A   1      40.936  28.449  29.027  1.00  0.00     0.037 A 
ATOM     27  C   UNL A   1      47.407  28.254  28.211  1.00  0.00     0.049 A 
ATOM     28  C   UNL A   1      42.018  29.480  29.137  1.00  0.00     0.074 A 
ATOM     29  C   UNL A   1      48.307  29.301  28.322  1.00  0.00     0.029 A 
ATOM     30  N   UNL A   1      46.153  28.777  28.493  1.00  0.00    -0.354 N 
ATOM     31  N   UNL A   1      43.306  29.351  28.931  1.00  0.00    -0.248 NA
ATOM     32  C   UNL A   1      41.600  30.833  29.523  1.00  0.00     0.031 C 
ATOM     33  C   UNL A   1      47.604  30.446  28.712  1.00  0.00     0.029 A 
ATOM     34  C   UNL A   1      46.258  30.126  28.793  1.00  0.00     0.049 A 
ATOM     35  H   UNL A   1      45.313  28.264  28.481  1.00  0.00     0.167 HD
ATOM     36  C   UNL A   1      43.853  30.605  29.157  1.00  0.00     0.074 A 
ATOM     37  C   UNL A   1      42.750  31.489  29.476  1.00  0.00     0.031 C 
ATOM     38  C   UNL A   1      45.152  30.989  29.117  1.00  0.00     0.037 A 
BRANCH  25  39
ATOM     39  C   UNL A   1      49.092  26.474  27.609  1.00  0.00     0.057 A 
ATOM     40  C   UNL A   1      49.634  26.483  26.316  1.00  0.00     0.134 A 
ATOM     41  C   UNL A   1      49.952  26.141  28.664  1.00  0.00     0.134 A 
ATOM     42  F   UNL A   1      48.863  26.782  25.258  1.00  0.00    -0.206 F 
ATOM     43  C   UNL A   1      50.972  26.164  26.081  1.00  0.00     0.040 A 
ATOM     44  C   UNL A   1      51.299  25.845  28.445  1.00  0.00     0.040 A 
ATOM     45  F   UNL A   1      49.503  26.120  29.928  1.00  0.00    -0.206 F 
ATOM     46  C   UNL A   1      51.812  25.853  27.150  1.00  0.00     0.006 A 
ENDBRANCH  25  39
BRANCH  26  47
ATOM     47  C   UNL A   1      39.517  28.789  29.302  1.00  0.00     0.057 A 
ATOM     48  C   UNL A   1      38.679  29.295  28.302  1.00  0.00     0.134 A 
ATOM     49  C   UNL A   1      38.968  28.620  30.580  1.00  0.00     0.134 A 
ATOM     50  F   UNL A   1      39.149  29.492  27.061  1.00  0.00    -0.206 F 
ATOM     51  C   UNL A   1      37.355  29.645  28.568  1.00  0.00     0.040 A 
ATOM     52  C   UNL A   1      37.636  28.934  30.852  1.00  0.00     0.040 A 
ATOM     53  F   UNL A   1      39.715  28.128  31.579  1.00  0.00    -0.206 F 
ATOM     54  C   UNL A   1      36.828  29.459  29.846  1.00  0.00     0.006 A 
ENDBRANCH  26  47
BRANCH  38  55
ATOM     55  C   UNL A   1      45.434  32.434  29.412  1.00  0.00     0.057 A 
ATOM     56  C   UNL A   1      45.710  32.881  30.710  1.00  0.00     0.134 A 
ATOM     57  C   UNL A   1      45.421  33.388  28.387  1.00  0.00     0.134 A 
ATOM     58  F   UNL A   1      45.723  32.020  31.739  1.00  0.00    -0.206 F 
ATOM     59  C   UNL A   1      45.924  34.233  30.986  1.00  0.00     0.040 A 
ATOM     60  C   UNL A   1      45.662  34.737  28.645  1.00  0.00     0.040 A 
ATOM     61  F   UNL A   1      45.170  33.025  27.121  1.00  0.00    -0.206 F 
ATOM     62  C   UNL A   1      45.904  35.164  29.950  1.00  0.00     0.006 A 
ENDBRANCH  38  55
ENDBRANCH  12  13
ENDBRANCH   5   7
ENDBRANCH   2   3
ENDBRANCH   1   2
BRANCH   1  63
ATOM     63  C   UNL A   1      36.810  20.175  24.972  1.00  0.00     0.023 C 
BRANCH  63  64
ATOM     64  C   UNL A   1      36.960  21.648  25.344  1.00  0.00     0.116 C 
BRANCH  64  65
ATOM     65  N   UNL A   1      36.033  22.036  26.394  1.00  0.00    -0.354 N 
ATOM     66  C   UNL A   1      34.732  22.454  26.301  1.00  0.00     0.248 C 
ATOM     67  H   UNL A   1      36.394  21.992  27.308  1.00  0.00     0.163 HD
ATOM     68  O   UNL A   1      34.116  22.638  27.351  1.00  0.00    -0.272 OA
BRANCH  66  69
ATOM     69  C   UNL A   1      34.094  22.647  24.918  1.00  0.00     0.231 C 
ATOM     70  C   UNL A   1      33.752  24.161  24.856  1.00  0.00     0.296 C 
ATOM     71  N   UNL A   1      32.971  21.802  24.434  1.00  0.00    -0.302 N 
ATOM     72  N   UNL A   1      33.275  24.606  23.531  1.00  0.00    -0.343 N 
ATOM     73  C   UNL A   1      32.455  22.269  23.137  1.00  0.00     0.183 C 
ATOM     74  C   UNL A   1      32.116  23.775  23.151  1.00  0.00     0.282 C 
ATOM     75  H   UNL A   1      34.019  24.494  22.843  1.00  0.00     0.346 HD
ATOM     76  H   UNL A   1      33.006  25.589  23.567  1.00  0.00     0.346 HD
BRANCH  71  77
ATOM     77  C   UNL A   1      32.055  21.158  25.224  1.00  0.00     0.318 C 
ATOM     78  O   UNL A   1      30.993  21.684  25.567  1.00  0.00    -0.249 OA
ATOM     79  N   UNL A   1      32.192  19.848  25.517  1.00  0.00    -0.333 N 
ATOM     80  H   UNL A   1      31.546  19.530  26.188  1.00  0.00     0.165 HD
BRANCH  79  81
ATOM     81  C   UNL A   1      33.091  18.810  25.052  1.00  0.00     0.112 C 
ATOM     82  C   UNL A   1      33.018  18.492  23.573  1.00  0.00     0.056 C 
ATOM     83  C   UNL A   1      32.864  17.465  25.723  1.00  0.00     0.185 C 
ATOM     84  C   UNL A   1      33.194  16.983  23.506  1.00  0.00     0.162 C 
ATOM     85  O   UNL A   1      33.462  16.515  24.834  1.00  0.00    -0.379 OA
ENDBRANCH  79  81
ENDBRANCH  71  77
ENDBRANCH  66  69
ENDBRANCH  64  65
ENDBRANCH  63  64
ENDBRANCH   1  63
TORSDOF 13
ENDMDL
