MODEL 1
REMARK VINA RESULT:     -11.1      0.000      0.000
REMARK SMILES CCc1noc(C)c1C(=O)Nc1cc(Cl)ccc1C(=O)NCCCCNC(=O)c1ccc(-c2c3nc(c(-c4c(F)cccc4F)c4ccc([nH]4)c(-c4c(F)cccc4F)c4nc(c(-c5c(F)cccc5F)c5ccc2[nH]5)C=C4)C=C3)cc1
REMARK SMILES IDX 23 1 22 2 21 3 19 4 20 5 18 7 12 8 13 9 14 10 17 11 15 12
REMARK SMILES IDX 16 13 11 14 9 15 10 16 8 18 3 19 4 20 5 21 6 22 7 23 2 24
REMARK SMILES IDX 1 25 24 26 25 27 26 28 27 29 28 31 29 32 30 33 82 34 31 35
REMARK SMILES IDX 81 36 32 37 33 38 34 39 75 40 35 41 80 42 74 43 76 44 36 45
REMARK SMILES IDX 79 46 73 47 72 48 37 50 63 51 46 52 62 53 47 54 50 55 61 56
REMARK SMILES IDX 77 57 48 58 49 59 60 61 78 62 51 63 38 64 39 65 44 66 40 67
REMARK SMILES IDX 41 68 43 69 45 70 42 71 64 72 65 73 70 74 66 75 67 76 69 77
REMARK SMILES IDX 71 78 68 79 52 80 53 81 58 82 54 83 55 84 57 85 59 86 56 87
REMARK H PARENT 21 6 11 17 26 30 76 49 50 60
REMARK Flexibility Score: inf
ROOT
ATOM      1  C   UNL A   1      32.342  27.058  26.563  1.00  0.00     0.023 C 
ENDROOT
BRANCH   1   2
ATOM      2  C   UNL A   1      33.472  26.135  26.126  1.00  0.00     0.116 C 
BRANCH   2   3
ATOM      3  N   UNL A   1      33.551  25.822  24.722  1.00  0.00    -0.352 N 
ATOM      4  C   UNL A   1      34.236  24.856  24.023  1.00  0.00     0.253 C 
ATOM      5  O   UNL A   1      34.030  24.850  22.804  1.00  0.00    -0.269 OA
ATOM      6  H   UNL A   1      33.009  26.415  24.152  1.00  0.00     0.163 HD
BRANCH   4   7
ATOM      7  C   UNL A   1      35.222  23.849  24.565  1.00  0.00     0.063 A 
ATOM      8  C   UNL A   1      35.139  22.443  24.628  1.00  0.00     0.055 A 
ATOM      9  C   UNL A   1      36.232  21.676  25.083  1.00  0.00     0.047 A 
ATOM     10  C   UNL A   1      37.386  22.294  25.555  1.00  0.00     0.043 A 
ATOM     11  C   UNL A   1      36.400  24.439  25.086  1.00  0.00     0.017 A 
ATOM     12  Cl  UNL A   1      38.696  21.341  26.125  1.00  0.00    -0.084 Cl
ATOM     13  C   UNL A   1      37.465  23.677  25.583  1.00  0.00     0.021 A 
BRANCH   8  14
ATOM     14  N   UNL A   1      34.080  21.716  24.103  1.00  0.00    -0.321 N 
ATOM     15  C   UNL A   1      32.786  21.529  24.546  1.00  0.00     0.261 C 
ATOM     16  O   UNL A   1      32.179  20.632  23.951  1.00  0.00    -0.269 OA
ATOM     17  H   UNL A   1      34.289  21.249  23.263  1.00  0.00     0.170 HD
BRANCH  15  18
ATOM     18  C   UNL A   1      32.077  22.391  25.502  1.00  0.00     0.105 A 
ATOM     19  C   UNL A   1      31.065  23.352  25.105  1.00  0.00     0.096 A 
ATOM     20  N   UNL A   1      30.486  23.925  26.162  1.00  0.00    -0.084 NA
ATOM     21  O   UNL A   1      31.190  23.499  27.245  1.00  0.00    -0.361 OA
ATOM     22  C   UNL A   1      32.192  22.661  26.862  1.00  0.00     0.146 A 
ATOM     23  C   UNL A   1      33.072  22.353  28.004  1.00  0.00     0.092 C 
BRANCH  19  24
ATOM     24  C   UNL A   1      30.653  23.801  23.735  1.00  0.00     0.057 C 
ATOM     25  C   UNL A   1      30.276  25.282  23.672  1.00  0.00     0.011 C 
ENDBRANCH  19  24
ENDBRANCH  15  18
ENDBRANCH   8  14
ENDBRANCH   4   7
ENDBRANCH   2   3
ENDBRANCH   1   2
BRANCH   1  26
ATOM     26  C   UNL A   1      32.480  28.540  26.219  1.00  0.00     0.023 C 
BRANCH  26  27
ATOM     27  C   UNL A   1      33.845  29.184  26.447  1.00  0.00     0.116 C 
BRANCH  27  28
ATOM     28  N   UNL A   1      33.840  30.302  27.381  1.00  0.00    -0.352 N 
ATOM     29  C   UNL A   1      34.791  30.740  28.274  1.00  0.00     0.251 C 
ATOM     30  H   UNL A   1      33.013  30.836  27.372  1.00  0.00     0.163 HD
ATOM     31  O   UNL A   1      34.541  31.694  29.008  1.00  0.00    -0.269 OA
BRANCH  29  32
ATOM     32  C   UNL A   1      36.092  30.046  28.411  1.00  0.00     0.039 A 
ATOM     33  C   UNL A   1      36.983  30.079  27.332  1.00  0.00     0.014 A 
ATOM     34  C   UNL A   1      36.451  29.379  29.581  1.00  0.00     0.014 A 
ATOM     35  C   UNL A   1      38.271  29.557  27.474  1.00  0.00     0.010 A 
ATOM     36  C   UNL A   1      37.763  28.944  29.756  1.00  0.00     0.010 A 
ATOM     37  C   UNL A   1      38.694  29.046  28.711  1.00  0.00    -0.014 A 
BRANCH  37  38
ATOM     38  C   UNL A   1      40.112  28.661  28.949  1.00  0.00     0.031 A 
ATOM     39  C   UNL A   1      41.094  29.653  29.505  1.00  0.00     0.074 A 
ATOM     40  C   UNL A   1      40.541  27.444  28.558  1.00  0.00     0.049 A 
ATOM     41  N   UNL A   1      42.385  29.529  29.681  1.00  0.00    -0.248 NA
ATOM     42  C   UNL A   1      40.561  30.973  29.876  1.00  0.00     0.031 C 
ATOM     43  C   UNL A   1      39.711  26.414  27.929  1.00  0.00     0.029 A 
ATOM     44  N   UNL A   1      41.790  26.875  28.611  1.00  0.00    -0.354 N 
ATOM     45  C   UNL A   1      42.824  30.760  30.150  1.00  0.00     0.074 A 
ATOM     46  C   UNL A   1      41.667  31.631  30.188  1.00  0.00     0.031 C 
ATOM     47  C   UNL A   1      40.468  25.337  27.668  1.00  0.00     0.029 A 
ATOM     48  C   UNL A   1      41.842  25.610  28.077  1.00  0.00     0.049 A 
ATOM     49  H   UNL A   1      42.574  27.331  28.994  1.00  0.00     0.167 HD
ATOM     50  C   UNL A   1      44.070  31.128  30.533  1.00  0.00     0.037 A 
ATOM     51  C   UNL A   1      42.878  24.765  27.923  1.00  0.00     0.037 A 
ATOM     52  C   UNL A   1      45.209  30.249  30.536  1.00  0.00     0.049 A 
ATOM     53  C   UNL A   1      44.242  25.175  28.397  1.00  0.00     0.074 A 
ATOM     54  C   UNL A   1      46.487  30.495  31.009  1.00  0.00     0.029 A 
ATOM     55  N   UNL A   1      45.211  28.955  30.036  1.00  0.00    -0.354 N 
ATOM     56  N   UNL A   1      44.622  26.311  28.930  1.00  0.00    -0.248 NA
ATOM     57  C   UNL A   1      45.319  24.185  28.257  1.00  0.00     0.031 C 
ATOM     58  C   UNL A   1      47.272  29.364  30.756  1.00  0.00     0.029 A 
ATOM     59  C   UNL A   1      46.473  28.399  30.164  1.00  0.00     0.049 A 
ATOM     60  H   UNL A   1      44.430  28.499  29.648  1.00  0.00     0.167 HD
ATOM     61  C   UNL A   1      45.977  26.169  29.202  1.00  0.00     0.074 A 
ATOM     62  C   UNL A   1      46.348  24.831  28.791  1.00  0.00     0.031 C 
ATOM     63  C   UNL A   1      46.834  27.069  29.743  1.00  0.00     0.037 A 
BRANCH  50  64
ATOM     64  C   UNL A   1      44.260  32.547  30.982  1.00  0.00     0.057 A 
ATOM     65  C   UNL A   1      44.612  33.568  30.088  1.00  0.00     0.134 A 
ATOM     66  C   UNL A   1      44.079  32.902  32.325  1.00  0.00     0.134 A 
ATOM     67  F   UNL A   1      44.812  33.295  28.789  1.00  0.00    -0.206 F 
ATOM     68  C   UNL A   1      44.814  34.880  30.520  1.00  0.00     0.040 A 
ATOM     69  C   UNL A   1      44.250  34.216  32.763  1.00  0.00     0.040 A 
ATOM     70  F   UNL A   1      43.733  31.976  33.233  1.00  0.00    -0.206 F 
ATOM     71  C   UNL A   1      44.630  35.207  31.861  1.00  0.00     0.006 A 
ENDBRANCH  50  64
BRANCH  51  72
ATOM     72  C   UNL A   1      42.652  23.434  27.307  1.00  0.00     0.057 A 
ATOM     73  C   UNL A   1      42.860  23.230  25.938  1.00  0.00     0.134 A 
ATOM     74  C   UNL A   1      42.253  22.333  28.072  1.00  0.00     0.134 A 
ATOM     75  F   UNL A   1      43.226  24.252  25.152  1.00  0.00    -0.206 F 
ATOM     76  C   UNL A   1      42.673  21.978  25.350  1.00  0.00     0.040 A 
ATOM     77  C   UNL A   1      42.082  21.071  27.502  1.00  0.00     0.040 A 
ATOM     78  F   UNL A   1      42.048  22.463  29.391  1.00  0.00    -0.206 F 
ATOM     79  C   UNL A   1      42.289  20.892  26.135  1.00  0.00     0.006 A 
ENDBRANCH  51  72
BRANCH  63  80
ATOM     80  C   UNL A   1      48.256  26.633  29.930  1.00  0.00     0.057 A 
ATOM     81  C   UNL A   1      49.245  26.920  28.981  1.00  0.00     0.134 A 
ATOM     82  C   UNL A   1      48.649  25.954  31.091  1.00  0.00     0.134 A 
ATOM     83  F   UNL A   1      48.931  27.556  27.843  1.00  0.00    -0.206 F 
ATOM     84  C   UNL A   1      50.573  26.532  29.172  1.00  0.00     0.040 A 
ATOM     85  C   UNL A   1      49.977  25.582  31.303  1.00  0.00     0.040 A 
ATOM     86  F   UNL A   1      47.751  25.654  32.041  1.00  0.00    -0.206 F 
ATOM     87  C   UNL A   1      50.943  25.867  30.340  1.00  0.00     0.006 A 
ENDBRANCH  63  80
ENDBRANCH  37  38
ENDBRANCH  29  32
ENDBRANCH  27  28
ENDBRANCH  26  27
ENDBRANCH   1  26
TORSDOF 14
ENDMDL
MODEL 2
REMARK VINA RESULT:     -11.0      2.227      7.075
REMARK SMILES CCc1noc(C)c1C(=O)Nc1cc(Cl)ccc1C(=O)NCCCCNC(=O)c1ccc(-c2c3nc(c(-c4c(F)cccc4F)c4ccc([nH]4)c(-c4c(F)cccc4F)c4nc(c(-c5c(F)cccc5F)c5ccc2[nH]5)C=C4)C=C3)cc1
REMARK SMILES IDX 23 1 22 2 21 3 19 4 20 5 18 7 12 8 13 9 14 10 17 11 15 12
REMARK SMILES IDX 16 13 11 14 9 15 10 16 8 18 3 19 4 20 5 21 6 22 7 23 2 24
REMARK SMILES IDX 1 25 24 26 25 27 26 28 27 29 28 31 29 32 30 33 82 34 31 35
REMARK SMILES IDX 81 36 32 37 33 38 34 39 75 40 35 41 80 42 74 43 76 44 36 45
REMARK SMILES IDX 79 46 73 47 72 48 37 50 63 51 46 52 62 53 47 54 50 55 61 56
REMARK SMILES IDX 77 57 48 58 49 59 60 61 78 62 51 63 38 64 39 65 44 66 40 67
REMARK SMILES IDX 41 68 43 69 45 70 42 71 64 72 65 73 70 74 66 75 67 76 69 77
REMARK SMILES IDX 71 78 68 79 52 80 53 81 58 82 54 83 55 84 57 85 59 86 56 87
REMARK H PARENT 21 6 11 17 26 30 76 49 50 60
REMARK Flexibility Score: inf
ROOT
ATOM      1  C   UNL A   1      37.022  21.857  24.267  1.00  0.00     0.023 C 
ENDROOT
BRANCH   1   2
ATOM      2  C   UNL A   1      37.070  23.156  25.061  1.00  0.00     0.116 C 
BRANCH   2   3
ATOM      3  N   UNL A   1      36.104  23.310  26.119  1.00  0.00    -0.352 N 
ATOM      4  C   UNL A   1      34.859  22.764  26.327  1.00  0.00     0.253 C 
ATOM      5  O   UNL A   1      34.318  23.089  27.390  1.00  0.00    -0.269 OA
ATOM      6  H   UNL A   1      36.391  23.924  26.833  1.00  0.00     0.163 HD
BRANCH   4   7
ATOM      7  C   UNL A   1      34.081  21.863  25.398  1.00  0.00     0.063 A 
ATOM      8  C   UNL A   1      33.452  22.154  24.170  1.00  0.00     0.055 A 
ATOM      9  C   UNL A   1      32.860  21.129  23.403  1.00  0.00     0.047 A 
ATOM     10  C   UNL A   1      32.814  19.822  23.878  1.00  0.00     0.043 A 
ATOM     11  C   UNL A   1      33.982  20.528  25.861  1.00  0.00     0.017 A 
ATOM     12  Cl  UNL A   1      32.070  18.594  22.936  1.00  0.00    -0.084 Cl
ATOM     13  C   UNL A   1      33.352  19.521  25.119  1.00  0.00     0.021 A 
BRANCH   8  14
ATOM     14  N   UNL A   1      33.512  23.396  23.557  1.00  0.00    -0.321 N 
ATOM     15  C   UNL A   1      32.860  24.584  23.821  1.00  0.00     0.261 C 
ATOM     16  O   UNL A   1      32.981  25.431  22.929  1.00  0.00    -0.269 OA
ATOM     17  H   UNL A   1      34.133  23.440  22.795  1.00  0.00     0.170 HD
BRANCH  15  18
ATOM     18  C   UNL A   1      32.214  24.940  25.092  1.00  0.00     0.105 A 
ATOM     19  C   UNL A   1      32.617  26.079  25.895  1.00  0.00     0.096 A 
ATOM     20  N   UNL A   1      31.805  26.261  26.938  1.00  0.00    -0.084 NA
ATOM     21  O   UNL A   1      30.971  25.187  26.949  1.00  0.00    -0.361 OA
ATOM     22  C   UNL A   1      31.260  24.350  25.915  1.00  0.00     0.146 A 
ATOM     23  C   UNL A   1      30.493  23.097  26.035  1.00  0.00     0.092 C 
BRANCH  19  24
ATOM     24  C   UNL A   1      33.799  26.990  25.744  1.00  0.00     0.057 C 
ATOM     25  C   UNL A   1      33.463  28.304  25.037  1.00  0.00     0.011 C 
ENDBRANCH  19  24
ENDBRANCH  15  18
ENDBRANCH   8  14
ENDBRANCH   4   7
ENDBRANCH   2   3
ENDBRANCH   1   2
BRANCH   1  26
ATOM     26  C   UNL A   1      37.634  20.619  24.919  1.00  0.00     0.023 C 
BRANCH  26  27
ATOM     27  C   UNL A   1      38.864  20.830  25.799  1.00  0.00     0.116 C 
BRANCH  27  28
ATOM     28  N   UNL A   1      39.860  19.770  25.714  1.00  0.00    -0.352 N 
ATOM     29  C   UNL A   1      41.196  19.754  26.046  1.00  0.00     0.251 C 
ATOM     30  H   UNL A   1      39.518  18.919  25.360  1.00  0.00     0.163 HD
ATOM     31  O   UNL A   1      41.860  18.741  25.838  1.00  0.00    -0.269 OA
BRANCH  29  32
ATOM     32  C   UNL A   1      41.864  20.956  26.594  1.00  0.00     0.039 A 
ATOM     33  C   UNL A   1      42.318  21.934  25.701  1.00  0.00     0.014 A 
ATOM     34  C   UNL A   1      42.038  21.141  27.965  1.00  0.00     0.014 A 
ATOM     35  C   UNL A   1      42.826  23.141  26.187  1.00  0.00     0.010 A 
ATOM     36  C   UNL A   1      42.455  22.378  28.450  1.00  0.00     0.010 A 
ATOM     37  C   UNL A   1      42.835  23.400  27.566  1.00  0.00    -0.014 A 
BRANCH  37  38
ATOM     38  C   UNL A   1      43.187  24.743  28.102  1.00  0.00     0.031 A 
ATOM     39  C   UNL A   1      42.122  25.770  28.364  1.00  0.00     0.074 A 
ATOM     40  C   UNL A   1      44.486  25.076  28.248  1.00  0.00     0.049 A 
ATOM     41  N   UNL A   1      42.250  27.020  28.732  1.00  0.00    -0.248 NA
ATOM     42  C   UNL A   1      40.730  25.346  28.149  1.00  0.00     0.031 C 
ATOM     43  C   UNL A   1      45.624  24.204  27.952  1.00  0.00     0.029 A 
ATOM     44  N   UNL A   1      45.068  26.249  28.663  1.00  0.00    -0.354 N 
ATOM     45  C   UNL A   1      40.963  27.541  28.758  1.00  0.00     0.074 A 
ATOM     46  C   UNL A   1      40.073  26.482  28.326  1.00  0.00     0.031 C 
ATOM     47  C   UNL A   1      46.764  24.864  28.207  1.00  0.00     0.029 A 
ATOM     48  C   UNL A   1      46.442  26.216  28.650  1.00  0.00     0.049 A 
ATOM     49  H   UNL A   1      44.550  27.039  28.942  1.00  0.00     0.167 HD
ATOM     50  C   UNL A   1      40.555  28.779  29.126  1.00  0.00     0.037 A 
ATOM     51  C   UNL A   1      47.345  27.169  28.950  1.00  0.00     0.037 A 
ATOM     52  C   UNL A   1      41.436  29.815  29.596  1.00  0.00     0.049 A 
ATOM     53  C   UNL A   1      46.871  28.520  29.401  1.00  0.00     0.074 A 
ATOM     54  C   UNL A   1      41.109  31.064  30.097  1.00  0.00     0.029 A 
ATOM     55  N   UNL A   1      42.820  29.726  29.619  1.00  0.00    -0.354 N 
ATOM     56  N   UNL A   1      45.644  28.967  29.514  1.00  0.00    -0.248 NA
ATOM     57  C   UNL A   1      47.905  29.496  29.774  1.00  0.00     0.031 C 
ATOM     58  C   UNL A   1      42.297  31.746  30.381  1.00  0.00     0.029 A 
ATOM     59  C   UNL A   1      43.363  30.907  30.098  1.00  0.00     0.049 A 
ATOM     60  H   UNL A   1      43.340  28.940  29.336  1.00  0.00     0.167 HD
ATOM     61  C   UNL A   1      45.755  30.269  29.984  1.00  0.00     0.074 A 
ATOM     62  C   UNL A   1      47.170  30.534  30.150  1.00  0.00     0.031 C 
ATOM     63  C   UNL A   1      44.773  31.164  30.251  1.00  0.00     0.037 A 
BRANCH  50  64
ATOM     64  C   UNL A   1      39.087  29.075  29.033  1.00  0.00     0.057 A 
ATOM     65  C   UNL A   1      38.239  28.978  30.144  1.00  0.00     0.134 A 
ATOM     66  C   UNL A   1      38.514  29.474  27.819  1.00  0.00     0.134 A 
ATOM     67  F   UNL A   1      38.720  28.591  31.336  1.00  0.00    -0.206 F 
ATOM     68  C   UNL A   1      36.868  29.229  30.042  1.00  0.00     0.040 A 
ATOM     69  C   UNL A   1      37.151  29.754  27.711  1.00  0.00     0.040 A 
ATOM     70  F   UNL A   1      39.271  29.595  26.716  1.00  0.00    -0.206 F 
ATOM     71  C   UNL A   1      36.323  29.621  28.823  1.00  0.00     0.006 A 
ENDBRANCH  50  64
BRANCH  51  72
ATOM     72  C   UNL A   1      48.793  26.861  28.851  1.00  0.00     0.057 A 
ATOM     73  C   UNL A   1      49.472  26.242  29.907  1.00  0.00     0.134 A 
ATOM     74  C   UNL A   1      49.524  27.151  27.693  1.00  0.00     0.134 A 
ATOM     75  F   UNL A   1      48.827  25.956  31.047  1.00  0.00    -0.206 F 
ATOM     76  C   UNL A   1      50.828  25.927  29.817  1.00  0.00     0.040 A 
ATOM     77  C   UNL A   1      50.876  26.823  27.582  1.00  0.00     0.040 A 
ATOM     78  F   UNL A   1      48.927  27.735  26.644  1.00  0.00    -0.206 F 
ATOM     79  C   UNL A   1      51.533  26.211  28.649  1.00  0.00     0.006 A 
ENDBRANCH  51  72
BRANCH  63  80
ATOM     80  C   UNL A   1      45.192  32.510  30.760  1.00  0.00     0.057 A 
ATOM     81  C   UNL A   1      45.324  32.770  32.130  1.00  0.00     0.134 A 
ATOM     82  C   UNL A   1      45.507  33.545  29.871  1.00  0.00     0.134 A 
ATOM     83  F   UNL A   1      45.025  31.826  33.034  1.00  0.00    -0.206 F 
ATOM     84  C   UNL A   1      45.738  34.019  32.598  1.00  0.00     0.040 A 
ATOM     85  C   UNL A   1      45.944  34.789  30.325  1.00  0.00     0.040 A 
ATOM     86  F   UNL A   1      45.407  33.358  28.546  1.00  0.00    -0.206 F 
ATOM     87  C   UNL A   1      46.056  35.031  31.693  1.00  0.00     0.006 A 
ENDBRANCH  63  80
ENDBRANCH  37  38
ENDBRANCH  29  32
ENDBRANCH  27  28
ENDBRANCH  26  27
ENDBRANCH   1  26
TORSDOF 14
ENDMDL
MODEL 3
REMARK VINA RESULT:     -11.0      3.070      7.376
REMARK SMILES CCc1noc(C)c1C(=O)Nc1cc(Cl)ccc1C(=O)NCCCCNC(=O)c1ccc(-c2c3nc(c(-c4c(F)cccc4F)c4ccc([nH]4)c(-c4c(F)cccc4F)c4nc(c(-c5c(F)cccc5F)c5ccc2[nH]5)C=C4)C=C3)cc1
REMARK SMILES IDX 23 1 22 2 21 3 19 4 20 5 18 7 12 8 13 9 14 10 17 11 15 12
REMARK SMILES IDX 16 13 11 14 9 15 10 16 8 18 3 19 4 20 5 21 6 22 7 23 2 24
REMARK SMILES IDX 1 25 24 26 25 27 26 28 27 29 28 31 29 32 30 33 82 34 31 35
REMARK SMILES IDX 81 36 32 37 33 38 34 39 75 40 35 41 80 42 74 43 76 44 36 45
REMARK SMILES IDX 79 46 73 47 72 48 37 50 63 51 46 52 62 53 47 54 50 55 61 56
REMARK SMILES IDX 77 57 48 58 49 59 60 61 78 62 51 63 38 64 39 65 44 66 40 67
REMARK SMILES IDX 41 68 43 69 45 70 42 71 64 72 65 73 70 74 66 75 67 76 69 77
REMARK SMILES IDX 71 78 68 79 52 80 53 81 58 82 54 83 55 84 57 85 59 86 56 87
REMARK H PARENT 21 6 11 17 26 30 76 49 50 60
REMARK Flexibility Score: inf
ROOT
ATOM      1  C   UNL A   1      31.750  28.899  27.304  1.00  0.00     0.023 C 
ENDROOT
BRANCH   1   2
ATOM      2  C   UNL A   1      32.325  27.832  26.381  1.00  0.00     0.116 C 
BRANCH   2   3
ATOM      3  N   UNL A   1      33.091  28.293  25.250  1.00  0.00    -0.352 N 
ATOM      4  C   UNL A   1      33.808  27.630  24.282  1.00  0.00     0.253 C 
ATOM      5  O   UNL A   1      34.312  28.357  23.418  1.00  0.00    -0.269 OA
ATOM      6  H   UNL A   1      33.102  29.272  25.151  1.00  0.00     0.163 HD
BRANCH   4   7
ATOM      7  C   UNL A   1      34.076  26.148  24.185  1.00  0.00     0.063 A 
ATOM      8  C   UNL A   1      33.780  25.239  23.148  1.00  0.00     0.055 A 
ATOM      9  C   UNL A   1      34.217  23.900  23.215  1.00  0.00     0.047 A 
ATOM     10  C   UNL A   1      34.880  23.425  24.343  1.00  0.00     0.043 A 
ATOM     11  C   UNL A   1      34.722  25.616  25.328  1.00  0.00     0.017 A 
ATOM     12  Cl  UNL A   1      35.384  21.785  24.413  1.00  0.00    -0.084 Cl
ATOM     13  C   UNL A   1      35.112  24.273  25.414  1.00  0.00     0.021 A 
BRANCH   8  14
ATOM     14  N   UNL A   1      33.207  25.618  21.942  1.00  0.00    -0.321 N 
ATOM     15  C   UNL A   1      31.927  26.020  21.619  1.00  0.00     0.261 C 
ATOM     16  O   UNL A   1      31.706  26.060  20.404  1.00  0.00    -0.269 OA
ATOM     17  H   UNL A   1      33.826  25.595  21.178  1.00  0.00     0.170 HD
BRANCH  15  18
ATOM     18  C   UNL A   1      30.928  26.533  22.568  1.00  0.00     0.105 A 
ATOM     19  C   UNL A   1      30.297  25.707  23.580  1.00  0.00     0.096 A 
ATOM     20  N   UNL A   1      29.520  26.427  24.392  1.00  0.00    -0.084 NA
ATOM     21  O   UNL A   1      29.483  27.676  23.856  1.00  0.00    -0.361 OA
ATOM     22  C   UNL A   1      30.239  27.732  22.725  1.00  0.00     0.146 A 
ATOM     23  C   UNL A   1      30.047  29.022  22.038  1.00  0.00     0.092 C 
BRANCH  19  24
ATOM     24  C   UNL A   1      30.358  24.223  23.782  1.00  0.00     0.057 C 
ATOM     25  C   UNL A   1      30.978  23.820  25.121  1.00  0.00     0.011 C 
ENDBRANCH  19  24
ENDBRANCH  15  18
ENDBRANCH   8  14
ENDBRANCH   4   7
ENDBRANCH   2   3
ENDBRANCH   1   2
BRANCH   1  26
ATOM     26  C   UNL A   1      31.606  30.309  26.735  1.00  0.00     0.023 C 
BRANCH  26  27
ATOM     27  C   UNL A   1      32.757  31.281  26.980  1.00  0.00     0.116 C 
BRANCH  27  28
ATOM     28  N   UNL A   1      32.344  32.636  27.321  1.00  0.00    -0.352 N 
ATOM     29  C   UNL A   1      32.977  33.621  28.045  1.00  0.00     0.251 C 
ATOM     30  H   UNL A   1      31.459  32.891  26.974  1.00  0.00     0.163 HD
ATOM     31  O   UNL A   1      32.402  34.689  28.248  1.00  0.00    -0.269 OA
BRANCH  29  32
ATOM     32  C   UNL A   1      34.315  33.397  28.636  1.00  0.00     0.039 A 
ATOM     33  C   UNL A   1      34.403  32.704  29.848  1.00  0.00     0.014 A 
ATOM     34  C   UNL A   1      35.479  33.845  28.012  1.00  0.00     0.014 A 
ATOM     35  C   UNL A   1      35.654  32.353  30.364  1.00  0.00     0.010 A 
ATOM     36  C   UNL A   1      36.722  33.415  28.473  1.00  0.00     0.010 A 
ATOM     37  C   UNL A   1      36.822  32.647  29.644  1.00  0.00    -0.014 A 
BRANCH  37  38
ATOM     38  C   UNL A   1      38.148  32.121  30.067  1.00  0.00     0.031 A 
ATOM     39  C   UNL A   1      38.667  30.820  29.524  1.00  0.00     0.074 A 
ATOM     40  C   UNL A   1      38.838  32.766  31.030  1.00  0.00     0.049 A 
ATOM     41  N   UNL A   1      39.748  30.158  29.853  1.00  0.00    -0.248 NA
ATOM     42  C   UNL A   1      37.844  30.155  28.502  1.00  0.00     0.031 C 
ATOM     43  C   UNL A   1      38.411  33.994  31.701  1.00  0.00     0.029 A 
ATOM     44  N   UNL A   1      40.037  32.462  31.628  1.00  0.00    -0.354 N 
ATOM     45  C   UNL A   1      39.717  28.987  29.108  1.00  0.00     0.074 A 
ATOM     46  C   UNL A   1      38.488  29.009  28.342  1.00  0.00     0.031 C 
ATOM     47  C   UNL A   1      39.337  34.348  32.606  1.00  0.00     0.029 A 
ATOM     48  C   UNL A   1      40.405  33.354  32.606  1.00  0.00     0.049 A 
ATOM     49  H   UNL A   1      40.580  31.679  31.380  1.00  0.00     0.167 HD
ATOM     50  C   UNL A   1      40.636  27.993  29.050  1.00  0.00     0.037 A 
ATOM     51  C   UNL A   1      41.477  33.370  33.420  1.00  0.00     0.037 A 
ATOM     52  C   UNL A   1      41.876  27.993  29.778  1.00  0.00     0.049 A 
ATOM     53  C   UNL A   1      42.507  32.283  33.306  1.00  0.00     0.074 A 
ATOM     54  C   UNL A   1      42.921  27.088  29.702  1.00  0.00     0.029 A 
ATOM     55  N   UNL A   1      42.240  28.943  30.721  1.00  0.00    -0.354 N 
ATOM     56  N   UNL A   1      42.511  31.231  32.525  1.00  0.00    -0.248 NA
ATOM     57  C   UNL A   1      43.684  32.390  34.180  1.00  0.00     0.031 C 
ATOM     58  C   UNL A   1      43.897  27.466  30.631  1.00  0.00     0.029 A 
ATOM     59  C   UNL A   1      43.479  28.631  31.255  1.00  0.00     0.049 A 
ATOM     60  H   UNL A   1      41.696  29.723  30.975  1.00  0.00     0.167 HD
ATOM     61  C   UNL A   1      43.694  30.557  32.801  1.00  0.00     0.074 A 
ATOM     62  C   UNL A   1      44.390  31.329  33.810  1.00  0.00     0.031 C 
ATOM     63  C   UNL A   1      44.159  29.401  32.266  1.00  0.00     0.037 A 
BRANCH  50  64
ATOM     64  C   UNL A   1      40.326  26.822  28.163  1.00  0.00     0.057 A 
ATOM     65  C   UNL A   1      39.485  25.780  28.577  1.00  0.00     0.134 A 
ATOM     66  C   UNL A   1      40.867  26.740  26.874  1.00  0.00     0.134 A 
ATOM     67  F   UNL A   1      38.942  25.791  29.804  1.00  0.00    -0.206 F 
ATOM     68  C   UNL A   1      39.225  24.681  27.756  1.00  0.00     0.040 A 
ATOM     69  C   UNL A   1      40.592  25.660  26.034  1.00  0.00     0.040 A 
ATOM     70  F   UNL A   1      41.674  27.707  26.411  1.00  0.00    -0.206 F 
ATOM     71  C   UNL A   1      39.777  24.621  26.479  1.00  0.00     0.006 A 
ENDBRANCH  50  64
BRANCH  51  72
ATOM     72  C   UNL A   1      41.634  34.471  34.403  1.00  0.00     0.057 A 
ATOM     73  C   UNL A   1      42.203  35.694  34.029  1.00  0.00     0.134 A 
ATOM     74  C   UNL A   1      41.196  34.338  35.725  1.00  0.00     0.134 A 
ATOM     75  F   UNL A   1      42.657  35.872  32.780  1.00  0.00    -0.206 F 
ATOM     76  C   UNL A   1      42.336  36.745  34.937  1.00  0.00     0.040 A 
ATOM     77  C   UNL A   1      41.303  35.388  36.638  1.00  0.00     0.040 A 
ATOM     78  F   UNL A   1      40.633  33.194  36.140  1.00  0.00    -0.206 F 
ATOM     79  C   UNL A   1      41.878  36.595  36.245  1.00  0.00     0.006 A 
ENDBRANCH  51  72
BRANCH  63  80
ATOM     80  C   UNL A   1      45.487  28.906  32.754  1.00  0.00     0.057 A 
ATOM     81  C   UNL A   1      46.688  29.319  32.165  1.00  0.00     0.134 A 
ATOM     82  C   UNL A   1      45.568  28.039  33.851  1.00  0.00     0.134 A 
ATOM     83  F   UNL A   1      46.679  30.138  31.103  1.00  0.00    -0.206 F 
ATOM     84  C   UNL A   1      47.923  28.873  32.639  1.00  0.00     0.040 A 
ATOM     85  C   UNL A   1      46.796  27.605  34.349  1.00  0.00     0.040 A 
ATOM     86  F   UNL A   1      44.454  27.611  34.464  1.00  0.00    -0.206 F 
ATOM     87  C   UNL A   1      47.980  28.019  33.739  1.00  0.00     0.006 A 
ENDBRANCH  63  80
ENDBRANCH  37  38
ENDBRANCH  29  32
ENDBRANCH  27  28
ENDBRANCH  26  27
ENDBRANCH   1  26
TORSDOF 14
ENDMDL
