MODEL 1
REMARK VINA RESULT:     -11.9      0.000      0.000
REMARK SMILES Cc1nc(C)c(C(=O)N2CCC([C@H](C)C(=O)NCCCCNC(=O)c3ccc(-c4c5nc(c(-c6c(F)cccc6F)c6ccc([nH]6)c(-c6c(F)cccc6F)c6nc(c(-c7c(F)cccc7F)c7ccc4[nH]7)C=C6)C=C5)cc3)CC2)s1
REMARK SMILES IDX 19 1 18 2 17 3 15 4 16 5 13 7 14 8 12 9 7 10 8 11 9 12 10 13
REMARK SMILES IDX 80 14 11 15 79 16 6 17 1 18 2 19 3 20 81 21 4 22 5 23 20 24
REMARK SMILES IDX 21 25 22 26 23 27 24 29 25 30 26 31 78 32 27 33 77 34 28 35
REMARK SMILES IDX 29 36 30 37 71 38 31 39 76 40 70 41 72 42 32 43 75 44 69 45
REMARK SMILES IDX 68 46 33 48 59 49 42 50 58 51 43 52 46 53 57 54 73 55 44 56
REMARK SMILES IDX 45 57 56 59 74 60 47 61 34 62 35 63 40 64 36 65 37 66 39 67
REMARK SMILES IDX 41 68 38 69 60 70 61 71 66 72 62 73 63 74 65 75 67 76 64 77
REMARK SMILES IDX 48 78 49 79 54 80 50 81 51 82 53 83 55 84 52 85
REMARK H PARENT 17 6 22 28 72 47 46 58
REMARK Flexibility Score: inf
ROOT
ATOM      1  C   UNL A   1      32.855  29.709  25.301  1.00  0.00     0.023 C 
ENDROOT
BRANCH   1   2
ATOM      2  C   UNL A   1      31.424  29.339  24.950  1.00  0.00     0.116 C 
BRANCH   2   3
ATOM      3  N   UNL A   1      31.274  28.812  23.614  1.00  0.00    -0.356 N 
ATOM      4  C   UNL A   1      30.593  27.714  23.192  1.00  0.00     0.223 C 
ATOM      5  O   UNL A   1      30.491  27.543  21.975  1.00  0.00    -0.275 OA
ATOM      6  H   UNL A   1      31.729  29.322  22.906  1.00  0.00     0.163 HD
BRANCH   4   7
ATOM      7  C   UNL A   1      29.969  26.706  24.169  1.00  0.00     0.078 C 
ATOM      8  C   UNL A   1      28.454  26.608  23.962  1.00  0.00     0.018 C 
BRANCH   7   9
ATOM      9  C   UNL A   1      30.736  25.359  24.387  1.00  0.00     0.005 C 
ATOM     10  C   UNL A   1      34.051  23.098  23.267  1.00  0.00     0.265 C 
ATOM     11  O   UNL A   1      34.071  23.201  22.038  1.00  0.00    -0.268 OA
ATOM     12  N   UNL A   1      32.903  23.476  23.967  1.00  0.00    -0.338 N 
ATOM     13  C   UNL A   1      31.604  23.162  23.411  1.00  0.00     0.120 C 
ATOM     14  C   UNL A   1      32.902  24.239  25.208  1.00  0.00     0.120 C 
ATOM     15  C   UNL A   1      30.779  24.414  23.166  1.00  0.00     0.026 C 
ATOM     16  C   UNL A   1      32.132  25.548  25.027  1.00  0.00     0.026 C 
BRANCH  10  17
ATOM     17  C   UNL A   1      35.148  22.496  24.013  1.00  0.00     0.115 A 
ATOM     18  C   UNL A   1      38.528  22.213  25.921  1.00  0.00     0.079 C 
ATOM     19  C   UNL A   1      37.190  22.103  25.281  1.00  0.00     0.091 A 
ATOM     20  N   UNL A   1      36.359  21.102  25.459  1.00  0.00    -0.246 NA
ATOM     21  S   UNL A   1      36.622  23.352  24.267  1.00  0.00    -0.113 S 
ATOM     22  C   UNL A   1      35.170  21.331  24.770  1.00  0.00     0.061 A 
ATOM     23  C   UNL A   1      34.083  20.331  24.966  1.00  0.00     0.068 C 
ENDBRANCH  10  17
ENDBRANCH   7   9
ENDBRANCH   4   7
ENDBRANCH   2   3
ENDBRANCH   1   2
BRANCH   1  24
ATOM     24  C   UNL A   1      33.649  28.613  26.000  1.00  0.00     0.023 C 
BRANCH  24  25
ATOM     25  C   UNL A   1      33.738  28.742  27.516  1.00  0.00     0.116 C 
BRANCH  25  26
ATOM     26  N   UNL A   1      33.768  30.123  27.977  1.00  0.00    -0.352 N 
ATOM     27  C   UNL A   1      34.803  30.818  28.556  1.00  0.00     0.251 C 
ATOM     28  H   UNL A   1      32.932  30.628  27.858  1.00  0.00     0.163 HD
ATOM     29  O   UNL A   1      34.625  31.943  29.014  1.00  0.00    -0.269 OA
BRANCH  27  30
ATOM     30  C   UNL A   1      36.133  30.185  28.656  1.00  0.00     0.039 A 
ATOM     31  C   UNL A   1      36.981  30.212  27.547  1.00  0.00     0.014 A 
ATOM     32  C   UNL A   1      36.555  29.608  29.856  1.00  0.00     0.014 A 
ATOM     33  C   UNL A   1      38.286  29.732  27.668  1.00  0.00     0.010 A 
ATOM     34  C   UNL A   1      37.879  29.210  29.999  1.00  0.00     0.010 A 
ATOM     35  C   UNL A   1      38.758  29.268  28.908  1.00  0.00    -0.014 A 
BRANCH  35  36
ATOM     36  C   UNL A   1      40.170  28.844  29.081  1.00  0.00     0.031 A 
ATOM     37  C   UNL A   1      41.176  29.795  29.667  1.00  0.00     0.074 A 
ATOM     38  C   UNL A   1      40.560  27.627  28.655  1.00  0.00     0.049 A 
ATOM     39  N   UNL A   1      42.463  29.633  29.842  1.00  0.00    -0.248 NA
ATOM     40  C   UNL A   1      40.675  31.114  30.085  1.00  0.00     0.031 C 
ATOM     41  C   UNL A   1      39.692  26.634  28.016  1.00  0.00     0.029 A 
ATOM     42  N   UNL A   1      41.790  27.020  28.685  1.00  0.00    -0.354 N 
ATOM     43  C   UNL A   1      42.923  30.828  30.380  1.00  0.00     0.074 A 
ATOM     44  C   UNL A   1      41.793  31.728  30.443  1.00  0.00     0.031 C 
ATOM     45  C   UNL A   1      40.412  25.536  27.736  1.00  0.00     0.029 A 
ATOM     46  C   UNL A   1      41.796  25.758  28.142  1.00  0.00     0.049 A 
ATOM     47  H   UNL A   1      42.593  27.449  29.059  1.00  0.00     0.167 HD
ATOM     48  C   UNL A   1      44.168  31.138  30.812  1.00  0.00     0.037 A 
ATOM     49  C   UNL A   1      42.805  24.881  27.984  1.00  0.00     0.037 A 
ATOM     50  C   UNL A   1      45.289  30.236  30.765  1.00  0.00     0.049 A 
ATOM     51  C   UNL A   1      44.180  25.250  28.471  1.00  0.00     0.074 A 
ATOM     52  C   UNL A   1      46.580  30.440  31.220  1.00  0.00     0.029 A 
ATOM     53  N   UNL A   1      45.247  28.956  30.234  1.00  0.00    -0.354 N 
ATOM     54  N   UNL A   1      44.586  26.359  29.039  1.00  0.00    -0.248 NA
ATOM     55  C   UNL A   1      45.235  24.240  28.303  1.00  0.00     0.031 C 
ATOM     56  C   UNL A   1      47.331  29.296  30.928  1.00  0.00     0.029 A 
ATOM     57  C   UNL A   1      46.496  28.363  30.336  1.00  0.00     0.049 A 
ATOM     58  H   UNL A   1      44.451  28.531  29.844  1.00  0.00     0.167 HD
ATOM     59  C   UNL A   1      45.933  26.171  29.322  1.00  0.00     0.074 A 
ATOM     60  C   UNL A   1      46.271  24.835  28.877  1.00  0.00     0.031 C 
ATOM     61  C   UNL A   1      46.812  27.029  29.895  1.00  0.00     0.037 A 
BRANCH  48  62
ATOM     62  C   UNL A   1      44.377  32.510  31.384  1.00  0.00     0.057 A 
ATOM     63  C   UNL A   1      44.769  33.590  30.581  1.00  0.00     0.134 A 
ATOM     64  C   UNL A   1      44.161  32.763  32.745  1.00  0.00     0.134 A 
ATOM     65  F   UNL A   1      45.005  33.413  29.272  1.00  0.00    -0.206 F 
ATOM     66  C   UNL A   1      44.964  34.865  31.114  1.00  0.00     0.040 A 
ATOM     67  C   UNL A   1      44.326  34.040  33.283  1.00  0.00     0.040 A 
ATOM     68  F   UNL A   1      43.781  31.776  33.570  1.00  0.00    -0.206 F 
ATOM     69  C   UNL A   1      44.735  35.094  32.469  1.00  0.00     0.006 A 
ENDBRANCH  48  62
BRANCH  49  70
ATOM     70  C   UNL A   1      42.553  23.559  27.358  1.00  0.00     0.057 A 
ATOM     71  C   UNL A   1      42.212  22.444  28.134  1.00  0.00     0.134 A 
ATOM     72  C   UNL A   1      42.662  23.373  25.975  1.00  0.00     0.134 A 
ATOM     73  F   UNL A   1      42.110  22.555  29.466  1.00  0.00    -0.206 F 
ATOM     74  C   UNL A   1      42.011  21.187  27.559  1.00  0.00     0.040 A 
ATOM     75  C   UNL A   1      42.439  22.128  25.384  1.00  0.00     0.040 A 
ATOM     76  F   UNL A   1      42.978  24.402  25.176  1.00  0.00    -0.206 F 
ATOM     77  C   UNL A   1      42.121  21.028  26.180  1.00  0.00     0.006 A 
ENDBRANCH  49  70
BRANCH  61  78
ATOM     78  C   UNL A   1      48.213  26.534  30.107  1.00  0.00     0.057 A 
ATOM     79  C   UNL A   1      49.220  26.733  29.153  1.00  0.00     0.134 A 
ATOM     80  C   UNL A   1      48.565  25.879  31.293  1.00  0.00     0.134 A 
ATOM     81  F   UNL A   1      48.944  27.343  27.991  1.00  0.00    -0.206 F 
ATOM     82  C   UNL A   1      50.522  26.277  29.365  1.00  0.00     0.040 A 
ATOM     83  C   UNL A   1      49.869  25.442  31.526  1.00  0.00     0.040 A 
ATOM     84  F   UNL A   1      47.650  25.663  32.251  1.00  0.00    -0.206 F 
ATOM     85  C   UNL A   1      50.851  25.635  30.556  1.00  0.00     0.006 A 
ENDBRANCH  61  78
ENDBRANCH  35  36
ENDBRANCH  27  30
ENDBRANCH  25  26
ENDBRANCH  24  25
ENDBRANCH   1  24
TORSDOF 13
ENDMDL
MODEL 2
REMARK VINA RESULT:     -11.7      2.156      7.890
REMARK SMILES Cc1nc(C)c(C(=O)N2CCC([C@H](C)C(=O)NCCCCNC(=O)c3ccc(-c4c5nc(c(-c6c(F)cccc6F)c6ccc([nH]6)c(-c6c(F)cccc6F)c6nc(c(-c7c(F)cccc7F)c7ccc4[nH]7)C=C6)C=C5)cc3)CC2)s1
REMARK SMILES IDX 19 1 18 2 17 3 15 4 16 5 13 7 14 8 12 9 7 10 8 11 9 12 10 13
REMARK SMILES IDX 80 14 11 15 79 16 6 17 1 18 2 19 3 20 81 21 4 22 5 23 20 24
REMARK SMILES IDX 21 25 22 26 23 27 24 29 25 30 26 31 78 32 27 33 77 34 28 35
REMARK SMILES IDX 29 36 30 37 71 38 31 39 76 40 70 41 72 42 32 43 75 44 69 45
REMARK SMILES IDX 68 46 33 48 59 49 42 50 58 51 43 52 46 53 57 54 73 55 44 56
REMARK SMILES IDX 45 57 56 59 74 60 47 61 34 62 35 63 40 64 36 65 37 66 39 67
REMARK SMILES IDX 41 68 38 69 60 70 61 71 66 72 62 73 63 74 65 75 67 76 64 77
REMARK SMILES IDX 48 78 49 79 54 80 50 81 51 82 53 83 55 84 52 85
REMARK H PARENT 17 6 22 28 72 47 46 58
REMARK Flexibility Score: inf
ROOT
ATOM      1  C   UNL A   1      36.274  20.387  25.114  1.00  0.00     0.023 C 
ENDROOT
BRANCH   1   2
ATOM      2  C   UNL A   1      35.442  19.180  24.714  1.00  0.00     0.116 C 
BRANCH   2   3
ATOM      3  N   UNL A   1      34.095  19.208  25.234  1.00  0.00    -0.356 N 
ATOM      4  C   UNL A   1      33.009  19.885  24.776  1.00  0.00     0.223 C 
ATOM      5  O   UNL A   1      31.923  19.639  25.307  1.00  0.00    -0.275 OA
ATOM      6  H   UNL A   1      33.941  18.656  26.034  1.00  0.00     0.163 HD
BRANCH   4   7
ATOM      7  C   UNL A   1      33.100  20.923  23.648  1.00  0.00     0.078 C 
ATOM      8  C   UNL A   1      32.069  20.635  22.552  1.00  0.00     0.018 C 
BRANCH   7   9
ATOM      9  C   UNL A   1      33.273  22.420  24.072  1.00  0.00     0.005 C 
ATOM     10  C   UNL A   1      33.180  26.373  22.759  1.00  0.00     0.265 C 
ATOM     11  O   UNL A   1      33.804  26.340  21.696  1.00  0.00    -0.268 OA
ATOM     12  N   UNL A   1      33.265  25.289  23.635  1.00  0.00    -0.338 N 
ATOM     13  C   UNL A   1      34.539  24.626  23.815  1.00  0.00     0.120 C 
ATOM     14  C   UNL A   1      32.135  24.711  24.350  1.00  0.00     0.120 C 
ATOM     15  C   UNL A   1      34.469  23.157  23.431  1.00  0.00     0.026 C 
ATOM     16  C   UNL A   1      31.964  23.238  23.973  1.00  0.00     0.026 C 
BRANCH  10  17
ATOM     17  C   UNL A   1      32.437  27.551  23.186  1.00  0.00     0.115 A 
ATOM     18  C   UNL A   1      29.486  30.064  23.532  1.00  0.00     0.079 C 
ATOM     19  C   UNL A   1      30.713  29.225  23.581  1.00  0.00     0.091 A 
ATOM     20  N   UNL A   1      31.669  29.357  24.471  1.00  0.00    -0.246 NA
ATOM     21  S   UNL A   1      30.930  27.961  22.457  1.00  0.00    -0.113 S 
ATOM     22  C   UNL A   1      32.646  28.381  24.282  1.00  0.00     0.061 A 
ATOM     23  C   UNL A   1      33.744  28.332  25.286  1.00  0.00     0.068 C 
ENDBRANCH  10  17
ENDBRANCH   7   9
ENDBRANCH   4   7
ENDBRANCH   2   3
ENDBRANCH   1   2
BRANCH   1  24
ATOM     24  C   UNL A   1      37.729  20.341  24.666  1.00  0.00     0.023 C 
BRANCH  24  25
ATOM     25  C   UNL A   1      38.757  20.494  25.780  1.00  0.00     0.116 C 
BRANCH  25  26
ATOM     26  N   UNL A   1      39.794  19.470  25.755  1.00  0.00    -0.352 N 
ATOM     27  C   UNL A   1      41.129  19.586  26.059  1.00  0.00     0.251 C 
ATOM     28  H   UNL A   1      39.497  18.573  25.482  1.00  0.00     0.163 HD
ATOM     29  O   UNL A   1      41.901  18.654  25.857  1.00  0.00    -0.269 OA
BRANCH  27  30
ATOM     30  C   UNL A   1      41.639  20.861  26.602  1.00  0.00     0.039 A 
ATOM     31  C   UNL A   1      42.138  21.821  25.719  1.00  0.00     0.014 A 
ATOM     32  C   UNL A   1      41.580  21.122  27.973  1.00  0.00     0.014 A 
ATOM     33  C   UNL A   1      42.502  23.077  26.204  1.00  0.00     0.010 A 
ATOM     34  C   UNL A   1      41.862  22.400  28.442  1.00  0.00     0.010 A 
ATOM     35  C   UNL A   1      42.325  23.390  27.563  1.00  0.00    -0.014 A 
BRANCH  35  36
ATOM     36  C   UNL A   1      42.616  24.751  28.082  1.00  0.00     0.031 A 
ATOM     37  C   UNL A   1      44.012  25.113  28.505  1.00  0.00     0.074 A 
ATOM     38  C   UNL A   1      41.614  25.638  28.230  1.00  0.00     0.049 A 
ATOM     39  N   UNL A   1      44.453  26.225  29.038  1.00  0.00    -0.248 NA
ATOM     40  C   UNL A   1      45.046  24.079  28.334  1.00  0.00     0.031 C 
ATOM     41  C   UNL A   1      40.206  25.388  27.911  1.00  0.00     0.029 A 
ATOM     42  N   UNL A   1      41.623  26.928  28.698  1.00  0.00    -0.354 N 
ATOM     43  C   UNL A   1      45.807  26.020  29.271  1.00  0.00     0.074 A 
ATOM     44  C   UNL A   1      46.102  24.658  28.883  1.00  0.00     0.031 C 
ATOM     45  C   UNL A   1      39.492  26.496  28.171  1.00  0.00     0.029 A 
ATOM     46  C   UNL A   1      40.383  27.521  28.707  1.00  0.00     0.049 A 
ATOM     47  H   UNL A   1      42.440  27.386  29.000  1.00  0.00     0.167 HD
ATOM     48  C   UNL A   1      46.727  26.896  29.738  1.00  0.00     0.037 A 
ATOM     49  C   UNL A   1      40.006  28.750  29.106  1.00  0.00     0.037 A 
ATOM     50  C   UNL A   1      46.435  28.256  30.106  1.00  0.00     0.049 A 
ATOM     51  C   UNL A   1      41.048  29.704  29.622  1.00  0.00     0.074 A 
ATOM     52  C   UNL A   1      47.307  29.236  30.547  1.00  0.00     0.029 A 
ATOM     53  N   UNL A   1      45.172  28.827  30.074  1.00  0.00    -0.354 N 
ATOM     54  N   UNL A   1      42.337  29.519  29.775  1.00  0.00    -0.248 NA
ATOM     55  C   UNL A   1      40.584  31.043  30.013  1.00  0.00     0.031 C 
ATOM     56  C   UNL A   1      46.565  30.391  30.818  1.00  0.00     0.029 A 
ATOM     57  C   UNL A   1      45.239  30.144  30.502  1.00  0.00     0.049 A 
ATOM     58  H   UNL A   1      44.350  28.367  29.789  1.00  0.00     0.167 HD
ATOM     59  C   UNL A   1      42.841  30.722  30.251  1.00  0.00     0.074 A 
ATOM     60  C   UNL A   1      41.721  31.636  30.346  1.00  0.00     0.031 C 
ATOM     61  C   UNL A   1      44.116  31.041  30.582  1.00  0.00     0.037 A 
BRANCH  48  62
ATOM     62  C   UNL A   1      48.141  26.408  29.862  1.00  0.00     0.057 A 
ATOM     63  C   UNL A   1      49.063  26.552  28.816  1.00  0.00     0.134 A 
ATOM     64  C   UNL A   1      48.596  25.811  31.045  1.00  0.00     0.134 A 
ATOM     65  F   UNL A   1      48.688  27.103  27.651  1.00  0.00    -0.206 F 
ATOM     66  C   UNL A   1      50.377  26.097  28.932  1.00  0.00     0.040 A 
ATOM     67  C   UNL A   1      49.916  25.378  31.182  1.00  0.00     0.040 A 
ATOM     68  F   UNL A   1      47.768  25.646  32.087  1.00  0.00    -0.206 F 
ATOM     69  C   UNL A   1      50.809  25.514  30.121  1.00  0.00     0.006 A 
ENDBRANCH  48  62
BRANCH  49  70
ATOM     70  C   UNL A   1      38.583  29.160  29.015  1.00  0.00     0.057 A 
ATOM     71  C   UNL A   1      38.040  29.629  27.813  1.00  0.00     0.134 A 
ATOM     72  C   UNL A   1      37.735  29.109  30.128  1.00  0.00     0.134 A 
ATOM     73  F   UNL A   1      38.807  29.717  26.716  1.00  0.00    -0.206 F 
ATOM     74  C   UNL A   1      36.713  30.054  27.725  1.00  0.00     0.040 A 
ATOM     75  C   UNL A   1      36.399  29.507  30.049  1.00  0.00     0.040 A 
ATOM     76  F   UNL A   1      38.190  28.662  31.307  1.00  0.00    -0.206 F 
ATOM     77  C   UNL A   1      35.887  29.990  28.845  1.00  0.00     0.006 A 
ENDBRANCH  49  70
BRANCH  61  78
ATOM     78  C   UNL A   1      44.372  32.447  31.043  1.00  0.00     0.057 A 
ATOM     79  C   UNL A   1      44.342  32.798  32.398  1.00  0.00     0.134 A 
ATOM     80  C   UNL A   1      44.686  33.452  30.120  1.00  0.00     0.134 A 
ATOM     81  F   UNL A   1      44.036  31.884  33.331  1.00  0.00    -0.206 F 
ATOM     82  C   UNL A   1      44.591  34.106  32.817  1.00  0.00     0.040 A 
ATOM     83  C   UNL A   1      44.963  34.757  30.528  1.00  0.00     0.040 A 
ATOM     84  F   UNL A   1      44.740  33.180  28.807  1.00  0.00    -0.206 F 
ATOM     85  C   UNL A   1      44.909  35.088  31.881  1.00  0.00     0.006 A 
ENDBRANCH  61  78
ENDBRANCH  35  36
ENDBRANCH  27  30
ENDBRANCH  25  26
ENDBRANCH  24  25
ENDBRANCH   1  24
TORSDOF 13
ENDMDL
MODEL 3
REMARK VINA RESULT:     -11.7      3.388      4.842
REMARK SMILES Cc1nc(C)c(C(=O)N2CCC([C@H](C)C(=O)NCCCCNC(=O)c3ccc(-c4c5nc(c(-c6c(F)cccc6F)c6ccc([nH]6)c(-c6c(F)cccc6F)c6nc(c(-c7c(F)cccc7F)c7ccc4[nH]7)C=C6)C=C5)cc3)CC2)s1
REMARK SMILES IDX 19 1 18 2 17 3 15 4 16 5 13 7 14 8 12 9 7 10 8 11 9 12 10 13
REMARK SMILES IDX 80 14 11 15 79 16 6 17 1 18 2 19 3 20 81 21 4 22 5 23 20 24
REMARK SMILES IDX 21 25 22 26 23 27 24 29 25 30 26 31 78 32 27 33 77 34 28 35
REMARK SMILES IDX 29 36 30 37 71 38 31 39 76 40 70 41 72 42 32 43 75 44 69 45
REMARK SMILES IDX 68 46 33 48 59 49 42 50 58 51 43 52 46 53 57 54 73 55 44 56
REMARK SMILES IDX 45 57 56 59 74 60 47 61 34 62 35 63 40 64 36 65 37 66 39 67
REMARK SMILES IDX 41 68 38 69 60 70 61 71 66 72 62 73 63 74 65 75 67 76 64 77
REMARK SMILES IDX 48 78 49 79 54 80 50 81 51 82 53 83 55 84 52 85
REMARK H PARENT 17 6 22 28 72 47 46 58
REMARK Flexibility Score: inf
ROOT
ATOM      1  C   UNL A   1      31.526  30.604  26.344  1.00  0.00     0.023 C 
ENDROOT
BRANCH   1   2
ATOM      2  C   UNL A   1      32.936  30.095  26.097  1.00  0.00     0.116 C 
BRANCH   2   3
ATOM      3  N   UNL A   1      33.196  29.757  24.718  1.00  0.00    -0.356 N 
ATOM      4  C   UNL A   1      32.557  28.866  23.914  1.00  0.00     0.223 C 
ATOM      5  O   UNL A   1      32.871  28.853  22.721  1.00  0.00    -0.275 OA
ATOM      6  H   UNL A   1      33.942  30.242  24.298  1.00  0.00     0.163 HD
BRANCH   4   7
ATOM      7  C   UNL A   1      31.485  27.901  24.442  1.00  0.00     0.078 C 
ATOM      8  C   UNL A   1      30.143  28.133  23.740  1.00  0.00     0.018 C 
BRANCH   7   9
ATOM      9  C   UNL A   1      31.916  26.411  24.658  1.00  0.00     0.005 C 
ATOM     10  C   UNL A   1      34.433  23.360  23.349  1.00  0.00     0.265 C 
ATOM     11  O   UNL A   1      34.346  23.420  22.120  1.00  0.00    -0.268 OA
ATOM     12  N   UNL A   1      33.494  24.033  24.134  1.00  0.00    -0.338 N 
ATOM     13  C   UNL A   1      32.106  24.040  23.724  1.00  0.00     0.120 C 
ATOM     14  C   UNL A   1      33.814  24.808  25.326  1.00  0.00     0.120 C 
ATOM     15  C   UNL A   1      31.594  25.452  23.492  1.00  0.00     0.026 C 
ATOM     16  C   UNL A   1      33.375  26.262  25.149  1.00  0.00     0.026 C 
BRANCH  10  17
ATOM     17  C   UNL A   1      35.420  22.524  24.017  1.00  0.00     0.115 A 
ATOM     18  C   UNL A   1      38.737  21.518  25.787  1.00  0.00     0.079 C 
ATOM     19  C   UNL A   1      37.388  21.691  25.187  1.00  0.00     0.091 A 
ATOM     20  N   UNL A   1      36.395  20.843  25.331  1.00  0.00    -0.246 NA
ATOM     21  S   UNL A   1      37.029  23.086  24.274  1.00  0.00    -0.113 S 
ATOM     22  C   UNL A   1      35.250  21.325  24.699  1.00  0.00     0.061 A 
ATOM     23  C   UNL A   1      34.006  20.523  24.869  1.00  0.00     0.068 C 
ENDBRANCH  10  17
ENDBRANCH   7   9
ENDBRANCH   4   7
ENDBRANCH   2   3
ENDBRANCH   1   2
BRANCH   1  24
ATOM     24  C   UNL A   1      31.409  32.113  26.521  1.00  0.00     0.023 C 
BRANCH  24  25
ATOM     25  C   UNL A   1      32.556  32.768  27.282  1.00  0.00     0.116 C 
BRANCH  25  26
ATOM     26  N   UNL A   1      32.297  34.158  27.632  1.00  0.00    -0.352 N 
ATOM     27  C   UNL A   1      32.952  34.957  28.539  1.00  0.00     0.251 C 
ATOM     28  H   UNL A   1      31.550  34.584  27.153  1.00  0.00     0.163 HD
ATOM     29  O   UNL A   1      32.523  36.072  28.817  1.00  0.00    -0.269 OA
BRANCH  27  30
ATOM     30  C   UNL A   1      34.164  34.445  29.209  1.00  0.00     0.039 A 
ATOM     31  C   UNL A   1      34.031  33.767  30.423  1.00  0.00     0.014 A 
ATOM     32  C   UNL A   1      35.419  34.596  28.615  1.00  0.00     0.014 A 
ATOM     33  C   UNL A   1      35.152  33.168  31.000  1.00  0.00     0.010 A 
ATOM     34  C   UNL A   1      36.516  33.927  29.146  1.00  0.00     0.010 A 
ATOM     35  C   UNL A   1      36.394  33.206  30.343  1.00  0.00    -0.014 A 
BRANCH  35  36
ATOM     36  C   UNL A   1      37.575  32.494  30.893  1.00  0.00     0.031 A 
ATOM     37  C   UNL A   1      38.241  32.994  32.144  1.00  0.00     0.074 A 
ATOM     38  C   UNL A   1      38.085  31.437  30.232  1.00  0.00     0.049 A 
ATOM     39  N   UNL A   1      39.316  32.548  32.744  1.00  0.00    -0.248 NA
ATOM     40  C   UNL A   1      37.637  34.169  32.792  1.00  0.00     0.031 C 
ATOM     41  C   UNL A   1      37.565  30.891  28.976  1.00  0.00     0.029 A 
ATOM     42  N   UNL A   1      39.163  30.638  30.519  1.00  0.00    -0.354 N 
ATOM     43  C   UNL A   1      39.518  33.390  33.830  1.00  0.00     0.074 A 
ATOM     44  C   UNL A   1      38.496  34.411  33.770  1.00  0.00     0.031 C 
ATOM     45  C   UNL A   1      38.310  29.833  28.614  1.00  0.00     0.029 A 
ATOM     46  C   UNL A   1      39.379  29.648  29.591  1.00  0.00     0.049 A 
ATOM     47  H   UNL A   1      39.728  30.761  31.315  1.00  0.00     0.167 HD
ATOM     48  C   UNL A   1      40.453  33.303  34.806  1.00  0.00     0.037 A 
ATOM     49  C   UNL A   1      40.334  28.702  29.531  1.00  0.00     0.037 A 
ATOM     50  C   UNL A   1      41.458  32.276  34.873  1.00  0.00     0.049 A 
ATOM     51  C   UNL A   1      41.362  28.627  30.627  1.00  0.00     0.074 A 
ATOM     52  C   UNL A   1      42.422  32.075  35.846  1.00  0.00     0.029 A 
ATOM     53  N   UNL A   1      41.626  31.274  33.929  1.00  0.00    -0.354 N 
ATOM     54  N   UNL A   1      41.501  29.390  31.684  1.00  0.00    -0.248 NA
ATOM     55  C   UNL A   1      42.360  27.553  30.526  1.00  0.00     0.031 C 
ATOM     56  C   UNL A   1      43.198  30.973  35.471  1.00  0.00     0.029 A 
ATOM     57  C   UNL A   1      42.689  30.461  34.289  1.00  0.00     0.049 A 
ATOM     58  H   UNL A   1      41.074  31.158  33.123  1.00  0.00     0.167 HD
ATOM     59  C   UNL A   1      42.581  28.873  32.387  1.00  0.00     0.074 A 
ATOM     60  C   UNL A   1      43.050  27.721  31.645  1.00  0.00     0.031 C 
ATOM     61  C   UNL A   1      43.137  29.313  33.542  1.00  0.00     0.037 A 
BRANCH  48  62
ATOM     62  C   UNL A   1      40.419  34.344  35.886  1.00  0.00     0.057 A 
ATOM     63  C   UNL A   1      41.136  35.543  35.775  1.00  0.00     0.134 A 
ATOM     64  C   UNL A   1      39.643  34.161  37.038  1.00  0.00     0.134 A 
ATOM     65  F   UNL A   1      41.909  35.775  34.703  1.00  0.00    -0.206 F 
ATOM     66  C   UNL A   1      41.105  36.510  36.780  1.00  0.00     0.040 A 
ATOM     67  C   UNL A   1      39.582  35.134  38.037  1.00  0.00     0.040 A 
ATOM     68  F   UNL A   1      38.928  33.039  37.208  1.00  0.00    -0.206 F 
ATOM     69  C   UNL A   1      40.320  36.309  37.913  1.00  0.00     0.006 A 
ENDBRANCH  48  62
BRANCH  49  70
ATOM     70  C   UNL A   1      40.354  27.732  28.407  1.00  0.00     0.057 A 
ATOM     71  C   UNL A   1      39.691  26.503  28.500  1.00  0.00     0.134 A 
ATOM     72  C   UNL A   1      41.048  28.003  27.221  1.00  0.00     0.134 A 
ATOM     73  F   UNL A   1      39.024  26.179  29.617  1.00  0.00    -0.206 F 
ATOM     74  C   UNL A   1      39.736  25.568  27.464  1.00  0.00     0.040 A 
ATOM     75  C   UNL A   1      41.081  27.088  26.168  1.00  0.00     0.040 A 
ATOM     76  F   UNL A   1      41.697  29.165  27.066  1.00  0.00    -0.206 F 
ATOM     77  C   UNL A   1      40.430  25.861  26.292  1.00  0.00     0.006 A 
ENDBRANCH  49  70
BRANCH  61  78
ATOM     78  C   UNL A   1      44.290  28.525  34.092  1.00  0.00     0.057 A 
ATOM     79  C   UNL A   1      44.099  27.425  34.937  1.00  0.00     0.134 A 
ATOM     80  C   UNL A   1      45.606  28.854  33.743  1.00  0.00     0.134 A 
ATOM     81  F   UNL A   1      42.864  27.067  35.318  1.00  0.00    -0.206 F 
ATOM     82  C   UNL A   1      45.179  26.694  35.435  1.00  0.00     0.040 A 
ATOM     83  C   UNL A   1      46.692  28.114  34.213  1.00  0.00     0.040 A 
ATOM     84  F   UNL A   1      45.858  29.891  32.930  1.00  0.00    -0.206 F 
ATOM     85  C   UNL A   1      46.479  27.034  35.068  1.00  0.00     0.006 A 
ENDBRANCH  61  78
ENDBRANCH  35  36
ENDBRANCH  27  30
ENDBRANCH  25  26
ENDBRANCH  24  25
ENDBRANCH   1  24
TORSDOF 13
ENDMDL
