MODEL 1
REMARK VINA RESULT:     -11.3      0.000      0.000
REMARK SMILES CCC1CN(c2cccc(F)c2C(=O)NCCCCNC(=O)c2ccc(-c3c4nc(c(-c5c(F)cccc5F)c5ccc([nH]5)c(-c5c(F)cccc5F)c5nc(c(-c6c(F)cccc6F)c6ccc3[nH]6)C=C5)C=C4)cc2)C1
REMARK SMILES IDX 17 1 16 2 15 3 13 4 14 5 12 7 6 8 7 9 8 10 10 11 9 12 11 13
REMARK SMILES IDX 5 14 3 15 4 16 77 17 2 18 1 19 18 20 19 21 20 22 21 23 22 25
REMARK SMILES IDX 23 26 24 27 76 28 25 29 75 30 26 31 27 32 28 33 69 34 29 35
REMARK SMILES IDX 74 36 68 37 70 38 30 39 73 40 67 41 66 42 31 44 57 45 40 46
REMARK SMILES IDX 56 47 41 48 44 49 55 50 71 51 42 52 43 53 54 55 72 56 45 57
REMARK SMILES IDX 32 58 33 59 38 60 34 61 35 62 37 63 39 64 36 65 58 66 59 67
REMARK SMILES IDX 64 68 60 69 61 70 63 71 65 72 62 73 46 74 47 75 52 76 48 77
REMARK SMILES IDX 49 78 51 79 53 80 50 81
REMARK H PARENT 15 6 20 24 70 43 44 54
REMARK Flexibility Score: inf
ROOT
ATOM      1  C   UNL A   1      36.490  20.527  25.008  1.00  0.00     0.023 C 
ENDROOT
BRANCH   1   2
ATOM      2  C   UNL A   1      36.466  21.887  25.698  1.00  0.00     0.116 C 
BRANCH   2   3
ATOM      3  N   UNL A   1      35.404  22.073  26.674  1.00  0.00    -0.352 N 
ATOM      4  C   UNL A   1      34.040  21.853  26.586  1.00  0.00     0.256 C 
ATOM      5  O   UNL A   1      33.408  21.887  27.641  1.00  0.00    -0.269 OA
ATOM      6  H   UNL A   1      35.708  22.411  27.547  1.00  0.00     0.163 HD
BRANCH   4   7
ATOM      7  C   UNL A   1      33.345  21.629  25.284  1.00  0.00     0.098 A 
ATOM      8  C   UNL A   1      33.048  22.696  24.403  1.00  0.00     0.053 A 
ATOM      9  C   UNL A   1      32.480  22.398  23.144  1.00  0.00     0.027 A 
ATOM     10  C   UNL A   1      32.153  21.096  22.774  1.00  0.00     0.005 A 
ATOM     11  C   UNL A   1      32.874  20.355  24.944  1.00  0.00     0.138 A 
ATOM     12  C   UNL A   1      32.318  20.076  23.696  1.00  0.00     0.040 A 
ATOM     13  F   UNL A   1      32.892  19.348  25.832  1.00  0.00    -0.206 F 
BRANCH   8  14
ATOM     14  N   UNL A   1      33.169  24.053  24.738  1.00  0.00    -0.370 N 
ATOM     15  C   UNL A   1      33.642  25.790  25.734  1.00  0.00     0.028 C 
ATOM     16  C   UNL A   1      32.368  24.941  25.507  1.00  0.00     0.122 C 
ATOM     17  C   UNL A   1      34.316  24.897  24.682  1.00  0.00     0.122 C 
BRANCH  15  18
ATOM     18  C   UNL A   1      33.638  27.306  25.564  1.00  0.00     0.004 C 
ATOM     19  C   UNL A   1      33.634  28.083  26.868  1.00  0.00     0.004 C 
ENDBRANCH  15  18
ENDBRANCH   8  14
ENDBRANCH   4   7
ENDBRANCH   2   3
ENDBRANCH   1   2
BRANCH   1  20
ATOM     20  C   UNL A   1      37.854  19.887  24.769  1.00  0.00     0.023 C 
BRANCH  20  21
ATOM     21  C   UNL A   1      38.972  20.266  25.734  1.00  0.00     0.116 C 
BRANCH  21  22
ATOM     22  N   UNL A   1      40.079  19.323  25.759  1.00  0.00    -0.352 N 
ATOM     23  C   UNL A   1      41.396  19.504  26.120  1.00  0.00     0.251 C 
ATOM     24  H   UNL A   1      39.851  18.409  25.472  1.00  0.00     0.163 HD
ATOM     25  O   UNL A   1      42.192  18.581  26.001  1.00  0.00    -0.269 OA
BRANCH  23  26
ATOM     26  C   UNL A   1      41.871  20.819  26.611  1.00  0.00     0.039 A 
ATOM     27  C   UNL A   1      42.248  21.788  25.675  1.00  0.00     0.014 A 
ATOM     28  C   UNL A   1      41.952  21.106  27.975  1.00  0.00     0.014 A 
ATOM     29  C   UNL A   1      42.619  23.066  26.104  1.00  0.00     0.010 A 
ATOM     30  C   UNL A   1      42.240  22.402  28.398  1.00  0.00     0.010 A 
ATOM     31  C   UNL A   1      42.575  23.397  27.468  1.00  0.00    -0.014 A 
BRANCH  31  32
ATOM     32  C   UNL A   1      42.867  24.777  27.935  1.00  0.00     0.031 A 
ATOM     33  C   UNL A   1      44.279  25.200  28.229  1.00  0.00     0.074 A 
ATOM     34  C   UNL A   1      41.852  25.633  28.164  1.00  0.00     0.049 A 
ATOM     35  N   UNL A   1      44.721  26.341  28.697  1.00  0.00    -0.248 NA
ATOM     36  C   UNL A   1      45.333  24.200  27.996  1.00  0.00     0.031 C 
ATOM     37  C   UNL A   1      40.432  25.329  27.979  1.00  0.00     0.029 A 
ATOM     38  N   UNL A   1      41.857  26.931  28.611  1.00  0.00    -0.354 N 
ATOM     39  C   UNL A   1      46.094  26.187  28.834  1.00  0.00     0.074 A 
ATOM     40  C   UNL A   1      46.408  24.828  28.450  1.00  0.00     0.031 C 
ATOM     41  C   UNL A   1      39.707  26.417  28.279  1.00  0.00     0.029 A 
ATOM     42  C   UNL A   1      40.603  27.485  28.711  1.00  0.00     0.049 A 
ATOM     43  H   UNL A   1      42.681  27.420  28.838  1.00  0.00     0.167 HD
ATOM     44  C   UNL A   1      47.013  27.102  29.222  1.00  0.00     0.037 A 
ATOM     45  C   UNL A   1      40.216  28.714  29.105  1.00  0.00     0.037 A 
ATOM     46  C   UNL A   1      46.704  28.465  29.566  1.00  0.00     0.049 A 
ATOM     47  C   UNL A   1      41.254  29.723  29.505  1.00  0.00     0.074 A 
ATOM     48  C   UNL A   1      47.577  29.489  29.889  1.00  0.00     0.029 A 
ATOM     49  N   UNL A   1      45.423  28.993  29.634  1.00  0.00    -0.354 N 
ATOM     50  N   UNL A   1      42.556  29.586  29.560  1.00  0.00    -0.248 NA
ATOM     51  C   UNL A   1      40.772  31.056  29.892  1.00  0.00     0.031 C 
ATOM     52  C   UNL A   1      46.823  30.624  30.197  1.00  0.00     0.029 A 
ATOM     53  C   UNL A   1      45.482  30.322  30.017  1.00  0.00     0.049 A 
ATOM     54  H   UNL A   1      44.597  28.496  29.439  1.00  0.00     0.167 HD
ATOM     55  C   UNL A   1      43.052  30.817  29.970  1.00  0.00     0.074 A 
ATOM     56  C   UNL A   1      41.910  31.693  30.136  1.00  0.00     0.031 C 
ATOM     57  C   UNL A   1      44.339  31.184  30.184  1.00  0.00     0.037 A 
BRANCH  44  58
ATOM     58  C   UNL A   1      48.448  26.662  29.285  1.00  0.00     0.057 A 
ATOM     59  C   UNL A   1      49.296  26.833  28.183  1.00  0.00     0.134 A 
ATOM     60  C   UNL A   1      48.980  26.033  30.418  1.00  0.00     0.134 A 
ATOM     61  F   UNL A   1      48.849  27.421  27.063  1.00  0.00    -0.206 F 
ATOM     62  C   UNL A   1      50.620  26.390  28.205  1.00  0.00     0.040 A 
ATOM     63  C   UNL A   1      50.310  25.611  30.463  1.00  0.00     0.040 A 
ATOM     64  F   UNL A   1      48.224  25.848  31.511  1.00  0.00    -0.206 F 
ATOM     65  C   UNL A   1      51.132  25.784  29.351  1.00  0.00     0.006 A 
ENDBRANCH  44  58
BRANCH  45  66
ATOM     66  C   UNL A   1      38.774  29.059  29.086  1.00  0.00     0.057 A 
ATOM     67  C   UNL A   1      38.155  29.559  27.934  1.00  0.00     0.134 A 
ATOM     68  C   UNL A   1      37.994  28.950  30.243  1.00  0.00     0.134 A 
ATOM     69  F   UNL A   1      38.851  29.694  26.796  1.00  0.00    -0.206 F 
ATOM     70  C   UNL A   1      36.818  29.960  27.939  1.00  0.00     0.040 A 
ATOM     71  C   UNL A   1      36.650  29.330  30.257  1.00  0.00     0.040 A 
ATOM     72  F   UNL A   1      38.527  28.463  31.372  1.00  0.00    -0.206 F 
ATOM     73  C   UNL A   1      36.062  29.846  29.105  1.00  0.00     0.006 A 
ENDBRANCH  45  66
BRANCH  57  74
ATOM     74  C   UNL A   1      44.597  32.599  30.614  1.00  0.00     0.057 A 
ATOM     75  C   UNL A   1      44.817  33.604  29.662  1.00  0.00     0.134 A 
ATOM     76  C   UNL A   1      44.708  32.950  31.964  1.00  0.00     0.134 A 
ATOM     77  F   UNL A   1      44.737  33.331  28.351  1.00  0.00    -0.206 F 
ATOM     78  C   UNL A   1      45.157  34.904  30.039  1.00  0.00     0.040 A 
ATOM     79  C   UNL A   1      45.023  34.253  32.354  1.00  0.00     0.040 A 
ATOM     80  F   UNL A   1      44.498  32.036  32.924  1.00  0.00    -0.206 F 
ATOM     81  C   UNL A   1      45.258  35.232  31.390  1.00  0.00     0.006 A 
ENDBRANCH  57  74
ENDBRANCH  31  32
ENDBRANCH  23  26
ENDBRANCH  21  22
ENDBRANCH  20  21
ENDBRANCH   1  20
TORSDOF 13
ENDMDL
MODEL 2
REMARK VINA RESULT:     -11.2      4.918      9.687
REMARK SMILES CCC1CN(c2cccc(F)c2C(=O)NCCCCNC(=O)c2ccc(-c3c4nc(c(-c5c(F)cccc5F)c5ccc([nH]5)c(-c5c(F)cccc5F)c5nc(c(-c6c(F)cccc6F)c6ccc3[nH]6)C=C5)C=C4)cc2)C1
REMARK SMILES IDX 17 1 16 2 15 3 13 4 14 5 12 7 6 8 7 9 8 10 10 11 9 12 11 13
REMARK SMILES IDX 5 14 3 15 4 16 77 17 2 18 1 19 18 20 19 21 20 22 21 23 22 25
REMARK SMILES IDX 23 26 24 27 76 28 25 29 75 30 26 31 27 32 28 33 69 34 29 35
REMARK SMILES IDX 74 36 68 37 70 38 30 39 73 40 67 41 66 42 31 44 57 45 40 46
REMARK SMILES IDX 56 47 41 48 44 49 55 50 71 51 42 52 43 53 54 55 72 56 45 57
REMARK SMILES IDX 32 58 33 59 38 60 34 61 35 62 37 63 39 64 36 65 58 66 59 67
REMARK SMILES IDX 64 68 60 69 61 70 63 71 65 72 62 73 46 74 47 75 52 76 48 77
REMARK SMILES IDX 49 78 51 79 53 80 50 81
REMARK H PARENT 15 6 20 24 70 43 44 54
REMARK Flexibility Score: inf
ROOT
ATOM      1  C   UNL A   1      31.404  30.621  25.810  1.00  0.00     0.023 C 
ENDROOT
BRANCH   1   2
ATOM      2  C   UNL A   1      32.728  29.876  25.939  1.00  0.00     0.116 C 
BRANCH   2   3
ATOM      3  N   UNL A   1      33.339  29.467  24.684  1.00  0.00    -0.352 N 
ATOM      4  C   UNL A   1      32.803  28.829  23.578  1.00  0.00     0.256 C 
ATOM      5  O   UNL A   1      33.501  28.804  22.565  1.00  0.00    -0.269 OA
ATOM      6  H   UNL A   1      34.297  29.681  24.608  1.00  0.00     0.163 HD
BRANCH   4   7
ATOM      7  C   UNL A   1      31.468  28.161  23.605  1.00  0.00     0.098 A 
ATOM      8  C   UNL A   1      31.280  26.890  24.196  1.00  0.00     0.053 A 
ATOM      9  C   UNL A   1      29.971  26.364  24.275  1.00  0.00     0.027 A 
ATOM     10  C   UNL A   1      28.876  27.034  23.736  1.00  0.00     0.005 A 
ATOM     11  C   UNL A   1      30.375  28.740  22.948  1.00  0.00     0.138 A 
ATOM     12  C   UNL A   1      29.087  28.210  23.037  1.00  0.00     0.040 A 
ATOM     13  F   UNL A   1      30.530  29.812  22.155  1.00  0.00    -0.206 F 
BRANCH   8  14
ATOM     14  N   UNL A   1      32.326  26.051  24.611  1.00  0.00    -0.370 N 
ATOM     15  C   UNL A   1      34.166  25.378  25.241  1.00  0.00     0.028 C 
ATOM     16  C   UNL A   1      33.367  25.376  23.915  1.00  0.00     0.122 C 
ATOM     17  C   UNL A   1      32.875  25.870  25.913  1.00  0.00     0.122 C 
BRANCH  15  18
ATOM     18  C   UNL A   1      34.871  24.127  25.755  1.00  0.00     0.004 C 
ATOM     19  C   UNL A   1      36.243  23.887  25.152  1.00  0.00     0.004 C 
ENDBRANCH  15  18
ENDBRANCH   8  14
ENDBRANCH   4   7
ENDBRANCH   2   3
ENDBRANCH   1   2
BRANCH   1  20
ATOM     20  C   UNL A   1      31.271  31.947  26.554  1.00  0.00     0.023 C 
BRANCH  20  21
ATOM     21  C   UNL A   1      32.554  32.559  27.107  1.00  0.00     0.116 C 
BRANCH  21  22
ATOM     22  N   UNL A   1      32.410  33.936  27.551  1.00  0.00    -0.352 N 
ATOM     23  C   UNL A   1      33.139  34.656  28.472  1.00  0.00     0.251 C 
ATOM     24  H   UNL A   1      31.675  34.434  27.126  1.00  0.00     0.163 HD
ATOM     25  O   UNL A   1      32.804  35.800  28.753  1.00  0.00    -0.269 OA
BRANCH  23  26
ATOM     26  C   UNL A   1      34.301  34.045  29.161  1.00  0.00     0.039 A 
ATOM     27  C   UNL A   1      34.065  33.165  30.222  1.00  0.00     0.014 A 
ATOM     28  C   UNL A   1      35.613  34.331  28.777  1.00  0.00     0.014 A 
ATOM     29  C   UNL A   1      35.136  32.508  30.835  1.00  0.00     0.010 A 
ATOM     30  C   UNL A   1      36.671  33.614  29.330  1.00  0.00     0.010 A 
ATOM     31  C   UNL A   1      36.445  32.693  30.365  1.00  0.00    -0.014 A 
BRANCH  31  32
ATOM     32  C   UNL A   1      37.584  31.928  30.935  1.00  0.00     0.031 A 
ATOM     33  C   UNL A   1      38.088  32.229  32.319  1.00  0.00     0.074 A 
ATOM     34  C   UNL A   1      38.214  31.007  30.179  1.00  0.00     0.049 A 
ATOM     35  N   UNL A   1      39.103  31.706  32.962  1.00  0.00    -0.248 NA
ATOM     36  C   UNL A   1      37.377  33.275  33.071  1.00  0.00     0.031 C 
ATOM     37  C   UNL A   1      37.866  30.664  28.800  1.00  0.00     0.029 A 
ATOM     38  N   UNL A   1      39.287  30.198  30.462  1.00  0.00    -0.354 N 
ATOM     39  C   UNL A   1      39.164  32.374  34.177  1.00  0.00     0.074 A 
ATOM     40  C   UNL A   1      38.119  33.374  34.164  1.00  0.00     0.031 C 
ATOM     41  C   UNL A   1      38.687  29.694  28.368  1.00  0.00     0.029 A 
ATOM     42  C   UNL A   1      39.642  29.370  29.424  1.00  0.00     0.049 A 
ATOM     43  H   UNL A   1      39.757  30.208  31.327  1.00  0.00     0.167 HD
ATOM     44  C   UNL A   1      40.000  32.158  35.220  1.00  0.00     0.037 A 
ATOM     45  C   UNL A   1      40.624  28.453  29.330  1.00  0.00     0.037 A 
ATOM     46  C   UNL A   1      41.014  31.137  35.247  1.00  0.00     0.049 A 
ATOM     47  C   UNL A   1      41.523  28.210  30.507  1.00  0.00     0.074 A 
ATOM     48  C   UNL A   1      41.852  30.785  36.291  1.00  0.00     0.029 A 
ATOM     49  N   UNL A   1      41.327  30.305  34.183  1.00  0.00    -0.354 N 
ATOM     50  N   UNL A   1      41.524  28.798  31.678  1.00  0.00    -0.248 NA
ATOM     51  C   UNL A   1      42.553  27.173  30.356  1.00  0.00     0.031 C 
ATOM     52  C   UNL A   1      42.705  29.772  35.843  1.00  0.00     0.029 A 
ATOM     53  C   UNL A   1      42.363  29.457  34.537  1.00  0.00     0.049 A 
ATOM     54  H   UNL A   1      40.880  30.316  33.307  1.00  0.00     0.167 HD
ATOM     55  C   UNL A   1      42.538  28.194  32.410  1.00  0.00     0.074 A 
ATOM     56  C   UNL A   1      43.124  27.183  31.554  1.00  0.00     0.031 C 
ATOM     57  C   UNL A   1      42.942  28.456  33.677  1.00  0.00     0.037 A 
BRANCH  44  58
ATOM     58  C   UNL A   1      39.847  33.038  36.427  1.00  0.00     0.057 A 
ATOM     59  C   UNL A   1      38.901  32.738  37.415  1.00  0.00     0.134 A 
ATOM     60  C   UNL A   1      40.606  34.204  36.594  1.00  0.00     0.134 A 
ATOM     61  F   UNL A   1      38.135  31.641  37.314  1.00  0.00    -0.206 F 
ATOM     62  C   UNL A   1      38.712  33.567  38.522  1.00  0.00     0.040 A 
ATOM     63  C   UNL A   1      40.447  35.027  37.711  1.00  0.00     0.040 A 
ATOM     64  F   UNL A   1      41.538  34.544  35.690  1.00  0.00    -0.206 F 
ATOM     65  C   UNL A   1      39.492  34.712  38.675  1.00  0.00     0.006 A 
ENDBRANCH  44  58
BRANCH  45  66
ATOM     66  C   UNL A   1      40.763  27.667  28.079  1.00  0.00     0.057 A 
ATOM     67  C   UNL A   1      40.145  26.420  27.925  1.00  0.00     0.134 A 
ATOM     68  C   UNL A   1      41.569  28.123  27.030  1.00  0.00     0.134 A 
ATOM     69  F   UNL A   1      39.366  25.926  28.898  1.00  0.00    -0.206 F 
ATOM     70  C   UNL A   1      40.342  25.645  26.781  1.00  0.00     0.040 A 
ATOM     71  C   UNL A   1      41.760  27.366  25.873  1.00  0.00     0.040 A 
ATOM     72  F   UNL A   1      42.174  29.317  27.114  1.00  0.00    -0.206 F 
ATOM     73  C   UNL A   1      41.153  26.118  25.750  1.00  0.00     0.006 A 
ENDBRANCH  45  66
BRANCH  57  74
ATOM     74  C   UNL A   1      44.067  27.633  34.232  1.00  0.00     0.057 A 
ATOM     75  C   UNL A   1      43.809  26.416  34.877  1.00  0.00     0.134 A 
ATOM     76  C   UNL A   1      45.393  28.081  34.202  1.00  0.00     0.134 A 
ATOM     77  F   UNL A   1      42.558  25.935  34.951  1.00  0.00    -0.206 F 
ATOM     78  C   UNL A   1      44.827  25.684  35.488  1.00  0.00     0.040 A 
ATOM     79  C   UNL A   1      46.424  27.345  34.788  1.00  0.00     0.040 A 
ATOM     80  F   UNL A   1      45.707  29.233  33.590  1.00  0.00    -0.206 F 
ATOM     81  C   UNL A   1      46.140  26.147  35.443  1.00  0.00     0.006 A 
ENDBRANCH  57  74
ENDBRANCH  31  32
ENDBRANCH  23  26
ENDBRANCH  21  22
ENDBRANCH  20  21
ENDBRANCH   1  20
TORSDOF 13
ENDMDL
MODEL 3
REMARK VINA RESULT:     -11.2      5.208      9.763
REMARK SMILES CCC1CN(c2cccc(F)c2C(=O)NCCCCNC(=O)c2ccc(-c3c4nc(c(-c5c(F)cccc5F)c5ccc([nH]5)c(-c5c(F)cccc5F)c5nc(c(-c6c(F)cccc6F)c6ccc3[nH]6)C=C5)C=C4)cc2)C1
REMARK SMILES IDX 17 1 16 2 15 3 13 4 14 5 12 7 6 8 7 9 8 10 10 11 9 12 11 13
REMARK SMILES IDX 5 14 3 15 4 16 77 17 2 18 1 19 18 20 19 21 20 22 21 23 22 25
REMARK SMILES IDX 23 26 24 27 76 28 25 29 75 30 26 31 27 32 28 33 69 34 29 35
REMARK SMILES IDX 74 36 68 37 70 38 30 39 73 40 67 41 66 42 31 44 57 45 40 46
REMARK SMILES IDX 56 47 41 48 44 49 55 50 71 51 42 52 43 53 54 55 72 56 45 57
REMARK SMILES IDX 32 58 33 59 38 60 34 61 35 62 37 63 39 64 36 65 58 66 59 67
REMARK SMILES IDX 64 68 60 69 61 70 63 71 65 72 62 73 46 74 47 75 52 76 48 77
REMARK SMILES IDX 49 78 51 79 53 80 50 81
REMARK H PARENT 15 6 20 24 70 43 44 54
REMARK Flexibility Score: inf
ROOT
ATOM      1  C   UNL A   1      31.408  30.787  25.985  1.00  0.00     0.023 C 
ENDROOT
BRANCH   1   2
ATOM      2  C   UNL A   1      32.743  30.049  25.967  1.00  0.00     0.116 C 
BRANCH   2   3
ATOM      3  N   UNL A   1      33.247  29.703  24.647  1.00  0.00    -0.352 N 
ATOM      4  C   UNL A   1      32.726  28.880  23.663  1.00  0.00     0.256 C 
ATOM      5  O   UNL A   1      33.257  28.944  22.554  1.00  0.00    -0.269 OA
ATOM      6  H   UNL A   1      34.104  30.128  24.414  1.00  0.00     0.163 HD
BRANCH   4   7
ATOM      7  C   UNL A   1      31.609  27.924  23.923  1.00  0.00     0.098 A 
ATOM      8  C   UNL A   1      30.294  28.171  23.464  1.00  0.00     0.053 A 
ATOM      9  C   UNL A   1      29.309  27.176  23.659  1.00  0.00     0.027 A 
ATOM     10  C   UNL A   1      29.585  25.992  24.336  1.00  0.00     0.005 A 
ATOM     11  C   UNL A   1      31.818  26.794  24.723  1.00  0.00     0.138 A 
ATOM     12  C   UNL A   1      30.836  25.819  24.903  1.00  0.00     0.040 A 
ATOM     13  F   UNL A   1      32.965  26.624  25.399  1.00  0.00    -0.206 F 
BRANCH   8  14
ATOM     14  N   UNL A   1      29.861  29.394  22.929  1.00  0.00    -0.370 N 
ATOM     15  C   UNL A   1      28.714  30.834  22.011  1.00  0.00     0.028 C 
ATOM     16  C   UNL A   1      29.941  29.971  21.631  1.00  0.00     0.122 C 
ATOM     17  C   UNL A   1      28.907  30.317  23.445  1.00  0.00     0.122 C 
BRANCH  15  18
ATOM     18  C   UNL A   1      28.671  32.334  21.735  1.00  0.00     0.004 C 
ATOM     19  C   UNL A   1      27.711  32.742  20.633  1.00  0.00     0.004 C 
ENDBRANCH  15  18
ENDBRANCH   8  14
ENDBRANCH   4   7
ENDBRANCH   2   3
ENDBRANCH   1   2
BRANCH   1  20
ATOM     20  C   UNL A   1      31.335  32.083  26.788  1.00  0.00     0.023 C 
BRANCH  20  21
ATOM     21  C   UNL A   1      32.659  32.738  27.162  1.00  0.00     0.116 C 
BRANCH  21  22
ATOM     22  N   UNL A   1      32.532  34.108  27.630  1.00  0.00    -0.352 N 
ATOM     23  C   UNL A   1      33.273  34.805  28.559  1.00  0.00     0.251 C 
ATOM     24  H   UNL A   1      31.799  34.621  27.218  1.00  0.00     0.163 HD
ATOM     25  O   UNL A   1      32.950  35.948  28.862  1.00  0.00    -0.269 OA
BRANCH  23  26
ATOM     26  C   UNL A   1      34.432  34.172  29.231  1.00  0.00     0.039 A 
ATOM     27  C   UNL A   1      34.193  33.275  30.277  1.00  0.00     0.014 A 
ATOM     28  C   UNL A   1      35.745  34.452  28.845  1.00  0.00     0.014 A 
ATOM     29  C   UNL A   1      35.261  32.598  30.873  1.00  0.00     0.010 A 
ATOM     30  C   UNL A   1      36.799  33.716  29.380  1.00  0.00     0.010 A 
ATOM     31  C   UNL A   1      36.570  32.779  30.399  1.00  0.00    -0.014 A 
BRANCH  31  32
ATOM     32  C   UNL A   1      37.705  31.994  30.950  1.00  0.00     0.031 A 
ATOM     33  C   UNL A   1      38.217  32.265  32.337  1.00  0.00     0.074 A 
ATOM     34  C   UNL A   1      38.323  31.082  30.175  1.00  0.00     0.049 A 
ATOM     35  N   UNL A   1      39.231  31.722  32.964  1.00  0.00    -0.248 NA
ATOM     36  C   UNL A   1      37.520  33.304  33.111  1.00  0.00     0.031 C 
ATOM     37  C   UNL A   1      37.965  30.766  28.791  1.00  0.00     0.029 A 
ATOM     38  N   UNL A   1      39.390  30.257  30.437  1.00  0.00    -0.354 N 
ATOM     39  C   UNL A   1      39.304  32.367  34.192  1.00  0.00     0.074 A 
ATOM     40  C   UNL A   1      38.268  33.376  34.202  1.00  0.00     0.031 C 
ATOM     41  C   UNL A   1      38.775  29.797  28.337  1.00  0.00     0.029 A 
ATOM     42  C   UNL A   1      39.732  29.445  29.382  1.00  0.00     0.049 A 
ATOM     43  H   UNL A   1      39.864  30.248  31.300  1.00  0.00     0.167 HD
ATOM     44  C   UNL A   1      40.143  32.124  35.227  1.00  0.00     0.037 A 
ATOM     45  C   UNL A   1      40.705  28.522  29.266  1.00  0.00     0.037 A 
ATOM     46  C   UNL A   1      41.147  31.093  35.230  1.00  0.00     0.049 A 
ATOM     47  C   UNL A   1      41.608  28.249  30.435  1.00  0.00     0.074 A 
ATOM     48  C   UNL A   1      41.987  30.716  36.263  1.00  0.00     0.029 A 
ATOM     49  N   UNL A   1      41.448  30.278  34.149  1.00  0.00    -0.354 N 
ATOM     50  N   UNL A   1      41.619  28.816  31.617  1.00  0.00    -0.248 NA
ATOM     51  C   UNL A   1      42.628  27.206  30.260  1.00  0.00     0.031 C 
ATOM     52  C   UNL A   1      42.829  29.703  35.792  1.00  0.00     0.029 A 
ATOM     53  C   UNL A   1      42.479  29.415  34.482  1.00  0.00     0.049 A 
ATOM     54  H   UNL A   1      40.997  30.310  33.276  1.00  0.00     0.167 HD
ATOM     55  C   UNL A   1      42.632  28.190  32.332  1.00  0.00     0.074 A 
ATOM     56  C   UNL A   1      43.204  27.189  31.455  1.00  0.00     0.031 C 
ATOM     57  C   UNL A   1      43.044  28.425  33.601  1.00  0.00     0.037 A 
BRANCH  44  58
ATOM     58  C   UNL A   1      40.004  32.983  36.450  1.00  0.00     0.057 A 
ATOM     59  C   UNL A   1      40.840  34.090  36.645  1.00  0.00     0.134 A 
ATOM     60  C   UNL A   1      39.072  32.693  37.456  1.00  0.00     0.134 A 
ATOM     61  F   UNL A   1      41.760  34.420  35.726  1.00  0.00    -0.206 F 
ATOM     62  C   UNL A   1      40.756  34.875  37.797  1.00  0.00     0.040 A 
ATOM     63  C   UNL A   1      38.959  33.487  38.599  1.00  0.00     0.040 A 
ATOM     64  F   UNL A   1      38.234  31.654  37.327  1.00  0.00    -0.206 F 
ATOM     65  C   UNL A   1      39.809  34.577  38.774  1.00  0.00     0.006 A 
ENDBRANCH  44  58
BRANCH  45  66
ATOM     66  C   UNL A   1      40.831  27.757  28.002  1.00  0.00     0.057 A 
ATOM     67  C   UNL A   1      40.213  26.513  27.832  1.00  0.00     0.134 A 
ATOM     68  C   UNL A   1      41.625  28.233  26.951  1.00  0.00     0.134 A 
ATOM     69  F   UNL A   1      39.446  26.001  28.806  1.00  0.00    -0.206 F 
ATOM     70  C   UNL A   1      40.398  25.757  26.674  1.00  0.00     0.040 A 
ATOM     71  C   UNL A   1      41.803  27.496  25.779  1.00  0.00     0.040 A 
ATOM     72  F   UNL A   1      42.229  29.425  27.049  1.00  0.00    -0.206 F 
ATOM     73  C   UNL A   1      41.197  26.249  25.642  1.00  0.00     0.006 A 
ENDBRANCH  45  66
BRANCH  57  74
ATOM     74  C   UNL A   1      44.164  27.581  34.136  1.00  0.00     0.057 A 
ATOM     75  C   UNL A   1      43.898  26.355  34.759  1.00  0.00     0.134 A 
ATOM     76  C   UNL A   1      45.494  28.019  34.108  1.00  0.00     0.134 A 
ATOM     77  F   UNL A   1      42.644  25.884  34.830  1.00  0.00    -0.206 F 
ATOM     78  C   UNL A   1      44.913  25.602  35.352  1.00  0.00     0.040 A 
ATOM     79  C   UNL A   1      46.521  27.263  34.676  1.00  0.00     0.040 A 
ATOM     80  F   UNL A   1      45.815  29.180  33.517  1.00  0.00    -0.206 F 
ATOM     81  C   UNL A   1      46.230  26.056  35.309  1.00  0.00     0.006 A 
ENDBRANCH  57  74
ENDBRANCH  31  32
ENDBRANCH  23  26
ENDBRANCH  21  22
ENDBRANCH  20  21
ENDBRANCH   1  20
TORSDOF 13
ENDMDL
