MODEL 1
REMARK VINA RESULT:     -11.9      0.000      0.000
REMARK SMILES O=C(NCCCCNC(=O)[C@@H]1CCCN(C(=O)Nc2ccccc2)C1)c1ccc(-c2c3nc(c(-c4c(F)cccc4F)c4ccc([nH]4)c(-c4c(F)cccc4F)c4nc(c(-c5c(F)cccc5F)c5ccc2[nH]5)C=C4)C=C3)cc1
REMARK SMILES IDX 5 1 4 2 3 3 1 4 2 5 26 7 27 8 79 9 28 10 78 11 29 12 30 13
REMARK SMILES IDX 31 14 72 15 32 16 77 17 71 18 73 19 33 20 76 21 70 22 69 23
REMARK SMILES IDX 34 25 60 26 43 27 59 28 44 29 47 30 58 31 74 32 45 33 46 34
REMARK SMILES IDX 57 36 75 37 48 38 35 39 36 40 41 41 37 42 38 43 40 44 42 45
REMARK SMILES IDX 39 46 61 47 62 48 67 49 63 50 64 51 66 52 68 53 65 54 49 55
REMARK SMILES IDX 50 56 55 57 51 58 52 59 54 60 56 61 53 62 6 63 7 64 8 65
REMARK SMILES IDX 9 66 10 68 11 69 12 70 25 71 13 72 15 73 14 74 16 75 17 76
REMARK SMILES IDX 18 77 19 79 20 80 24 81 21 82 23 83 22 84
REMARK H PARENT 3 6 73 24 47 35 8 67 18 78
REMARK Flexibility Score: inf
ROOT
ATOM      1  C   UNL A   1      37.786  19.687  25.001  1.00  0.00     0.023 C 
ENDROOT
BRANCH   1   2
ATOM      2  C   UNL A   1      39.027  20.166  25.747  1.00  0.00     0.116 C 
BRANCH   2   3
ATOM      3  N   UNL A   1      40.071  19.153  25.797  1.00  0.00    -0.352 N 
ATOM      4  O   UNL A   1      42.170  18.329  25.801  1.00  0.00    -0.269 OA
ATOM      5  C   UNL A   1      41.427  19.284  25.982  1.00  0.00     0.251 C 
ATOM      6  H   UNL A   1      39.758  18.227  25.679  1.00  0.00     0.163 HD
BRANCH   5   7
ATOM      7  C   UNL A   1      41.992  20.593  26.373  1.00  0.00     0.039 A 
ATOM      8  C   UNL A   1      42.234  20.898  27.715  1.00  0.00     0.014 A 
ATOM      9  C   UNL A   1      42.300  21.521  25.376  1.00  0.00     0.014 A 
ATOM     10  C   UNL A   1      42.633  22.181  28.072  1.00  0.00     0.010 A 
ATOM     11  C   UNL A   1      42.784  22.781  25.730  1.00  0.00     0.010 A 
ATOM     12  C   UNL A   1      42.918  23.133  27.083  1.00  0.00    -0.014 A 
BRANCH  12  13
ATOM     13  C   UNL A   1      43.389  24.487  27.466  1.00  0.00     0.031 A 
ATOM     14  C   UNL A   1      42.416  25.538  27.919  1.00  0.00     0.074 A 
ATOM     15  C   UNL A   1      44.702  24.772  27.384  1.00  0.00     0.049 A 
ATOM     16  N   UNL A   1      42.633  26.797  28.205  1.00  0.00    -0.248 NA
ATOM     17  C   UNL A   1      41.012  25.123  28.059  1.00  0.00     0.031 C 
ATOM     18  C   UNL A   1      45.743  23.832  26.964  1.00  0.00     0.029 A 
ATOM     19  N   UNL A   1      45.384  25.933  27.641  1.00  0.00    -0.354 N 
ATOM     20  C   UNL A   1      41.394  27.332  28.532  1.00  0.00     0.074 A 
ATOM     21  C   UNL A   1      40.425  26.265  28.387  1.00  0.00     0.031 C 
ATOM     22  C   UNL A   1      46.932  24.450  27.001  1.00  0.00     0.029 A 
ATOM     23  C   UNL A   1      46.730  25.842  27.386  1.00  0.00     0.049 A 
ATOM     24  H   UNL A   1      44.950  26.752  27.974  1.00  0.00     0.167 HD
ATOM     25  C   UNL A   1      41.094  28.595  28.920  1.00  0.00     0.037 A 
ATOM     26  C   UNL A   1      47.692  26.782  27.423  1.00  0.00     0.037 A 
ATOM     27  C   UNL A   1      42.068  29.646  29.072  1.00  0.00     0.049 A 
ATOM     28  C   UNL A   1      47.332  28.184  27.817  1.00  0.00     0.074 A 
ATOM     29  C   UNL A   1      41.872  30.950  29.493  1.00  0.00     0.029 A 
ATOM     30  N   UNL A   1      43.423  29.515  28.799  1.00  0.00    -0.354 N 
ATOM     31  N   UNL A   1      46.161  28.672  28.146  1.00  0.00    -0.248 NA
ATOM     32  C   UNL A   1      48.424  29.166  27.844  1.00  0.00     0.031 C 
ATOM     33  C   UNL A   1      43.097  31.621  29.428  1.00  0.00     0.029 A 
ATOM     34  C   UNL A   1      44.069  30.720  29.019  1.00  0.00     0.049 A 
ATOM     35  H   UNL A   1      43.859  28.686  28.494  1.00  0.00     0.167 HD
ATOM     36  C   UNL A   1      46.377  30.010  28.445  1.00  0.00     0.074 A 
ATOM     37  C   UNL A   1      47.794  30.255  28.262  1.00  0.00     0.031 C 
ATOM     38  C   UNL A   1      45.482  30.947  28.841  1.00  0.00     0.037 A 
BRANCH  25  39
ATOM     39  C   UNL A   1      39.649  28.917  29.175  1.00  0.00     0.057 A 
ATOM     40  C   UNL A   1      39.084  28.843  30.454  1.00  0.00     0.134 A 
ATOM     41  C   UNL A   1      38.816  29.325  28.125  1.00  0.00     0.134 A 
ATOM     42  F   UNL A   1      39.822  28.448  31.503  1.00  0.00    -0.206 F 
ATOM     43  C   UNL A   1      37.735  29.132  30.675  1.00  0.00     0.040 A 
ATOM     44  C   UNL A   1      37.473  29.644  28.338  1.00  0.00     0.040 A 
ATOM     45  F   UNL A   1      39.293  29.428  26.876  1.00  0.00    -0.206 F 
ATOM     46  C   UNL A   1      36.927  29.538  29.614  1.00  0.00     0.006 A 
ENDBRANCH  25  39
BRANCH  26  47
ATOM     47  C   UNL A   1      49.081  26.412  27.063  1.00  0.00     0.057 A 
ATOM     48  C   UNL A   1      49.993  25.989  28.035  1.00  0.00     0.134 A 
ATOM     49  C   UNL A   1      49.515  26.424  25.731  1.00  0.00     0.134 A 
ATOM     50  F   UNL A   1      49.638  25.968  29.328  1.00  0.00    -0.206 F 
ATOM     51  C   UNL A   1      51.288  25.594  27.698  1.00  0.00     0.040 A 
ATOM     52  C   UNL A   1      50.798  26.009  25.377  1.00  0.00     0.040 A 
ATOM     53  F   UNL A   1      48.683  26.810  24.752  1.00  0.00    -0.206 F 
ATOM     54  C   UNL A   1      51.691  25.595  26.363  1.00  0.00     0.006 A 
ENDBRANCH  26  47
BRANCH  38  55
ATOM     55  C   UNL A   1      46.011  32.316  29.152  1.00  0.00     0.057 A 
ATOM     56  C   UNL A   1      46.051  33.332  28.190  1.00  0.00     0.134 A 
ATOM     57  C   UNL A   1      46.433  32.634  30.450  1.00  0.00     0.134 A 
ATOM     58  F   UNL A   1      45.676  33.086  26.925  1.00  0.00    -0.206 F 
ATOM     59  C   UNL A   1      46.505  34.613  28.505  1.00  0.00     0.040 A 
ATOM     60  C   UNL A   1      46.865  33.918  30.782  1.00  0.00     0.040 A 
ATOM     61  F   UNL A   1      46.412  31.706  31.419  1.00  0.00    -0.206 F 
ATOM     62  C   UNL A   1      46.905  34.912  29.807  1.00  0.00     0.006 A 
ENDBRANCH  38  55
ENDBRANCH  12  13
ENDBRANCH   5   7
ENDBRANCH   2   3
ENDBRANCH   1   2
BRANCH   1  63
ATOM     63  C   UNL A   1      36.660  20.716  24.892  1.00  0.00     0.023 C 
BRANCH  63  64
ATOM     64  C   UNL A   1      37.118  22.147  24.633  1.00  0.00     0.116 C 
BRANCH  64  65
ATOM     65  N   UNL A   1      36.321  23.123  25.345  1.00  0.00    -0.356 N 
ATOM     66  C   UNL A   1      35.166  23.728  24.952  1.00  0.00     0.224 C 
ATOM     67  H   UNL A   1      36.661  23.385  26.232  1.00  0.00     0.163 HD
ATOM     68  O   UNL A   1      34.637  24.508  25.746  1.00  0.00    -0.275 OA
BRANCH  66  69
ATOM     69  C   UNL A   1      34.619  23.468  23.549  1.00  0.00     0.098 C 
ATOM     70  C   UNL A   1      33.809  24.666  23.022  1.00  0.00     0.017 C 
ATOM     71  C   UNL A   1      33.758  22.201  23.479  1.00  0.00     0.134 C 
ATOM     72  C   UNL A   1      32.442  24.792  23.688  1.00  0.00     0.022 C 
ATOM     73  N   UNL A   1      32.501  22.358  24.200  1.00  0.00    -0.324 N 
ATOM     74  C   UNL A   1      31.676  23.473  23.719  1.00  0.00     0.121 C 
BRANCH  73  75
ATOM     75  C   UNL A   1      32.322  21.635  25.366  1.00  0.00     0.321 C 
ATOM     76  O   UNL A   1      32.189  22.189  26.462  1.00  0.00    -0.248 OA
ATOM     77  N   UNL A   1      32.192  20.281  25.323  1.00  0.00    -0.308 N 
ATOM     78  H   UNL A   1      31.630  19.895  26.032  1.00  0.00     0.171 HD
BRANCH  77  79
ATOM     79  C   UNL A   1      32.733  19.349  24.428  1.00  0.00     0.042 A 
ATOM     80  C   UNL A   1      33.845  18.618  24.846  1.00  0.00     0.026 A 
ATOM     81  C   UNL A   1      32.150  19.086  23.184  1.00  0.00     0.026 A 
ATOM     82  C   UNL A   1      34.283  17.533  24.086  1.00  0.00     0.002 A 
ATOM     83  C   UNL A   1      32.604  18.016  22.415  1.00  0.00     0.002 A 
ATOM     84  C   UNL A   1      33.652  17.222  22.881  1.00  0.00     0.000 A 
ENDBRANCH  77  79
ENDBRANCH  73  75
ENDBRANCH  66  69
ENDBRANCH  64  65
ENDBRANCH  63  64
ENDBRANCH   1  63
TORSDOF 13
ENDMDL
MODEL 2
REMARK VINA RESULT:     -11.8      1.382      6.404
REMARK SMILES O=C(NCCCCNC(=O)[C@@H]1CCCN(C(=O)Nc2ccccc2)C1)c1ccc(-c2c3nc(c(-c4c(F)cccc4F)c4ccc([nH]4)c(-c4c(F)cccc4F)c4nc(c(-c5c(F)cccc5F)c5ccc2[nH]5)C=C4)C=C3)cc1
REMARK SMILES IDX 5 1 4 2 3 3 1 4 2 5 26 7 27 8 79 9 28 10 78 11 29 12 30 13
REMARK SMILES IDX 31 14 72 15 32 16 77 17 71 18 73 19 33 20 76 21 70 22 69 23
REMARK SMILES IDX 34 25 60 26 43 27 59 28 44 29 47 30 58 31 74 32 45 33 46 34
REMARK SMILES IDX 57 36 75 37 48 38 35 39 36 40 41 41 37 42 38 43 40 44 42 45
REMARK SMILES IDX 39 46 61 47 62 48 67 49 63 50 64 51 66 52 68 53 65 54 49 55
REMARK SMILES IDX 50 56 55 57 51 58 52 59 54 60 56 61 53 62 6 63 7 64 8 65
REMARK SMILES IDX 9 66 10 68 11 69 12 70 25 71 13 72 15 73 14 74 16 75 17 76
REMARK SMILES IDX 18 77 19 79 20 80 24 81 21 82 23 83 22 84
REMARK H PARENT 3 6 73 24 47 35 8 67 18 78
REMARK Flexibility Score: inf
ROOT
ATOM      1  C   UNL A   1      38.111  19.900  24.925  1.00  0.00     0.023 C 
ENDROOT
BRANCH   1   2
ATOM      2  C   UNL A   1      39.099  20.069  26.074  1.00  0.00     0.116 C 
BRANCH   2   3
ATOM      3  N   UNL A   1      40.287  19.244  25.912  1.00  0.00    -0.352 N 
ATOM      4  O   UNL A   1      42.477  18.782  25.647  1.00  0.00    -0.269 OA
ATOM      5  C   UNL A   1      41.618  19.575  26.005  1.00  0.00     0.251 C 
ATOM      6  H   UNL A   1      40.110  18.298  25.703  1.00  0.00     0.163 HD
BRANCH   5   7
ATOM      7  C   UNL A   1      42.010  20.906  26.514  1.00  0.00     0.039 A 
ATOM      8  C   UNL A   1      42.047  21.167  27.886  1.00  0.00     0.014 A 
ATOM      9  C   UNL A   1      42.362  21.901  25.600  1.00  0.00     0.014 A 
ATOM     10  C   UNL A   1      42.282  22.461  28.337  1.00  0.00     0.010 A 
ATOM     11  C   UNL A   1      42.683  23.180  26.060  1.00  0.00     0.010 A 
ATOM     12  C   UNL A   1      42.609  23.479  27.430  1.00  0.00    -0.014 A 
BRANCH  12  13
ATOM     13  C   UNL A   1      42.905  24.848  27.919  1.00  0.00     0.031 A 
ATOM     14  C   UNL A   1      44.310  25.249  28.270  1.00  0.00     0.074 A 
ATOM     15  C   UNL A   1      41.895  25.724  28.066  1.00  0.00     0.049 A 
ATOM     16  N   UNL A   1      44.743  26.367  28.796  1.00  0.00    -0.248 NA
ATOM     17  C   UNL A   1      45.366  24.261  28.005  1.00  0.00     0.031 C 
ATOM     18  C   UNL A   1      40.491  25.451  27.753  1.00  0.00     0.029 A 
ATOM     19  N   UNL A   1      41.890  27.016  28.523  1.00  0.00    -0.354 N 
ATOM     20  C   UNL A   1      46.114  26.209  28.950  1.00  0.00     0.074 A 
ATOM     21  C   UNL A   1      46.438  24.877  28.483  1.00  0.00     0.031 C 
ATOM     22  C   UNL A   1      39.763  26.546  28.016  1.00  0.00     0.029 A 
ATOM     23  C   UNL A   1      40.636  27.572  28.574  1.00  0.00     0.049 A 
ATOM     24  H   UNL A   1      42.707  27.499  28.789  1.00  0.00     0.167 HD
ATOM     25  C   UNL A   1      47.017  27.095  29.434  1.00  0.00     0.037 A 
ATOM     26  C   UNL A   1      40.225  28.761  29.050  1.00  0.00     0.037 A 
ATOM     27  C   UNL A   1      46.685  28.422  29.886  1.00  0.00     0.049 A 
ATOM     28  C   UNL A   1      41.237  29.713  29.618  1.00  0.00     0.074 A 
ATOM     29  C   UNL A   1      47.532  29.408  30.362  1.00  0.00     0.029 A 
ATOM     30  N   UNL A   1      45.401  28.946  29.927  1.00  0.00    -0.354 N 
ATOM     31  N   UNL A   1      42.534  29.561  29.738  1.00  0.00    -0.248 NA
ATOM     32  C   UNL A   1      40.731  30.997  30.119  1.00  0.00     0.031 C 
ATOM     33  C   UNL A   1      46.755  30.510  30.735  1.00  0.00     0.029 A 
ATOM     34  C   UNL A   1      45.429  30.232  30.442  1.00  0.00     0.049 A 
ATOM     35  H   UNL A   1      44.589  28.473  29.633  1.00  0.00     0.167 HD
ATOM     36  C   UNL A   1      43.003  30.739  30.302  1.00  0.00     0.074 A 
ATOM     37  C   UNL A   1      41.852  31.596  30.496  1.00  0.00     0.031 C 
ATOM     38  C   UNL A   1      44.276  31.078  30.621  1.00  0.00     0.037 A 
BRANCH  25  39
ATOM     39  C   UNL A   1      48.447  26.644  29.530  1.00  0.00     0.057 A 
ATOM     40  C   UNL A   1      49.380  26.906  28.519  1.00  0.00     0.134 A 
ATOM     41  C   UNL A   1      48.899  25.953  30.661  1.00  0.00     0.134 A 
ATOM     42  F   UNL A   1      49.012  27.554  27.404  1.00  0.00    -0.206 F 
ATOM     43  C   UNL A   1      50.704  26.468  28.615  1.00  0.00     0.040 A 
ATOM     44  C   UNL A   1      50.227  25.534  30.780  1.00  0.00     0.040 A 
ATOM     45  F   UNL A   1      48.062  25.675  31.672  1.00  0.00    -0.206 F 
ATOM     46  C   UNL A   1      51.131  25.784  29.752  1.00  0.00     0.006 A 
ENDBRANCH  25  39
BRANCH  26  47
ATOM     47  C   UNL A   1      38.782  29.099  29.012  1.00  0.00     0.057 A 
ATOM     48  C   UNL A   1      37.978  28.967  30.147  1.00  0.00     0.134 A 
ATOM     49  C   UNL A   1      38.186  29.608  27.851  1.00  0.00     0.134 A 
ATOM     50  F   UNL A   1      38.490  28.473  31.284  1.00  0.00    -0.206 F 
ATOM     51  C   UNL A   1      36.629  29.327  30.132  1.00  0.00     0.040 A 
ATOM     52  C   UNL A   1      36.846  29.995  27.828  1.00  0.00     0.040 A 
ATOM     53  F   UNL A   1      38.909  29.768  26.732  1.00  0.00    -0.206 F 
ATOM     54  C   UNL A   1      36.063  29.852  28.971  1.00  0.00     0.006 A 
ENDBRANCH  26  47
BRANCH  38  55
ATOM     55  C   UNL A   1      44.503  32.455  31.173  1.00  0.00     0.057 A 
ATOM     56  C   UNL A   1      44.517  32.709  32.550  1.00  0.00     0.134 A 
ATOM     57  C   UNL A   1      44.765  33.528  30.311  1.00  0.00     0.134 A 
ATOM     58  F   UNL A   1      44.257  31.727  33.426  1.00  0.00    -0.206 F 
ATOM     59  C   UNL A   1      44.772  33.987  33.050  1.00  0.00     0.040 A 
ATOM     60  C   UNL A   1      45.046  34.804  30.800  1.00  0.00     0.040 A 
ATOM     61  F   UNL A   1      44.772  33.347  28.982  1.00  0.00    -0.206 F 
ATOM     62  C   UNL A   1      45.047  35.037  32.174  1.00  0.00     0.006 A 
ENDBRANCH  38  55
ENDBRANCH  12  13
ENDBRANCH   5   7
ENDBRANCH   2   3
ENDBRANCH   1   2
BRANCH   1  63
ATOM     63  C   UNL A   1      36.922  20.861  24.947  1.00  0.00     0.023 C 
BRANCH  63  64
ATOM     64  C   UNL A   1      37.281  22.333  24.777  1.00  0.00     0.116 C 
BRANCH  64  65
ATOM     65  N   UNL A   1      36.382  23.211  25.493  1.00  0.00    -0.356 N 
ATOM     66  C   UNL A   1      35.190  23.728  25.084  1.00  0.00     0.224 C 
ATOM     67  H   UNL A   1      36.672  23.471  26.399  1.00  0.00     0.163 HD
ATOM     68  O   UNL A   1      34.572  24.431  25.885  1.00  0.00    -0.275 OA
BRANCH  66  69
ATOM     69  C   UNL A   1      34.707  23.470  23.657  1.00  0.00     0.098 C 
ATOM     70  C   UNL A   1      33.916  24.665  23.099  1.00  0.00     0.017 C 
ATOM     71  C   UNL A   1      33.858  22.199  23.544  1.00  0.00     0.134 C 
ATOM     72  C   UNL A   1      32.519  24.782  23.703  1.00  0.00     0.022 C 
ATOM     73  N   UNL A   1      32.569  22.346  24.209  1.00  0.00    -0.324 N 
ATOM     74  C   UNL A   1      31.760  23.459  23.695  1.00  0.00     0.121 C 
BRANCH  73  75
ATOM     75  C   UNL A   1      32.342  21.618  25.362  1.00  0.00     0.321 C 
ATOM     76  O   UNL A   1      32.177  22.166  26.457  1.00  0.00    -0.248 OA
ATOM     77  N   UNL A   1      32.198  20.266  25.305  1.00  0.00    -0.308 N 
ATOM     78  H   UNL A   1      31.607  19.882  25.992  1.00  0.00     0.171 HD
BRANCH  77  79
ATOM     79  C   UNL A   1      32.760  19.334  24.424  1.00  0.00     0.042 A 
ATOM     80  C   UNL A   1      33.971  18.745  24.787  1.00  0.00     0.026 A 
ATOM     81  C   UNL A   1      32.110  18.932  23.252  1.00  0.00     0.026 A 
ATOM     82  C   UNL A   1      34.457  17.660  24.057  1.00  0.00     0.002 A 
ATOM     83  C   UNL A   1      32.609  17.862  22.512  1.00  0.00     0.002 A 
ATOM     84  C   UNL A   1      33.767  17.208  22.931  1.00  0.00     0.000 A 
ENDBRANCH  77  79
ENDBRANCH  73  75
ENDBRANCH  66  69
ENDBRANCH  64  65
ENDBRANCH  63  64
ENDBRANCH   1  63
TORSDOF 13
ENDMDL
MODEL 3
REMARK VINA RESULT:     -11.8      5.879     10.904
REMARK SMILES O=C(NCCCCNC(=O)[C@@H]1CCCN(C(=O)Nc2ccccc2)C1)c1ccc(-c2c3nc(c(-c4c(F)cccc4F)c4ccc([nH]4)c(-c4c(F)cccc4F)c4nc(c(-c5c(F)cccc5F)c5ccc2[nH]5)C=C4)C=C3)cc1
REMARK SMILES IDX 5 1 4 2 3 3 1 4 2 5 26 7 27 8 79 9 28 10 78 11 29 12 30 13
REMARK SMILES IDX 31 14 72 15 32 16 77 17 71 18 73 19 33 20 76 21 70 22 69 23
REMARK SMILES IDX 34 25 60 26 43 27 59 28 44 29 47 30 58 31 74 32 45 33 46 34
REMARK SMILES IDX 57 36 75 37 48 38 35 39 36 40 41 41 37 42 38 43 40 44 42 45
REMARK SMILES IDX 39 46 61 47 62 48 67 49 63 50 64 51 66 52 68 53 65 54 49 55
REMARK SMILES IDX 50 56 55 57 51 58 52 59 54 60 56 61 53 62 6 63 7 64 8 65
REMARK SMILES IDX 9 66 10 68 11 69 12 70 25 71 13 72 15 73 14 74 16 75 17 76
REMARK SMILES IDX 18 77 19 79 20 80 24 81 21 82 23 83 22 84
REMARK H PARENT 3 6 73 24 47 35 8 67 18 78
REMARK Flexibility Score: inf
ROOT
ATOM      1  C   UNL A   1      31.402  32.218  26.531  1.00  0.00     0.023 C 
ENDROOT
BRANCH   1   2
ATOM      2  C   UNL A   1      32.609  32.822  27.242  1.00  0.00     0.116 C 
BRANCH   2   3
ATOM      3  N   UNL A   1      32.380  34.200  27.650  1.00  0.00    -0.352 N 
ATOM      4  O   UNL A   1      32.528  36.033  28.954  1.00  0.00    -0.269 OA
ATOM      5  C   UNL A   1      32.990  34.948  28.630  1.00  0.00     0.251 C 
ATOM      6  H   UNL A   1      31.679  34.672  27.146  1.00  0.00     0.163 HD
BRANCH   5   7
ATOM      7  C   UNL A   1      34.191  34.424  29.314  1.00  0.00     0.039 A 
ATOM      8  C   UNL A   1      35.462  34.594  28.761  1.00  0.00     0.014 A 
ATOM      9  C   UNL A   1      34.039  33.769  30.537  1.00  0.00     0.014 A 
ATOM     10  C   UNL A   1      36.560  33.975  29.347  1.00  0.00     0.010 A 
ATOM     11  C   UNL A   1      35.156  33.221  31.170  1.00  0.00     0.010 A 
ATOM     12  C   UNL A   1      36.420  33.288  30.561  1.00  0.00    -0.014 A 
BRANCH  12  13
ATOM     13  C   UNL A   1      37.602  32.668  31.208  1.00  0.00     0.031 A 
ATOM     14  C   UNL A   1      38.283  31.482  30.587  1.00  0.00     0.074 A 
ATOM     15  C   UNL A   1      38.049  33.170  32.375  1.00  0.00     0.049 A 
ATOM     16  N   UNL A   1      39.269  30.757  31.053  1.00  0.00    -0.248 NA
ATOM     17  C   UNL A   1      37.785  31.046  29.274  1.00  0.00     0.031 C 
ATOM     18  C   UNL A   1      37.474  34.322  33.071  1.00  0.00     0.029 A 
ATOM     19  N   UNL A   1      39.081  32.771  33.183  1.00  0.00    -0.354 N 
ATOM     20  C   UNL A   1      39.491  29.765  30.106  1.00  0.00     0.074 A 
ATOM     21  C   UNL A   1      38.522  29.968  29.050  1.00  0.00     0.031 C 
ATOM     22  C   UNL A   1      38.167  34.544  34.197  1.00  0.00     0.029 A 
ATOM     23  C   UNL A   1      39.192  33.515  34.332  1.00  0.00     0.049 A 
ATOM     24  H   UNL A   1      39.684  32.024  32.963  1.00  0.00     0.167 HD
ATOM     25  C   UNL A   1      40.420  28.779  30.118  1.00  0.00     0.037 A 
ATOM     26  C   UNL A   1      40.003  33.366  35.395  1.00  0.00     0.037 A 
ATOM     27  C   UNL A   1      41.387  28.593  31.171  1.00  0.00     0.049 A 
ATOM     28  C   UNL A   1      40.999  32.244  35.406  1.00  0.00     0.074 A 
ATOM     29  C   UNL A   1      42.392  27.645  31.260  1.00  0.00     0.029 A 
ATOM     30  N   UNL A   1      41.463  29.365  32.321  1.00  0.00    -0.354 N 
ATOM     31  N   UNL A   1      41.215  31.326  34.495  1.00  0.00    -0.248 NA
ATOM     32  C   UNL A   1      41.860  32.134  36.590  1.00  0.00     0.031 C 
ATOM     33  C   UNL A   1      43.045  27.814  32.486  1.00  0.00     0.029 A 
ATOM     34  C   UNL A   1      42.482  28.901  33.137  1.00  0.00     0.049 A 
ATOM     35  H   UNL A   1      40.878  30.130  32.526  1.00  0.00     0.167 HD
ATOM     36  C   UNL A   1      42.254  30.545  34.982  1.00  0.00     0.074 A 
ATOM     37  C   UNL A   1      42.627  31.101  36.267  1.00  0.00     0.031 C 
ATOM     38  C   UNL A   1      42.848  29.470  34.410  1.00  0.00     0.037 A 
BRANCH  25  39
ATOM     39  C   UNL A   1      40.412  27.805  28.975  1.00  0.00     0.057 A 
ATOM     40  C   UNL A   1      39.644  26.634  28.998  1.00  0.00     0.134 A 
ATOM     41  C   UNL A   1      41.171  28.054  27.824  1.00  0.00     0.134 A 
ATOM     42  F   UNL A   1      38.902  26.328  30.073  1.00  0.00    -0.206 F 
ATOM     43  C   UNL A   1      39.657  25.730  27.933  1.00  0.00     0.040 A 
ATOM     44  C   UNL A   1      41.171  27.171  26.742  1.00  0.00     0.040 A 
ATOM     45  F   UNL A   1      41.923  29.161  27.729  1.00  0.00    -0.206 F 
ATOM     46  C   UNL A   1      40.419  26.001  26.798  1.00  0.00     0.006 A 
ENDBRANCH  25  39
BRANCH  26  47
ATOM     47  C   UNL A   1      39.887  34.308  36.533  1.00  0.00     0.057 A 
ATOM     48  C   UNL A   1      40.547  35.541  36.523  1.00  0.00     0.134 A 
ATOM     49  C   UNL A   1      39.073  34.019  37.636  1.00  0.00     0.134 A 
ATOM     50  F   UNL A   1      41.350  35.867  35.500  1.00  0.00    -0.206 F 
ATOM     51  C   UNL A   1      40.405  36.453  37.570  1.00  0.00     0.040 A 
ATOM     52  C   UNL A   1      38.902  34.931  38.677  1.00  0.00     0.040 A 
ATOM     53  F   UNL A   1      38.405  32.857  37.698  1.00  0.00    -0.206 F 
ATOM     54  C   UNL A   1      39.572  36.152  38.647  1.00  0.00     0.006 A 
ENDBRANCH  26  47
BRANCH  38  55
ATOM     55  C   UNL A   1      43.998  28.847  35.145  1.00  0.00     0.057 A 
ATOM     56  C   UNL A   1      45.319  29.266  34.948  1.00  0.00     0.134 A 
ATOM     57  C   UNL A   1      43.769  27.851  36.103  1.00  0.00     0.134 A 
ATOM     58  F   UNL A   1      45.606  30.205  34.033  1.00  0.00    -0.206 F 
ATOM     59  C   UNL A   1      46.374  28.707  35.670  1.00  0.00     0.040 A 
ATOM     60  C   UNL A   1      44.813  27.303  36.849  1.00  0.00     0.040 A 
ATOM     61  F   UNL A   1      42.525  27.410  36.344  1.00  0.00    -0.206 F 
ATOM     62  C   UNL A   1      46.121  27.729  36.631  1.00  0.00     0.006 A 
ENDBRANCH  38  55
ENDBRANCH  12  13
ENDBRANCH   5   7
ENDBRANCH   2   3
ENDBRANCH   1   2
BRANCH   1  63
ATOM     63  C   UNL A   1      31.592  30.782  26.042  1.00  0.00     0.023 C 
BRANCH  63  64
ATOM     64  C   UNL A   1      32.084  29.801  27.101  1.00  0.00     0.116 C 
BRANCH  64  65
ATOM     65  N   UNL A   1      33.122  28.923  26.606  1.00  0.00    -0.356 N 
ATOM     66  C   UNL A   1      32.993  27.711  25.999  1.00  0.00     0.224 C 
ATOM     67  H   UNL A   1      34.045  29.245  26.726  1.00  0.00     0.163 HD
ATOM     68  O   UNL A   1      34.026  27.152  25.624  1.00  0.00    -0.275 OA
BRANCH  66  69
ATOM     69  C   UNL A   1      31.608  27.078  25.865  1.00  0.00     0.098 C 
ATOM     70  C   UNL A   1      31.698  25.570  25.575  1.00  0.00     0.017 C 
ATOM     71  C   UNL A   1      30.754  27.755  24.788  1.00  0.00     0.134 C 
ATOM     72  C   UNL A   1      32.130  25.270  24.142  1.00  0.00     0.022 C 
ATOM     73  N   UNL A   1      31.265  27.496  23.448  1.00  0.00    -0.324 N 
ATOM     74  C   UNL A   1      31.345  26.070  23.108  1.00  0.00     0.121 C 
BRANCH  73  75
ATOM     75  C   UNL A   1      31.825  28.549  22.748  1.00  0.00     0.321 C 
ATOM     76  O   UNL A   1      33.045  28.644  22.579  1.00  0.00    -0.248 OA
ATOM     77  N   UNL A   1      31.031  29.470  22.137  1.00  0.00    -0.308 N 
ATOM     78  H   UNL A   1      31.411  29.873  21.324  1.00  0.00     0.171 HD
BRANCH  77  79
ATOM     79  C   UNL A   1      29.756  29.937  22.485  1.00  0.00     0.042 A 
ATOM     80  C   UNL A   1      28.687  29.047  22.376  1.00  0.00     0.026 A 
ATOM     81  C   UNL A   1      29.550  31.219  23.004  1.00  0.00     0.026 A 
ATOM     82  C   UNL A   1      27.446  29.391  22.914  1.00  0.00     0.002 A 
ATOM     83  C   UNL A   1      28.303  31.569  23.520  1.00  0.00     0.002 A 
ATOM     84  C   UNL A   1      27.260  30.643  23.501  1.00  0.00     0.000 A 
ENDBRANCH  77  79
ENDBRANCH  73  75
ENDBRANCH  66  69
ENDBRANCH  64  65
ENDBRANCH  63  64
ENDBRANCH   1  63
TORSDOF 13
ENDMDL
