MODEL 1
REMARK VINA RESULT:      -9.3      0.000      0.000
REMARK SMILES O=C(CCCCCC(F)(F)c1ccccc1)NCCCCNC(=O)c1ccc(-c2c3nc(c(-c4c(F)cccc4F)c4ccc([nH]4)c(-c4c(F)cccc4F)c4nc(c(-c5c(F)cccc5F)c5ccc2[nH]5)C=C4)C=C3)cc1
REMARK SMILES IDX 1 1 2 2 17 3 3 5 4 6 5 7 6 8 7 9 8 10 9 11 10 12 11 13 12 14
REMARK SMILES IDX 16 15 13 16 15 17 14 18 18 19 19 20 20 21 21 22 22 23 23 24
REMARK SMILES IDX 24 26 25 27 26 28 78 29 27 30 77 31 28 32 29 33 30 34 71 35
REMARK SMILES IDX 31 36 76 37 70 38 72 39 32 40 75 41 69 42 68 43 33 45 59 46
REMARK SMILES IDX 42 47 58 48 43 49 46 50 57 51 73 52 44 53 45 54 56 56 74 57
REMARK SMILES IDX 47 58 34 59 35 60 40 61 36 62 37 63 39 64 41 65 38 66 60 67
REMARK SMILES IDX 61 68 66 69 62 70 63 71 65 72 67 73 64 74 48 75 49 76 54 77
REMARK SMILES IDX 50 78 51 79 53 80 55 81 52 82
REMARK H PARENT 17 4 22 25 72 44 46 55
REMARK Flexibility Score: inf
ROOT
ATOM      1  O   UNL A   1      45.242  17.699  25.709  1.00  0.00    -0.275 OA
ATOM      2  C   UNL A   1      45.025  18.904  25.638  1.00  0.00     0.219 C 
ATOM      3  N   UNL A   1      43.781  19.473  25.787  1.00  0.00    -0.356 N 
ATOM      4  H   UNL A   1      43.705  20.454  25.797  1.00  0.00     0.163 HD
ENDROOT
BRANCH   2   5
ATOM      5  C   UNL A   1      46.108  19.911  25.297  1.00  0.00     0.100 C 
BRANCH   5   6
ATOM      6  C   UNL A   1      45.588  20.981  24.340  1.00  0.00     0.010 C 
BRANCH   6   7
ATOM      7  C   UNL A   1      45.921  22.423  24.735  1.00  0.00     0.001 C 
BRANCH   7   8
ATOM      8  C   UNL A   1      44.912  23.491  24.304  1.00  0.00     0.007 C 
BRANCH   8   9
ATOM      9  C   UNL A   1      44.930  24.805  25.103  1.00  0.00     0.082 C 
BRANCH   9  10
ATOM     10  C   UNL A   1      43.688  25.092  25.975  1.00  0.00     0.273 C 
ATOM     11  F   UNL A   1      43.389  26.420  25.856  1.00  0.00    -0.201 F 
ATOM     12  F   UNL A   1      42.638  24.441  25.386  1.00  0.00    -0.201 F 
BRANCH  10  13
ATOM     13  C   UNL A   1      43.854  24.657  27.415  1.00  0.00     0.021 A 
ATOM     14  C   UNL A   1      45.071  24.847  28.089  1.00  0.00     0.010 A 
ATOM     15  C   UNL A   1      42.816  23.976  28.070  1.00  0.00     0.010 A 
ATOM     16  C   UNL A   1      45.285  24.261  29.338  1.00  0.00     0.001 A 
ATOM     17  C   UNL A   1      43.021  23.420  29.334  1.00  0.00     0.001 A 
ATOM     18  C   UNL A   1      44.265  23.537  29.953  1.00  0.00     0.000 A 
ENDBRANCH  10  13
ENDBRANCH   9  10
ENDBRANCH   8   9
ENDBRANCH   7   8
ENDBRANCH   6   7
ENDBRANCH   5   6
ENDBRANCH   2   5
BRANCH   3  19
ATOM     19  C   UNL A   1      42.579  18.680  25.931  1.00  0.00     0.116 C 
BRANCH  19  20
ATOM     20  C   UNL A   1      41.374  19.545  26.289  1.00  0.00     0.023 C 
BRANCH  20  21
ATOM     21  C   UNL A   1      41.594  21.056  26.145  1.00  0.00     0.023 C 
BRANCH  21  22
ATOM     22  C   UNL A   1      40.610  21.936  26.912  1.00  0.00     0.116 C 
BRANCH  22  23
ATOM     23  N   UNL A   1      39.518  22.408  26.075  1.00  0.00    -0.352 N 
ATOM     24  C   UNL A   1      38.829  23.593  26.100  1.00  0.00     0.251 C 
ATOM     25  H   UNL A   1      39.228  21.775  25.379  1.00  0.00     0.163 HD
ATOM     26  O   UNL A   1      37.806  23.714  25.423  1.00  0.00    -0.269 OA
BRANCH  24  27
ATOM     27  C   UNL A   1      39.279  24.723  26.942  1.00  0.00     0.039 A 
ATOM     28  C   UNL A   1      40.043  25.737  26.356  1.00  0.00     0.014 A 
ATOM     29  C   UNL A   1      38.990  24.774  28.309  1.00  0.00     0.014 A 
ATOM     30  C   UNL A   1      40.457  26.831  27.120  1.00  0.00     0.010 A 
ATOM     31  C   UNL A   1      39.341  25.900  29.054  1.00  0.00     0.010 A 
ATOM     32  C   UNL A   1      40.077  26.942  28.468  1.00  0.00    -0.014 A 
BRANCH  32  33
ATOM     33  C   UNL A   1      40.429  28.143  29.271  1.00  0.00     0.031 A 
ATOM     34  C   UNL A   1      41.752  28.226  29.983  1.00  0.00     0.074 A 
ATOM     35  C   UNL A   1      39.530  29.137  29.410  1.00  0.00     0.049 A 
ATOM     36  N   UNL A   1      42.202  29.157  30.785  1.00  0.00    -0.248 NA
ATOM     37  C   UNL A   1      42.681  27.103  29.787  1.00  0.00     0.031 C 
ATOM     38  C   UNL A   1      38.196  29.162  28.808  1.00  0.00     0.029 A 
ATOM     39  N   UNL A   1      39.597  30.313  30.116  1.00  0.00    -0.354 N 
ATOM     40  C   UNL A   1      43.458  28.731  31.195  1.00  0.00     0.074 A 
ATOM     41  C   UNL A   1      43.678  27.432  30.597  1.00  0.00     0.031 C 
ATOM     42  C   UNL A   1      37.579  30.302  29.154  1.00  0.00     0.029 A 
ATOM     43  C   UNL A   1      38.452  31.070  30.035  1.00  0.00     0.049 A 
ATOM     44  H   UNL A   1      40.390  30.589  30.630  1.00  0.00     0.167 HD
ATOM     45  C   UNL A   1      44.359  29.371  31.979  1.00  0.00     0.037 A 
ATOM     46  C   UNL A   1      38.135  32.242  30.617  1.00  0.00     0.037 A 
ATOM     47  C   UNL A   1      44.147  30.670  32.565  1.00  0.00     0.049 A 
ATOM     48  C   UNL A   1      39.143  32.923  31.500  1.00  0.00     0.074 A 
ATOM     49  C   UNL A   1      45.019  31.421  33.334  1.00  0.00     0.029 A 
ATOM     50  N   UNL A   1      42.979  31.409  32.449  1.00  0.00    -0.354 N 
ATOM     51  N   UNL A   1      40.352  32.537  31.828  1.00  0.00    -0.248 NA
ATOM     52  C   UNL A   1      38.744  34.209  32.091  1.00  0.00     0.031 C 
ATOM     53  C   UNL A   1      44.362  32.593  33.724  1.00  0.00     0.029 A 
ATOM     54  C   UNL A   1      43.101  32.598  33.151  1.00  0.00     0.049 A 
ATOM     55  H   UNL A   1      42.182  31.131  31.942  1.00  0.00     0.167 HD
ATOM     56  C   UNL A   1      40.868  33.542  32.636  1.00  0.00     0.074 A 
ATOM     57  C   UNL A   1      39.847  34.562  32.737  1.00  0.00     0.031 C 
ATOM     58  C   UNL A   1      42.079  33.611  33.239  1.00  0.00     0.037 A 
BRANCH  45  59
ATOM     59  C   UNL A   1      45.663  28.674  32.251  1.00  0.00     0.057 A 
ATOM     60  C   UNL A   1      45.824  27.815  33.346  1.00  0.00     0.134 A 
ATOM     61  C   UNL A   1      46.755  28.833  31.388  1.00  0.00     0.134 A 
ATOM     62  F   UNL A   1      44.822  27.625  34.216  1.00  0.00    -0.206 F 
ATOM     63  C   UNL A   1      47.034  27.160  33.588  1.00  0.00     0.040 A 
ATOM     64  C   UNL A   1      47.959  28.161  31.604  1.00  0.00     0.040 A 
ATOM     65  F   UNL A   1      46.665  29.634  30.316  1.00  0.00    -0.206 F 
ATOM     66  C   UNL A   1      48.104  27.327  32.711  1.00  0.00     0.006 A 
ENDBRANCH  45  59
BRANCH  46  67
ATOM     67  C   UNL A   1      36.804  32.856  30.373  1.00  0.00     0.057 A 
ATOM     68  C   UNL A   1      35.748  32.675  31.273  1.00  0.00     0.134 A 
ATOM     69  C   UNL A   1      36.553  33.625  29.230  1.00  0.00     0.134 A 
ATOM     70  F   UNL A   1      35.921  31.933  32.377  1.00  0.00    -0.206 F 
ATOM     71  C   UNL A   1      34.484  33.218  31.035  1.00  0.00     0.040 A 
ATOM     72  C   UNL A   1      35.302  34.197  28.994  1.00  0.00     0.040 A 
ATOM     73  F   UNL A   1      37.525  33.843  28.332  1.00  0.00    -0.206 F 
ATOM     74  C   UNL A   1      34.261  33.987  29.895  1.00  0.00     0.006 A 
ENDBRANCH  46  67
BRANCH  58  75
ATOM     75  C   UNL A   1      42.384  34.849  34.033  1.00  0.00     0.057 A 
ATOM     76  C   UNL A   1      42.168  34.918  35.415  1.00  0.00     0.134 A 
ATOM     77  C   UNL A   1      42.935  35.976  33.409  1.00  0.00     0.134 A 
ATOM     78  F   UNL A   1      41.630  33.878  36.072  1.00  0.00    -0.206 F 
ATOM     79  C   UNL A   1      42.467  36.070  36.144  1.00  0.00     0.040 A 
ATOM     80  C   UNL A   1      43.264  37.123  34.132  1.00  0.00     0.040 A 
ATOM     81  F   UNL A   1      43.175  35.976  32.089  1.00  0.00    -0.206 F 
ATOM     82  C   UNL A   1      43.024  37.175  35.503  1.00  0.00     0.006 A 
ENDBRANCH  58  75
ENDBRANCH  32  33
ENDBRANCH  24  27
ENDBRANCH  22  23
ENDBRANCH  21  22
ENDBRANCH  20  21
ENDBRANCH  19  20
ENDBRANCH   3  19
TORSDOF 17
ENDMDL
MODEL 2
REMARK VINA RESULT:      -9.2      4.662      9.876
REMARK SMILES O=C(CCCCCC(F)(F)c1ccccc1)NCCCCNC(=O)c1ccc(-c2c3nc(c(-c4c(F)cccc4F)c4ccc([nH]4)c(-c4c(F)cccc4F)c4nc(c(-c5c(F)cccc5F)c5ccc2[nH]5)C=C4)C=C3)cc1
REMARK SMILES IDX 1 1 2 2 17 3 3 5 4 6 5 7 6 8 7 9 8 10 9 11 10 12 11 13 12 14
REMARK SMILES IDX 16 15 13 16 15 17 14 18 18 19 19 20 20 21 21 22 22 23 23 24
REMARK SMILES IDX 24 26 25 27 26 28 78 29 27 30 77 31 28 32 29 33 30 34 71 35
REMARK SMILES IDX 31 36 76 37 70 38 72 39 32 40 75 41 69 42 68 43 33 45 59 46
REMARK SMILES IDX 42 47 58 48 43 49 46 50 57 51 73 52 44 53 45 54 56 56 74 57
REMARK SMILES IDX 47 58 34 59 35 60 40 61 36 62 37 63 39 64 41 65 38 66 60 67
REMARK SMILES IDX 61 68 66 69 62 70 63 71 65 72 67 73 64 74 48 75 49 76 54 77
REMARK SMILES IDX 50 78 51 79 53 80 55 81 52 82
REMARK H PARENT 17 4 22 25 72 44 46 55
REMARK Flexibility Score: inf
ROOT
ATOM      1  O   UNL A   1      35.478  23.360  22.905  1.00  0.00    -0.275 OA
ATOM      2  C   UNL A   1      35.442  23.504  24.123  1.00  0.00     0.219 C 
ATOM      3  N   UNL A   1      36.338  22.927  24.993  1.00  0.00    -0.356 N 
ATOM      4  H   UNL A   1      36.289  23.159  25.949  1.00  0.00     0.163 HD
ENDROOT
BRANCH   2   5
ATOM      5  C   UNL A   1      34.345  24.285  24.821  1.00  0.00     0.100 C 
BRANCH   5   6
ATOM      6  C   UNL A   1      34.229  23.885  26.290  1.00  0.00     0.010 C 
BRANCH   6   7
ATOM      7  C   UNL A   1      32.907  23.216  26.679  1.00  0.00     0.001 C 
BRANCH   7   8
ATOM      8  C   UNL A   1      32.997  21.755  27.127  1.00  0.00     0.007 C 
BRANCH   8   9
ATOM      9  C   UNL A   1      33.852  20.826  26.248  1.00  0.00     0.082 C 
BRANCH   9  10
ATOM     10  C   UNL A   1      33.135  20.171  25.047  1.00  0.00     0.273 C 
ATOM     11  F   UNL A   1      31.812  20.511  25.111  1.00  0.00    -0.201 F 
ATOM     12  F   UNL A   1      33.604  20.795  23.923  1.00  0.00    -0.201 F 
BRANCH  10  13
ATOM     13  C   UNL A   1      33.349  18.675  24.965  1.00  0.00     0.021 A 
ATOM     14  C   UNL A   1      32.513  17.788  25.662  1.00  0.00     0.010 A 
ATOM     15  C   UNL A   1      34.447  18.158  24.259  1.00  0.00     0.010 A 
ATOM     16  C   UNL A   1      32.839  16.434  25.752  1.00  0.00     0.001 A 
ATOM     17  C   UNL A   1      34.751  16.797  24.322  1.00  0.00     0.001 A 
ATOM     18  C   UNL A   1      33.965  15.942  25.094  1.00  0.00     0.000 A 
ENDBRANCH  10  13
ENDBRANCH   9  10
ENDBRANCH   8   9
ENDBRANCH   7   8
ENDBRANCH   6   7
ENDBRANCH   5   6
ENDBRANCH   2   5
BRANCH   3  19
ATOM     19  C   UNL A   1      37.350  21.991  24.555  1.00  0.00     0.116 C 
BRANCH  19  20
ATOM     20  C   UNL A   1      36.853  20.550  24.624  1.00  0.00     0.023 C 
BRANCH  20  21
ATOM     21  C   UNL A   1      37.918  19.514  25.006  1.00  0.00     0.023 C 
BRANCH  21  22
ATOM     22  C   UNL A   1      39.188  20.083  25.633  1.00  0.00     0.116 C 
BRANCH  22  23
ATOM     23  N   UNL A   1      40.215  19.071  25.822  1.00  0.00    -0.352 N 
ATOM     24  C   UNL A   1      41.557  19.204  26.073  1.00  0.00     0.251 C 
ATOM     25  H   UNL A   1      39.897  18.142  25.760  1.00  0.00     0.163 HD
ATOM     26  O   UNL A   1      42.288  18.213  26.008  1.00  0.00    -0.269 OA
BRANCH  24  27
ATOM     27  C   UNL A   1      42.148  20.521  26.400  1.00  0.00     0.039 A 
ATOM     28  C   UNL A   1      42.605  21.331  25.357  1.00  0.00     0.014 A 
ATOM     29  C   UNL A   1      42.290  20.947  27.724  1.00  0.00     0.014 A 
ATOM     30  C   UNL A   1      43.140  22.592  25.635  1.00  0.00     0.010 A 
ATOM     31  C   UNL A   1      42.757  22.233  27.996  1.00  0.00     0.010 A 
ATOM     32  C   UNL A   1      43.186  23.071  26.955  1.00  0.00    -0.014 A 
BRANCH  32  33
ATOM     33  C   UNL A   1      43.666  24.445  27.259  1.00  0.00     0.031 A 
ATOM     34  C   UNL A   1      42.705  25.506  27.721  1.00  0.00     0.074 A 
ATOM     35  C   UNL A   1      44.963  24.755  27.061  1.00  0.00     0.049 A 
ATOM     36  N   UNL A   1      42.926  26.773  27.963  1.00  0.00    -0.248 NA
ATOM     37  C   UNL A   1      41.307  25.095  27.912  1.00  0.00     0.031 C 
ATOM     38  C   UNL A   1      45.989  23.831  26.577  1.00  0.00     0.029 A 
ATOM     39  N   UNL A   1      45.636  25.941  27.229  1.00  0.00    -0.354 N 
ATOM     40  C   UNL A   1      41.699  27.311  28.326  1.00  0.00     0.074 A 
ATOM     41  C   UNL A   1      40.725  26.245  28.220  1.00  0.00     0.031 C 
ATOM     42  C   UNL A   1      47.163  24.478  26.503  1.00  0.00     0.029 A 
ATOM     43  C   UNL A   1      46.967  25.870  26.894  1.00  0.00     0.049 A 
ATOM     44  H   UNL A   1      45.205  26.763  27.558  1.00  0.00     0.167 HD
ATOM     45  C   UNL A   1      41.410  28.571  28.733  1.00  0.00     0.037 A 
ATOM     46  C   UNL A   1      47.919  26.823  26.887  1.00  0.00     0.037 A 
ATOM     47  C   UNL A   1      42.380  29.629  28.851  1.00  0.00     0.049 A 
ATOM     48  C   UNL A   1      47.569  28.219  27.323  1.00  0.00     0.074 A 
ATOM     49  C   UNL A   1      42.192  30.924  29.300  1.00  0.00     0.029 A 
ATOM     50  N   UNL A   1      43.720  29.514  28.514  1.00  0.00    -0.354 N 
ATOM     51  N   UNL A   1      46.416  28.696  27.723  1.00  0.00    -0.248 NA
ATOM     52  C   UNL A   1      48.656  29.208  27.311  1.00  0.00     0.031 C 
ATOM     53  C   UNL A   1      43.408  31.607  29.190  1.00  0.00     0.029 A 
ATOM     54  C   UNL A   1      44.366  30.722  28.725  1.00  0.00     0.049 A 
ATOM     55  H   UNL A   1      44.150  28.695  28.176  1.00  0.00     0.167 HD
ATOM     56  C   UNL A   1      46.644  30.029  28.039  1.00  0.00     0.074 A 
ATOM     57  C   UNL A   1      48.048  30.282  27.797  1.00  0.00     0.031 C 
ATOM     58  C   UNL A   1      45.767  30.960  28.488  1.00  0.00     0.037 A 
BRANCH  45  59
ATOM     59  C   UNL A   1      39.980  28.876  29.083  1.00  0.00     0.057 A 
ATOM     60  C   UNL A   1      39.051  29.270  28.110  1.00  0.00     0.134 A 
ATOM     61  C   UNL A   1      39.518  28.738  30.398  1.00  0.00     0.134 A 
ATOM     62  F   UNL A   1      39.429  29.431  26.833  1.00  0.00    -0.206 F 
ATOM     63  C   UNL A   1      37.721  29.542  28.438  1.00  0.00     0.040 A 
ATOM     64  C   UNL A   1      38.184  28.978  30.732  1.00  0.00     0.040 A 
ATOM     65  F   UNL A   1      40.352  28.356  31.376  1.00  0.00    -0.206 F 
ATOM     66  C   UNL A   1      37.283  29.389  29.751  1.00  0.00     0.006 A 
ENDBRANCH  45  59
BRANCH  46  67
ATOM     67  C   UNL A   1      49.303  26.486  26.464  1.00  0.00     0.057 A 
ATOM     68  C   UNL A   1      50.237  25.987  27.379  1.00  0.00     0.134 A 
ATOM     69  C   UNL A   1      49.727  26.667  25.142  1.00  0.00     0.134 A 
ATOM     70  F   UNL A   1      49.896  25.809  28.664  1.00  0.00    -0.206 F 
ATOM     71  C   UNL A   1      51.550  25.700  27.000  1.00  0.00     0.040 A 
ATOM     72  C   UNL A   1      51.029  26.359  24.744  1.00  0.00     0.040 A 
ATOM     73  F   UNL A   1      48.878  27.134  24.216  1.00  0.00    -0.206 F 
ATOM     74  C   UNL A   1      51.947  25.881  25.677  1.00  0.00     0.006 A 
ENDBRANCH  46  67
BRANCH  58  75
ATOM     75  C   UNL A   1      46.308  32.329  28.785  1.00  0.00     0.057 A 
ATOM     76  C   UNL A   1      46.318  33.348  27.824  1.00  0.00     0.134 A 
ATOM     77  C   UNL A   1      46.792  32.641  30.061  1.00  0.00     0.134 A 
ATOM     78  F   UNL A   1      45.882  33.112  26.577  1.00  0.00    -0.206 F 
ATOM     79  C   UNL A   1      46.811  34.621  28.116  1.00  0.00     0.040 A 
ATOM     80  C   UNL A   1      47.262  33.918  30.373  1.00  0.00     0.040 A 
ATOM     81  F   UNL A   1      46.804  31.714  31.032  1.00  0.00    -0.206 F 
ATOM     82  C   UNL A   1      47.279  34.911  29.397  1.00  0.00     0.006 A 
ENDBRANCH  58  75
ENDBRANCH  32  33
ENDBRANCH  24  27
ENDBRANCH  22  23
ENDBRANCH  21  22
ENDBRANCH  20  21
ENDBRANCH  19  20
ENDBRANCH   3  19
TORSDOF 17
ENDMDL
MODEL 3
REMARK VINA RESULT:      -9.0      3.909      9.300
REMARK SMILES O=C(CCCCCC(F)(F)c1ccccc1)NCCCCNC(=O)c1ccc(-c2c3nc(c(-c4c(F)cccc4F)c4ccc([nH]4)c(-c4c(F)cccc4F)c4nc(c(-c5c(F)cccc5F)c5ccc2[nH]5)C=C4)C=C3)cc1
REMARK SMILES IDX 1 1 2 2 17 3 3 5 4 6 5 7 6 8 7 9 8 10 9 11 10 12 11 13 12 14
REMARK SMILES IDX 16 15 13 16 15 17 14 18 18 19 19 20 20 21 21 22 22 23 23 24
REMARK SMILES IDX 24 26 25 27 26 28 78 29 27 30 77 31 28 32 29 33 30 34 71 35
REMARK SMILES IDX 31 36 76 37 70 38 72 39 32 40 75 41 69 42 68 43 33 45 59 46
REMARK SMILES IDX 42 47 58 48 43 49 46 50 57 51 73 52 44 53 45 54 56 56 74 57
REMARK SMILES IDX 47 58 34 59 35 60 40 61 36 62 37 63 39 64 41 65 38 66 60 67
REMARK SMILES IDX 61 68 66 69 62 70 63 71 65 72 67 73 64 74 48 75 49 76 54 77
REMARK SMILES IDX 50 78 51 79 53 80 55 81 52 82
REMARK H PARENT 17 4 22 25 72 44 46 55
REMARK Flexibility Score: inf
ROOT
ATOM      1  O   UNL A   1      34.470  28.102  26.547  1.00  0.00    -0.275 OA
ATOM      2  C   UNL A   1      33.429  27.582  26.157  1.00  0.00     0.219 C 
ATOM      3  N   UNL A   1      32.194  28.183  26.230  1.00  0.00    -0.356 N 
ATOM      4  H   UNL A   1      31.421  27.732  25.821  1.00  0.00     0.163 HD
ENDROOT
BRANCH   2   5
ATOM      5  C   UNL A   1      33.377  26.168  25.610  1.00  0.00     0.100 C 
BRANCH   5   6
ATOM      6  C   UNL A   1      31.954  25.614  25.641  1.00  0.00     0.010 C 
BRANCH   6   7
ATOM      7  C   UNL A   1      31.738  24.431  26.590  1.00  0.00     0.001 C 
BRANCH   7   8
ATOM      8  C   UNL A   1      31.236  23.135  25.948  1.00  0.00     0.007 C 
BRANCH   8   9
ATOM      9  C   UNL A   1      31.966  22.683  24.671  1.00  0.00     0.082 C 
BRANCH   9  10
ATOM     10  C   UNL A   1      33.190  21.764  24.872  1.00  0.00     0.273 C 
ATOM     11  F   UNL A   1      33.006  21.068  26.034  1.00  0.00    -0.201 F 
ATOM     12  F   UNL A   1      33.137  20.819  23.884  1.00  0.00    -0.201 F 
BRANCH  10  13
ATOM     13  C   UNL A   1      34.508  22.507  24.840  1.00  0.00     0.021 A 
ATOM     14  C   UNL A   1      35.220  22.659  23.638  1.00  0.00     0.010 A 
ATOM     15  C   UNL A   1      35.082  22.978  26.031  1.00  0.00     0.010 A 
ATOM     16  C   UNL A   1      36.524  23.157  23.649  1.00  0.00     0.001 A 
ATOM     17  C   UNL A   1      36.373  23.507  26.033  1.00  0.00     0.001 A 
ATOM     18  C   UNL A   1      37.104  23.567  24.848  1.00  0.00     0.000 A 
ENDBRANCH  10  13
ENDBRANCH   9  10
ENDBRANCH   8   9
ENDBRANCH   7   8
ENDBRANCH   6   7
ENDBRANCH   5   6
ENDBRANCH   2   5
BRANCH   3  19
ATOM     19  C   UNL A   1      31.989  29.455  26.889  1.00  0.00     0.116 C 
BRANCH  19  20
ATOM     20  C   UNL A   1      31.444  30.507  25.926  1.00  0.00     0.023 C 
BRANCH  20  21
ATOM     21  C   UNL A   1      31.294  31.913  26.520  1.00  0.00     0.023 C 
BRANCH  21  22
ATOM     22  C   UNL A   1      32.534  32.463  27.220  1.00  0.00     0.116 C 
BRANCH  22  23
ATOM     23  N   UNL A   1      32.383  33.858  27.602  1.00  0.00    -0.352 N 
ATOM     24  C   UNL A   1      33.115  34.625  28.472  1.00  0.00     0.251 C 
ATOM     25  H   UNL A   1      31.636  34.328  27.165  1.00  0.00     0.163 HD
ATOM     26  O   UNL A   1      32.699  35.738  28.798  1.00  0.00    -0.269 OA
BRANCH  24  27
ATOM     27  C   UNL A   1      34.387  34.130  29.043  1.00  0.00     0.039 A 
ATOM     28  C   UNL A   1      34.354  33.426  30.251  1.00  0.00     0.014 A 
ATOM     29  C   UNL A   1      35.613  34.386  28.423  1.00  0.00     0.014 A 
ATOM     30  C   UNL A   1      35.537  32.922  30.799  1.00  0.00     0.010 A 
ATOM     31  C   UNL A   1      36.784  33.822  28.931  1.00  0.00     0.010 A 
ATOM     32  C   UNL A   1      36.759  33.082  30.124  1.00  0.00    -0.014 A 
BRANCH  32  33
ATOM     33  C   UNL A   1      38.011  32.474  30.644  1.00  0.00     0.031 A 
ATOM     34  C   UNL A   1      38.542  31.195  30.057  1.00  0.00     0.074 A 
ATOM     35  C   UNL A   1      38.641  33.042  31.692  1.00  0.00     0.049 A 
ATOM     36  N   UNL A   1      39.575  30.480  30.427  1.00  0.00    -0.248 NA
ATOM     37  C   UNL A   1      37.801  30.631  28.919  1.00  0.00     0.031 C 
ATOM     38  C   UNL A   1      38.209  34.259  32.380  1.00  0.00     0.029 A 
ATOM     39  N   UNL A   1      39.774  32.661  32.370  1.00  0.00    -0.354 N 
ATOM     40  C   UNL A   1      39.603  29.383  29.576  1.00  0.00     0.074 A 
ATOM     41  C   UNL A   1      38.452  29.497  28.705  1.00  0.00     0.031 C 
ATOM     42  C   UNL A   1      39.073  34.534  33.370  1.00  0.00     0.029 A 
ATOM     43  C   UNL A   1      40.096  33.495  33.414  1.00  0.00     0.049 A 
ATOM     44  H   UNL A   1      40.305  31.868  32.130  1.00  0.00     0.167 HD
ATOM     45  C   UNL A   1      40.514  28.383  29.509  1.00  0.00     0.037 A 
ATOM     46  C   UNL A   1      41.094  33.422  34.316  1.00  0.00     0.037 A 
ATOM     47  C   UNL A   1      41.666  28.276  30.366  1.00  0.00     0.049 A 
ATOM     48  C   UNL A   1      42.081  32.291  34.233  1.00  0.00     0.074 A 
ATOM     49  C   UNL A   1      42.673  27.325  30.344  1.00  0.00     0.029 A 
ATOM     50  N   UNL A   1      41.965  29.147  31.404  1.00  0.00    -0.354 N 
ATOM     51  N   UNL A   1      42.130  31.295  33.383  1.00  0.00    -0.248 NA
ATOM     52  C   UNL A   1      43.158  32.278  35.235  1.00  0.00     0.031 C 
ATOM     53  C   UNL A   1      43.553  27.593  31.397  1.00  0.00     0.029 A 
ATOM     54  C   UNL A   1      43.127  28.743  32.041  1.00  0.00     0.049 A 
ATOM     55  H   UNL A   1      41.430  29.936  31.650  1.00  0.00     0.167 HD
ATOM     56  C   UNL A   1      43.254  30.555  33.726  1.00  0.00     0.074 A 
ATOM     57  C   UNL A   1      43.868  31.225  34.853  1.00  0.00     0.031 C 
ATOM     58  C   UNL A   1      43.733  29.422  33.158  1.00  0.00     0.037 A 
BRANCH  45  59
ATOM     59  C   UNL A   1      40.303  27.320  28.468  1.00  0.00     0.057 A 
ATOM     60  C   UNL A   1      40.906  27.396  27.205  1.00  0.00     0.134 A 
ATOM     61  C   UNL A   1      39.522  26.191  28.743  1.00  0.00     0.134 A 
ATOM     62  F   UNL A   1      41.659  28.454  26.872  1.00  0.00    -0.206 F 
ATOM     63  C   UNL A   1      40.716  26.400  26.244  1.00  0.00     0.040 A 
ATOM     64  C   UNL A   1      39.349  25.175  27.801  1.00  0.00     0.040 A 
ATOM     65  F   UNL A   1      38.923  26.050  29.935  1.00  0.00    -0.206 F 
ATOM     66  C   UNL A   1      39.941  25.282  26.544  1.00  0.00     0.006 A 
ENDBRANCH  45  59
BRANCH  46  67
ATOM     67  C   UNL A   1      41.219  34.461  35.371  1.00  0.00     0.057 A 
ATOM     68  C   UNL A   1      42.021  35.592  35.180  1.00  0.00     0.134 A 
ATOM     69  C   UNL A   1      40.551  34.342  36.596  1.00  0.00     0.134 A 
ATOM     70  F   UNL A   1      42.700  35.753  34.035  1.00  0.00    -0.206 F 
ATOM     71  C   UNL A   1      42.173  36.557  36.179  1.00  0.00     0.040 A 
ATOM     72  C   UNL A   1      40.673  35.312  37.592  1.00  0.00     0.040 A 
ATOM     73  F   UNL A   1      39.761  33.286  36.837  1.00  0.00    -0.206 F 
ATOM     74  C   UNL A   1      41.492  36.420  37.386  1.00  0.00     0.006 A 
ENDBRANCH  46  67
BRANCH  58  75
ATOM     75  C   UNL A   1      45.005  28.854  33.720  1.00  0.00     0.057 A 
ATOM     76  C   UNL A   1      45.002  27.883  34.730  1.00  0.00     0.134 A 
ATOM     77  C   UNL A   1      46.248  29.259  33.218  1.00  0.00     0.134 A 
ATOM     78  F   UNL A   1      43.846  27.461  35.265  1.00  0.00    -0.206 F 
ATOM     79  C   UNL A   1      46.190  27.353  35.236  1.00  0.00     0.040 A 
ATOM     80  C   UNL A   1      47.441  28.716  33.696  1.00  0.00     0.040 A 
ATOM     81  F   UNL A   1      46.323  30.180  32.244  1.00  0.00    -0.206 F 
ATOM     82  C   UNL A   1      47.415  27.765  34.713  1.00  0.00     0.006 A 
ENDBRANCH  58  75
ENDBRANCH  32  33
ENDBRANCH  24  27
ENDBRANCH  22  23
ENDBRANCH  21  22
ENDBRANCH  20  21
ENDBRANCH  19  20
ENDBRANCH   3  19
TORSDOF 17
ENDMDL
