MODEL 1
REMARK VINA RESULT:     -11.3      0.000      0.000
REMARK SMILES O=C(CSc1nc2cnccc2n1CC(F)(F)F)NCCCCNC(=O)c1ccc(-c2c3nc(c(-c4c(F)cccc4F)c4ccc([nH]4)c(-c4c(F)cccc4F)c4nc(c(-c5c(F)cccc5F)c5ccc2[nH]5)C=C4)C=C3)cc1
REMARK SMILES IDX 20 1 19 2 1 3 2 4 3 6 4 7 5 8 6 9 13 10 7 11 12 12 8 13
REMARK SMILES IDX 11 14 9 15 10 16 14 17 15 18 16 19 17 20 18 21 21 22 22 23
REMARK SMILES IDX 23 24 24 25 25 26 26 28 27 29 28 30 80 31 29 32 79 33 30 34
REMARK SMILES IDX 31 35 32 36 73 37 33 38 78 39 72 40 74 41 34 42 77 43 71 44
REMARK SMILES IDX 70 45 35 47 61 48 44 49 60 50 45 51 48 52 59 53 75 54 46 55
REMARK SMILES IDX 47 56 58 58 76 59 49 60 36 61 37 62 42 63 38 64 39 65 41 66
REMARK SMILES IDX 43 67 40 68 62 69 63 70 68 71 64 72 65 73 67 74 69 75 66 76
REMARK SMILES IDX 50 77 51 78 56 79 52 80 53 81 55 82 57 83 54 84
REMARK H PARENT 19 5 24 27 74 46 48 57
REMARK Flexibility Score: inf
ROOT
ATOM      1  C   UNL A   1      40.138  22.334  27.051  1.00  0.00     0.116 C 
ENDROOT
BRANCH   1   2
ATOM      2  N   UNL A   1      39.148  22.080  26.025  1.00  0.00    -0.355 N 
ATOM      3  O   UNL A   1      37.872  23.968  26.392  1.00  0.00    -0.274 OA
ATOM      4  C   UNL A   1      38.084  22.915  25.782  1.00  0.00     0.230 C 
ATOM      5  H   UNL A   1      39.241  21.268  25.474  1.00  0.00     0.163 HD
BRANCH   4   6
ATOM      6  C   UNL A   1      37.121  22.409  24.735  1.00  0.00     0.178 C 
BRANCH   6   7
ATOM      7  S   UNL A   1      36.060  21.089  25.345  1.00  0.00    -0.078 SA
BRANCH   7   8
ATOM      8  C   UNL A   1      34.575  21.861  25.792  1.00  0.00     0.169 A 
ATOM      9  N   UNL A   1      34.524  23.160  25.986  1.00  0.00    -0.221 NA
ATOM     10  N   UNL A   1      33.325  21.290  25.824  1.00  0.00    -0.310 N 
ATOM     11  C   UNL A   1      33.196  23.462  26.145  1.00  0.00     0.108 A 
ATOM     12  C   UNL A   1      32.415  22.311  26.057  1.00  0.00     0.072 A 
ATOM     13  C   UNL A   1      32.570  24.694  26.355  1.00  0.00     0.141 A 
ATOM     14  C   UNL A   1      31.025  22.359  26.189  1.00  0.00     0.049 A 
ATOM     15  N   UNL A   1      31.217  24.766  26.483  1.00  0.00    -0.262 NA
ATOM     16  C   UNL A   1      30.496  23.625  26.403  1.00  0.00     0.113 A 
BRANCH  10  17
ATOM     17  C   UNL A   1      32.953  19.897  25.698  1.00  0.00     0.240 C 
BRANCH  17  18
ATOM     18  C   UNL A   1      32.885  19.376  24.280  1.00  0.00     0.406 C 
ATOM     19  F   UNL A   1      32.670  20.352  23.377  1.00  0.00    -0.169 F 
ATOM     20  F   UNL A   1      34.069  18.802  23.952  1.00  0.00    -0.169 F 
ATOM     21  F   UNL A   1      31.931  18.436  24.127  1.00  0.00    -0.169 F 
ENDBRANCH  17  18
ENDBRANCH  10  17
ENDBRANCH   7   8
ENDBRANCH   6   7
ENDBRANCH   4   6
ENDBRANCH   1   2
BRANCH   1  22
ATOM     22  C   UNL A   1      40.879  21.060  27.456  1.00  0.00     0.023 C 
BRANCH  22  23
ATOM     23  C   UNL A   1      41.151  20.064  26.318  1.00  0.00     0.023 C 
BRANCH  23  24
ATOM     24  C   UNL A   1      42.515  19.375  26.373  1.00  0.00     0.116 C 
BRANCH  24  25
ATOM     25  N   UNL A   1      43.312  19.564  25.181  1.00  0.00    -0.352 N 
ATOM     26  C   UNL A   1      44.137  20.550  24.720  1.00  0.00     0.251 C 
ATOM     27  H   UNL A   1      43.243  18.806  24.556  1.00  0.00     0.163 HD
ATOM     28  O   UNL A   1      44.808  20.270  23.723  1.00  0.00    -0.269 OA
BRANCH  26  29
ATOM     29  C   UNL A   1      44.220  21.930  25.267  1.00  0.00     0.039 A 
ATOM     30  C   UNL A   1      45.035  22.345  26.321  1.00  0.00     0.014 A 
ATOM     31  C   UNL A   1      43.309  22.854  24.717  1.00  0.00     0.014 A 
ATOM     32  C   UNL A   1      44.853  23.597  26.896  1.00  0.00     0.010 A 
ATOM     33  C   UNL A   1      43.133  24.111  25.277  1.00  0.00     0.010 A 
ATOM     34  C   UNL A   1      43.860  24.450  26.410  1.00  0.00    -0.014 A 
BRANCH  34  35
ATOM     35  C   UNL A   1      43.651  25.720  27.093  1.00  0.00     0.031 A 
ATOM     36  C   UNL A   1      44.667  26.767  26.803  1.00  0.00     0.074 A 
ATOM     37  C   UNL A   1      42.572  25.958  27.867  1.00  0.00     0.049 A 
ATOM     38  N   UNL A   1      45.486  27.325  27.633  1.00  0.00    -0.248 NA
ATOM     39  C   UNL A   1      44.887  27.150  25.400  1.00  0.00     0.031 C 
ATOM     40  C   UNL A   1      41.389  25.116  28.065  1.00  0.00     0.029 A 
ATOM     41  N   UNL A   1      42.269  27.075  28.583  1.00  0.00    -0.354 N 
ATOM     42  C   UNL A   1      46.210  28.260  26.897  1.00  0.00     0.074 A 
ATOM     43  C   UNL A   1      45.897  28.015  25.512  1.00  0.00     0.031 C 
ATOM     44  C   UNL A   1      40.413  25.848  28.646  1.00  0.00     0.029 A 
ATOM     45  C   UNL A   1      40.939  27.161  28.973  1.00  0.00     0.049 A 
ATOM     46  H   UNL A   1      42.936  27.764  28.806  1.00  0.00     0.167 HD
ATOM     47  C   UNL A   1      46.855  29.296  27.501  1.00  0.00     0.037 A 
ATOM     48  C   UNL A   1      40.310  28.259  29.465  1.00  0.00     0.037 A 
ATOM     49  C   UNL A   1      47.034  29.054  28.909  1.00  0.00     0.049 A 
ATOM     50  C   UNL A   1      41.356  29.178  29.984  1.00  0.00     0.074 A 
ATOM     51  C   UNL A   1      47.695  28.098  29.655  1.00  0.00     0.029 A 
ATOM     52  N   UNL A   1      46.180  29.683  29.782  1.00  0.00    -0.354 N 
ATOM     53  N   UNL A   1      42.068  28.925  31.048  1.00  0.00    -0.248 NA
ATOM     54  C   UNL A   1      41.946  30.132  29.054  1.00  0.00     0.031 C 
ATOM     55  C   UNL A   1      46.853  27.867  30.781  1.00  0.00     0.029 A 
ATOM     56  C   UNL A   1      45.768  28.738  30.685  1.00  0.00     0.049 A 
ATOM     57  H   UNL A   1      45.915  30.631  29.764  1.00  0.00     0.167 HD
ATOM     58  C   UNL A   1      43.355  29.321  30.714  1.00  0.00     0.074 A 
ATOM     59  C   UNL A   1      43.204  30.133  29.506  1.00  0.00     0.031 C 
ATOM     60  C   UNL A   1      44.448  28.717  31.266  1.00  0.00     0.037 A 
BRANCH  47  61
ATOM     61  C   UNL A   1      46.988  30.681  26.916  1.00  0.00     0.057 A 
ATOM     62  C   UNL A   1      45.893  31.518  26.628  1.00  0.00     0.134 A 
ATOM     63  C   UNL A   1      48.240  31.324  26.962  1.00  0.00     0.134 A 
ATOM     64  F   UNL A   1      44.634  31.069  26.595  1.00  0.00    -0.206 F 
ATOM     65  C   UNL A   1      46.023  32.900  26.464  1.00  0.00     0.040 A 
ATOM     66  C   UNL A   1      48.374  32.712  26.846  1.00  0.00     0.040 A 
ATOM     67  F   UNL A   1      49.362  30.632  27.215  1.00  0.00    -0.206 F 
ATOM     68  C   UNL A   1      47.259  33.507  26.614  1.00  0.00     0.006 A 
ENDBRANCH  47  61
BRANCH  48  69
ATOM     69  C   UNL A   1      38.902  28.671  29.253  1.00  0.00     0.057 A 
ATOM     70  C   UNL A   1      38.490  29.283  28.054  1.00  0.00     0.134 A 
ATOM     71  C   UNL A   1      37.974  28.703  30.303  1.00  0.00     0.134 A 
ATOM     72  F   UNL A   1      39.324  29.397  27.010  1.00  0.00    -0.206 F 
ATOM     73  C   UNL A   1      37.236  29.882  27.904  1.00  0.00     0.040 A 
ATOM     74  C   UNL A   1      36.716  29.308  30.169  1.00  0.00     0.040 A 
ATOM     75  F   UNL A   1      38.287  28.196  31.505  1.00  0.00    -0.206 F 
ATOM     76  C   UNL A   1      36.345  29.905  28.967  1.00  0.00     0.006 A 
ENDBRANCH  48  69
BRANCH  60  77
ATOM     77  C   UNL A   1      44.225  27.755  32.398  1.00  0.00     0.057 A 
ATOM     78  C   UNL A   1      44.364  28.211  33.713  1.00  0.00     0.134 A 
ATOM     79  C   UNL A   1      44.036  26.375  32.224  1.00  0.00     0.134 A 
ATOM     80  F   UNL A   1      44.617  29.507  33.955  1.00  0.00    -0.206 F 
ATOM     81  C   UNL A   1      44.301  27.342  34.804  1.00  0.00     0.040 A 
ATOM     82  C   UNL A   1      43.935  25.500  33.308  1.00  0.00     0.040 A 
ATOM     83  F   UNL A   1      44.007  25.828  31.004  1.00  0.00    -0.206 F 
ATOM     84  C   UNL A   1      44.072  25.983  34.605  1.00  0.00     0.006 A 
ENDBRANCH  60  77
ENDBRANCH  34  35
ENDBRANCH  26  29
ENDBRANCH  24  25
ENDBRANCH  23  24
ENDBRANCH  22  23
ENDBRANCH   1  22
TORSDOF 15
ENDMDL
MODEL 2
REMARK VINA RESULT:     -11.1      5.191     10.928
REMARK SMILES O=C(CSc1nc2cnccc2n1CC(F)(F)F)NCCCCNC(=O)c1ccc(-c2c3nc(c(-c4c(F)cccc4F)c4ccc([nH]4)c(-c4c(F)cccc4F)c4nc(c(-c5c(F)cccc5F)c5ccc2[nH]5)C=C4)C=C3)cc1
REMARK SMILES IDX 20 1 19 2 1 3 2 4 3 6 4 7 5 8 6 9 13 10 7 11 12 12 8 13
REMARK SMILES IDX 11 14 9 15 10 16 14 17 15 18 16 19 17 20 18 21 21 22 22 23
REMARK SMILES IDX 23 24 24 25 25 26 26 28 27 29 28 30 80 31 29 32 79 33 30 34
REMARK SMILES IDX 31 35 32 36 73 37 33 38 78 39 72 40 74 41 34 42 77 43 71 44
REMARK SMILES IDX 70 45 35 47 61 48 44 49 60 50 45 51 48 52 59 53 75 54 46 55
REMARK SMILES IDX 47 56 58 58 76 59 49 60 36 61 37 62 42 63 38 64 39 65 41 66
REMARK SMILES IDX 43 67 40 68 62 69 63 70 68 71 64 72 65 73 67 74 69 75 66 76
REMARK SMILES IDX 50 77 51 78 56 79 52 80 53 81 55 82 57 83 54 84
REMARK H PARENT 19 5 24 27 74 46 48 57
REMARK Flexibility Score: inf
ROOT
ATOM      1  C   UNL A   1      33.265  36.679  30.711  1.00  0.00     0.116 C 
ENDROOT
BRANCH   1   2
ATOM      2  N   UNL A   1      33.962  35.910  31.721  1.00  0.00    -0.355 N 
ATOM      3  O   UNL A   1      33.346  37.203  33.532  1.00  0.00    -0.274 OA
ATOM      4  C   UNL A   1      33.954  36.240  33.055  1.00  0.00     0.230 C 
ATOM      5  H   UNL A   1      34.466  35.112  31.438  1.00  0.00     0.163 HD
BRANCH   4   6
ATOM      6  C   UNL A   1      34.826  35.359  33.919  1.00  0.00     0.178 C 
BRANCH   6   7
ATOM      7  S   UNL A   1      34.889  33.656  33.336  1.00  0.00    -0.078 SA
BRANCH   7   8
ATOM      8  C   UNL A   1      36.424  33.497  32.550  1.00  0.00     0.169 A 
ATOM      9  N   UNL A   1      36.808  34.364  31.641  1.00  0.00    -0.221 NA
ATOM     10  N   UNL A   1      37.430  32.618  32.874  1.00  0.00    -0.310 N 
ATOM     11  C   UNL A   1      38.114  34.057  31.358  1.00  0.00     0.108 A 
ATOM     12  C   UNL A   1      38.535  32.960  32.108  1.00  0.00     0.072 A 
ATOM     13  C   UNL A   1      39.017  34.669  30.484  1.00  0.00     0.141 A 
ATOM     14  C   UNL A   1      39.832  32.451  31.996  1.00  0.00     0.049 A 
ATOM     15  N   UNL A   1      40.285  34.194  30.360  1.00  0.00    -0.262 NA
ATOM     16  C   UNL A   1      40.652  33.122  31.097  1.00  0.00     0.113 A 
BRANCH  10  17
ATOM     17  C   UNL A   1      37.404  31.496  33.789  1.00  0.00     0.240 C 
BRANCH  17  18
ATOM     18  C   UNL A   1      38.297  31.635  35.002  1.00  0.00     0.406 C 
ATOM     19  F   UNL A   1      37.776  31.057  36.101  1.00  0.00    -0.169 F 
ATOM     20  F   UNL A   1      39.480  31.016  34.765  1.00  0.00    -0.169 F 
ATOM     21  F   UNL A   1      38.573  32.923  35.287  1.00  0.00    -0.169 F 
ENDBRANCH  17  18
ENDBRANCH  10  17
ENDBRANCH   7   8
ENDBRANCH   6   7
ENDBRANCH   4   6
ENDBRANCH   1   2
BRANCH   1  22
ATOM     22  C   UNL A   1      32.901  35.826  29.496  1.00  0.00     0.023 C 
BRANCH  22  23
ATOM     23  C   UNL A   1      34.090  35.319  28.665  1.00  0.00     0.023 C 
BRANCH  23  24
ATOM     24  C   UNL A   1      34.610  33.935  29.056  1.00  0.00     0.116 C 
BRANCH  24  25
ATOM     25  N   UNL A   1      34.303  32.903  28.090  1.00  0.00    -0.352 N 
ATOM     26  C   UNL A   1      34.759  31.638  27.855  1.00  0.00     0.251 C 
ATOM     27  H   UNL A   1      33.602  33.176  27.455  1.00  0.00     0.163 HD
ATOM     28  O   UNL A   1      34.113  30.972  27.041  1.00  0.00    -0.269 OA
BRANCH  26  29
ATOM     29  C   UNL A   1      35.998  31.047  28.430  1.00  0.00     0.039 A 
ATOM     30  C   UNL A   1      37.164  31.743  28.749  1.00  0.00     0.014 A 
ATOM     31  C   UNL A   1      35.995  29.644  28.556  1.00  0.00     0.014 A 
ATOM     32  C   UNL A   1      38.331  31.053  29.056  1.00  0.00     0.010 A 
ATOM     33  C   UNL A   1      37.153  28.949  28.876  1.00  0.00     0.010 A 
ATOM     34  C   UNL A   1      38.334  29.656  29.056  1.00  0.00    -0.014 A 
BRANCH  34  35
ATOM     35  C   UNL A   1      39.596  28.972  29.304  1.00  0.00     0.031 A 
ATOM     36  C   UNL A   1      39.921  28.748  30.738  1.00  0.00     0.074 A 
ATOM     37  C   UNL A   1      40.375  28.504  28.307  1.00  0.00     0.049 A 
ATOM     38  N   UNL A   1      40.922  29.222  31.406  1.00  0.00    -0.248 NA
ATOM     39  C   UNL A   1      38.951  28.011  31.561  1.00  0.00     0.031 C 
ATOM     40  C   UNL A   1      40.084  28.452  26.872  1.00  0.00     0.029 A 
ATOM     41  N   UNL A   1      41.582  27.883  28.392  1.00  0.00    -0.354 N 
ATOM     42  C   UNL A   1      40.811  28.704  32.694  1.00  0.00     0.074 A 
ATOM     43  C   UNL A   1      39.515  28.081  32.768  1.00  0.00     0.031 C 
ATOM     44  C   UNL A   1      40.969  27.628  26.267  1.00  0.00     0.029 A 
ATOM     45  C   UNL A   1      41.957  27.200  27.242  1.00  0.00     0.049 A 
ATOM     46  H   UNL A   1      42.144  27.914  29.200  1.00  0.00     0.167 HD
ATOM     47  C   UNL A   1      41.881  28.654  33.535  1.00  0.00     0.037 A 
ATOM     48  C   UNL A   1      42.965  26.298  27.129  1.00  0.00     0.037 A 
ATOM     49  C   UNL A   1      42.932  29.537  33.100  1.00  0.00     0.049 A 
ATOM     50  C   UNL A   1      43.900  26.530  28.260  1.00  0.00     0.074 A 
ATOM     51  C   UNL A   1      43.040  30.900  32.909  1.00  0.00     0.029 A 
ATOM     52  N   UNL A   1      44.006  28.983  32.448  1.00  0.00    -0.354 N 
ATOM     53  N   UNL A   1      44.657  27.588  28.359  1.00  0.00    -0.248 NA
ATOM     54  C   UNL A   1      43.637  25.835  29.514  1.00  0.00     0.031 C 
ATOM     55  C   UNL A   1      43.860  31.043  31.752  1.00  0.00     0.029 A 
ATOM     56  C   UNL A   1      44.252  29.766  31.350  1.00  0.00     0.049 A 
ATOM     57  H   UNL A   1      44.505  28.178  32.717  1.00  0.00     0.167 HD
ATOM     58  C   UNL A   1      44.591  27.944  29.698  1.00  0.00     0.074 A 
ATOM     59  C   UNL A   1      44.018  26.782  30.376  1.00  0.00     0.031 C 
ATOM     60  C   UNL A   1      44.728  29.245  30.093  1.00  0.00     0.037 A 
BRANCH  47  61
ATOM     61  C   UNL A   1      42.141  27.546  34.526  1.00  0.00     0.057 A 
ATOM     62  C   UNL A   1      42.929  26.414  34.245  1.00  0.00     0.134 A 
ATOM     63  C   UNL A   1      41.887  27.778  35.892  1.00  0.00     0.134 A 
ATOM     64  F   UNL A   1      43.298  26.085  33.003  1.00  0.00    -0.206 F 
ATOM     65  C   UNL A   1      43.479  25.611  35.249  1.00  0.00     0.040 A 
ATOM     66  C   UNL A   1      42.471  27.008  36.903  1.00  0.00     0.040 A 
ATOM     67  F   UNL A   1      41.138  28.820  36.287  1.00  0.00    -0.206 F 
ATOM     68  C   UNL A   1      43.286  25.931  36.583  1.00  0.00     0.006 A 
ENDBRANCH  47  61
BRANCH  48  69
ATOM     69  C   UNL A   1      43.010  25.087  26.275  1.00  0.00     0.057 A 
ATOM     70  C   UNL A   1      42.251  23.943  26.585  1.00  0.00     0.134 A 
ATOM     71  C   UNL A   1      43.976  24.923  25.274  1.00  0.00     0.134 A 
ATOM     72  F   UNL A   1      41.361  23.951  27.588  1.00  0.00    -0.206 F 
ATOM     73  C   UNL A   1      42.434  22.717  25.939  1.00  0.00     0.040 A 
ATOM     74  C   UNL A   1      44.178  23.697  24.623  1.00  0.00     0.040 A 
ATOM     75  F   UNL A   1      44.791  25.936  24.939  1.00  0.00    -0.206 F 
ATOM     76  C   UNL A   1      43.407  22.586  24.959  1.00  0.00     0.006 A 
ENDBRANCH  48  69
BRANCH  60  77
ATOM     77  C   UNL A   1      45.157  30.252  29.064  1.00  0.00     0.057 A 
ATOM     78  C   UNL A   1      46.491  30.672  29.041  1.00  0.00     0.134 A 
ATOM     79  C   UNL A   1      44.267  30.925  28.213  1.00  0.00     0.134 A 
ATOM     80  F   UNL A   1      47.387  30.122  29.876  1.00  0.00    -0.206 F 
ATOM     81  C   UNL A   1      46.925  31.698  28.201  1.00  0.00     0.040 A 
ATOM     82  C   UNL A   1      44.694  31.931  27.342  1.00  0.00     0.040 A 
ATOM     83  F   UNL A   1      42.953  30.676  28.246  1.00  0.00    -0.206 F 
ATOM     84  C   UNL A   1      46.028  32.323  27.337  1.00  0.00     0.006 A 
ENDBRANCH  60  77
ENDBRANCH  34  35
ENDBRANCH  26  29
ENDBRANCH  24  25
ENDBRANCH  23  24
ENDBRANCH  22  23
ENDBRANCH   1  22
TORSDOF 15
ENDMDL
MODEL 3
REMARK VINA RESULT:     -10.8      5.370     10.229
REMARK SMILES O=C(CSc1nc2cnccc2n1CC(F)(F)F)NCCCCNC(=O)c1ccc(-c2c3nc(c(-c4c(F)cccc4F)c4ccc([nH]4)c(-c4c(F)cccc4F)c4nc(c(-c5c(F)cccc5F)c5ccc2[nH]5)C=C4)C=C3)cc1
REMARK SMILES IDX 20 1 19 2 1 3 2 4 3 6 4 7 5 8 6 9 13 10 7 11 12 12 8 13
REMARK SMILES IDX 11 14 9 15 10 16 14 17 15 18 16 19 17 20 18 21 21 22 22 23
REMARK SMILES IDX 23 24 24 25 25 26 26 28 27 29 28 30 80 31 29 32 79 33 30 34
REMARK SMILES IDX 31 35 32 36 73 37 33 38 78 39 72 40 74 41 34 42 77 43 71 44
REMARK SMILES IDX 70 45 35 47 61 48 44 49 60 50 45 51 48 52 59 53 75 54 46 55
REMARK SMILES IDX 47 56 58 58 76 59 49 60 36 61 37 62 42 63 38 64 39 65 41 66
REMARK SMILES IDX 43 67 40 68 62 69 63 70 68 71 64 72 65 73 67 74 69 75 66 76
REMARK SMILES IDX 50 77 51 78 56 79 52 80 53 81 55 82 57 83 54 84
REMARK H PARENT 19 5 24 27 74 46 48 57
REMARK Flexibility Score: inf
ROOT
ATOM      1  C   UNL A   1      34.098  32.926  28.169  1.00  0.00     0.116 C 
ENDROOT
BRANCH   1   2
ATOM      2  N   UNL A   1      33.294  31.770  27.830  1.00  0.00    -0.355 N 
ATOM      3  O   UNL A   1      35.040  30.371  27.260  1.00  0.00    -0.274 OA
ATOM      4  C   UNL A   1      33.830  30.583  27.392  1.00  0.00     0.230 C 
ATOM      5  H   UNL A   1      32.315  31.838  27.917  1.00  0.00     0.163 HD
BRANCH   4   6
ATOM      6  C   UNL A   1      32.807  29.543  27.002  1.00  0.00     0.178 C 
BRANCH   6   7
ATOM      7  S   UNL A   1      31.760  30.076  25.637  1.00  0.00    -0.078 SA
BRANCH   7   8
ATOM      8  C   UNL A   1      32.060  28.946  24.359  1.00  0.00     0.169 A 
ATOM      9  N   UNL A   1      33.259  28.442  24.175  1.00  0.00    -0.221 NA
ATOM     10  N   UNL A   1      31.124  28.344  23.552  1.00  0.00    -0.310 N 
ATOM     11  C   UNL A   1      33.114  27.469  23.220  1.00  0.00     0.108 A 
ATOM     12  C   UNL A   1      31.787  27.386  22.800  1.00  0.00     0.072 A 
ATOM     13  C   UNL A   1      34.058  26.601  22.663  1.00  0.00     0.141 A 
ATOM     14  C   UNL A   1      31.384  26.467  21.827  1.00  0.00     0.049 A 
ATOM     15  N   UNL A   1      33.688  25.697  21.717  1.00  0.00    -0.262 NA
ATOM     16  C   UNL A   1      32.394  25.655  21.328  1.00  0.00     0.113 A 
BRANCH  10  17
ATOM     17  C   UNL A   1      29.712  28.634  23.418  1.00  0.00     0.240 C 
BRANCH  17  18
ATOM     18  C   UNL A   1      29.381  29.830  22.553  1.00  0.00     0.406 C 
ATOM     19  F   UNL A   1      29.389  30.988  23.240  1.00  0.00    -0.169 F 
ATOM     20  F   UNL A   1      30.316  29.954  21.578  1.00  0.00    -0.169 F 
ATOM     21  F   UNL A   1      28.185  29.704  21.943  1.00  0.00    -0.169 F 
ENDBRANCH  17  18
ENDBRANCH  10  17
ENDBRANCH   7   8
ENDBRANCH   6   7
ENDBRANCH   4   6
ENDBRANCH   1   2
BRANCH   1  22
ATOM     22  C   UNL A   1      33.239  34.166  28.413  1.00  0.00     0.023 C 
BRANCH  22  23
ATOM     23  C   UNL A   1      33.961  35.350  29.075  1.00  0.00     0.023 C 
BRANCH  23  24
ATOM     24  C   UNL A   1      33.048  36.353  29.780  1.00  0.00     0.116 C 
BRANCH  24  25
ATOM     25  N   UNL A   1      32.373  35.811  30.940  1.00  0.00    -0.352 N 
ATOM     26  C   UNL A   1      32.774  35.143  32.061  1.00  0.00     0.251 C 
ATOM     27  H   UNL A   1      31.400  35.958  30.915  1.00  0.00     0.163 HD
ATOM     28  O   UNL A   1      31.920  35.004  32.942  1.00  0.00    -0.269 OA
BRANCH  26  29
ATOM     29  C   UNL A   1      34.105  34.510  32.259  1.00  0.00     0.039 A 
ATOM     30  C   UNL A   1      35.291  35.178  32.567  1.00  0.00     0.014 A 
ATOM     31  C   UNL A   1      34.160  33.125  32.006  1.00  0.00     0.014 A 
ATOM     32  C   UNL A   1      36.509  34.514  32.494  1.00  0.00     0.010 A 
ATOM     33  C   UNL A   1      35.372  32.452  31.945  1.00  0.00     0.010 A 
ATOM     34  C   UNL A   1      36.548  33.168  32.123  1.00  0.00    -0.014 A 
BRANCH  34  35
ATOM     35  C   UNL A   1      37.851  32.532  31.980  1.00  0.00     0.031 A 
ATOM     36  C   UNL A   1      38.651  32.447  33.232  1.00  0.00     0.074 A 
ATOM     37  C   UNL A   1      38.268  31.987  30.819  1.00  0.00     0.049 A 
ATOM     38  N   UNL A   1      39.794  32.998  33.478  1.00  0.00    -0.248 NA
ATOM     39  C   UNL A   1      38.052  31.773  34.393  1.00  0.00     0.031 C 
ATOM     40  C   UNL A   1      37.514  31.796  29.578  1.00  0.00     0.029 A 
ATOM     41  N   UNL A   1      39.462  31.396  30.539  1.00  0.00    -0.354 N 
ATOM     42  C   UNL A   1      40.149  32.600  34.764  1.00  0.00     0.074 A 
ATOM     43  C   UNL A   1      38.986  31.964  35.326  1.00  0.00     0.031 C 
ATOM     44  C   UNL A   1      38.181  30.935  28.778  1.00  0.00     0.029 A 
ATOM     45  C   UNL A   1      39.459  30.616  29.390  1.00  0.00     0.049 A 
ATOM     46  H   UNL A   1      40.261  31.512  31.102  1.00  0.00     0.167 HD
ATOM     47  C   UNL A   1      41.442  32.647  35.192  1.00  0.00     0.037 A 
ATOM     48  C   UNL A   1      40.411  29.725  29.014  1.00  0.00     0.037 A 
ATOM     49  C   UNL A   1      42.241  33.503  34.355  1.00  0.00     0.049 A 
ATOM     50  C   UNL A   1      41.661  30.077  29.737  1.00  0.00     0.074 A 
ATOM     51  C   UNL A   1      42.213  34.844  34.028  1.00  0.00     0.029 A 
ATOM     52  N   UNL A   1      43.057  32.910  33.424  1.00  0.00    -0.354 N 
ATOM     53  N   UNL A   1      42.356  31.152  29.485  1.00  0.00    -0.248 NA
ATOM     54  C   UNL A   1      41.870  29.497  31.057  1.00  0.00     0.031 C 
ATOM     55  C   UNL A   1      42.587  34.894  32.654  1.00  0.00     0.029 A 
ATOM     56  C   UNL A   1      42.881  33.592  32.248  1.00  0.00     0.049 A 
ATOM     57  H   UNL A   1      43.656  32.142  33.571  1.00  0.00     0.167 HD
ATOM     58  C   UNL A   1      42.729  31.631  30.733  1.00  0.00     0.074 A 
ATOM     59  C   UNL A   1      42.474  30.527  31.658  1.00  0.00     0.031 C 
ATOM     60  C   UNL A   1      42.928  32.964  30.951  1.00  0.00     0.037 A 
BRANCH  47  61
ATOM     61  C   UNL A   1      42.073  31.640  36.122  1.00  0.00     0.057 A 
ATOM     62  C   UNL A   1      42.258  30.283  35.798  1.00  0.00     0.134 A 
ATOM     63  C   UNL A   1      42.822  32.102  37.222  1.00  0.00     0.134 A 
ATOM     64  F   UNL A   1      41.655  29.705  34.753  1.00  0.00    -0.206 F 
ATOM     65  C   UNL A   1      43.167  29.463  36.473  1.00  0.00     0.040 A 
ATOM     66  C   UNL A   1      43.768  31.303  37.873  1.00  0.00     0.040 A 
ATOM     67  F   UNL A   1      42.725  33.376  37.637  1.00  0.00    -0.206 F 
ATOM     68  C   UNL A   1      43.956  29.983  37.486  1.00  0.00     0.006 A 
ENDBRANCH  47  61
BRANCH  48  69
ATOM     69  C   UNL A   1      40.223  28.441  28.298  1.00  0.00     0.057 A 
ATOM     70  C   UNL A   1      39.702  27.308  28.949  1.00  0.00     0.134 A 
ATOM     71  C   UNL A   1      40.772  28.215  27.028  1.00  0.00     0.134 A 
ATOM     72  F   UNL A   1      39.234  27.382  30.204  1.00  0.00    -0.206 F 
ATOM     73  C   UNL A   1      39.718  26.033  28.377  1.00  0.00     0.040 A 
ATOM     74  C   UNL A   1      40.804  26.939  26.445  1.00  0.00     0.040 A 
ATOM     75  F   UNL A   1      41.345  29.217  26.344  1.00  0.00    -0.206 F 
ATOM     76  C   UNL A   1      40.279  25.841  27.122  1.00  0.00     0.006 A 
ENDBRANCH  48  69
BRANCH  60  77
ATOM     77  C   UNL A   1      42.937  33.879  29.759  1.00  0.00     0.057 A 
ATOM     78  C   UNL A   1      41.747  34.503  29.373  1.00  0.00     0.134 A 
ATOM     79  C   UNL A   1      44.038  34.031  28.901  1.00  0.00     0.134 A 
ATOM     80  F   UNL A   1      40.633  34.345  30.106  1.00  0.00    -0.206 F 
ATOM     81  C   UNL A   1      41.657  35.257  28.201  1.00  0.00     0.040 A 
ATOM     82  C   UNL A   1      43.972  34.811  27.744  1.00  0.00     0.040 A 
ATOM     83  F   UNL A   1      45.185  33.379  29.123  1.00  0.00    -0.206 F 
ATOM     84  C   UNL A   1      42.776  35.424  27.389  1.00  0.00     0.006 A 
ENDBRANCH  60  77
ENDBRANCH  34  35
ENDBRANCH  26  29
ENDBRANCH  24  25
ENDBRANCH  23  24
ENDBRANCH  22  23
ENDBRANCH   1  22
TORSDOF 15
ENDMDL
