MODEL 1
REMARK VINA RESULT:     -11.7      0.000      0.000
REMARK SMILES CC[C@@](C)(NC(=O)c1cccc(Br)c1C)C(=O)NCCCCNC(=O)c1ccc(-c2c3nc(c(-c4c(F)cccc4F)c4ccc([nH]4)c(-c4c(F)cccc4F)c4nc(c(-c5c(F)cccc5F)c5ccc2[nH]5)C=C4)C=C3)cc1
REMARK SMILES IDX 20 1 19 2 18 3 16 4 17 5 3 7 4 8 2 9 1 10 5 11 6 12 7 14
REMARK SMILES IDX 8 15 9 16 14 17 10 18 12 19 15 20 11 21 13 22 21 23 22 24
REMARK SMILES IDX 23 25 24 26 25 28 26 29 27 30 79 31 28 32 78 33 29 34 30 35
REMARK SMILES IDX 31 36 72 37 32 38 77 39 71 40 73 41 33 42 76 43 70 44 69 45
REMARK SMILES IDX 34 47 60 48 43 49 59 50 44 51 47 52 58 53 74 54 45 55 46 56
REMARK SMILES IDX 57 58 75 59 48 60 35 61 36 62 41 63 37 64 38 65 40 66 42 67
REMARK SMILES IDX 39 68 61 69 62 70 67 71 63 72 64 73 66 74 68 75 65 76 49 77
REMARK SMILES IDX 50 78 55 79 51 80 52 81 54 82 56 83 53 84
REMARK H PARENT 18 6 5 13 23 27 73 46 47 57
REMARK Flexibility Score: inf
ROOT
ATOM      1  C   UNL A   1      31.805  30.641  26.305  1.00  0.00     0.023 C 
ENDROOT
BRANCH   1   2
ATOM      2  C   UNL A   1      33.111  29.827  26.113  1.00  0.00     0.116 C 
BRANCH   2   3
ATOM      3  N   UNL A   1      33.473  29.382  24.738  1.00  0.00    -0.354 N 
ATOM      4  C   UNL A   1      33.113  28.658  23.638  1.00  0.00     0.245 C 
ATOM      5  O   UNL A   1      33.911  28.896  22.707  1.00  0.00    -0.272 OA
ATOM      6  H   UNL A   1      34.350  29.781  24.537  1.00  0.00     0.163 HD
BRANCH   4   7
ATOM      7  C   UNL A   1      31.855  27.698  23.279  1.00  0.00     0.116 C 
ATOM      8  C   UNL A   1      31.255  27.268  24.632  1.00  0.00     0.045 C 
BRANCH   7   9
ATOM      9  C   UNL A   1      30.783  28.537  22.470  1.00  0.00     0.035 C 
ATOM     10  C   UNL A   1      29.831  29.468  23.210  1.00  0.00     0.007 C 
ENDBRANCH   7   9
BRANCH   7  11
ATOM     11  N   UNL A   1      31.928  26.426  22.453  1.00  0.00    -0.338 N 
ATOM     12  C   UNL A   1      32.921  25.448  22.432  1.00  0.00     0.252 C 
ATOM     13  H   UNL A   1      31.167  26.270  21.848  1.00  0.00     0.164 HD
ATOM     14  O   UNL A   1      33.333  25.001  21.367  1.00  0.00    -0.269 OA
BRANCH  12  15
ATOM     15  C   UNL A   1      33.327  24.816  23.706  1.00  0.00     0.043 A 
ATOM     16  C   UNL A   1      34.558  25.041  24.328  1.00  0.00     0.014 A 
ATOM     17  C   UNL A   1      32.576  23.729  24.125  1.00  0.00    -0.024 A 
ATOM     18  C   UNL A   1      34.898  24.343  25.494  1.00  0.00     0.002 A 
ATOM     19  C   UNL A   1      32.747  23.292  25.452  1.00  0.00     0.021 A 
ATOM     20  C   UNL A   1      32.160  22.842  22.944  1.00  0.00     0.046 C 
ATOM     21  C   UNL A   1      33.959  23.523  26.096  1.00  0.00     0.016 A 
ATOM     22  Br  UNL A   1      31.337  23.460  26.769  1.00  0.00    -0.051 Br
ENDBRANCH  12  15
ENDBRANCH   7  11
ENDBRANCH   4   7
ENDBRANCH   2   3
ENDBRANCH   1   2
BRANCH   1  23
ATOM     23  C   UNL A   1      31.556  32.030  26.878  1.00  0.00     0.023 C 
BRANCH  23  24
ATOM     24  C   UNL A   1      32.723  32.839  27.324  1.00  0.00     0.116 C 
BRANCH  24  25
ATOM     25  N   UNL A   1      32.368  34.203  27.655  1.00  0.00    -0.352 N 
ATOM     26  C   UNL A   1      32.983  35.015  28.594  1.00  0.00     0.251 C 
ATOM     27  H   UNL A   1      31.611  34.594  27.161  1.00  0.00     0.163 HD
ATOM     28  O   UNL A   1      32.539  36.095  28.891  1.00  0.00    -0.269 OA
BRANCH  26  29
ATOM     29  C   UNL A   1      34.185  34.459  29.263  1.00  0.00     0.039 A 
ATOM     30  C   UNL A   1      34.025  33.564  30.320  1.00  0.00     0.014 A 
ATOM     31  C   UNL A   1      35.444  34.693  28.705  1.00  0.00     0.014 A 
ATOM     32  C   UNL A   1      35.136  32.859  30.784  1.00  0.00     0.010 A 
ATOM     33  C   UNL A   1      36.502  33.874  29.055  1.00  0.00     0.010 A 
ATOM     34  C   UNL A   1      36.374  32.989  30.134  1.00  0.00    -0.014 A 
BRANCH  34  35
ATOM     35  C   UNL A   1      37.590  32.309  30.632  1.00  0.00     0.031 A 
ATOM     36  C   UNL A   1      38.227  32.821  31.898  1.00  0.00     0.074 A 
ATOM     37  C   UNL A   1      38.141  31.292  29.943  1.00  0.00     0.049 A 
ATOM     38  N   UNL A   1      39.330  32.438  32.486  1.00  0.00    -0.248 NA
ATOM     39  C   UNL A   1      37.562  33.956  32.565  1.00  0.00     0.031 C 
ATOM     40  C   UNL A   1      37.650  30.759  28.669  1.00  0.00     0.029 A 
ATOM     41  N   UNL A   1      39.238  30.520  30.223  1.00  0.00    -0.354 N 
ATOM     42  C   UNL A   1      39.494  33.300  33.563  1.00  0.00     0.074 A 
ATOM     43  C   UNL A   1      38.442  34.285  33.494  1.00  0.00     0.031 C 
ATOM     44  C   UNL A   1      38.419  29.720  28.301  1.00  0.00     0.029 A 
ATOM     45  C   UNL A   1      39.472  29.534  29.295  1.00  0.00     0.049 A 
ATOM     46  H   UNL A   1      39.807  30.660  31.014  1.00  0.00     0.167 HD
ATOM     47  C   UNL A   1      40.407  33.247  34.557  1.00  0.00     0.037 A 
ATOM     48  C   UNL A   1      40.425  28.584  29.266  1.00  0.00     0.037 A 
ATOM     49  C   UNL A   1      41.409  32.224  34.653  1.00  0.00     0.049 A 
ATOM     50  C   UNL A   1      41.414  28.521  30.401  1.00  0.00     0.074 A 
ATOM     51  C   UNL A   1      42.346  32.024  35.648  1.00  0.00     0.029 A 
ATOM     52  N   UNL A   1      41.587  31.217  33.716  1.00  0.00    -0.354 N 
ATOM     53  N   UNL A   1      41.514  29.298  31.454  1.00  0.00    -0.248 NA
ATOM     54  C   UNL A   1      42.412  27.445  30.351  1.00  0.00     0.031 C 
ATOM     55  C   UNL A   1      43.117  30.912  35.294  1.00  0.00     0.029 A 
ATOM     56  C   UNL A   1      42.629  30.396  34.103  1.00  0.00     0.049 A 
ATOM     57  H   UNL A   1      41.050  31.104  32.898  1.00  0.00     0.167 HD
ATOM     58  C   UNL A   1      42.566  28.789  32.204  1.00  0.00     0.074 A 
ATOM     59  C   UNL A   1      43.059  27.627  31.493  1.00  0.00     0.031 C 
ATOM     60  C   UNL A   1      43.083  29.239  33.374  1.00  0.00     0.037 A 
BRANCH  47  61
ATOM     61  C   UNL A   1      40.334  34.306  35.618  1.00  0.00     0.057 A 
ATOM     62  C   UNL A   1      39.564  34.138  36.778  1.00  0.00     0.134 A 
ATOM     63  C   UNL A   1      41.029  35.512  35.474  1.00  0.00     0.134 A 
ATOM     64  F   UNL A   1      38.852  33.017  36.967  1.00  0.00    -0.206 F 
ATOM     65  C   UNL A   1      39.462  35.145  37.740  1.00  0.00     0.040 A 
ATOM     66  C   UNL A   1      40.961  36.513  36.445  1.00  0.00     0.040 A 
ATOM     67  F   UNL A   1      41.781  35.739  34.387  1.00  0.00    -0.206 F 
ATOM     68  C   UNL A   1      40.168  36.334  37.577  1.00  0.00     0.006 A 
ENDBRANCH  47  61
BRANCH  48  69
ATOM     69  C   UNL A   1      40.468  27.595  28.159  1.00  0.00     0.057 A 
ATOM     70  C   UNL A   1      39.800  26.367  28.259  1.00  0.00     0.134 A 
ATOM     71  C   UNL A   1      41.179  27.844  26.979  1.00  0.00     0.134 A 
ATOM     72  F   UNL A   1      39.112  26.063  29.370  1.00  0.00    -0.206 F 
ATOM     73  C   UNL A   1      39.858  25.415  27.240  1.00  0.00     0.040 A 
ATOM     74  C   UNL A   1      41.226  26.910  25.941  1.00  0.00     0.040 A 
ATOM     75  F   UNL A   1      41.832  29.003  26.815  1.00  0.00    -0.206 F 
ATOM     76  C   UNL A   1      40.571  25.688  26.074  1.00  0.00     0.006 A 
ENDBRANCH  48  69
BRANCH  60  77
ATOM     77  C   UNL A   1      44.213  28.456  33.969  1.00  0.00     0.057 A 
ATOM     78  C   UNL A   1      45.550  28.789  33.719  1.00  0.00     0.134 A 
ATOM     79  C   UNL A   1      43.958  27.396  34.847  1.00  0.00     0.134 A 
ATOM     80  F   UNL A   1      45.857  29.790  32.880  1.00  0.00    -0.206 F 
ATOM     81  C   UNL A   1      46.596  28.078  34.308  1.00  0.00     0.040 A 
ATOM     82  C   UNL A   1      44.995  26.696  35.462  1.00  0.00     0.040 A 
ATOM     83  F   UNL A   1      42.697  27.039  35.136  1.00  0.00    -0.206 F 
ATOM     84  C   UNL A   1      46.318  27.034  35.189  1.00  0.00     0.006 A 
ENDBRANCH  60  77
ENDBRANCH  34  35
ENDBRANCH  26  29
ENDBRANCH  24  25
ENDBRANCH  23  24
ENDBRANCH   1  23
TORSDOF 14
ENDMDL
MODEL 2
REMARK VINA RESULT:     -11.7      5.046     10.014
REMARK SMILES CC[C@@](C)(NC(=O)c1cccc(Br)c1C)C(=O)NCCCCNC(=O)c1ccc(-c2c3nc(c(-c4c(F)cccc4F)c4ccc([nH]4)c(-c4c(F)cccc4F)c4nc(c(-c5c(F)cccc5F)c5ccc2[nH]5)C=C4)C=C3)cc1
REMARK SMILES IDX 20 1 19 2 18 3 16 4 17 5 3 7 4 8 2 9 1 10 5 11 6 12 7 14
REMARK SMILES IDX 8 15 9 16 14 17 10 18 12 19 15 20 11 21 13 22 21 23 22 24
REMARK SMILES IDX 23 25 24 26 25 28 26 29 27 30 79 31 28 32 78 33 29 34 30 35
REMARK SMILES IDX 31 36 72 37 32 38 77 39 71 40 73 41 33 42 76 43 70 44 69 45
REMARK SMILES IDX 34 47 60 48 43 49 59 50 44 51 47 52 58 53 74 54 45 55 46 56
REMARK SMILES IDX 57 58 75 59 48 60 35 61 36 62 41 63 37 64 38 65 40 66 42 67
REMARK SMILES IDX 39 68 61 69 62 70 67 71 63 72 64 73 66 74 68 75 65 76 49 77
REMARK SMILES IDX 50 78 55 79 51 80 52 81 54 82 56 83 53 84
REMARK H PARENT 18 6 5 13 23 27 73 46 47 57
REMARK Flexibility Score: inf
ROOT
ATOM      1  C   UNL A   1      37.226  20.993  24.728  1.00  0.00     0.023 C 
ENDROOT
BRANCH   1   2
ATOM      2  C   UNL A   1      36.772  22.191  25.601  1.00  0.00     0.116 C 
BRANCH   2   3
ATOM      3  N   UNL A   1      35.596  22.009  26.498  1.00  0.00    -0.354 N 
ATOM      4  C   UNL A   1      34.240  21.878  26.595  1.00  0.00     0.245 C 
ATOM      5  O   UNL A   1      33.937  21.568  27.767  1.00  0.00    -0.272 OA
ATOM      6  H   UNL A   1      35.949  21.964  27.416  1.00  0.00     0.163 HD
BRANCH   4   7
ATOM      7  C   UNL A   1      33.022  21.922  25.526  1.00  0.00     0.116 C 
ATOM      8  C   UNL A   1      33.619  22.509  24.232  1.00  0.00     0.045 C 
BRANCH   7   9
ATOM      9  C   UNL A   1      32.524  20.444  25.252  1.00  0.00     0.035 C 
ATOM     10  C   UNL A   1      33.485  19.413  24.674  1.00  0.00     0.007 C 
ENDBRANCH   7   9
BRANCH   7  11
ATOM     11  N   UNL A   1      31.704  22.652  25.723  1.00  0.00    -0.338 N 
ATOM     12  C   UNL A   1      31.477  23.931  26.227  1.00  0.00     0.252 C 
ATOM     13  H   UNL A   1      30.899  22.151  25.457  1.00  0.00     0.164 HD
ATOM     14  O   UNL A   1      30.586  24.128  27.048  1.00  0.00    -0.269 OA
BRANCH  12  15
ATOM     15  C   UNL A   1      32.184  25.076  25.616  1.00  0.00     0.043 A 
ATOM     16  C   UNL A   1      33.190  25.803  26.260  1.00  0.00     0.014 A 
ATOM     17  C   UNL A   1      31.606  25.628  24.483  1.00  0.00    -0.024 A 
ATOM     18  C   UNL A   1      33.758  26.924  25.641  1.00  0.00     0.002 A 
ATOM     19  C   UNL A   1      32.389  26.514  23.719  1.00  0.00     0.021 A 
ATOM     20  C   UNL A   1      30.076  25.660  24.589  1.00  0.00     0.046 C 
ATOM     21  C   UNL A   1      33.407  27.234  24.337  1.00  0.00     0.016 A 
ATOM     22  Br  UNL A   1      32.986  26.062  21.933  1.00  0.00    -0.051 Br
ENDBRANCH  12  15
ENDBRANCH   7  11
ENDBRANCH   4   7
ENDBRANCH   2   3
ENDBRANCH   1   2
BRANCH   1  23
ATOM     23  C   UNL A   1      38.202  19.856  25.002  1.00  0.00     0.023 C 
BRANCH  23  24
ATOM     24  C   UNL A   1      39.400  20.130  25.839  1.00  0.00     0.116 C 
BRANCH  24  25
ATOM     25  N   UNL A   1      40.339  19.027  25.856  1.00  0.00    -0.352 N 
ATOM     26  C   UNL A   1      41.702  19.102  26.088  1.00  0.00     0.251 C 
ATOM     27  H   UNL A   1      39.969  18.131  25.685  1.00  0.00     0.163 HD
ATOM     28  O   UNL A   1      42.424  18.147  25.958  1.00  0.00    -0.269 OA
BRANCH  26  29
ATOM     29  C   UNL A   1      42.239  20.439  26.446  1.00  0.00     0.039 A 
ATOM     30  C   UNL A   1      42.547  21.345  25.432  1.00  0.00     0.014 A 
ATOM     31  C   UNL A   1      42.249  20.831  27.787  1.00  0.00     0.014 A 
ATOM     32  C   UNL A   1      42.815  22.671  25.769  1.00  0.00     0.010 A 
ATOM     33  C   UNL A   1      42.351  22.174  28.098  1.00  0.00     0.010 A 
ATOM     34  C   UNL A   1      42.689  23.100  27.101  1.00  0.00    -0.014 A 
BRANCH  34  35
ATOM     35  C   UNL A   1      43.026  24.481  27.510  1.00  0.00     0.031 A 
ATOM     36  C   UNL A   1      44.470  24.908  27.461  1.00  0.00     0.074 A 
ATOM     37  C   UNL A   1      42.072  25.316  27.962  1.00  0.00     0.049 A 
ATOM     38  N   UNL A   1      45.015  26.036  27.836  1.00  0.00    -0.248 NA
ATOM     39  C   UNL A   1      45.442  23.912  26.975  1.00  0.00     0.031 C 
ATOM     40  C   UNL A   1      40.653  24.987  28.118  1.00  0.00     0.029 A 
ATOM     41  N   UNL A   1      42.155  26.622  28.371  1.00  0.00    -0.354 N 
ATOM     42  C   UNL A   1      46.381  25.865  27.655  1.00  0.00     0.074 A 
ATOM     43  C   UNL A   1      46.596  24.502  27.235  1.00  0.00     0.031 C 
ATOM     44  C   UNL A   1      39.993  26.076  28.549  1.00  0.00     0.029 A 
ATOM     45  C   UNL A   1      40.946  27.167  28.727  1.00  0.00     0.049 A 
ATOM     46  H   UNL A   1      43.003  27.121  28.408  1.00  0.00     0.167 HD
ATOM     47  C   UNL A   1      47.371  26.778  27.773  1.00  0.00     0.037 A 
ATOM     48  C   UNL A   1      40.649  28.414  29.139  1.00  0.00     0.037 A 
ATOM     49  C   UNL A   1      47.140  28.149  28.127  1.00  0.00     0.049 A 
ATOM     50  C   UNL A   1      41.760  29.426  29.232  1.00  0.00     0.074 A 
ATOM     51  C   UNL A   1      48.051  29.184  28.213  1.00  0.00     0.029 A 
ATOM     52  N   UNL A   1      45.895  28.674  28.439  1.00  0.00    -0.354 N 
ATOM     53  N   UNL A   1      43.040  29.272  28.987  1.00  0.00    -0.248 NA
ATOM     54  C   UNL A   1      41.387  30.785  29.646  1.00  0.00     0.031 C 
ATOM     55  C   UNL A   1      47.359  30.332  28.612  1.00  0.00     0.029 A 
ATOM     56  C   UNL A   1      46.014  30.020  28.730  1.00  0.00     0.049 A 
ATOM     57  H   UNL A   1      45.052  28.164  28.450  1.00  0.00     0.167 HD
ATOM     58  C   UNL A   1      43.619  30.517  29.190  1.00  0.00     0.074 A 
ATOM     59  C   UNL A   1      42.548  31.419  29.562  1.00  0.00     0.031 C 
ATOM     60  C   UNL A   1      44.920  30.888  29.084  1.00  0.00     0.037 A 
BRANCH  47  61
ATOM     61  C   UNL A   1      48.771  26.317  27.489  1.00  0.00     0.057 A 
ATOM     62  C   UNL A   1      49.317  26.365  26.199  1.00  0.00     0.134 A 
ATOM     63  C   UNL A   1      49.578  25.809  28.513  1.00  0.00     0.134 A 
ATOM     64  F   UNL A   1      48.589  26.818  25.167  1.00  0.00    -0.206 F 
ATOM     65  C   UNL A   1      50.604  25.894  25.931  1.00  0.00     0.040 A 
ATOM     66  C   UNL A   1      50.878  25.364  28.263  1.00  0.00     0.040 A 
ATOM     67  F   UNL A   1      49.116  25.731  29.770  1.00  0.00    -0.206 F 
ATOM     68  C   UNL A   1      51.390  25.397  26.967  1.00  0.00     0.006 A 
ENDBRANCH  47  61
BRANCH  48  69
ATOM     69  C   UNL A   1      39.245  28.789  29.450  1.00  0.00     0.057 A 
ATOM     70  C   UNL A   1      38.711  28.597  30.731  1.00  0.00     0.134 A 
ATOM     71  C   UNL A   1      38.400  29.339  28.479  1.00  0.00     0.134 A 
ATOM     72  F   UNL A   1      39.466  28.061  31.702  1.00  0.00    -0.206 F 
ATOM     73  C   UNL A   1      37.385  28.915  31.029  1.00  0.00     0.040 A 
ATOM     74  C   UNL A   1      37.078  29.684  28.769  1.00  0.00     0.040 A 
ATOM     75  F   UNL A   1      38.851  29.559  27.235  1.00  0.00    -0.206 F 
ATOM     76  C   UNL A   1      36.565  29.463  30.045  1.00  0.00     0.006 A 
ENDBRANCH  48  69
BRANCH  60  77
ATOM     77  C   UNL A   1      45.244  32.328  29.338  1.00  0.00     0.057 A 
ATOM     78  C   UNL A   1      45.655  32.778  30.599  1.00  0.00     0.134 A 
ATOM     79  C   UNL A   1      45.201  33.261  28.295  1.00  0.00     0.134 A 
ATOM     80  F   UNL A   1      45.708  31.932  31.639  1.00  0.00    -0.206 F 
ATOM     81  C   UNL A   1      45.992  34.113  30.818  1.00  0.00     0.040 A 
ATOM     82  C   UNL A   1      45.562  34.593  28.496  1.00  0.00     0.040 A 
ATOM     83  F   UNL A   1      44.828  32.888  27.061  1.00  0.00    -0.206 F 
ATOM     84  C   UNL A   1      45.954  35.022  29.762  1.00  0.00     0.006 A 
ENDBRANCH  60  77
ENDBRANCH  34  35
ENDBRANCH  26  29
ENDBRANCH  24  25
ENDBRANCH  23  24
ENDBRANCH   1  23
TORSDOF 14
ENDMDL
MODEL 3
REMARK VINA RESULT:     -11.5      0.887      1.344
REMARK SMILES CC[C@@](C)(NC(=O)c1cccc(Br)c1C)C(=O)NCCCCNC(=O)c1ccc(-c2c3nc(c(-c4c(F)cccc4F)c4ccc([nH]4)c(-c4c(F)cccc4F)c4nc(c(-c5c(F)cccc5F)c5ccc2[nH]5)C=C4)C=C3)cc1
REMARK SMILES IDX 20 1 19 2 18 3 16 4 17 5 3 7 4 8 2 9 1 10 5 11 6 12 7 14
REMARK SMILES IDX 8 15 9 16 14 17 10 18 12 19 15 20 11 21 13 22 21 23 22 24
REMARK SMILES IDX 23 25 24 26 25 28 26 29 27 30 79 31 28 32 78 33 29 34 30 35
REMARK SMILES IDX 31 36 72 37 32 38 77 39 71 40 73 41 33 42 76 43 70 44 69 45
REMARK SMILES IDX 34 47 60 48 43 49 59 50 44 51 47 52 58 53 74 54 45 55 46 56
REMARK SMILES IDX 57 58 75 59 48 60 35 61 36 62 41 63 37 64 38 65 40 66 42 67
REMARK SMILES IDX 39 68 61 69 62 70 67 71 63 72 64 73 66 74 68 75 65 76 49 77
REMARK SMILES IDX 50 78 55 79 51 80 52 81 54 82 56 83 53 84
REMARK H PARENT 18 6 5 13 23 27 73 46 47 57
REMARK Flexibility Score: inf
ROOT
ATOM      1  C   UNL A   1      31.885  30.500  26.876  1.00  0.00     0.023 C 
ENDROOT
BRANCH   1   2
ATOM      2  C   UNL A   1      32.113  29.489  25.722  1.00  0.00     0.116 C 
BRANCH   2   3
ATOM      3  N   UNL A   1      31.599  28.101  25.884  1.00  0.00    -0.354 N 
ATOM      4  C   UNL A   1      31.072  26.997  25.276  1.00  0.00     0.245 C 
ATOM      5  O   UNL A   1      31.035  26.052  26.093  1.00  0.00    -0.272 OA
ATOM      6  H   UNL A   1      31.669  27.886  26.842  1.00  0.00     0.163 HD
BRANCH   4   7
ATOM      7  C   UNL A   1      30.622  26.651  23.757  1.00  0.00     0.116 C 
ATOM      8  C   UNL A   1      29.583  25.519  23.873  1.00  0.00     0.045 C 
BRANCH   7   9
ATOM      9  C   UNL A   1      29.940  27.930  23.119  1.00  0.00     0.035 C 
ATOM     10  C   UNL A   1      30.788  28.952  22.375  1.00  0.00     0.007 C 
ENDBRANCH   7   9
BRANCH   7  11
ATOM     11  N   UNL A   1      31.557  26.220  22.639  1.00  0.00    -0.338 N 
ATOM     12  C   UNL A   1      32.927  25.970  22.689  1.00  0.00     0.252 C 
ATOM     13  H   UNL A   1      31.136  26.101  21.757  1.00  0.00     0.164 HD
ATOM     14  O   UNL A   1      33.673  26.409  21.820  1.00  0.00    -0.269 OA
BRANCH  12  15
ATOM     15  C   UNL A   1      33.441  25.006  23.686  1.00  0.00     0.043 A 
ATOM     16  C   UNL A   1      34.404  25.321  24.648  1.00  0.00     0.014 A 
ATOM     17  C   UNL A   1      33.176  23.666  23.446  1.00  0.00    -0.024 A 
ATOM     18  C   UNL A   1      34.895  24.330  25.507  1.00  0.00     0.002 A 
ATOM     19  C   UNL A   1      33.391  22.761  24.502  1.00  0.00     0.021 A 
ATOM     20  C   UNL A   1      33.277  23.329  21.952  1.00  0.00     0.046 C 
ATOM     21  C   UNL A   1      34.332  23.065  25.481  1.00  0.00     0.016 A 
ATOM     22  Br  UNL A   1      31.925  21.832  25.361  1.00  0.00    -0.051 Br
ENDBRANCH  12  15
ENDBRANCH   7  11
ENDBRANCH   4   7
ENDBRANCH   2   3
ENDBRANCH   1   2
BRANCH   1  23
ATOM     23  C   UNL A   1      31.700  32.012  26.871  1.00  0.00     0.023 C 
BRANCH  23  24
ATOM     24  C   UNL A   1      32.851  32.874  27.253  1.00  0.00     0.116 C 
BRANCH  24  25
ATOM     25  N   UNL A   1      32.449  34.214  27.629  1.00  0.00    -0.352 N 
ATOM     26  C   UNL A   1      33.010  34.999  28.623  1.00  0.00     0.251 C 
ATOM     27  H   UNL A   1      31.700  34.607  27.126  1.00  0.00     0.163 HD
ATOM     28  O   UNL A   1      32.528  36.053  28.950  1.00  0.00    -0.269 OA
BRANCH  26  29
ATOM     29  C   UNL A   1      34.203  34.444  29.309  1.00  0.00     0.039 A 
ATOM     30  C   UNL A   1      34.028  33.574  30.385  1.00  0.00     0.014 A 
ATOM     31  C   UNL A   1      35.467  34.651  28.752  1.00  0.00     0.014 A 
ATOM     32  C   UNL A   1      35.129  32.868  30.870  1.00  0.00     0.010 A 
ATOM     33  C   UNL A   1      36.514  33.828  29.125  1.00  0.00     0.010 A 
ATOM     34  C   UNL A   1      36.371  32.968  30.222  1.00  0.00    -0.014 A 
BRANCH  34  35
ATOM     35  C   UNL A   1      37.577  32.285  30.741  1.00  0.00     0.031 A 
ATOM     36  C   UNL A   1      38.176  32.777  32.033  1.00  0.00     0.074 A 
ATOM     37  C   UNL A   1      38.152  31.285  30.049  1.00  0.00     0.049 A 
ATOM     38  N   UNL A   1      39.264  32.389  32.645  1.00  0.00    -0.248 NA
ATOM     39  C   UNL A   1      37.486  33.895  32.703  1.00  0.00     0.031 C 
ATOM     40  C   UNL A   1      37.700  30.773  28.752  1.00  0.00     0.029 A 
ATOM     41  N   UNL A   1      39.246  30.513  30.344  1.00  0.00    -0.354 N 
ATOM     42  C   UNL A   1      39.394  33.231  33.741  1.00  0.00     0.074 A 
ATOM     43  C   UNL A   1      38.338  34.211  33.662  1.00  0.00     0.031 C 
ATOM     44  C   UNL A   1      38.485  29.745  28.386  1.00  0.00     0.029 A 
ATOM     45  C   UNL A   1      39.511  29.547  29.405  1.00  0.00     0.049 A 
ATOM     46  H   UNL A   1      39.792  30.641  31.153  1.00  0.00     0.167 HD
ATOM     47  C   UNL A   1      40.280  33.164  34.760  1.00  0.00     0.037 A 
ATOM     48  C   UNL A   1      40.470  28.603  29.384  1.00  0.00     0.037 A 
ATOM     49  C   UNL A   1      41.284  32.145  34.864  1.00  0.00     0.049 A 
ATOM     50  C   UNL A   1      41.428  28.523  30.544  1.00  0.00     0.074 A 
ATOM     51  C   UNL A   1      42.196  31.931  35.880  1.00  0.00     0.029 A 
ATOM     52  N   UNL A   1      41.494  31.157  33.913  1.00  0.00    -0.354 N 
ATOM     53  N   UNL A   1      41.494  29.280  31.614  1.00  0.00    -0.248 NA
ATOM     54  C   UNL A   1      42.433  27.453  30.502  1.00  0.00     0.031 C 
ATOM     55  C   UNL A   1      42.982  30.830  35.526  1.00  0.00     0.029 A 
ATOM     56  C   UNL A   1      42.530  30.334  34.313  1.00  0.00     0.049 A 
ATOM     57  H   UNL A   1      40.980  31.056  33.079  1.00  0.00     0.167 HD
ATOM     58  C   UNL A   1      42.528  28.763  32.383  1.00  0.00     0.074 A 
ATOM     59  C   UNL A   1      43.048  27.617  31.665  1.00  0.00     0.031 C 
ATOM     60  C   UNL A   1      43.011  29.194  33.575  1.00  0.00     0.037 A 
BRANCH  47  61
ATOM     61  C   UNL A   1      40.171  34.203  35.837  1.00  0.00     0.057 A 
ATOM     62  C   UNL A   1      39.414  33.987  36.998  1.00  0.00     0.134 A 
ATOM     63  C   UNL A   1      40.819  35.436  35.710  1.00  0.00     0.134 A 
ATOM     64  F   UNL A   1      38.747  32.836  37.172  1.00  0.00    -0.206 F 
ATOM     65  C   UNL A   1      39.279  34.973  37.977  1.00  0.00     0.040 A 
ATOM     66  C   UNL A   1      40.718  36.418  36.697  1.00  0.00     0.040 A 
ATOM     67  F   UNL A   1      41.556  35.710  34.623  1.00  0.00    -0.206 F 
ATOM     68  C   UNL A   1      39.938  36.191  37.830  1.00  0.00     0.006 A 
ENDBRANCH  47  61
BRANCH  48  69
ATOM     69  C   UNL A   1      40.549  27.635  28.260  1.00  0.00     0.057 A 
ATOM     70  C   UNL A   1      39.895  26.397  28.323  1.00  0.00     0.134 A 
ATOM     71  C   UNL A   1      41.282  27.914  27.101  1.00  0.00     0.134 A 
ATOM     72  F   UNL A   1      39.188  26.064  29.413  1.00  0.00    -0.206 F 
ATOM     73  C   UNL A   1      39.987  25.465  27.288  1.00  0.00     0.040 A 
ATOM     74  C   UNL A   1      41.363  27.001  26.047  1.00  0.00     0.040 A 
ATOM     75  F   UNL A   1      41.924  29.085  26.971  1.00  0.00    -0.206 F 
ATOM     76  C   UNL A   1      40.721  25.768  26.143  1.00  0.00     0.006 A 
ENDBRANCH  48  69
BRANCH  60  77
ATOM     77  C   UNL A   1      44.129  28.406  34.186  1.00  0.00     0.057 A 
ATOM     78  C   UNL A   1      43.886  27.291  34.998  1.00  0.00     0.134 A 
ATOM     79  C   UNL A   1      45.462  28.733  33.910  1.00  0.00     0.134 A 
ATOM     80  F   UNL A   1      42.628  26.934  35.304  1.00  0.00    -0.206 F 
ATOM     81  C   UNL A   1      44.932  26.540  35.531  1.00  0.00     0.040 A 
ATOM     82  C   UNL A   1      46.516  27.973  34.416  1.00  0.00     0.040 A 
ATOM     83  F   UNL A   1      45.759  29.782  33.127  1.00  0.00    -0.206 F 
ATOM     84  C   UNL A   1      46.252  26.877  35.233  1.00  0.00     0.006 A 
ENDBRANCH  60  77
ENDBRANCH  34  35
ENDBRANCH  26  29
ENDBRANCH  24  25
ENDBRANCH  23  24
ENDBRANCH   1  23
TORSDOF 14
ENDMDL
