MODEL 1
REMARK VINA RESULT:     -11.2      0.000      0.000
REMARK SMILES Nc1cc([N+](=O)[O-])ccc1[C@H]([NH3+])C(=O)NCCCCNC(=O)c1ccc(-c2c3nc(c(-c4c(F)cccc4F)c4ccc([nH]4)c(-c4c(F)cccc4F)c4nc(c(-c5c(F)cccc5F)c5ccc2[nH]5)C=C4)C=C3)cc1
REMARK SMILES IDX 17 1 16 2 15 3 13 4 14 5 11 7 10 8 2 9 3 10 4 11 9 12 8 13
REMARK SMILES IDX 1 14 5 17 6 18 7 19 12 20 18 24 19 25 20 26 21 27 22 29
REMARK SMILES IDX 23 30 24 31 76 32 25 33 75 34 26 35 27 36 28 37 69 38 29 39
REMARK SMILES IDX 74 40 68 41 70 42 30 43 73 44 67 45 66 46 31 48 57 49 40 50
REMARK SMILES IDX 56 51 41 52 44 53 55 54 71 55 42 56 43 57 54 59 72 60 45 61
REMARK SMILES IDX 32 62 33 63 38 64 34 65 35 66 37 67 39 68 36 69 58 70 59 71
REMARK SMILES IDX 64 72 60 73 61 74 63 75 65 76 62 77 46 78 47 79 52 80 48 81
REMARK SMILES IDX 49 82 51 83 53 84 50 85
REMARK H PARENT 15 6 1 15 1 16 12 21 12 22 12 23 20 28 70 47 44 58
REMARK Flexibility Score: inf
ROOT
ATOM      1  C   UNL A   1      33.726  28.646  25.510  1.00  0.00     0.023 C 
ENDROOT
BRANCH   1   2
ATOM      2  C   UNL A   1      33.315  27.255  25.040  1.00  0.00     0.116 C 
BRANCH   2   3
ATOM      3  N   UNL A   1      32.244  26.710  25.849  1.00  0.00    -0.351 N 
ATOM      4  C   UNL A   1      31.056  26.156  25.452  1.00  0.00     0.283 C 
ATOM      5  O   UNL A   1      30.301  25.733  26.335  1.00  0.00    -0.268 OA
ATOM      6  H   UNL A   1      32.391  26.741  26.822  1.00  0.00     0.163 HD
BRANCH   4   7
ATOM      7  C   UNL A   1      30.690  26.019  23.944  1.00  0.00     0.304 C 
BRANCH   7   8
ATOM      8  C   UNL A   1      29.839  27.194  23.432  1.00  0.00     0.042 A 
ATOM      9  C   UNL A   1      28.433  27.300  23.522  1.00  0.00     0.048 A 
ATOM     10  C   UNL A   1      27.803  28.494  23.126  1.00  0.00     0.111 A 
ATOM     11  C   UNL A   1      28.534  29.539  22.552  1.00  0.00     0.271 A 
ATOM     12  C   UNL A   1      30.546  28.255  22.806  1.00  0.00     0.020 A 
ATOM     13  C   UNL A   1      29.909  29.420  22.376  1.00  0.00     0.086 A 
BRANCH   9  14
ATOM     14  N   UNL A   1      27.632  26.328  24.117  1.00  0.00    -0.398 N 
ATOM     15  H   UNL A   1      26.973  26.585  24.802  1.00  0.00     0.156 HD
ATOM     16  H   UNL A   1      27.724  25.385  23.852  1.00  0.00     0.156 HD
ENDBRANCH   9  14
BRANCH  11  17
ATOM     17  N   UNL A   1      27.847  30.763  22.127  1.00  0.00     0.062 N 
ATOM     18  O   UNL A   1      27.875  31.051  20.922  1.00  0.00    -0.258 OA
ATOM     19  O   UNL A   1      27.278  31.436  22.998  1.00  0.00    -0.258 OA
ENDBRANCH  11  17
ENDBRANCH   7   8
BRANCH   7  20
ATOM     20  N   UNL A   1      30.165  24.655  23.734  1.00  0.00    -0.343 N 
ATOM     21  H   UNL A   1      29.170  24.705  23.510  1.00  0.00     0.345 HD
ATOM     22  H   UNL A   1      30.296  24.105  24.582  1.00  0.00     0.345 HD
ATOM     23  H   UNL A   1      30.664  24.214  22.961  1.00  0.00     0.345 HD
ENDBRANCH   7  20
ENDBRANCH   4   7
ENDBRANCH   2   3
ENDBRANCH   1   2
BRANCH   1  24
ATOM     24  C   UNL A   1      32.625  29.703  25.410  1.00  0.00     0.023 C 
BRANCH  24  25
ATOM     25  C   UNL A   1      32.100  30.229  26.742  1.00  0.00     0.116 C 
BRANCH  25  26
ATOM     26  N   UNL A   1      32.101  31.681  26.822  1.00  0.00    -0.352 N 
ATOM     27  C   UNL A   1      33.006  32.520  27.418  1.00  0.00     0.251 C 
ATOM     28  H   UNL A   1      31.340  32.126  26.384  1.00  0.00     0.163 HD
ATOM     29  O   UNL A   1      32.763  33.724  27.494  1.00  0.00    -0.269 OA
BRANCH  27  30
ATOM     30  C   UNL A   1      34.256  31.985  28.001  1.00  0.00     0.039 A 
ATOM     31  C   UNL A   1      35.340  32.852  28.164  1.00  0.00     0.014 A 
ATOM     32  C   UNL A   1      34.374  30.643  28.376  1.00  0.00     0.014 A 
ATOM     33  C   UNL A   1      36.517  32.387  28.752  1.00  0.00     0.010 A 
ATOM     34  C   UNL A   1      35.521  30.201  29.034  1.00  0.00     0.010 A 
ATOM     35  C   UNL A   1      36.607  31.066  29.223  1.00  0.00    -0.014 A 
BRANCH  35  36
ATOM     36  C   UNL A   1      37.834  30.601  29.920  1.00  0.00     0.031 A 
ATOM     37  C   UNL A   1      38.107  30.998  31.346  1.00  0.00     0.074 A 
ATOM     38  C   UNL A   1      38.720  29.832  29.255  1.00  0.00     0.049 A 
ATOM     39  N   UNL A   1      39.097  30.641  32.127  1.00  0.00    -0.248 NA
ATOM     40  C   UNL A   1      37.161  31.935  31.973  1.00  0.00     0.031 C 
ATOM     41  C   UNL A   1      38.606  29.434  27.850  1.00  0.00     0.029 A 
ATOM     42  N   UNL A   1      39.884  29.239  29.674  1.00  0.00    -0.354 N 
ATOM     43  C   UNL A   1      38.897  31.314  33.326  1.00  0.00     0.074 A 
ATOM     44  C   UNL A   1      37.725  32.143  33.153  1.00  0.00     0.031 C 
ATOM     45  C   UNL A   1      39.630  28.623  27.539  1.00  0.00     0.029 A 
ATOM     46  C   UNL A   1      40.487  28.469  28.709  1.00  0.00     0.049 A 
ATOM     47  H   UNL A   1      40.252  29.354  30.580  1.00  0.00     0.167 HD
ATOM     48  C   UNL A   1      39.610  31.230  34.474  1.00  0.00     0.037 A 
ATOM     49  C   UNL A   1      41.599  27.711  28.767  1.00  0.00     0.037 A 
ATOM     50  C   UNL A   1      40.763  30.385  34.653  1.00  0.00     0.049 A 
ATOM     51  C   UNL A   1      42.361  27.624  30.061  1.00  0.00     0.074 A 
ATOM     52  C   UNL A   1      41.506  30.172  35.801  1.00  0.00     0.029 A 
ATOM     53  N   UNL A   1      41.341  29.616  33.654  1.00  0.00    -0.354 N 
ATOM     54  N   UNL A   1      42.102  28.189  31.215  1.00  0.00    -0.248 NA
ATOM     55  C   UNL A   1      43.563  26.781  30.060  1.00  0.00     0.031 C 
ATOM     56  C   UNL A   1      42.565  29.313  35.484  1.00  0.00     0.029 A 
ATOM     57  C   UNL A   1      42.448  28.948  34.153  1.00  0.00     0.049 A 
ATOM     58  H   UNL A   1      41.013  29.553  32.728  1.00  0.00     0.167 HD
ATOM     59  C   UNL A   1      43.090  27.745  32.084  1.00  0.00     0.074 A 
ATOM     60  C   UNL A   1      43.936  26.846  31.329  1.00  0.00     0.031 C 
ATOM     61  C   UNL A   1      43.283  28.055  33.390  1.00  0.00     0.037 A 
BRANCH  48  62
ATOM     62  C   UNL A   1      39.165  32.074  35.635  1.00  0.00     0.057 A 
ATOM     63  C   UNL A   1      39.605  33.394  35.803  1.00  0.00     0.134 A 
ATOM     64  C   UNL A   1      38.246  31.577  36.569  1.00  0.00     0.134 A 
ATOM     65  F   UNL A   1      40.493  33.928  34.952  1.00  0.00    -0.206 F 
ATOM     66  C   UNL A   1      39.165  34.181  36.869  1.00  0.00     0.040 A 
ATOM     67  C   UNL A   1      37.778  32.364  37.623  1.00  0.00     0.040 A 
ATOM     68  F   UNL A   1      37.779  30.324  36.465  1.00  0.00    -0.206 F 
ATOM     69  C   UNL A   1      38.241  33.669  37.778  1.00  0.00     0.006 A 
ENDBRANCH  48  62
BRANCH  49  70
ATOM     70  C   UNL A   1      42.043  26.939  27.578  1.00  0.00     0.057 A 
ATOM     71  C   UNL A   1      41.692  25.593  27.421  1.00  0.00     0.134 A 
ATOM     72  C   UNL A   1      42.855  27.512  26.593  1.00  0.00     0.134 A 
ATOM     73  F   UNL A   1      40.931  24.982  28.341  1.00  0.00    -0.206 F 
ATOM     74  C   UNL A   1      42.156  24.835  26.344  1.00  0.00     0.040 A 
ATOM     75  C   UNL A   1      43.302  26.775  25.496  1.00  0.00     0.040 A 
ATOM     76  F   UNL A   1      43.221  28.799  26.680  1.00  0.00    -0.206 F 
ATOM     77  C   UNL A   1      42.962  25.428  25.376  1.00  0.00     0.006 A 
ENDBRANCH  49  70
BRANCH  61  78
ATOM     78  C   UNL A   1      44.434  27.388  34.084  1.00  0.00     0.057 A 
ATOM     79  C   UNL A   1      45.707  27.973  34.143  1.00  0.00     0.134 A 
ATOM     80  C   UNL A   1      44.270  26.139  34.700  1.00  0.00     0.134 A 
ATOM     81  F   UNL A   1      45.936  29.160  33.562  1.00  0.00    -0.206 F 
ATOM     82  C   UNL A   1      46.783  27.322  34.748  1.00  0.00     0.040 A 
ATOM     83  C   UNL A   1      45.329  25.494  35.338  1.00  0.00     0.040 A 
ATOM     84  F   UNL A   1      43.076  25.528  34.692  1.00  0.00    -0.206 F 
ATOM     85  C   UNL A   1      46.593  26.079  35.352  1.00  0.00     0.006 A 
ENDBRANCH  61  78
ENDBRANCH  35  36
ENDBRANCH  27  30
ENDBRANCH  25  26
ENDBRANCH  24  25
ENDBRANCH   1  24
TORSDOF 15
ENDMDL
MODEL 2
REMARK VINA RESULT:     -11.1      5.144      9.844
REMARK SMILES Nc1cc([N+](=O)[O-])ccc1[C@H]([NH3+])C(=O)NCCCCNC(=O)c1ccc(-c2c3nc(c(-c4c(F)cccc4F)c4ccc([nH]4)c(-c4c(F)cccc4F)c4nc(c(-c5c(F)cccc5F)c5ccc2[nH]5)C=C4)C=C3)cc1
REMARK SMILES IDX 17 1 16 2 15 3 13 4 14 5 11 7 10 8 2 9 3 10 4 11 9 12 8 13
REMARK SMILES IDX 1 14 5 17 6 18 7 19 12 20 18 24 19 25 20 26 21 27 22 29
REMARK SMILES IDX 23 30 24 31 76 32 25 33 75 34 26 35 27 36 28 37 69 38 29 39
REMARK SMILES IDX 74 40 68 41 70 42 30 43 73 44 67 45 66 46 31 48 57 49 40 50
REMARK SMILES IDX 56 51 41 52 44 53 55 54 71 55 42 56 43 57 54 59 72 60 45 61
REMARK SMILES IDX 32 62 33 63 38 64 34 65 35 66 37 67 39 68 36 69 58 70 59 71
REMARK SMILES IDX 64 72 60 73 61 74 63 75 65 76 62 77 46 78 47 79 52 80 48 81
REMARK SMILES IDX 49 82 51 83 53 84 50 85
REMARK H PARENT 15 6 1 15 1 16 12 21 12 22 12 23 20 28 70 47 44 58
REMARK Flexibility Score: inf
ROOT
ATOM      1  C   UNL A   1      35.751  23.169  26.089  1.00  0.00     0.023 C 
ENDROOT
BRANCH   1   2
ATOM      2  C   UNL A   1      34.400  23.634  25.559  1.00  0.00     0.116 C 
BRANCH   2   3
ATOM      3  N   UNL A   1      34.390  23.716  24.112  1.00  0.00    -0.351 N 
ATOM      4  C   UNL A   1      33.474  23.221  23.224  1.00  0.00     0.283 C 
ATOM      5  O   UNL A   1      33.669  23.440  22.023  1.00  0.00    -0.268 OA
ATOM      6  H   UNL A   1      35.150  24.197  23.711  1.00  0.00     0.163 HD
BRANCH   4   7
ATOM      7  C   UNL A   1      32.207  22.457  23.710  1.00  0.00     0.304 C 
BRANCH   7   8
ATOM      8  C   UNL A   1      32.380  20.928  23.654  1.00  0.00     0.042 A 
ATOM      9  C   UNL A   1      32.133  20.107  22.533  1.00  0.00     0.048 A 
ATOM     10  C   UNL A   1      32.460  18.740  22.591  1.00  0.00     0.111 A 
ATOM     11  C   UNL A   1      32.934  18.161  23.773  1.00  0.00     0.271 A 
ATOM     12  C   UNL A   1      32.821  20.303  24.851  1.00  0.00     0.020 A 
ATOM     13  C   UNL A   1      33.104  18.939  24.915  1.00  0.00     0.086 A 
BRANCH   9  14
ATOM     14  N   UNL A   1      31.702  20.603  21.304  1.00  0.00    -0.398 N 
ATOM     15  H   UNL A   1      31.187  21.441  21.265  1.00  0.00     0.156 HD
ATOM     16  H   UNL A   1      31.912  20.116  20.475  1.00  0.00     0.156 HD
ENDBRANCH   9  14
BRANCH  11  17
ATOM     17  N   UNL A   1      33.246  16.729  23.812  1.00  0.00     0.062 N 
ATOM     18  O   UNL A   1      32.806  16.069  24.764  1.00  0.00    -0.258 OA
ATOM     19  O   UNL A   1      33.929  16.263  22.888  1.00  0.00    -0.258 OA
ENDBRANCH  11  17
ENDBRANCH   7   8
BRANCH   7  20
ATOM     20  N   UNL A   1      31.040  23.035  23.013  1.00  0.00    -0.343 N 
ATOM     21  H   UNL A   1      31.357  23.546  22.188  1.00  0.00     0.345 HD
ATOM     22  H   UNL A   1      30.551  23.672  23.641  1.00  0.00     0.345 HD
ATOM     23  H   UNL A   1      30.409  22.287  22.727  1.00  0.00     0.345 HD
ENDBRANCH   7  20
ENDBRANCH   4   7
ENDBRANCH   2   3
ENDBRANCH   1   2
BRANCH   1  24
ATOM     24  C   UNL A   1      36.109  21.723  25.741  1.00  0.00     0.023 C 
BRANCH  24  25
ATOM     25  C   UNL A   1      37.368  21.546  24.898  1.00  0.00     0.116 C 
BRANCH  25  26
ATOM     26  N   UNL A   1      38.253  20.510  25.407  1.00  0.00    -0.352 N 
ATOM     27  C   UNL A   1      39.434  20.634  26.092  1.00  0.00     0.251 C 
ATOM     28  H   UNL A   1      37.962  19.586  25.234  1.00  0.00     0.163 HD
ATOM     29  O   UNL A   1      40.111  19.632  26.325  1.00  0.00    -0.269 OA
BRANCH  27  30
ATOM     30  C   UNL A   1      39.918  21.963  26.523  1.00  0.00     0.039 A 
ATOM     31  C   UNL A   1      40.937  22.024  27.478  1.00  0.00     0.014 A 
ATOM     32  C   UNL A   1      39.374  23.144  26.007  1.00  0.00     0.014 A 
ATOM     33  C   UNL A   1      41.444  23.263  27.871  1.00  0.00     0.010 A 
ATOM     34  C   UNL A   1      39.935  24.375  26.343  1.00  0.00     0.010 A 
ATOM     35  C   UNL A   1      40.971  24.449  27.283  1.00  0.00    -0.014 A 
BRANCH  35  36
ATOM     36  C   UNL A   1      41.573  25.758  27.648  1.00  0.00     0.031 A 
ATOM     37  C   UNL A   1      42.956  26.127  27.184  1.00  0.00     0.074 A 
ATOM     38  C   UNL A   1      40.873  26.613  28.421  1.00  0.00     0.049 A 
ATOM     39  N   UNL A   1      43.615  27.245  27.361  1.00  0.00    -0.248 NA
ATOM     40  C   UNL A   1      43.709  25.101  26.445  1.00  0.00     0.031 C 
ATOM     41  C   UNL A   1      39.551  26.347  28.992  1.00  0.00     0.029 A 
ATOM     42  N   UNL A   1      41.171  27.881  28.852  1.00  0.00    -0.354 N 
ATOM     43  C   UNL A   1      44.856  27.054  26.767  1.00  0.00     0.074 A 
ATOM     44  C   UNL A   1      44.881  25.695  26.273  1.00  0.00     0.031 C 
ATOM     45  C   UNL A   1      39.131  27.437  29.655  1.00  0.00     0.029 A 
ATOM     46  C   UNL A   1      40.163  28.464  29.582  1.00  0.00     0.049 A 
ATOM     47  H   UNL A   1      42.024  28.330  28.656  1.00  0.00     0.167 HD
ATOM     48  C   UNL A   1      45.872  27.937  26.623  1.00  0.00     0.037 A 
ATOM     49  C   UNL A   1      40.077  29.695  30.121  1.00  0.00     0.037 A 
ATOM     50  C   UNL A   1      45.837  29.298  27.093  1.00  0.00     0.049 A 
ATOM     51  C   UNL A   1      41.215  30.660  29.931  1.00  0.00     0.074 A 
ATOM     52  C   UNL A   1      46.785  30.293  26.928  1.00  0.00     0.029 A 
ATOM     53  N   UNL A   1      44.798  29.854  27.826  1.00  0.00    -0.354 N 
ATOM     54  N   UNL A   1      42.341  30.497  29.280  1.00  0.00    -0.248 NA
ATOM     55  C   UNL A   1      41.061  31.987  30.541  1.00  0.00     0.031 C 
ATOM     56  C   UNL A   1      46.342  31.436  27.604  1.00  0.00     0.029 A 
ATOM     57  C   UNL A   1      45.094  31.170  28.142  1.00  0.00     0.049 A 
ATOM     58  H   UNL A   1      43.972  29.384  28.081  1.00  0.00     0.167 HD
ATOM     59  C   UNL A   1      43.014  31.708  29.376  1.00  0.00     0.074 A 
ATOM     60  C   UNL A   1      42.158  32.602  30.126  1.00  0.00     0.031 C 
ATOM     61  C   UNL A   1      44.232  32.050  28.890  1.00  0.00     0.037 A 
BRANCH  48  62
ATOM     62  C   UNL A   1      47.116  27.462  25.925  1.00  0.00     0.057 A 
ATOM     63  C   UNL A   1      48.163  26.840  26.618  1.00  0.00     0.134 A 
ATOM     64  C   UNL A   1      47.246  27.584  24.535  1.00  0.00     0.134 A 
ATOM     65  F   UNL A   1      48.107  26.701  27.951  1.00  0.00    -0.206 F 
ATOM     66  C   UNL A   1      49.303  26.377  25.959  1.00  0.00     0.040 A 
ATOM     67  C   UNL A   1      48.369  27.099  23.862  1.00  0.00     0.040 A 
ATOM     68  F   UNL A   1      46.279  28.164  23.808  1.00  0.00    -0.206 F 
ATOM     69  C   UNL A   1      49.403  26.498  24.574  1.00  0.00     0.006 A 
ENDBRANCH  48  62
BRANCH  49  70
ATOM     70  C   UNL A   1      38.856  30.108  30.859  1.00  0.00     0.057 A 
ATOM     71  C   UNL A   1      38.706  29.820  32.221  1.00  0.00     0.134 A 
ATOM     72  C   UNL A   1      37.799  30.765  30.219  1.00  0.00     0.134 A 
ATOM     73  F   UNL A   1      39.676  29.176  32.886  1.00  0.00    -0.206 F 
ATOM     74  C   UNL A   1      37.537  30.143  32.914  1.00  0.00     0.040 A 
ATOM     75  C   UNL A   1      36.637  31.119  30.906  1.00  0.00     0.040 A 
ATOM     76  F   UNL A   1      37.883  31.076  28.918  1.00  0.00    -0.206 F 
ATOM     77  C   UNL A   1      36.499  30.797  32.255  1.00  0.00     0.006 A 
ENDBRANCH  49  70
BRANCH  61  78
ATOM     78  C   UNL A   1      44.689  33.460  29.130  1.00  0.00     0.057 A 
ATOM     79  C   UNL A   1      45.442  33.815  30.257  1.00  0.00     0.134 A 
ATOM     80  C   UNL A   1      44.366  34.479  28.222  1.00  0.00     0.134 A 
ATOM     81  F   UNL A   1      45.773  32.892  31.172  1.00  0.00    -0.206 F 
ATOM     82  C   UNL A   1      45.819  35.138  30.495  1.00  0.00     0.040 A 
ATOM     83  C   UNL A   1      44.766  35.798  28.432  1.00  0.00     0.040 A 
ATOM     84  F   UNL A   1      43.658  34.206  27.117  1.00  0.00    -0.206 F 
ATOM     85  C   UNL A   1      45.484  36.133  29.578  1.00  0.00     0.006 A 
ENDBRANCH  61  78
ENDBRANCH  35  36
ENDBRANCH  27  30
ENDBRANCH  25  26
ENDBRANCH  24  25
ENDBRANCH   1  24
TORSDOF 15
ENDMDL
MODEL 3
REMARK VINA RESULT:     -11.1      4.232      7.864
REMARK SMILES Nc1cc([N+](=O)[O-])ccc1[C@H]([NH3+])C(=O)NCCCCNC(=O)c1ccc(-c2c3nc(c(-c4c(F)cccc4F)c4ccc([nH]4)c(-c4c(F)cccc4F)c4nc(c(-c5c(F)cccc5F)c5ccc2[nH]5)C=C4)C=C3)cc1
REMARK SMILES IDX 17 1 16 2 15 3 13 4 14 5 11 7 10 8 2 9 3 10 4 11 9 12 8 13
REMARK SMILES IDX 1 14 5 17 6 18 7 19 12 20 18 24 19 25 20 26 21 27 22 29
REMARK SMILES IDX 23 30 24 31 76 32 25 33 75 34 26 35 27 36 28 37 69 38 29 39
REMARK SMILES IDX 74 40 68 41 70 42 30 43 73 44 67 45 66 46 31 48 57 49 40 50
REMARK SMILES IDX 56 51 41 52 44 53 55 54 71 55 42 56 43 57 54 59 72 60 45 61
REMARK SMILES IDX 32 62 33 63 38 64 34 65 35 66 37 67 39 68 36 69 58 70 59 71
REMARK SMILES IDX 64 72 60 73 61 74 63 75 65 76 62 77 46 78 47 79 52 80 48 81
REMARK SMILES IDX 49 82 51 83 53 84 50 85
REMARK H PARENT 15 6 1 15 1 16 12 21 12 22 12 23 20 28 70 47 44 58
REMARK Flexibility Score: inf
ROOT
ATOM      1  C   UNL A   1      33.068  28.479  25.831  1.00  0.00     0.023 C 
ENDROOT
BRANCH   1   2
ATOM      2  C   UNL A   1      32.989  27.023  25.383  1.00  0.00     0.116 C 
BRANCH   2   3
ATOM      3  N   UNL A   1      31.866  26.336  25.988  1.00  0.00    -0.351 N 
ATOM      4  C   UNL A   1      30.762  25.790  25.389  1.00  0.00     0.283 C 
ATOM      5  O   UNL A   1      29.939  25.227  26.119  1.00  0.00    -0.268 OA
ATOM      6  H   UNL A   1      31.902  26.247  26.967  1.00  0.00     0.163 HD
BRANCH   4   7
ATOM      7  C   UNL A   1      30.575  25.833  23.844  1.00  0.00     0.304 C 
BRANCH   7   8
ATOM      8  C   UNL A   1      29.792  27.073  23.376  1.00  0.00     0.042 A 
ATOM      9  C   UNL A   1      28.402  27.276  23.518  1.00  0.00     0.048 A 
ATOM     10  C   UNL A   1      27.844  28.517  23.159  1.00  0.00     0.111 A 
ATOM     11  C   UNL A   1      28.627  29.517  22.572  1.00  0.00     0.271 A 
ATOM     12  C   UNL A   1      30.550  28.091  22.738  1.00  0.00     0.020 A 
ATOM     13  C   UNL A   1      29.983  29.303  22.345  1.00  0.00     0.086 A 
BRANCH   9  14
ATOM     14  N   UNL A   1      27.554  26.354  24.129  1.00  0.00    -0.398 N 
ATOM     15  H   UNL A   1      27.826  25.918  24.968  1.00  0.00     0.156 HD
ATOM     16  H   UNL A   1      26.685  26.139  23.721  1.00  0.00     0.156 HD
ENDBRANCH   9  14
BRANCH  11  17
ATOM     17  N   UNL A   1      28.014  30.792  22.186  1.00  0.00     0.062 N 
ATOM     18  O   UNL A   1      27.152  31.268  22.938  1.00  0.00    -0.258 OA
ATOM     19  O   UNL A   1      28.396  31.319  21.131  1.00  0.00    -0.258 OA
ENDBRANCH  11  17
ENDBRANCH   7   8
BRANCH   7  20
ATOM     20  N   UNL A   1      30.076  24.511  23.416  1.00  0.00    -0.343 N 
ATOM     21  H   UNL A   1      29.263  24.257  23.980  1.00  0.00     0.345 HD
ATOM     22  H   UNL A   1      30.808  23.814  23.542  1.00  0.00     0.345 HD
ATOM     23  H   UNL A   1      29.808  24.550  22.433  1.00  0.00     0.345 HD
ENDBRANCH   7  20
ENDBRANCH   4   7
ENDBRANCH   2   3
ENDBRANCH   1   2
BRANCH   1  24
ATOM     24  C   UNL A   1      33.426  28.673  27.306  1.00  0.00     0.023 C 
BRANCH  24  25
ATOM     25  C   UNL A   1      34.845  29.165  27.575  1.00  0.00     0.116 C 
BRANCH  25  26
ATOM     26  N   UNL A   1      34.908  30.177  28.618  1.00  0.00    -0.352 N 
ATOM     27  C   UNL A   1      35.961  30.536  29.419  1.00  0.00     0.251 C 
ATOM     28  H   UNL A   1      34.074  30.675  28.770  1.00  0.00     0.163 HD
ATOM     29  O   UNL A   1      35.781  31.331  30.342  1.00  0.00    -0.269 OA
BRANCH  27  30
ATOM     30  C   UNL A   1      37.302  29.950  29.206  1.00  0.00     0.039 A 
ATOM     31  C   UNL A   1      37.896  30.087  27.948  1.00  0.00     0.014 A 
ATOM     32  C   UNL A   1      37.972  29.263  30.223  1.00  0.00     0.014 A 
ATOM     33  C   UNL A   1      39.180  29.585  27.730  1.00  0.00     0.010 A 
ATOM     34  C   UNL A   1      39.283  28.832  30.026  1.00  0.00     0.010 A 
ATOM     35  C   UNL A   1      39.899  28.981  28.776  1.00  0.00    -0.014 A 
BRANCH  35  36
ATOM     36  C   UNL A   1      41.295  28.521  28.559  1.00  0.00     0.031 A 
ATOM     37  C   UNL A   1      41.586  27.093  28.184  1.00  0.00     0.074 A 
ATOM     38  C   UNL A   1      42.310  29.394  28.722  1.00  0.00     0.049 A 
ATOM     39  N   UNL A   1      42.736  26.531  27.903  1.00  0.00    -0.248 NA
ATOM     40  C   UNL A   1      40.443  26.166  28.140  1.00  0.00     0.031 C 
ATOM     41  C   UNL A   1      42.166  30.787  29.149  1.00  0.00     0.029 A 
ATOM     42  N   UNL A   1      43.661  29.242  28.536  1.00  0.00    -0.354 N 
ATOM     43  C   UNL A   1      42.457  25.193  27.660  1.00  0.00     0.074 A 
ATOM     44  C   UNL A   1      41.039  25.012  27.881  1.00  0.00     0.031 C 
ATOM     45  C   UNL A   1      43.373  31.375  29.145  1.00  0.00     0.029 A 
ATOM     46  C   UNL A   1      44.377  30.396  28.745  1.00  0.00     0.049 A 
ATOM     47  H   UNL A   1      44.077  28.388  28.278  1.00  0.00     0.167 HD
ATOM     48  C   UNL A   1      43.300  24.209  27.265  1.00  0.00     0.037 A 
ATOM     49  C   UNL A   1      45.695  30.639  28.615  1.00  0.00     0.037 A 
ATOM     50  C   UNL A   1      44.707  24.396  27.021  1.00  0.00     0.049 A 
ATOM     51  C   UNL A   1      46.604  29.531  28.159  1.00  0.00     0.074 A 
ATOM     52  C   UNL A   1      45.629  23.481  26.545  1.00  0.00     0.029 A 
ATOM     53  N   UNL A   1      45.396  25.580  27.240  1.00  0.00    -0.354 N 
ATOM     54  N   UNL A   1      46.309  28.295  27.837  1.00  0.00    -0.248 NA
ATOM     55  C   UNL A   1      48.030  29.860  28.035  1.00  0.00     0.031 C 
ATOM     56  C   UNL A   1      46.886  24.096  26.523  1.00  0.00     0.029 A 
ATOM     57  C   UNL A   1      46.737  25.410  26.933  1.00  0.00     0.049 A 
ATOM     58  H   UNL A   1      44.993  26.417  27.564  1.00  0.00     0.167 HD
ATOM     59  C   UNL A   1      47.505  27.710  27.443  1.00  0.00     0.074 A 
ATOM     60  C   UNL A   1      48.523  28.734  27.543  1.00  0.00     0.031 C 
ATOM     61  C   UNL A   1      47.741  26.438  27.038  1.00  0.00     0.037 A 
BRANCH  48  62
ATOM     62  C   UNL A   1      42.724  22.835  27.067  1.00  0.00     0.057 A 
ATOM     63  C   UNL A   1      42.535  22.288  25.790  1.00  0.00     0.134 A 
ATOM     64  C   UNL A   1      42.401  22.029  28.168  1.00  0.00     0.134 A 
ATOM     65  F   UNL A   1      42.814  23.009  24.694  1.00  0.00    -0.206 F 
ATOM     66  C   UNL A   1      42.027  21.000  25.615  1.00  0.00     0.040 A 
ATOM     67  C   UNL A   1      41.918  20.730  28.004  1.00  0.00     0.040 A 
ATOM     68  F   UNL A   1      42.562  22.487  29.418  1.00  0.00    -0.206 F 
ATOM     69  C   UNL A   1      41.725  20.213  26.725  1.00  0.00     0.006 A 
ENDBRANCH  48  62
BRANCH  49  70
ATOM     70  C   UNL A   1      46.237  31.997  28.880  1.00  0.00     0.057 A 
ATOM     71  C   UNL A   1      46.660  32.366  30.163  1.00  0.00     0.134 A 
ATOM     72  C   UNL A   1      46.315  32.966  27.873  1.00  0.00     0.134 A 
ATOM     73  F   UNL A   1      46.594  31.487  31.175  1.00  0.00    -0.206 F 
ATOM     74  C   UNL A   1      47.110  33.657  30.443  1.00  0.00     0.040 A 
ATOM     75  C   UNL A   1      46.790  34.252  28.132  1.00  0.00     0.040 A 
ATOM     76  F   UNL A   1      45.933  32.674  26.622  1.00  0.00    -0.206 F 
ATOM     77  C   UNL A   1      47.178  34.604  29.424  1.00  0.00     0.006 A 
ENDBRANCH  49  70
BRANCH  61  78
ATOM     78  C   UNL A   1      49.150  26.101  26.643  1.00  0.00     0.057 A 
ATOM     79  C   UNL A   1      50.088  25.629  27.570  1.00  0.00     0.134 A 
ATOM     80  C   UNL A   1      49.575  26.254  25.316  1.00  0.00     0.134 A 
ATOM     81  F   UNL A   1      49.751  25.473  28.859  1.00  0.00    -0.206 F 
ATOM     82  C   UNL A   1      51.409  25.366  27.202  1.00  0.00     0.040 A 
ATOM     83  C   UNL A   1      50.883  25.962  24.929  1.00  0.00     0.040 A 
ATOM     84  F   UNL A   1      48.725  26.690  24.374  1.00  0.00    -0.206 F 
ATOM     85  C   UNL A   1      51.808  25.529  25.876  1.00  0.00     0.006 A 
ENDBRANCH  61  78
ENDBRANCH  35  36
ENDBRANCH  27  30
ENDBRANCH  25  26
ENDBRANCH  24  25
ENDBRANCH   1  24
TORSDOF 15
ENDMDL
