MODEL 1
REMARK VINA RESULT:     -12.0      0.000      0.000
REMARK SMILES O=C(CCC(=O)N1CCC[C@@]2(CCC(=O)N(Cc3ccncc3)C2)C1)NCCCCNC(=O)c1ccc(-c2c3nc(c(-c4c(F)cccc4F)c4ccc([nH]4)c(-c4c(F)cccc4F)c4nc(c(-c5c(F)cccc5F)c5ccc2[nH]5)C=C4)C=C3)cc1
REMARK SMILES IDX 27 1 26 2 1 3 2 4 3 6 4 7 5 8 6 9 7 10 8 11 25 12 9 13 11 14
REMARK SMILES IDX 10 15 12 16 24 17 13 18 16 19 14 20 15 21 17 22 18 23 19 24
REMARK SMILES IDX 23 25 20 26 22 27 21 28 28 29 29 30 30 31 31 32 32 33 33 35
REMARK SMILES IDX 34 36 35 37 87 38 36 39 86 40 37 41 38 42 39 43 80 44 40 45
REMARK SMILES IDX 85 46 79 47 81 48 41 49 84 50 78 51 77 52 42 54 68 55 51 56
REMARK SMILES IDX 67 57 52 58 55 59 66 60 82 61 53 62 54 63 65 65 83 66 56 67
REMARK SMILES IDX 43 68 44 69 49 70 45 71 46 72 48 73 50 74 47 75 69 76 70 77
REMARK SMILES IDX 75 78 71 79 72 80 74 81 76 82 73 83 57 84 58 85 63 86 59 87
REMARK SMILES IDX 60 88 62 89 64 90 61 91
REMARK H PARENT 26 5 31 34 81 53 55 64
REMARK Flexibility Score: inf
ROOT
ATOM      1  C   UNL A   1      36.747  22.604  25.093  1.00  0.00     0.116 C 
ENDROOT
BRANCH   1   2
ATOM      2  N   UNL A   1      35.399  22.332  25.571  1.00  0.00    -0.356 N 
ATOM      3  O   UNL A   1      35.344  20.190  24.697  1.00  0.00    -0.275 OA
ATOM      4  C   UNL A   1      34.801  21.091  25.334  1.00  0.00     0.220 C 
ATOM      5  H   UNL A   1      34.906  23.027  26.063  1.00  0.00     0.163 HD
BRANCH   4   6
ATOM      6  C   UNL A   1      33.493  20.843  26.061  1.00  0.00     0.110 C 
BRANCH   6   7
ATOM      7  C   UNL A   1      32.328  20.666  25.082  1.00  0.00     0.110 C 
BRANCH   7   8
ATOM      8  C   UNL A   1      32.121  21.884  24.206  1.00  0.00     0.223 C 
ATOM      9  O   UNL A   1      32.281  21.845  22.986  1.00  0.00    -0.275 OA
BRANCH   8  10
ATOM     10  N   UNL A   1      31.866  23.078  24.905  1.00  0.00    -0.342 N 
ATOM     11  C   UNL A   1      30.689  23.079  25.753  1.00  0.00     0.119 C 
ATOM     12  C   UNL A   1      31.979  24.244  24.062  1.00  0.00     0.128 C 
ATOM     13  C   UNL A   1      30.447  24.440  26.415  1.00  0.00     0.022 C 
ATOM     14  C   UNL A   1      31.912  25.642  24.680  1.00  0.00     0.006 C 
ATOM     15  C   UNL A   1      30.554  25.639  25.429  1.00  0.00     0.012 C 
ATOM     16  C   UNL A   1      33.064  25.977  25.635  1.00  0.00     0.020 C 
ATOM     17  C   UNL A   1      32.228  26.669  23.527  1.00  0.00     0.128 C 
ATOM     18  C   UNL A   1      33.021  27.466  26.035  1.00  0.00     0.101 C 
ATOM     19  N   UNL A   1      32.000  28.055  23.840  1.00  0.00    -0.338 N 
ATOM     20  C   UNL A   1      32.576  28.525  25.004  1.00  0.00     0.222 C 
ATOM     21  O   UNL A   1      32.652  29.724  25.263  1.00  0.00    -0.275 OA
BRANCH  19  22
ATOM     22  C   UNL A   1      31.222  28.960  22.968  1.00  0.00     0.155 C 
BRANCH  22  23
ATOM     23  C   UNL A   1      29.775  29.289  23.257  1.00  0.00    -0.026 A 
ATOM     24  C   UNL A   1      29.334  30.605  23.437  1.00  0.00     0.025 A 
ATOM     25  C   UNL A   1      28.804  28.297  23.081  1.00  0.00     0.025 A 
ATOM     26  C   UNL A   1      27.967  30.863  23.427  1.00  0.00     0.111 A 
ATOM     27  C   UNL A   1      27.463  28.652  23.083  1.00  0.00     0.111 A 
ATOM     28  N   UNL A   1      27.022  29.916  23.251  1.00  0.00    -0.265 NA
ENDBRANCH  22  23
ENDBRANCH  19  22
ENDBRANCH   8  10
ENDBRANCH   7   8
ENDBRANCH   6   7
ENDBRANCH   4   6
ENDBRANCH   1   2
BRANCH   1  29
ATOM     29  C   UNL A   1      37.976  21.823  25.670  1.00  0.00     0.023 C 
BRANCH  29  30
ATOM     30  C   UNL A   1      38.647  20.506  25.150  1.00  0.00     0.023 C 
BRANCH  30  31
ATOM     31  C   UNL A   1      39.274  19.210  25.826  1.00  0.00     0.116 C 
BRANCH  31  32
ATOM     32  N   UNL A   1      40.685  18.838  25.778  1.00  0.00    -0.352 N 
ATOM     33  C   UNL A   1      41.844  19.472  26.159  1.00  0.00     0.251 C 
ATOM     34  H   UNL A   1      40.839  17.946  25.391  1.00  0.00     0.163 HD
ATOM     35  O   UNL A   1      42.931  18.895  26.156  1.00  0.00    -0.269 OA
BRANCH  33  36
ATOM     36  C   UNL A   1      41.805  20.826  26.643  1.00  0.00     0.039 A 
ATOM     37  C   UNL A   1      41.790  21.045  28.021  1.00  0.00     0.014 A 
ATOM     38  C   UNL A   1      41.810  21.850  25.704  1.00  0.00     0.014 A 
ATOM     39  C   UNL A   1      41.961  22.337  28.472  1.00  0.00     0.010 A 
ATOM     40  C   UNL A   1      42.047  23.125  26.150  1.00  0.00     0.010 A 
ATOM     41  C   UNL A   1      42.177  23.352  27.529  1.00  0.00    -0.014 A 
BRANCH  41  42
ATOM     42  C   UNL A   1      42.683  24.659  27.947  1.00  0.00     0.031 A 
ATOM     43  C   UNL A   1      41.713  25.725  28.312  1.00  0.00     0.074 A 
ATOM     44  C   UNL A   1      44.006  24.868  27.827  1.00  0.00     0.049 A 
ATOM     45  N   UNL A   1      41.940  26.979  28.578  1.00  0.00    -0.248 NA
ATOM     46  C   UNL A   1      40.289  25.342  28.331  1.00  0.00     0.031 C 
ATOM     47  C   UNL A   1      44.988  23.871  27.380  1.00  0.00     0.029 A 
ATOM     48  N   UNL A   1      44.754  25.988  28.049  1.00  0.00    -0.354 N 
ATOM     49  C   UNL A   1      40.690  27.540  28.784  1.00  0.00     0.074 A 
ATOM     50  C   UNL A   1      39.705  26.510  28.544  1.00  0.00     0.031 C 
ATOM     51  C   UNL A   1      46.212  24.417  27.396  1.00  0.00     0.029 A 
ATOM     52  C   UNL A   1      46.092  25.807  27.810  1.00  0.00     0.049 A 
ATOM     53  H   UNL A   1      44.369  26.842  28.352  1.00  0.00     0.167 HD
ATOM     54  C   UNL A   1      40.411  28.804  29.167  1.00  0.00     0.037 A 
ATOM     55  C   UNL A   1      47.104  26.685  27.917  1.00  0.00     0.037 A 
ATOM     56  C   UNL A   1      41.433  29.788  29.402  1.00  0.00     0.049 A 
ATOM     57  C   UNL A   1      46.764  28.076  28.369  1.00  0.00     0.074 A 
ATOM     58  C   UNL A   1      41.297  31.087  29.848  1.00  0.00     0.029 A 
ATOM     59  N   UNL A   1      42.792  29.568  29.201  1.00  0.00    -0.354 N 
ATOM     60  N   UNL A   1      45.586  28.586  28.648  1.00  0.00    -0.248 NA
ATOM     61  C   UNL A   1      47.883  29.007  28.532  1.00  0.00     0.031 C 
ATOM     62  C   UNL A   1      42.569  31.667  29.874  1.00  0.00     0.029 A 
ATOM     63  C   UNL A   1      43.505  30.713  29.498  1.00  0.00     0.049 A 
ATOM     64  H   UNL A   1      43.186  28.720  28.892  1.00  0.00     0.167 HD
ATOM     65  C   UNL A   1      45.823  29.893  29.045  1.00  0.00     0.074 A 
ATOM     66  C   UNL A   1      47.261  30.085  28.987  1.00  0.00     0.031 C 
ATOM     67  C   UNL A   1      44.940  30.851  29.424  1.00  0.00     0.037 A 
BRANCH  54  68
ATOM     68  C   UNL A   1      38.967  29.163  29.346  1.00  0.00     0.057 A 
ATOM     69  C   UNL A   1      38.328  29.062  30.591  1.00  0.00     0.134 A 
ATOM     70  C   UNL A   1      38.196  29.597  28.261  1.00  0.00     0.134 A 
ATOM     71  F   UNL A   1      39.002  28.630  31.669  1.00  0.00    -0.206 F 
ATOM     72  C   UNL A   1      36.970  29.347  30.743  1.00  0.00     0.040 A 
ATOM     73  C   UNL A   1      36.844  29.914  28.408  1.00  0.00     0.040 A 
ATOM     74  F   UNL A   1      38.739  29.709  27.041  1.00  0.00    -0.206 F 
ATOM     75  C   UNL A   1      36.226  29.781  29.649  1.00  0.00     0.006 A 
ENDBRANCH  54  68
BRANCH  55  76
ATOM     76  C   UNL A   1      48.498  26.259  27.645  1.00  0.00     0.057 A 
ATOM     77  C   UNL A   1      49.288  25.702  28.658  1.00  0.00     0.134 A 
ATOM     78  C   UNL A   1      49.068  26.367  26.371  1.00  0.00     0.134 A 
ATOM     79  F   UNL A   1      48.799  25.572  29.899  1.00  0.00    -0.206 F 
ATOM     80  C   UNL A   1      50.601  25.293  28.420  1.00  0.00     0.040 A 
ATOM     81  C   UNL A   1      50.372  25.938  26.114  1.00  0.00     0.040 A 
ATOM     82  F   UNL A   1      48.356  26.866  25.349  1.00  0.00    -0.206 F 
ATOM     83  C   UNL A   1      51.146  25.408  27.143  1.00  0.00     0.006 A 
ENDBRANCH  55  76
BRANCH  67  84
ATOM     84  C   UNL A   1      45.521  32.171  29.829  1.00  0.00     0.057 A 
ATOM     85  C   UNL A   1      45.683  33.218  28.913  1.00  0.00     0.134 A 
ATOM     86  C   UNL A   1      45.878  32.407  31.162  1.00  0.00     0.134 A 
ATOM     87  F   UNL A   1      45.372  33.043  27.620  1.00  0.00    -0.206 F 
ATOM     88  C   UNL A   1      46.205  34.449  29.306  1.00  0.00     0.040 A 
ATOM     89  C   UNL A   1      46.371  33.644  31.573  1.00  0.00     0.040 A 
ATOM     90  F   UNL A   1      45.735  31.445  32.086  1.00  0.00    -0.206 F 
ATOM     91  C   UNL A   1      46.541  34.666  30.642  1.00  0.00     0.006 A 
ENDBRANCH  67  84
ENDBRANCH  41  42
ENDBRANCH  33  36
ENDBRANCH  31  32
ENDBRANCH  30  31
ENDBRANCH  29  30
ENDBRANCH   1  29
TORSDOF 16
ENDMDL
MODEL 2
REMARK VINA RESULT:     -11.8      4.374      8.210
REMARK SMILES O=C(CCC(=O)N1CCC[C@@]2(CCC(=O)N(Cc3ccncc3)C2)C1)NCCCCNC(=O)c1ccc(-c2c3nc(c(-c4c(F)cccc4F)c4ccc([nH]4)c(-c4c(F)cccc4F)c4nc(c(-c5c(F)cccc5F)c5ccc2[nH]5)C=C4)C=C3)cc1
REMARK SMILES IDX 27 1 26 2 1 3 2 4 3 6 4 7 5 8 6 9 7 10 8 11 25 12 9 13 11 14
REMARK SMILES IDX 10 15 12 16 24 17 13 18 16 19 14 20 15 21 17 22 18 23 19 24
REMARK SMILES IDX 23 25 20 26 22 27 21 28 28 29 29 30 30 31 31 32 32 33 33 35
REMARK SMILES IDX 34 36 35 37 87 38 36 39 86 40 37 41 38 42 39 43 80 44 40 45
REMARK SMILES IDX 85 46 79 47 81 48 41 49 84 50 78 51 77 52 42 54 68 55 51 56
REMARK SMILES IDX 67 57 52 58 55 59 66 60 82 61 53 62 54 63 65 65 83 66 56 67
REMARK SMILES IDX 43 68 44 69 49 70 45 71 46 72 48 73 50 74 47 75 69 76 70 77
REMARK SMILES IDX 75 78 71 79 72 80 74 81 76 82 73 83 57 84 58 85 63 86 59 87
REMARK SMILES IDX 60 88 62 89 64 90 61 91
REMARK H PARENT 26 5 31 34 81 53 55 64
REMARK Flexibility Score: inf
ROOT
ATOM      1  C   UNL A   1      36.906  19.716  24.943  1.00  0.00     0.116 C 
ENDROOT
BRANCH   1   2
ATOM      2  N   UNL A   1      35.477  19.982  25.029  1.00  0.00    -0.356 N 
ATOM      3  O   UNL A   1      34.873  17.886  24.255  1.00  0.00    -0.275 OA
ATOM      4  C   UNL A   1      34.551  18.996  24.679  1.00  0.00     0.220 C 
ATOM      5  H   UNL A   1      35.161  20.862  25.335  1.00  0.00     0.163 HD
BRANCH   4   6
ATOM      6  C   UNL A   1      33.104  19.304  25.014  1.00  0.00     0.110 C 
BRANCH   6   7
ATOM      7  C   UNL A   1      32.553  20.440  24.147  1.00  0.00     0.110 C 
BRANCH   7   8
ATOM      8  C   UNL A   1      32.174  21.657  24.965  1.00  0.00     0.223 C 
ATOM      9  O   UNL A   1      31.219  21.649  25.742  1.00  0.00    -0.275 OA
BRANCH   8  10
ATOM     10  N   UNL A   1      32.910  22.819  24.671  1.00  0.00    -0.342 N 
ATOM     11  C   UNL A   1      34.179  22.960  25.362  1.00  0.00     0.119 C 
ATOM     12  C   UNL A   1      32.094  24.009  24.701  1.00  0.00     0.128 C 
ATOM     13  C   UNL A   1      34.875  24.287  25.040  1.00  0.00     0.022 C 
ATOM     14  C   UNL A   1      32.676  25.345  24.235  1.00  0.00     0.006 C 
ATOM     15  C   UNL A   1      33.933  25.521  25.128  1.00  0.00     0.012 C 
ATOM     16  C   UNL A   1      33.048  25.399  22.748  1.00  0.00     0.020 C 
ATOM     17  C   UNL A   1      31.494  26.387  24.241  1.00  0.00     0.128 C 
ATOM     18  C   UNL A   1      33.423  26.837  22.334  1.00  0.00     0.101 C 
ATOM     19  N   UNL A   1      31.868  27.763  24.047  1.00  0.00    -0.338 N 
ATOM     20  C   UNL A   1      32.675  28.035  22.959  1.00  0.00     0.222 C 
ATOM     21  O   UNL A   1      32.872  29.178  22.554  1.00  0.00    -0.275 OA
BRANCH  19  22
ATOM     22  C   UNL A   1      31.407  28.856  24.930  1.00  0.00     0.155 C 
BRANCH  22  23
ATOM     23  C   UNL A   1      32.292  29.426  26.014  1.00  0.00    -0.026 A 
ATOM     24  C   UNL A   1      33.513  28.836  26.364  1.00  0.00     0.025 A 
ATOM     25  C   UNL A   1      32.031  30.713  26.499  1.00  0.00     0.025 A 
ATOM     26  C   UNL A   1      34.399  29.549  27.164  1.00  0.00     0.111 A 
ATOM     27  C   UNL A   1      32.980  31.346  27.289  1.00  0.00     0.111 A 
ATOM     28  N   UNL A   1      34.162  30.792  27.631  1.00  0.00    -0.265 NA
ENDBRANCH  22  23
ENDBRANCH  19  22
ENDBRANCH   8  10
ENDBRANCH   7   8
ENDBRANCH   6   7
ENDBRANCH   4   6
ENDBRANCH   1   2
BRANCH   1  29
ATOM     29  C   UNL A   1      37.945  20.886  25.007  1.00  0.00     0.023 C 
BRANCH  29  30
ATOM     30  C   UNL A   1      37.799  22.308  25.647  1.00  0.00     0.023 C 
BRANCH  30  31
ATOM     31  C   UNL A   1      38.749  23.286  26.467  1.00  0.00     0.116 C 
BRANCH  31  32
ATOM     32  N   UNL A   1      40.158  23.528  26.173  1.00  0.00    -0.352 N 
ATOM     33  C   UNL A   1      41.042  24.520  26.528  1.00  0.00     0.251 C 
ATOM     34  H   UNL A   1      40.561  22.837  25.598  1.00  0.00     0.163 HD
ATOM     35  O   UNL A   1      42.244  24.438  26.277  1.00  0.00    -0.269 OA
BRANCH  33  36
ATOM     36  C   UNL A   1      40.588  25.663  27.275  1.00  0.00     0.039 A 
ATOM     37  C   UNL A   1      39.653  25.470  28.293  1.00  0.00     0.014 A 
ATOM     38  C   UNL A   1      41.131  26.901  26.956  1.00  0.00     0.014 A 
ATOM     39  C   UNL A   1      39.384  26.530  29.132  1.00  0.00     0.010 A 
ATOM     40  C   UNL A   1      40.915  27.936  27.829  1.00  0.00     0.010 A 
ATOM     41  C   UNL A   1      40.087  27.729  28.943  1.00  0.00    -0.014 A 
BRANCH  41  42
ATOM     42  C   UNL A   1      40.088  28.760  29.980  1.00  0.00     0.031 A 
ATOM     43  C   UNL A   1      41.013  28.619  31.135  1.00  0.00     0.074 A 
ATOM     44  C   UNL A   1      39.133  29.704  29.904  1.00  0.00     0.049 A 
ATOM     45  N   UNL A   1      41.081  29.339  32.218  1.00  0.00    -0.248 NA
ATOM     46  C   UNL A   1      41.955  27.486  31.091  1.00  0.00     0.031 C 
ATOM     47  C   UNL A   1      38.139  29.824  28.829  1.00  0.00     0.029 A 
ATOM     48  N   UNL A   1      38.826  30.730  30.750  1.00  0.00    -0.354 N 
ATOM     49  C   UNL A   1      42.063  28.741  32.992  1.00  0.00     0.074 A 
ATOM     50  C   UNL A   1      42.513  27.562  32.289  1.00  0.00     0.031 C 
ATOM     51  C   UNL A   1      37.356  30.886  29.065  1.00  0.00     0.029 A 
ATOM     52  C   UNL A   1      37.766  31.490  30.325  1.00  0.00     0.049 A 
ATOM     53  H   UNL A   1      39.318  30.907  31.584  1.00  0.00     0.167 HD
ATOM     54  C   UNL A   1      42.552  29.172  34.174  1.00  0.00     0.037 A 
ATOM     55  C   UNL A   1      37.195  32.559  30.906  1.00  0.00     0.037 A 
ATOM     56  C   UNL A   1      42.073  30.360  34.827  1.00  0.00     0.049 A 
ATOM     57  C   UNL A   1      37.778  33.027  32.208  1.00  0.00     0.074 A 
ATOM     58  C   UNL A   1      42.516  30.943  35.996  1.00  0.00     0.029 A 
ATOM     59  N   UNL A   1      41.028  31.146  34.351  1.00  0.00    -0.354 N 
ATOM     60  N   UNL A   1      38.767  32.511  32.901  1.00  0.00    -0.248 NA
ATOM     61  C   UNL A   1      37.180  34.224  32.803  1.00  0.00     0.031 C 
ATOM     62  C   UNL A   1      41.710  32.057  36.252  1.00  0.00     0.029 A 
ATOM     63  C   UNL A   1      40.800  32.201  35.213  1.00  0.00     0.049 A 
ATOM     64  H   UNL A   1      40.525  30.975  33.522  1.00  0.00     0.167 HD
ATOM     65  C   UNL A   1      38.929  33.335  34.003  1.00  0.00     0.074 A 
ATOM     66  C   UNL A   1      37.945  34.394  33.871  1.00  0.00     0.031 C 
ATOM     67  C   UNL A   1      39.806  33.232  35.034  1.00  0.00     0.037 A 
BRANCH  54  68
ATOM     68  C   UNL A   1      43.638  28.354  34.805  1.00  0.00     0.057 A 
ATOM     69  C   UNL A   1      43.355  27.326  35.718  1.00  0.00     0.134 A 
ATOM     70  C   UNL A   1      44.985  28.605  34.518  1.00  0.00     0.134 A 
ATOM     71  F   UNL A   1      42.086  27.048  36.057  1.00  0.00    -0.206 F 
ATOM     72  C   UNL A   1      44.370  26.602  36.344  1.00  0.00     0.040 A 
ATOM     73  C   UNL A   1      46.008  27.867  35.115  1.00  0.00     0.040 A 
ATOM     74  F   UNL A   1      45.329  29.578  33.662  1.00  0.00    -0.206 F 
ATOM     75  C   UNL A   1      45.703  26.868  36.037  1.00  0.00     0.006 A 
ENDBRANCH  54  68
BRANCH  55  76
ATOM     76  C   UNL A   1      36.071  33.261  30.242  1.00  0.00     0.057 A 
ATOM     77  C   UNL A   1      36.295  34.084  29.132  1.00  0.00     0.134 A 
ATOM     78  C   UNL A   1      34.748  33.112  30.674  1.00  0.00     0.134 A 
ATOM     79  F   UNL A   1      37.540  34.267  28.669  1.00  0.00    -0.206 F 
ATOM     80  C   UNL A   1      35.250  34.752  28.492  1.00  0.00     0.040 A 
ATOM     81  C   UNL A   1      33.689  33.754  30.028  1.00  0.00     0.040 A 
ATOM     82  F   UNL A   1      34.461  32.316  31.716  1.00  0.00    -0.206 F 
ATOM     83  C   UNL A   1      33.941  34.585  28.939  1.00  0.00     0.006 A 
ENDBRANCH  55  76
BRANCH  67  84
ATOM     84  C   UNL A   1      39.748  34.313  36.069  1.00  0.00     0.057 A 
ATOM     85  C   UNL A   1      38.938  34.204  37.205  1.00  0.00     0.134 A 
ATOM     86  C   UNL A   1      40.551  35.454  35.945  1.00  0.00     0.134 A 
ATOM     87  F   UNL A   1      38.137  33.140  37.369  1.00  0.00    -0.206 F 
ATOM     88  C   UNL A   1      38.909  35.207  38.173  1.00  0.00     0.040 A 
ATOM     89  C   UNL A   1      40.554  36.448  36.921  1.00  0.00     0.040 A 
ATOM     90  F   UNL A   1      41.356  35.609  34.883  1.00  0.00    -0.206 F 
ATOM     91  C   UNL A   1      39.726  36.328  38.035  1.00  0.00     0.006 A 
ENDBRANCH  67  84
ENDBRANCH  41  42
ENDBRANCH  33  36
ENDBRANCH  31  32
ENDBRANCH  30  31
ENDBRANCH  29  30
ENDBRANCH   1  29
TORSDOF 16
ENDMDL
MODEL 3
REMARK VINA RESULT:     -11.7      4.263      6.179
REMARK SMILES O=C(CCC(=O)N1CCC[C@@]2(CCC(=O)N(Cc3ccncc3)C2)C1)NCCCCNC(=O)c1ccc(-c2c3nc(c(-c4c(F)cccc4F)c4ccc([nH]4)c(-c4c(F)cccc4F)c4nc(c(-c5c(F)cccc5F)c5ccc2[nH]5)C=C4)C=C3)cc1
REMARK SMILES IDX 27 1 26 2 1 3 2 4 3 6 4 7 5 8 6 9 7 10 8 11 25 12 9 13 11 14
REMARK SMILES IDX 10 15 12 16 24 17 13 18 16 19 14 20 15 21 17 22 18 23 19 24
REMARK SMILES IDX 23 25 20 26 22 27 21 28 28 29 29 30 30 31 31 32 32 33 33 35
REMARK SMILES IDX 34 36 35 37 87 38 36 39 86 40 37 41 38 42 39 43 80 44 40 45
REMARK SMILES IDX 85 46 79 47 81 48 41 49 84 50 78 51 77 52 42 54 68 55 51 56
REMARK SMILES IDX 67 57 52 58 55 59 66 60 82 61 53 62 54 63 65 65 83 66 56 67
REMARK SMILES IDX 43 68 44 69 49 70 45 71 46 72 48 73 50 74 47 75 69 76 70 77
REMARK SMILES IDX 75 78 71 79 72 80 74 81 76 82 73 83 57 84 58 85 63 86 59 87
REMARK SMILES IDX 60 88 62 89 64 90 61 91
REMARK H PARENT 26 5 31 34 81 53 55 64
REMARK Flexibility Score: inf
ROOT
ATOM      1  C   UNL A   1      36.945  19.629  25.008  1.00  0.00     0.116 C 
ENDROOT
BRANCH   1   2
ATOM      2  N   UNL A   1      35.505  19.849  25.007  1.00  0.00    -0.356 N 
ATOM      3  O   UNL A   1      35.013  17.708  24.280  1.00  0.00    -0.275 OA
ATOM      4  C   UNL A   1      34.632  18.820  24.645  1.00  0.00     0.220 C 
ATOM      5  H   UNL A   1      35.145  20.728  25.263  1.00  0.00     0.163 HD
BRANCH   4   6
ATOM      6  C   UNL A   1      33.160  19.090  24.889  1.00  0.00     0.110 C 
BRANCH   6   7
ATOM      7  C   UNL A   1      32.633  20.210  23.987  1.00  0.00     0.110 C 
BRANCH   7   8
ATOM      8  C   UNL A   1      32.178  21.420  24.776  1.00  0.00     0.223 C 
ATOM      9  O   UNL A   1      31.171  21.396  25.484  1.00  0.00    -0.275 OA
BRANCH   8  10
ATOM     10  N   UNL A   1      32.914  22.594  24.534  1.00  0.00    -0.342 N 
ATOM     11  C   UNL A   1      34.148  22.736  25.283  1.00  0.00     0.119 C 
ATOM     12  C   UNL A   1      32.085  23.775  24.546  1.00  0.00     0.128 C 
ATOM     13  C   UNL A   1      34.844  24.075  25.013  1.00  0.00     0.022 C 
ATOM     14  C   UNL A   1      32.672  25.124  24.128  1.00  0.00     0.006 C 
ATOM     15  C   UNL A   1      33.885  25.299  25.078  1.00  0.00     0.012 C 
ATOM     16  C   UNL A   1      33.110  25.206  22.660  1.00  0.00     0.020 C 
ATOM     17  C   UNL A   1      31.479  26.154  24.096  1.00  0.00     0.128 C 
ATOM     18  C   UNL A   1      33.487  26.654  22.286  1.00  0.00     0.101 C 
ATOM     19  N   UNL A   1      31.847  27.537  23.941  1.00  0.00    -0.338 N 
ATOM     20  C   UNL A   1      32.699  27.834  22.895  1.00  0.00     0.222 C 
ATOM     21  O   UNL A   1      32.901  28.985  22.517  1.00  0.00    -0.275 OA
BRANCH  19  22
ATOM     22  C   UNL A   1      31.335  28.610  24.820  1.00  0.00     0.155 C 
BRANCH  22  23
ATOM     23  C   UNL A   1      32.182  29.205  25.921  1.00  0.00    -0.026 A 
ATOM     24  C   UNL A   1      33.355  28.588  26.372  1.00  0.00     0.025 A 
ATOM     25  C   UNL A   1      31.948  30.526  26.321  1.00  0.00     0.025 A 
ATOM     26  C   UNL A   1      34.225  29.310  27.182  1.00  0.00     0.111 A 
ATOM     27  C   UNL A   1      32.877  31.164  27.129  1.00  0.00     0.111 A 
ATOM     28  N   UNL A   1      34.014  30.585  27.569  1.00  0.00    -0.265 NA
ENDBRANCH  22  23
ENDBRANCH  19  22
ENDBRANCH   8  10
ENDBRANCH   7   8
ENDBRANCH   6   7
ENDBRANCH   4   6
ENDBRANCH   1   2
BRANCH   1  29
ATOM     29  C   UNL A   1      37.940  20.835  24.925  1.00  0.00     0.023 C 
BRANCH  29  30
ATOM     30  C   UNL A   1      37.844  22.248  25.593  1.00  0.00     0.023 C 
BRANCH  30  31
ATOM     31  C   UNL A   1      38.814  23.159  26.466  1.00  0.00     0.116 C 
BRANCH  31  32
ATOM     32  N   UNL A   1      40.173  23.535  26.092  1.00  0.00    -0.352 N 
ATOM     33  C   UNL A   1      40.986  24.593  26.423  1.00  0.00     0.251 C 
ATOM     34  H   UNL A   1      40.597  22.898  25.472  1.00  0.00     0.163 HD
ATOM     35  O   UNL A   1      42.172  24.628  26.094  1.00  0.00    -0.269 OA
BRANCH  33  36
ATOM     36  C   UNL A   1      40.483  25.671  27.232  1.00  0.00     0.039 A 
ATOM     37  C   UNL A   1      39.595  25.373  28.267  1.00  0.00     0.014 A 
ATOM     38  C   UNL A   1      40.933  26.955  26.952  1.00  0.00     0.014 A 
ATOM     39  C   UNL A   1      39.284  26.377  29.159  1.00  0.00     0.010 A 
ATOM     40  C   UNL A   1      40.677  27.936  27.876  1.00  0.00     0.010 A 
ATOM     41  C   UNL A   1      39.900  27.627  29.003  1.00  0.00    -0.014 A 
BRANCH  41  42
ATOM     42  C   UNL A   1      39.867  28.611  30.084  1.00  0.00     0.031 A 
ATOM     43  C   UNL A   1      38.874  29.716  30.023  1.00  0.00     0.074 A 
ATOM     44  C   UNL A   1      40.850  28.546  31.000  1.00  0.00     0.049 A 
ATOM     45  N   UNL A   1      38.764  30.758  30.796  1.00  0.00    -0.248 NA
ATOM     46  C   UNL A   1      37.907  29.672  28.912  1.00  0.00     0.031 C 
ATOM     47  C   UNL A   1      41.907  27.526  31.042  1.00  0.00     0.029 A 
ATOM     48  N   UNL A   1      41.136  29.358  32.058  1.00  0.00    -0.354 N 
ATOM     49  C   UNL A   1      37.724  31.500  30.261  1.00  0.00     0.074 A 
ATOM     50  C   UNL A   1      37.283  30.830  29.060  1.00  0.00     0.031 C 
ATOM     51  C   UNL A   1      42.703  27.757  32.096  1.00  0.00     0.029 A 
ATOM     52  C   UNL A   1      42.238  28.960  32.770  1.00  0.00     0.049 A 
ATOM     53  H   UNL A   1      40.602  30.153  32.288  1.00  0.00     0.167 HD
ATOM     54  C   UNL A   1      37.179  32.630  30.761  1.00  0.00     0.037 A 
ATOM     55  C   UNL A   1      42.803  29.522  33.853  1.00  0.00     0.037 A 
ATOM     56  C   UNL A   1      37.652  33.252  31.969  1.00  0.00     0.049 A 
ATOM     57  C   UNL A   1      42.160  30.764  34.399  1.00  0.00     0.074 A 
ATOM     58  C   UNL A   1      37.159  34.364  32.619  1.00  0.00     0.029 A 
ATOM     59  N   UNL A   1      38.744  32.801  32.704  1.00  0.00    -0.354 N 
ATOM     60  N   UNL A   1      41.120  31.421  33.942  1.00  0.00    -0.248 NA
ATOM     61  C   UNL A   1      42.755  31.334  35.609  1.00  0.00     0.031 C 
ATOM     62  C   UNL A   1      37.979  34.613  33.725  1.00  0.00     0.029 A 
ATOM     63  C   UNL A   1      38.950  33.624  33.795  1.00  0.00     0.049 A 
ATOM     64  H   UNL A   1      39.288  32.012  32.481  1.00  0.00     0.167 HD
ATOM     65  C   UNL A   1      40.917  32.472  34.823  1.00  0.00     0.074 A 
ATOM     66  C   UNL A   1      41.935  32.347  35.850  1.00  0.00     0.031 C 
ATOM     67  C   UNL A   1      39.980  33.453  34.792  1.00  0.00     0.037 A 
BRANCH  54  68
ATOM     68  C   UNL A   1      36.038  33.236  30.002  1.00  0.00     0.057 A 
ATOM     69  C   UNL A   1      34.707  33.082  30.420  1.00  0.00     0.134 A 
ATOM     70  C   UNL A   1      36.263  33.965  28.828  1.00  0.00     0.134 A 
ATOM     71  F   UNL A   1      34.417  32.374  31.523  1.00  0.00    -0.206 F 
ATOM     72  C   UNL A   1      33.643  33.602  29.682  1.00  0.00     0.040 A 
ATOM     73  C   UNL A   1      35.208  34.517  28.099  1.00  0.00     0.040 A 
ATOM     74  F   UNL A   1      37.509  34.144  28.366  1.00  0.00    -0.206 F 
ATOM     75  C   UNL A   1      33.893  34.328  28.520  1.00  0.00     0.006 A 
ENDBRANCH  54  68
BRANCH  55  76
ATOM     76  C   UNL A   1      43.982  28.892  34.495  1.00  0.00     0.057 A 
ATOM     77  C   UNL A   1      43.826  27.833  35.397  1.00  0.00     0.134 A 
ATOM     78  C   UNL A   1      45.289  29.305  34.208  1.00  0.00     0.134 A 
ATOM     79  F   UNL A   1      42.601  27.391  35.713  1.00  0.00    -0.206 F 
ATOM     80  C   UNL A   1      44.924  27.226  36.010  1.00  0.00     0.040 A 
ATOM     81  C   UNL A   1      46.397  28.689  34.794  1.00  0.00     0.040 A 
ATOM     82  F   UNL A   1      45.509  30.296  33.331  1.00  0.00    -0.206 F 
ATOM     83  C   UNL A   1      46.215  27.652  35.706  1.00  0.00     0.006 A 
ENDBRANCH  55  76
BRANCH  67  84
ATOM     84  C   UNL A   1      40.008  34.437  35.921  1.00  0.00     0.057 A 
ATOM     85  C   UNL A   1      39.303  34.215  37.110  1.00  0.00     0.134 A 
ATOM     86  C   UNL A   1      40.789  35.596  35.830  1.00  0.00     0.134 A 
ATOM     87  F   UNL A   1      38.526  33.130  37.247  1.00  0.00    -0.206 F 
ATOM     88  C   UNL A   1      39.353  35.127  38.162  1.00  0.00     0.040 A 
ATOM     89  C   UNL A   1      40.873  36.498  36.888  1.00  0.00     0.040 A 
ATOM     90  F   UNL A   1      41.496  35.856  34.720  1.00  0.00    -0.206 F 
ATOM     91  C   UNL A   1      40.148  36.268  38.056  1.00  0.00     0.006 A 
ENDBRANCH  67  84
ENDBRANCH  41  42
ENDBRANCH  33  36
ENDBRANCH  31  32
ENDBRANCH  30  31
ENDBRANCH  29  30
ENDBRANCH   1  29
TORSDOF 16
ENDMDL
