MODEL 1
REMARK VINA RESULT:     -13.8      0.000      0.000
REMARK SMILES Cc1ccc(C(=O)NC2CC2)cc1NC(=O)[C@@H]1[C@@H](C(=O)NCCCCNC(=O)c2ccc(-c3c4nc(c(-c5c(F)cccc5F)c5ccc([nH]5)c(-c5c(F)cccc5F)c5nc(c(-c6c(F)cccc6F)c6ccc3[nH]6)C=C5)C=C4)cc2)[C@H]2C=C[C@@H]1C2
REMARK SMILES IDX 22 1 21 2 19 3 20 4 18 6 17 7 86 8 83 9 85 10 87 11 84 12
REMARK SMILES IDX 15 13 14 14 16 16 13 17 1 18 2 19 3 20 4 21 12 22 5 23 6 24
REMARK SMILES IDX 7 25 8 26 9 28 10 29 11 30 23 31 24 32 25 33 26 34 27 35
REMARK SMILES IDX 28 37 29 38 30 39 82 40 31 41 81 42 32 43 33 44 34 45 75 46
REMARK SMILES IDX 35 47 80 48 74 49 76 50 36 51 79 52 73 53 72 54 37 56 63 57
REMARK SMILES IDX 46 58 62 59 47 60 50 61 61 62 77 63 48 64 49 65 60 67 78 68
REMARK SMILES IDX 51 69 38 70 39 71 44 72 40 73 41 74 43 75 45 76 42 77 64 78
REMARK SMILES IDX 65 79 70 80 66 81 67 82 69 83 71 84 68 85 52 86 53 87 58 88
REMARK SMILES IDX 54 89 55 90 57 91 59 92 56 93
REMARK H PARENT 21 5 14 15 8 27 26 36 76 55 50 66
REMARK Flexibility Score: inf
ROOT
ATOM      1  C   UNL A   1      33.487  28.918  25.954  1.00  0.00     0.116 C 
ENDROOT
BRANCH   1   2
ATOM      2  N   UNL A   1      34.037  27.659  25.493  1.00  0.00    -0.356 N 
ATOM      3  C   UNL A   1      33.501  26.458  25.176  1.00  0.00     0.224 C 
ATOM      4  O   UNL A   1      34.327  25.576  24.910  1.00  0.00    -0.275 OA
ATOM      5  H   UNL A   1      35.016  27.683  25.387  1.00  0.00     0.163 HD
BRANCH   3   6
ATOM      6  C   UNL A   1      32.012  26.115  25.226  1.00  0.00     0.098 C 
ATOM      7  C   UNL A   1      31.854  24.541  25.076  1.00  0.00     0.099 C 
ATOM      8  C   UNL A   1      30.744  24.402  24.003  1.00  0.00     0.025 C 
ATOM      9  C   UNL A   1      31.056  26.615  24.122  1.00  0.00     0.025 C 
ATOM     10  C   UNL A   1      31.323  24.848  22.678  1.00  0.00    -0.027 C 
ATOM     11  C   UNL A   1      29.887  25.633  24.284  1.00  0.00     0.017 C 
ATOM     12  C   UNL A   1      31.534  26.170  22.758  1.00  0.00    -0.027 C 
BRANCH   7  13
ATOM     13  C   UNL A   1      31.500  23.802  26.357  1.00  0.00     0.228 C 
ATOM     14  N   UNL A   1      31.921  22.515  26.592  1.00  0.00    -0.326 N 
ATOM     15  H   UNL A   1      31.575  22.139  27.433  1.00  0.00     0.169 HD
ATOM     16  O   UNL A   1      30.750  24.309  27.197  1.00  0.00    -0.274 OA
BRANCH  14  17
ATOM     17  C   UNL A   1      32.748  21.618  25.876  1.00  0.00     0.044 A 
ATOM     18  C   UNL A   1      34.867  22.792  26.773  1.00  0.00     0.046 C 
ATOM     19  C   UNL A   1      34.147  21.703  26.023  1.00  0.00    -0.027 A 
ATOM     20  C   UNL A   1      34.953  20.730  25.409  1.00  0.00     0.006 A 
ATOM     21  C   UNL A   1      34.391  19.694  24.661  1.00  0.00     0.014 A 
ATOM     22  C   UNL A   1      32.224  20.649  25.003  1.00  0.00     0.040 A 
ATOM     23  C   UNL A   1      33.011  19.642  24.431  1.00  0.00     0.041 A 
BRANCH  23  24
ATOM     24  C   UNL A   1      32.513  18.509  23.581  1.00  0.00     0.251 C 
ATOM     25  O   UNL A   1      32.186  18.747  22.415  1.00  0.00    -0.269 OA
ATOM     26  N   UNL A   1      32.423  17.196  23.993  1.00  0.00    -0.349 N 
ATOM     27  H   UNL A   1      32.102  16.575  23.301  1.00  0.00     0.164 HD
BRANCH  26  28
ATOM     28  C   UNL A   1      32.710  16.581  25.237  1.00  0.00     0.082 C 
ATOM     29  C   UNL A   1      32.669  15.083  25.355  1.00  0.00     0.027 C 
ATOM     30  C   UNL A   1      33.974  15.808  25.488  1.00  0.00     0.027 C 
ENDBRANCH  26  28
ENDBRANCH  23  24
ENDBRANCH  14  17
ENDBRANCH   7  13
ENDBRANCH   3   6
ENDBRANCH   1   2
BRANCH   1  31
ATOM     31  C   UNL A   1      34.084  29.361  27.293  1.00  0.00     0.023 C 
BRANCH  31  32
ATOM     32  C   UNL A   1      33.993  30.862  27.578  1.00  0.00     0.023 C 
BRANCH  32  33
ATOM     33  C   UNL A   1      35.333  31.587  27.624  1.00  0.00     0.116 C 
BRANCH  33  34
ATOM     34  N   UNL A   1      35.779  31.956  28.961  1.00  0.00    -0.352 N 
ATOM     35  C   UNL A   1      36.572  31.256  29.861  1.00  0.00     0.251 C 
ATOM     36  H   UNL A   1      35.468  32.836  29.275  1.00  0.00     0.163 HD
ATOM     37  O   UNL A   1      36.812  31.728  30.954  1.00  0.00    -0.269 OA
BRANCH  35  38
ATOM     38  C   UNL A   1      37.243  29.999  29.429  1.00  0.00     0.039 A 
ATOM     39  C   UNL A   1      37.370  28.973  30.376  1.00  0.00     0.014 A 
ATOM     40  C   UNL A   1      37.911  29.907  28.212  1.00  0.00     0.014 A 
ATOM     41  C   UNL A   1      38.373  28.020  30.220  1.00  0.00     0.010 A 
ATOM     42  C   UNL A   1      38.967  29.026  28.099  1.00  0.00     0.010 A 
ATOM     43  C   UNL A   1      39.246  28.138  29.141  1.00  0.00    -0.014 A 
BRANCH  43  44
ATOM     44  C   UNL A   1      40.559  27.503  29.114  1.00  0.00     0.031 A 
ATOM     45  C   UNL A   1      40.718  26.093  28.720  1.00  0.00     0.074 A 
ATOM     46  C   UNL A   1      41.648  28.265  29.366  1.00  0.00     0.049 A 
ATOM     47  N   UNL A   1      41.702  25.342  29.085  1.00  0.00    -0.248 NA
ATOM     48  C   UNL A   1      39.739  25.401  27.893  1.00  0.00     0.031 C 
ATOM     49  C   UNL A   1      43.047  27.927  29.127  1.00  0.00     0.029 A 
ATOM     50  N   UNL A   1      41.696  29.462  30.091  1.00  0.00    -0.354 N 
ATOM     51  C   UNL A   1      41.648  24.187  28.334  1.00  0.00     0.074 A 
ATOM     52  C   UNL A   1      40.367  24.244  27.664  1.00  0.00     0.031 C 
ATOM     53  C   UNL A   1      43.817  28.708  29.902  1.00  0.00     0.029 A 
ATOM     54  C   UNL A   1      42.931  29.462  30.772  1.00  0.00     0.049 A 
ATOM     55  H   UNL A   1      41.006  30.164  30.120  1.00  0.00     0.167 HD
ATOM     56  C   UNL A   1      42.752  23.389  28.248  1.00  0.00     0.037 A 
ATOM     57  C   UNL A   1      42.983  29.454  32.136  1.00  0.00     0.037 A 
ATOM     58  C   UNL A   1      43.841  23.902  29.079  1.00  0.00     0.049 A 
ATOM     59  C   UNL A   1      43.680  28.245  32.716  1.00  0.00     0.074 A 
ATOM     60  C   UNL A   1      44.944  24.686  28.780  1.00  0.00     0.029 A 
ATOM     61  N   UNL A   1      43.725  23.900  30.465  1.00  0.00    -0.354 N 
ATOM     62  N   UNL A   1      43.898  27.145  32.051  1.00  0.00    -0.248 NA
ATOM     63  C   UNL A   1      44.143  28.163  34.099  1.00  0.00     0.031 C 
ATOM     64  C   UNL A   1      45.454  25.211  29.991  1.00  0.00     0.029 A 
ATOM     65  C   UNL A   1      44.673  24.733  31.029  1.00  0.00     0.049 A 
ATOM     66  H   UNL A   1      43.061  23.379  30.973  1.00  0.00     0.167 HD
ATOM     67  C   UNL A   1      44.462  26.214  32.884  1.00  0.00     0.074 A 
ATOM     68  C   UNL A   1      44.621  26.907  34.147  1.00  0.00     0.031 C 
ATOM     69  C   UNL A   1      44.731  24.943  32.466  1.00  0.00     0.037 A 
BRANCH  56  70
ATOM     70  C   UNL A   1      42.953  22.355  27.157  1.00  0.00     0.057 A 
ATOM     71  C   UNL A   1      42.232  21.142  27.164  1.00  0.00     0.134 A 
ATOM     72  C   UNL A   1      43.887  22.456  26.112  1.00  0.00     0.134 A 
ATOM     73  F   UNL A   1      41.205  20.934  27.997  1.00  0.00    -0.206 F 
ATOM     74  C   UNL A   1      42.526  20.071  26.309  1.00  0.00     0.040 A 
ATOM     75  C   UNL A   1      44.230  21.376  25.283  1.00  0.00     0.040 A 
ATOM     76  F   UNL A   1      44.469  23.622  25.805  1.00  0.00    -0.206 F 
ATOM     77  C   UNL A   1      43.561  20.166  25.395  1.00  0.00     0.006 A 
ENDBRANCH  56  70
BRANCH  57  78
ATOM     78  C   UNL A   1      41.834  30.148  32.776  1.00  0.00     0.057 A 
ATOM     79  C   UNL A   1      41.859  31.551  32.871  1.00  0.00     0.134 A 
ATOM     80  C   UNL A   1      40.599  29.519  32.952  1.00  0.00     0.134 A 
ATOM     81  F   UNL A   1      43.013  32.219  32.707  1.00  0.00    -0.206 F 
ATOM     82  C   UNL A   1      40.689  32.301  33.025  1.00  0.00     0.040 A 
ATOM     83  C   UNL A   1      39.423  30.260  33.117  1.00  0.00     0.040 A 
ATOM     84  F   UNL A   1      40.490  28.187  32.852  1.00  0.00    -0.206 F 
ATOM     85  C   UNL A   1      39.462  31.655  33.115  1.00  0.00     0.006 A 
ENDBRANCH  57  78
BRANCH  69  86
ATOM     86  C   UNL A   1      45.154  23.809  33.359  1.00  0.00     0.057 A 
ATOM     87  C   UNL A   1      46.447  23.666  33.881  1.00  0.00     0.134 A 
ATOM     88  C   UNL A   1      44.200  22.888  33.842  1.00  0.00     0.134 A 
ATOM     89  F   UNL A   1      47.422  24.537  33.584  1.00  0.00    -0.206 F 
ATOM     90  C   UNL A   1      46.784  22.643  34.778  1.00  0.00     0.040 A 
ATOM     91  C   UNL A   1      44.512  21.894  34.773  1.00  0.00     0.040 A 
ATOM     92  F   UNL A   1      42.920  22.930  33.442  1.00  0.00    -0.206 F 
ATOM     93  C   UNL A   1      45.813  21.759  35.234  1.00  0.00     0.006 A 
ENDBRANCH  69  86
ENDBRANCH  43  44
ENDBRANCH  35  38
ENDBRANCH  33  34
ENDBRANCH  32  33
ENDBRANCH  31  32
ENDBRANCH   1  31
TORSDOF 15
ENDMDL
MODEL 2
REMARK VINA RESULT:     -13.6      4.006      9.892
REMARK SMILES Cc1ccc(C(=O)NC2CC2)cc1NC(=O)[C@@H]1[C@@H](C(=O)NCCCCNC(=O)c2ccc(-c3c4nc(c(-c5c(F)cccc5F)c5ccc([nH]5)c(-c5c(F)cccc5F)c5nc(c(-c6c(F)cccc6F)c6ccc3[nH]6)C=C5)C=C4)cc2)[C@H]2C=C[C@@H]1C2
REMARK SMILES IDX 22 1 21 2 19 3 20 4 18 6 17 7 86 8 83 9 85 10 87 11 84 12
REMARK SMILES IDX 15 13 14 14 16 16 13 17 1 18 2 19 3 20 4 21 12 22 5 23 6 24
REMARK SMILES IDX 7 25 8 26 9 28 10 29 11 30 23 31 24 32 25 33 26 34 27 35
REMARK SMILES IDX 28 37 29 38 30 39 82 40 31 41 81 42 32 43 33 44 34 45 75 46
REMARK SMILES IDX 35 47 80 48 74 49 76 50 36 51 79 52 73 53 72 54 37 56 63 57
REMARK SMILES IDX 46 58 62 59 47 60 50 61 61 62 77 63 48 64 49 65 60 67 78 68
REMARK SMILES IDX 51 69 38 70 39 71 44 72 40 73 41 74 43 75 45 76 42 77 64 78
REMARK SMILES IDX 65 79 70 80 66 81 67 82 69 83 71 84 68 85 52 86 53 87 58 88
REMARK SMILES IDX 54 89 55 90 57 91 59 92 56 93
REMARK H PARENT 21 5 14 15 8 27 26 36 76 55 50 66
REMARK Flexibility Score: inf
ROOT
ATOM      1  C   UNL A   1      36.620  22.233  24.317  1.00  0.00     0.116 C 
ENDROOT
BRANCH   1   2
ATOM      2  N   UNL A   1      35.917  23.324  24.962  1.00  0.00    -0.356 N 
ATOM      3  C   UNL A   1      34.708  23.904  24.777  1.00  0.00     0.224 C 
ATOM      4  O   UNL A   1      34.499  24.900  25.481  1.00  0.00    -0.275 OA
ATOM      5  H   UNL A   1      36.431  23.733  25.695  1.00  0.00     0.163 HD
BRANCH   3   6
ATOM      6  C   UNL A   1      33.679  23.485  23.728  1.00  0.00     0.098 C 
ATOM      7  C   UNL A   1      32.726  24.723  23.437  1.00  0.00     0.099 C 
ATOM      8  C   UNL A   1      31.309  24.096  23.508  1.00  0.00     0.025 C 
ATOM      9  C   UNL A   1      32.645  22.382  24.043  1.00  0.00     0.025 C 
ATOM     10  C   UNL A   1      31.031  23.741  24.952  1.00  0.00    -0.027 C 
ATOM     11  C   UNL A   1      31.569  22.684  22.989  1.00  0.00     0.017 C 
ATOM     12  C   UNL A   1      31.851  22.731  25.281  1.00  0.00    -0.027 C 
BRANCH   7  13
ATOM     13  C   UNL A   1      32.968  25.428  22.111  1.00  0.00     0.228 C 
ATOM     14  N   UNL A   1      32.432  26.664  21.840  1.00  0.00    -0.326 N 
ATOM     15  H   UNL A   1      32.622  26.979  20.927  1.00  0.00     0.169 HD
ATOM     16  O   UNL A   1      33.591  24.873  21.201  1.00  0.00    -0.274 OA
BRANCH  14  17
ATOM     17  C   UNL A   1      31.664  27.578  22.599  1.00  0.00     0.044 A 
ATOM     18  C   UNL A   1      33.705  28.120  24.087  1.00  0.00     0.046 C 
ATOM     19  C   UNL A   1      32.289  28.325  23.617  1.00  0.00    -0.027 A 
ATOM     20  C   UNL A   1      31.549  29.319  24.279  1.00  0.00     0.006 A 
ATOM     21  C   UNL A   1      30.217  29.569  23.946  1.00  0.00     0.014 A 
ATOM     22  C   UNL A   1      30.286  27.757  22.386  1.00  0.00     0.040 A 
ATOM     23  C   UNL A   1      29.554  28.780  23.000  1.00  0.00     0.041 A 
BRANCH  23  24
ATOM     24  C   UNL A   1      28.111  29.108  22.743  1.00  0.00     0.251 C 
ATOM     25  O   UNL A   1      27.244  28.409  23.274  1.00  0.00    -0.269 OA
ATOM     26  N   UNL A   1      27.668  30.167  21.977  1.00  0.00    -0.349 N 
ATOM     27  H   UNL A   1      26.689  30.254  21.935  1.00  0.00     0.164 HD
BRANCH  26  28
ATOM     28  C   UNL A   1      28.372  31.150  21.239  1.00  0.00     0.082 C 
ATOM     29  C   UNL A   1      27.680  32.426  20.849  1.00  0.00     0.027 C 
ATOM     30  C   UNL A   1      28.806  32.458  21.838  1.00  0.00     0.027 C 
ENDBRANCH  26  28
ENDBRANCH  23  24
ENDBRANCH  14  17
ENDBRANCH   7  13
ENDBRANCH   3   6
ENDBRANCH   1   2
BRANCH   1  31
ATOM     31  C   UNL A   1      37.252  21.270  25.326  1.00  0.00     0.023 C 
BRANCH  31  32
ATOM     32  C   UNL A   1      38.732  21.525  25.626  1.00  0.00     0.023 C 
BRANCH  32  33
ATOM     33  C   UNL A   1      39.027  22.865  26.289  1.00  0.00     0.116 C 
BRANCH  33  34
ATOM     34  N   UNL A   1      40.436  23.106  26.572  1.00  0.00    -0.352 N 
ATOM     35  C   UNL A   1      41.089  24.286  26.904  1.00  0.00     0.251 C 
ATOM     36  H   UNL A   1      41.013  22.310  26.518  1.00  0.00     0.163 HD
ATOM     37  O   UNL A   1      42.292  24.287  27.076  1.00  0.00    -0.269 OA
BRANCH  35  38
ATOM     38  C   UNL A   1      40.295  25.513  27.188  1.00  0.00     0.039 A 
ATOM     39  C   UNL A   1      40.570  26.655  26.423  1.00  0.00     0.014 A 
ATOM     40  C   UNL A   1      39.466  25.607  28.301  1.00  0.00     0.014 A 
ATOM     41  C   UNL A   1      40.253  27.912  26.932  1.00  0.00     0.010 A 
ATOM     42  C   UNL A   1      39.236  26.849  28.856  1.00  0.00     0.010 A 
ATOM     43  C   UNL A   1      39.703  27.996  28.210  1.00  0.00    -0.014 A 
BRANCH  43  44
ATOM     44  C   UNL A   1      39.745  29.215  29.008  1.00  0.00     0.031 A 
ATOM     45  C   UNL A   1      38.691  30.239  28.897  1.00  0.00     0.074 A 
ATOM     46  C   UNL A   1      40.724  29.347  29.931  1.00  0.00     0.049 A 
ATOM     47  N   UNL A   1      38.854  31.485  29.187  1.00  0.00    -0.248 NA
ATOM     48  C   UNL A   1      37.355  29.929  28.408  1.00  0.00     0.031 C 
ATOM     49  C   UNL A   1      40.806  30.323  31.013  1.00  0.00     0.029 A 
ATOM     50  N   UNL A   1      41.973  28.711  29.940  1.00  0.00    -0.354 N 
ATOM     51  C   UNL A   1      37.610  32.078  29.201  1.00  0.00     0.074 A 
ATOM     52  C   UNL A   1      36.723  31.084  28.638  1.00  0.00     0.031 C 
ATOM     53  C   UNL A   1      42.086  30.430  31.402  1.00  0.00     0.029 A 
ATOM     54  C   UNL A   1      42.885  29.639  30.481  1.00  0.00     0.049 A 
ATOM     55  H   UNL A   1      42.173  27.798  29.631  1.00  0.00     0.167 HD
ATOM     56  C   UNL A   1      37.446  33.282  29.824  1.00  0.00     0.037 A 
ATOM     57  C   UNL A   1      43.923  30.121  29.737  1.00  0.00     0.037 A 
ATOM     58  C   UNL A   1      38.719  33.790  30.335  1.00  0.00     0.049 A 
ATOM     59  C   UNL A   1      43.892  31.619  29.540  1.00  0.00     0.074 A 
ATOM     60  C   UNL A   1      39.301  33.733  31.592  1.00  0.00     0.029 A 
ATOM     61  N   UNL A   1      39.722  34.178  29.454  1.00  0.00    -0.354 N 
ATOM     62  N   UNL A   1      42.832  32.355  29.728  1.00  0.00    -0.248 NA
ATOM     63  C   UNL A   1      45.036  32.398  29.070  1.00  0.00     0.031 C 
ATOM     64  C   UNL A   1      40.679  34.025  31.452  1.00  0.00     0.029 A 
ATOM     65  C   UNL A   1      40.932  34.278  30.116  1.00  0.00     0.049 A 
ATOM     66  H   UNL A   1      39.590  34.357  28.494  1.00  0.00     0.167 HD
ATOM     67  C   UNL A   1      43.108  33.649  29.375  1.00  0.00     0.074 A 
ATOM     68  C   UNL A   1      44.507  33.633  28.996  1.00  0.00     0.031 C 
ATOM     69  C   UNL A   1      42.152  34.623  29.405  1.00  0.00     0.037 A 
BRANCH  56  70
ATOM     70  C   UNL A   1      36.097  33.818  30.265  1.00  0.00     0.057 A 
ATOM     71  C   UNL A   1      35.171  34.315  29.325  1.00  0.00     0.134 A 
ATOM     72  C   UNL A   1      35.675  33.939  31.600  1.00  0.00     0.134 A 
ATOM     73  F   UNL A   1      35.343  34.151  28.007  1.00  0.00    -0.206 F 
ATOM     74  C   UNL A   1      34.008  35.009  29.687  1.00  0.00     0.040 A 
ATOM     75  C   UNL A   1      34.543  34.677  31.981  1.00  0.00     0.040 A 
ATOM     76  F   UNL A   1      36.305  33.299  32.593  1.00  0.00    -0.206 F 
ATOM     77  C   UNL A   1      33.714  35.236  31.020  1.00  0.00     0.006 A 
ENDBRANCH  56  70
BRANCH  57  78
ATOM     78  C   UNL A   1      44.430  29.152  28.730  1.00  0.00     0.057 A 
ATOM     79  C   UNL A   1      45.291  28.123  29.154  1.00  0.00     0.134 A 
ATOM     80  C   UNL A   1      43.818  28.997  27.484  1.00  0.00     0.134 A 
ATOM     81  F   UNL A   1      45.907  28.206  30.344  1.00  0.00    -0.206 F 
ATOM     82  C   UNL A   1      45.449  26.944  28.421  1.00  0.00     0.040 A 
ATOM     83  C   UNL A   1      43.977  27.825  26.736  1.00  0.00     0.040 A 
ATOM     84  F   UNL A   1      42.965  29.923  27.022  1.00  0.00    -0.206 F 
ATOM     85  C   UNL A   1      44.764  26.780  27.222  1.00  0.00     0.006 A 
ENDBRANCH  57  78
BRANCH  69  86
ATOM     86  C   UNL A   1      42.311  36.010  28.846  1.00  0.00     0.057 A 
ATOM     87  C   UNL A   1      43.000  37.042  29.498  1.00  0.00     0.134 A 
ATOM     88  C   UNL A   1      41.882  36.303  27.534  1.00  0.00     0.134 A 
ATOM     89  F   UNL A   1      43.549  36.860  30.707  1.00  0.00    -0.206 F 
ATOM     90  C   UNL A   1      43.200  38.298  28.909  1.00  0.00     0.040 A 
ATOM     91  C   UNL A   1      42.117  37.535  26.918  1.00  0.00     0.040 A 
ATOM     92  F   UNL A   1      41.232  35.396  26.789  1.00  0.00    -0.206 F 
ATOM     93  C   UNL A   1      42.768  38.544  27.612  1.00  0.00     0.006 A 
ENDBRANCH  69  86
ENDBRANCH  43  44
ENDBRANCH  35  38
ENDBRANCH  33  34
ENDBRANCH  32  33
ENDBRANCH  31  32
ENDBRANCH   1  31
TORSDOF 15
ENDMDL
MODEL 3
REMARK VINA RESULT:     -13.2      3.771      9.649
REMARK SMILES Cc1ccc(C(=O)NC2CC2)cc1NC(=O)[C@@H]1[C@@H](C(=O)NCCCCNC(=O)c2ccc(-c3c4nc(c(-c5c(F)cccc5F)c5ccc([nH]5)c(-c5c(F)cccc5F)c5nc(c(-c6c(F)cccc6F)c6ccc3[nH]6)C=C5)C=C4)cc2)[C@H]2C=C[C@@H]1C2
REMARK SMILES IDX 22 1 21 2 19 3 20 4 18 6 17 7 86 8 83 9 85 10 87 11 84 12
REMARK SMILES IDX 15 13 14 14 16 16 13 17 1 18 2 19 3 20 4 21 12 22 5 23 6 24
REMARK SMILES IDX 7 25 8 26 9 28 10 29 11 30 23 31 24 32 25 33 26 34 27 35
REMARK SMILES IDX 28 37 29 38 30 39 82 40 31 41 81 42 32 43 33 44 34 45 75 46
REMARK SMILES IDX 35 47 80 48 74 49 76 50 36 51 79 52 73 53 72 54 37 56 63 57
REMARK SMILES IDX 46 58 62 59 47 60 50 61 61 62 77 63 48 64 49 65 60 67 78 68
REMARK SMILES IDX 51 69 38 70 39 71 44 72 40 73 41 74 43 75 45 76 42 77 64 78
REMARK SMILES IDX 65 79 70 80 66 81 67 82 69 83 71 84 68 85 52 86 53 87 58 88
REMARK SMILES IDX 54 89 55 90 57 91 59 92 56 93
REMARK H PARENT 21 5 14 15 8 27 26 36 76 55 50 66
REMARK Flexibility Score: inf
ROOT
ATOM      1  C   UNL A   1      37.139  22.690  25.731  1.00  0.00     0.116 C 
ENDROOT
BRANCH   1   2
ATOM      2  N   UNL A   1      36.019  22.196  26.508  1.00  0.00    -0.356 N 
ATOM      3  C   UNL A   1      34.785  21.739  26.192  1.00  0.00     0.224 C 
ATOM      4  O   UNL A   1      34.060  21.495  27.165  1.00  0.00    -0.275 OA
ATOM      5  H   UNL A   1      36.195  22.192  27.476  1.00  0.00     0.163 HD
BRANCH   3   6
ATOM      6  C   UNL A   1      34.226  21.612  24.776  1.00  0.00     0.098 C 
ATOM      7  C   UNL A   1      33.602  23.012  24.355  1.00  0.00     0.099 C 
ATOM      8  C   UNL A   1      32.220  22.617  23.774  1.00  0.00     0.025 C 
ATOM      9  C   UNL A   1      33.046  20.661  24.482  1.00  0.00     0.025 C 
ATOM     10  C   UNL A   1      31.351  22.150  24.921  1.00  0.00    -0.027 C 
ATOM     11  C   UNL A   1      32.520  21.250  23.165  1.00  0.00     0.017 C 
ATOM     12  C   UNL A   1      31.862  20.991  25.363  1.00  0.00    -0.027 C 
BRANCH   7  13
ATOM     13  C   UNL A   1      34.427  23.815  23.361  1.00  0.00     0.228 C 
ATOM     14  N   UNL A   1      34.041  25.066  22.943  1.00  0.00    -0.326 N 
ATOM     15  H   UNL A   1      34.636  25.449  22.259  1.00  0.00     0.169 HD
ATOM     16  O   UNL A   1      35.433  23.332  22.832  1.00  0.00    -0.274 OA
BRANCH  14  17
ATOM     17  C   UNL A   1      32.967  25.919  23.292  1.00  0.00     0.044 A 
ATOM     18  C   UNL A   1      32.146  25.956  20.843  1.00  0.00     0.046 C 
ATOM     19  C   UNL A   1      32.024  26.278  22.309  1.00  0.00    -0.027 A 
ATOM     20  C   UNL A   1      30.895  27.020  22.693  1.00  0.00     0.006 A 
ATOM     21  C   UNL A   1      30.700  27.403  24.021  1.00  0.00     0.014 A 
ATOM     22  C   UNL A   1      32.814  26.438  24.589  1.00  0.00     0.040 A 
ATOM     23  C   UNL A   1      31.667  27.130  24.995  1.00  0.00     0.041 A 
BRANCH  23  24
ATOM     24  C   UNL A   1      31.377  27.620  26.385  1.00  0.00     0.251 C 
ATOM     25  O   UNL A   1      30.658  26.931  27.115  1.00  0.00    -0.269 OA
ATOM     26  N   UNL A   1      31.886  28.778  26.934  1.00  0.00    -0.349 N 
ATOM     27  H   UNL A   1      31.617  28.936  27.868  1.00  0.00     0.164 HD
BRANCH  26  28
ATOM     28  C   UNL A   1      32.727  29.783  26.393  1.00  0.00     0.082 C 
ATOM     29  C   UNL A   1      33.386  30.774  27.309  1.00  0.00     0.027 C 
ATOM     30  C   UNL A   1      34.218  29.773  26.568  1.00  0.00     0.027 C 
ENDBRANCH  26  28
ENDBRANCH  23  24
ENDBRANCH  14  17
ENDBRANCH   7  13
ENDBRANCH   3   6
ENDBRANCH   1   2
BRANCH   1  31
ATOM     31  C   UNL A   1      38.090  21.569  25.301  1.00  0.00     0.023 C 
BRANCH  31  32
ATOM     32  C   UNL A   1      39.391  21.479  26.104  1.00  0.00     0.023 C 
BRANCH  32  33
ATOM     33  C   UNL A   1      39.728  22.725  26.915  1.00  0.00     0.116 C 
BRANCH  33  34
ATOM     34  N   UNL A   1      41.104  23.184  26.781  1.00  0.00    -0.352 N 
ATOM     35  C   UNL A   1      41.618  24.474  26.794  1.00  0.00     0.251 C 
ATOM     36  H   UNL A   1      41.771  22.469  26.662  1.00  0.00     0.163 HD
ATOM     37  O   UNL A   1      42.810  24.654  26.636  1.00  0.00    -0.269 OA
BRANCH  35  38
ATOM     38  C   UNL A   1      40.732  25.617  27.144  1.00  0.00     0.039 A 
ATOM     39  C   UNL A   1      40.821  26.772  26.355  1.00  0.00     0.014 A 
ATOM     40  C   UNL A   1      39.998  25.639  28.325  1.00  0.00     0.014 A 
ATOM     41  C   UNL A   1      40.424  27.996  26.887  1.00  0.00     0.010 A 
ATOM     42  C   UNL A   1      39.692  26.858  28.896  1.00  0.00     0.010 A 
ATOM     43  C   UNL A   1      39.982  28.039  28.208  1.00  0.00    -0.014 A 
BRANCH  43  44
ATOM     44  C   UNL A   1      39.969  29.265  28.997  1.00  0.00     0.031 A 
ATOM     45  C   UNL A   1      38.882  30.251  28.860  1.00  0.00     0.074 A 
ATOM     46  C   UNL A   1      40.929  29.438  29.933  1.00  0.00     0.049 A 
ATOM     47  N   UNL A   1      38.998  31.504  29.142  1.00  0.00    -0.248 NA
ATOM     48  C   UNL A   1      37.565  29.890  28.355  1.00  0.00     0.031 C 
ATOM     49  C   UNL A   1      40.961  30.425  31.007  1.00  0.00     0.029 A 
ATOM     50  N   UNL A   1      42.199  28.846  29.966  1.00  0.00    -0.354 N 
ATOM     51  C   UNL A   1      37.734  32.054  29.133  1.00  0.00     0.074 A 
ATOM     52  C   UNL A   1      36.890  31.024  28.565  1.00  0.00     0.031 C 
ATOM     53  C   UNL A   1      42.230  30.580  31.415  1.00  0.00     0.029 A 
ATOM     54  C   UNL A   1      43.070  29.810  30.512  1.00  0.00     0.049 A 
ATOM     55  H   UNL A   1      42.435  27.938  29.668  1.00  0.00     0.167 HD
ATOM     56  C   UNL A   1      37.518  33.256  29.743  1.00  0.00     0.037 A 
ATOM     57  C   UNL A   1      44.102  30.322  29.780  1.00  0.00     0.037 A 
ATOM     58  C   UNL A   1      38.765  33.812  30.269  1.00  0.00     0.049 A 
ATOM     59  C   UNL A   1      44.022  31.817  29.569  1.00  0.00     0.074 A 
ATOM     60  C   UNL A   1      39.330  33.786  31.534  1.00  0.00     0.029 A 
ATOM     61  N   UNL A   1      39.768  34.228  29.400  1.00  0.00    -0.354 N 
ATOM     62  N   UNL A   1      42.934  32.516  29.736  1.00  0.00    -0.248 NA
ATOM     63  C   UNL A   1      45.145  32.631  29.110  1.00  0.00     0.031 C 
ATOM     64  C   UNL A   1      40.698  34.124  31.413  1.00  0.00     0.029 A 
ATOM     65  C   UNL A   1      40.963  34.375  30.078  1.00  0.00     0.049 A 
ATOM     66  H   UNL A   1      39.644  34.394  28.437  1.00  0.00     0.167 HD
ATOM     67  C   UNL A   1      43.170  33.816  29.376  1.00  0.00     0.074 A 
ATOM     68  C   UNL A   1      44.575  33.845  29.018  1.00  0.00     0.031 C 
ATOM     69  C   UNL A   1      42.181  34.757  29.383  1.00  0.00     0.037 A 
BRANCH  56  70
ATOM     70  C   UNL A   1      36.145  33.748  30.159  1.00  0.00     0.057 A 
ATOM     71  C   UNL A   1      35.215  34.201  29.201  1.00  0.00     0.134 A 
ATOM     72  C   UNL A   1      35.700  33.869  31.487  1.00  0.00     0.134 A 
ATOM     73  F   UNL A   1      35.411  34.028  27.887  1.00  0.00    -0.206 F 
ATOM     74  C   UNL A   1      34.023  34.857  29.538  1.00  0.00     0.040 A 
ATOM     75  C   UNL A   1      34.537  34.570  31.844  1.00  0.00     0.040 A 
ATOM     76  F   UNL A   1      36.338  33.264  32.495  1.00  0.00    -0.206 F 
ATOM     77  C   UNL A   1      33.703  35.088  30.865  1.00  0.00     0.006 A 
ENDBRANCH  56  70
BRANCH  57  78
ATOM     78  C   UNL A   1      44.658  29.363  28.789  1.00  0.00     0.057 A 
ATOM     79  C   UNL A   1      45.498  28.331  29.244  1.00  0.00     0.134 A 
ATOM     80  C   UNL A   1      44.106  29.220  27.514  1.00  0.00     0.134 A 
ATOM     81  F   UNL A   1      46.057  28.403  30.463  1.00  0.00    -0.206 F 
ATOM     82  C   UNL A   1      45.692  27.159  28.507  1.00  0.00     0.040 A 
ATOM     83  C   UNL A   1      44.302  28.055  26.763  1.00  0.00     0.040 A 
ATOM     84  F   UNL A   1      43.275  30.149  27.020  1.00  0.00    -0.206 F 
ATOM     85  C   UNL A   1      45.065  27.006  27.276  1.00  0.00     0.006 A 
ENDBRANCH  57  78
BRANCH  69  86
ATOM     86  C   UNL A   1      42.300  36.144  28.814  1.00  0.00     0.057 A 
ATOM     87  C   UNL A   1      42.925  37.209  29.477  1.00  0.00     0.134 A 
ATOM     88  C   UNL A   1      41.900  36.407  27.487  1.00  0.00     0.134 A 
ATOM     89  F   UNL A   1      43.444  37.062  30.704  1.00  0.00    -0.206 F 
ATOM     90  C   UNL A   1      43.092  38.467  28.882  1.00  0.00     0.040 A 
ATOM     91  C   UNL A   1      42.105  37.642  26.865  1.00  0.00     0.040 A 
ATOM     92  F   UNL A   1      41.312  35.466  26.732  1.00  0.00    -0.206 F 
ATOM     93  C   UNL A   1      42.691  38.683  27.569  1.00  0.00     0.006 A 
ENDBRANCH  69  86
ENDBRANCH  43  44
ENDBRANCH  35  38
ENDBRANCH  33  34
ENDBRANCH  32  33
ENDBRANCH  31  32
ENDBRANCH   1  31
TORSDOF 15
ENDMDL
