MODEL 1
REMARK VINA RESULT:      -8.3      0.000      0.000
REMARK SMILES CCCCCCNC(=O)Oc1cccc(-c2ccc([C@@H](C)C(=O)NCCCCNC(=O)c3ccc(-c4c5nc(c(-c6c(F)cccc6F)c6ccc([nH]6)c(-c6c(F)cccc6F)c6nc(c(-c7c(F)cccc7F)c7ccc4[nH]7)C=C6)C=C5)cc3)cc2)c1
REMARK SMILES IDX 20 1 21 2 19 3 16 4 17 5 87 6 18 7 86 8 15 9 11 10 12 11
REMARK SMILES IDX 88 12 13 13 14 14 10 15 8 16 7 17 9 19 6 20 5 21 4 22 3 23
REMARK SMILES IDX 2 24 1 25 22 26 23 27 24 28 25 30 26 31 27 32 28 33 29 34
REMARK SMILES IDX 30 35 31 37 32 38 33 39 85 40 34 41 84 42 35 43 36 44 37 45
REMARK SMILES IDX 78 46 38 47 83 48 77 49 79 50 39 51 82 52 76 53 75 54 40 56
REMARK SMILES IDX 66 57 49 58 65 59 50 60 53 61 64 62 80 63 51 64 52 65 63 67
REMARK SMILES IDX 81 68 54 69 41 70 42 71 47 72 43 73 44 74 46 75 48 76 45 77
REMARK SMILES IDX 67 78 68 79 73 80 69 81 70 82 72 83 74 84 71 85 55 86 56 87
REMARK SMILES IDX 61 88 57 89 58 90 60 91 62 92 59 93
REMARK H PARENT 7 18 24 29 29 36 79 55 53 66
REMARK Flexibility Score: inf
ROOT
ATOM      1  C   UNL A   1      42.089  25.042  27.755  1.00  0.00     0.105 C 
ATOM      2  C   UNL A   1      42.426  24.172  28.965  1.00  0.00     0.023 C 
ENDROOT
BRANCH   1   3
ATOM      3  C   UNL A   1      41.307  26.313  28.049  1.00  0.00    -0.036 A 
ATOM      4  C   UNL A   1      40.003  28.783  28.679  1.00  0.00    -0.018 A 
ATOM      5  C   UNL A   1      40.162  28.345  27.354  1.00  0.00     0.009 A 
ATOM      6  C   UNL A   1      40.483  27.929  29.684  1.00  0.00     0.009 A 
ATOM      7  C   UNL A   1      40.762  27.118  27.048  1.00  0.00     0.005 A 
ATOM      8  C   UNL A   1      41.142  26.729  29.377  1.00  0.00     0.005 A 
BRANCH   4   9
ATOM      9  C   UNL A   1      39.360  30.086  28.985  1.00  0.00    -0.015 A 
ATOM     10  C   UNL A   1      37.527  31.673  28.749  1.00  0.00     0.133 A 
ATOM     11  C   UNL A   1      38.157  32.586  29.587  1.00  0.00     0.047 A 
ATOM     12  C   UNL A   1      38.108  30.439  28.447  1.00  0.00     0.056 A 
ATOM     13  C   UNL A   1      39.387  32.258  30.137  1.00  0.00     0.004 A 
ATOM     14  C   UNL A   1      39.984  31.030  29.828  1.00  0.00     0.009 A 
BRANCH  10  15
ATOM     15  O   UNL A   1      36.359  32.110  28.105  1.00  0.00    -0.410 OA
BRANCH  15  16
ATOM     16  C   UNL A   1      35.187  31.390  28.272  1.00  0.00     0.412 C 
ATOM     17  N   UNL A   1      34.490  31.771  29.385  1.00  0.00    -0.321 N 
ATOM     18  H   UNL A   1      33.660  31.277  29.579  1.00  0.00     0.167 HD
ATOM     19  O   UNL A   1      34.778  30.497  27.541  1.00  0.00    -0.224 OA
BRANCH  17  20
ATOM     20  C   UNL A   1      34.850  32.829  30.309  1.00  0.00     0.119 C 
BRANCH  20  21
ATOM     21  C   UNL A   1      34.914  32.331  31.751  1.00  0.00     0.021 C 
BRANCH  21  22
ATOM     22  C   UNL A   1      36.226  31.632  32.130  1.00  0.00     0.002 C 
BRANCH  22  23
ATOM     23  C   UNL A   1      36.278  30.127  31.838  1.00  0.00    -0.000 C 
BRANCH  23  24
ATOM     24  C   UNL A   1      37.623  29.451  32.117  1.00  0.00    -0.003 C 
ATOM     25  C   UNL A   1      38.447  30.167  33.175  1.00  0.00     0.004 C 
ENDBRANCH  23  24
ENDBRANCH  22  23
ENDBRANCH  21  22
ENDBRANCH  20  21
ENDBRANCH  17  20
ENDBRANCH  15  16
ENDBRANCH  10  15
ENDBRANCH   4   9
ENDBRANCH   1   3
BRANCH   1  26
ATOM     26  C   UNL A   1      41.552  24.250  26.552  1.00  0.00     0.227 C 
ATOM     27  O   UNL A   1      40.433  23.725  26.610  1.00  0.00    -0.274 OA
ATOM     28  N   UNL A   1      42.230  24.095  25.380  1.00  0.00    -0.356 N 
ATOM     29  H   UNL A   1      41.723  23.627  24.678  1.00  0.00     0.163 HD
BRANCH  28  30
ATOM     30  C   UNL A   1      43.562  24.498  24.985  1.00  0.00     0.116 C 
BRANCH  30  31
ATOM     31  C   UNL A   1      44.640  23.593  25.585  1.00  0.00     0.023 C 
BRANCH  31  32
ATOM     32  C   UNL A   1      46.014  23.706  24.930  1.00  0.00     0.023 C 
BRANCH  32  33
ATOM     33  C   UNL A   1      46.906  24.812  25.481  1.00  0.00     0.116 C 
BRANCH  33  34
ATOM     34  N   UNL A   1      47.104  25.931  24.570  1.00  0.00    -0.352 N 
ATOM     35  C   UNL A   1      46.732  27.244  24.749  1.00  0.00     0.251 C 
ATOM     36  H   UNL A   1      47.559  25.723  23.723  1.00  0.00     0.163 HD
ATOM     37  O   UNL A   1      46.902  28.073  23.861  1.00  0.00    -0.269 OA
BRANCH  35  38
ATOM     38  C   UNL A   1      46.077  27.632  26.014  1.00  0.00     0.039 A 
ATOM     39  C   UNL A   1      46.866  28.077  27.076  1.00  0.00     0.014 A 
ATOM     40  C   UNL A   1      44.684  27.635  26.115  1.00  0.00     0.014 A 
ATOM     41  C   UNL A   1      46.252  28.604  28.214  1.00  0.00     0.010 A 
ATOM     42  C   UNL A   1      44.077  28.235  27.210  1.00  0.00     0.010 A 
ATOM     43  C   UNL A   1      44.855  28.728  28.269  1.00  0.00    -0.014 A 
BRANCH  43  44
ATOM     44  C   UNL A   1      44.182  29.381  29.420  1.00  0.00     0.031 A 
ATOM     45  C   UNL A   1      43.832  30.841  29.357  1.00  0.00     0.074 A 
ATOM     46  C   UNL A   1      43.974  28.684  30.554  1.00  0.00     0.049 A 
ATOM     47  N   UNL A   1      43.319  31.609  30.284  1.00  0.00    -0.248 NA
ATOM     48  C   UNL A   1      44.135  31.539  28.098  1.00  0.00     0.031 C 
ATOM     49  C   UNL A   1      44.340  27.283  30.766  1.00  0.00     0.029 A 
ATOM     50  N   UNL A   1      43.420  29.067  31.748  1.00  0.00    -0.354 N 
ATOM     51  C   UNL A   1      43.266  32.881  29.730  1.00  0.00     0.074 A 
ATOM     52  C   UNL A   1      43.846  32.793  28.409  1.00  0.00     0.031 C 
ATOM     53  C   UNL A   1      43.986  26.920  32.009  1.00  0.00     0.029 A 
ATOM     54  C   UNL A   1      43.398  28.068  32.692  1.00  0.00     0.049 A 
ATOM     55  H   UNL A   1      43.073  29.974  31.916  1.00  0.00     0.167 HD
ATOM     56  C   UNL A   1      42.757  34.016  30.266  1.00  0.00     0.037 A 
ATOM     57  C   UNL A   1      42.957  28.078  33.963  1.00  0.00     0.037 A 
ATOM     58  C   UNL A   1      42.145  34.090  31.566  1.00  0.00     0.049 A 
ATOM     59  C   UNL A   1      42.357  29.337  34.523  1.00  0.00     0.074 A 
ATOM     60  C   UNL A   1      41.511  35.166  32.161  1.00  0.00     0.029 A 
ATOM     61  N   UNL A   1      42.095  33.043  32.475  1.00  0.00    -0.354 N 
ATOM     62  N   UNL A   1      42.224  30.511  33.954  1.00  0.00    -0.248 NA
ATOM     63  C   UNL A   1      41.837  29.270  35.896  1.00  0.00     0.031 C 
ATOM     64  C   UNL A   1      41.115  34.783  33.447  1.00  0.00     0.029 A 
ATOM     65  C   UNL A   1      41.462  33.454  33.636  1.00  0.00     0.049 A 
ATOM     66  H   UNL A   1      42.455  32.140  32.316  1.00  0.00     0.167 HD
ATOM     67  C   UNL A   1      41.588  31.317  34.890  1.00  0.00     0.074 A 
ATOM     68  C   UNL A   1      41.350  30.493  36.057  1.00  0.00     0.031 C 
ATOM     69  C   UNL A   1      41.234  32.622  34.790  1.00  0.00     0.037 A 
BRANCH  56  70
ATOM     70  C   UNL A   1      42.846  35.266  29.440  1.00  0.00     0.057 A 
ATOM     71  C   UNL A   1      41.797  35.682  28.610  1.00  0.00     0.134 A 
ATOM     72  C   UNL A   1      43.995  36.066  29.479  1.00  0.00     0.134 A 
ATOM     73  F   UNL A   1      40.673  34.955  28.516  1.00  0.00    -0.206 F 
ATOM     74  C   UNL A   1      41.902  36.829  27.820  1.00  0.00     0.040 A 
ATOM     75  C   UNL A   1      44.098  37.231  28.716  1.00  0.00     0.040 A 
ATOM     76  F   UNL A   1      45.034  35.730  30.256  1.00  0.00    -0.206 F 
ATOM     77  C   UNL A   1      43.053  37.609  27.875  1.00  0.00     0.006 A 
ENDBRANCH  56  70
BRANCH  57  78
ATOM     78  C   UNL A   1      43.041  26.842  34.779  1.00  0.00     0.057 A 
ATOM     79  C   UNL A   1      41.932  26.003  34.934  1.00  0.00     0.134 A 
ATOM     80  C   UNL A   1      44.235  26.456  35.400  1.00  0.00     0.134 A 
ATOM     81  F   UNL A   1      40.757  26.329  34.376  1.00  0.00    -0.206 F 
ATOM     82  C   UNL A   1      42.002  24.829  35.686  1.00  0.00     0.040 A 
ATOM     83  C   UNL A   1      44.326  25.274  36.136  1.00  0.00     0.040 A 
ATOM     84  F   UNL A   1      45.335  27.213  35.281  1.00  0.00    -0.206 F 
ATOM     85  C   UNL A   1      43.206  24.458  36.283  1.00  0.00     0.006 A 
ENDBRANCH  57  78
BRANCH  69  86
ATOM     86  C   UNL A   1      40.532  33.235  35.966  1.00  0.00     0.057 A 
ATOM     87  C   UNL A   1      41.239  33.836  37.014  1.00  0.00     0.134 A 
ATOM     88  C   UNL A   1      39.133  33.264  36.024  1.00  0.00     0.134 A 
ATOM     89  F   UNL A   1      42.580  33.830  37.023  1.00  0.00    -0.206 F 
ATOM     90  C   UNL A   1      40.577  34.429  38.091  1.00  0.00     0.040 A 
ATOM     91  C   UNL A   1      38.460  33.875  37.083  1.00  0.00     0.040 A 
ATOM     92  F   UNL A   1      38.398  32.713  35.047  1.00  0.00    -0.206 F 
ATOM     93  C   UNL A   1      39.184  34.456  38.122  1.00  0.00     0.006 A 
ENDBRANCH  69  86
ENDBRANCH  43  44
ENDBRANCH  35  38
ENDBRANCH  33  34
ENDBRANCH  32  33
ENDBRANCH  31  32
ENDBRANCH  30  31
ENDBRANCH  28  30
ENDBRANCH   1  26
TORSDOF 20
ENDMDL
MODEL 2
REMARK VINA RESULT:      -8.3      3.329      9.281
REMARK SMILES CCCCCCNC(=O)Oc1cccc(-c2ccc([C@@H](C)C(=O)NCCCCNC(=O)c3ccc(-c4c5nc(c(-c6c(F)cccc6F)c6ccc([nH]6)c(-c6c(F)cccc6F)c6nc(c(-c7c(F)cccc7F)c7ccc4[nH]7)C=C6)C=C5)cc3)cc2)c1
REMARK SMILES IDX 20 1 21 2 19 3 16 4 17 5 87 6 18 7 86 8 15 9 11 10 12 11
REMARK SMILES IDX 88 12 13 13 14 14 10 15 8 16 7 17 9 19 6 20 5 21 4 22 3 23
REMARK SMILES IDX 2 24 1 25 22 26 23 27 24 28 25 30 26 31 27 32 28 33 29 34
REMARK SMILES IDX 30 35 31 37 32 38 33 39 85 40 34 41 84 42 35 43 36 44 37 45
REMARK SMILES IDX 78 46 38 47 83 48 77 49 79 50 39 51 82 52 76 53 75 54 40 56
REMARK SMILES IDX 66 57 49 58 65 59 50 60 53 61 64 62 80 63 51 64 52 65 63 67
REMARK SMILES IDX 81 68 54 69 41 70 42 71 47 72 43 73 44 74 46 75 48 76 45 77
REMARK SMILES IDX 67 78 68 79 73 80 69 81 70 82 72 83 74 84 71 85 55 86 56 87
REMARK SMILES IDX 61 88 57 89 58 90 60 91 62 92 59 93
REMARK H PARENT 7 18 24 29 29 36 79 55 53 66
REMARK Flexibility Score: inf
ROOT
ATOM      1  C   UNL A   1      37.208  33.501  31.740  1.00  0.00     0.105 C 
ATOM      2  C   UNL A   1      37.417  32.171  32.465  1.00  0.00     0.023 C 
ENDROOT
BRANCH   1   3
ATOM      3  C   UNL A   1      38.417  34.048  30.998  1.00  0.00    -0.036 A 
ATOM      4  C   UNL A   1      40.789  34.907  29.642  1.00  0.00    -0.018 A 
ATOM      5  C   UNL A   1      39.580  34.696  28.960  1.00  0.00     0.009 A 
ATOM      6  C   UNL A   1      40.767  34.711  31.032  1.00  0.00     0.009 A 
ATOM      7  C   UNL A   1      38.410  34.317  29.629  1.00  0.00     0.005 A 
ATOM      8  C   UNL A   1      39.612  34.269  31.695  1.00  0.00     0.005 A 
BRANCH   4   9
ATOM      9  C   UNL A   1      42.018  35.313  28.917  1.00  0.00    -0.015 A 
ATOM     10  C   UNL A   1      43.972  34.786  27.559  1.00  0.00     0.133 A 
ATOM     11  C   UNL A   1      44.367  36.119  27.538  1.00  0.00     0.047 A 
ATOM     12  C   UNL A   1      42.818  34.378  28.233  1.00  0.00     0.056 A 
ATOM     13  C   UNL A   1      43.591  37.061  28.196  1.00  0.00     0.004 A 
ATOM     14  C   UNL A   1      42.441  36.659  28.886  1.00  0.00     0.009 A 
BRANCH  10  15
ATOM     15  O   UNL A   1      44.865  33.855  27.005  1.00  0.00    -0.410 OA
BRANCH  15  16
ATOM     16  C   UNL A   1      44.516  33.202  25.835  1.00  0.00     0.412 C 
ATOM     17  N   UNL A   1      45.143  31.994  25.698  1.00  0.00    -0.321 N 
ATOM     18  H   UNL A   1      44.961  31.490  24.873  1.00  0.00     0.167 HD
ATOM     19  O   UNL A   1      43.744  33.616  24.979  1.00  0.00    -0.224 OA
BRANCH  17  20
ATOM     20  C   UNL A   1      46.049  31.381  26.650  1.00  0.00     0.119 C 
BRANCH  20  21
ATOM     21  C   UNL A   1      45.301  30.727  27.811  1.00  0.00     0.021 C 
BRANCH  21  22
ATOM     22  C   UNL A   1      44.545  29.444  27.445  1.00  0.00     0.002 C 
BRANCH  22  23
ATOM     23  C   UNL A   1      43.133  29.649  26.882  1.00  0.00    -0.000 C 
BRANCH  23  24
ATOM     24  C   UNL A   1      42.708  28.657  25.797  1.00  0.00    -0.003 C 
ATOM     25  C   UNL A   1      41.205  28.616  25.575  1.00  0.00     0.004 C 
ENDBRANCH  23  24
ENDBRANCH  22  23
ENDBRANCH  21  22
ENDBRANCH  20  21
ENDBRANCH  17  20
ENDBRANCH  15  16
ENDBRANCH  10  15
ENDBRANCH   4   9
ENDBRANCH   1   3
BRANCH   1  26
ATOM     26  C   UNL A   1      36.469  34.555  32.580  1.00  0.00     0.227 C 
ATOM     27  O   UNL A   1      36.893  34.858  33.702  1.00  0.00    -0.274 OA
ATOM     28  N   UNL A   1      35.356  35.218  32.159  1.00  0.00    -0.356 N 
ATOM     29  H   UNL A   1      35.042  35.917  32.777  1.00  0.00     0.163 HD
BRANCH  28  30
ATOM     30  C   UNL A   1      34.553  35.077  30.962  1.00  0.00     0.116 C 
BRANCH  30  31
ATOM     31  C   UNL A   1      34.486  33.626  30.482  1.00  0.00     0.023 C 
BRANCH  31  32
ATOM     32  C   UNL A   1      33.968  33.443  29.058  1.00  0.00     0.023 C 
BRANCH  32  33
ATOM     33  C   UNL A   1      34.773  32.480  28.193  1.00  0.00     0.116 C 
BRANCH  33  34
ATOM     34  N   UNL A   1      34.107  31.213  27.928  1.00  0.00    -0.352 N 
ATOM     35  C   UNL A   1      34.646  29.947  27.975  1.00  0.00     0.251 C 
ATOM     36  H   UNL A   1      33.155  31.268  27.685  1.00  0.00     0.163 HD
ATOM     37  O   UNL A   1      33.980  28.967  27.657  1.00  0.00    -0.269 OA
BRANCH  35  38
ATOM     38  C   UNL A   1      36.061  29.790  28.367  1.00  0.00     0.039 A 
ATOM     39  C   UNL A   1      36.360  29.329  29.651  1.00  0.00     0.014 A 
ATOM     40  C   UNL A   1      37.080  30.020  27.440  1.00  0.00     0.014 A 
ATOM     41  C   UNL A   1      37.681  29.016  29.978  1.00  0.00     0.010 A 
ATOM     42  C   UNL A   1      38.379  29.631  27.739  1.00  0.00     0.010 A 
ATOM     43  C   UNL A   1      38.692  29.122  29.009  1.00  0.00    -0.014 A 
BRANCH  43  44
ATOM     44  C   UNL A   1      40.085  28.698  29.297  1.00  0.00     0.031 A 
ATOM     45  C   UNL A   1      41.020  29.627  30.017  1.00  0.00     0.074 A 
ATOM     46  C   UNL A   1      40.534  27.519  28.825  1.00  0.00     0.049 A 
ATOM     47  N   UNL A   1      42.292  29.474  30.288  1.00  0.00    -0.248 NA
ATOM     48  C   UNL A   1      40.463  30.915  30.457  1.00  0.00     0.031 C 
ATOM     49  C   UNL A   1      39.745  26.563  28.045  1.00  0.00     0.029 A 
ATOM     50  N   UNL A   1      41.769  26.931  28.919  1.00  0.00    -0.354 N 
ATOM     51  C   UNL A   1      42.689  30.655  30.901  1.00  0.00     0.074 A 
ATOM     52  C   UNL A   1      41.540  31.533  30.916  1.00  0.00     0.031 C 
ATOM     53  C   UNL A   1      40.512  25.503  27.745  1.00  0.00     0.029 A 
ATOM     54  C   UNL A   1      41.852  25.716  28.283  1.00  0.00     0.049 A 
ATOM     55  H   UNL A   1      42.527  27.343  29.394  1.00  0.00     0.167 HD
ATOM     56  C   UNL A   1      43.897  30.970  31.427  1.00  0.00     0.037 A 
ATOM     57  C   UNL A   1      42.891  24.871  28.147  1.00  0.00     0.037 A 
ATOM     58  C   UNL A   1      45.025  30.077  31.446  1.00  0.00     0.049 A 
ATOM     59  C   UNL A   1      44.210  25.221  28.776  1.00  0.00     0.074 A 
ATOM     60  C   UNL A   1      46.260  30.261  32.041  1.00  0.00     0.029 A 
ATOM     61  N   UNL A   1      45.055  28.831  30.836  1.00  0.00    -0.354 N 
ATOM     62  N   UNL A   1      44.546  26.301  29.439  1.00  0.00    -0.248 NA
ATOM     63  C   UNL A   1      45.289  24.233  28.646  1.00  0.00     0.031 C 
ATOM     64  C   UNL A   1      47.053  29.145  31.755  1.00  0.00     0.029 A 
ATOM     65  C   UNL A   1      46.297  28.245  31.020  1.00  0.00     0.049 A 
ATOM     66  H   UNL A   1      44.305  28.424  30.346  1.00  0.00     0.167 HD
ATOM     67  C   UNL A   1      45.868  26.114  29.823  1.00  0.00     0.074 A 
ATOM     68  C   UNL A   1      46.266  24.811  29.331  1.00  0.00     0.031 C 
ATOM     69  C   UNL A   1      46.678  26.948  30.522  1.00  0.00     0.037 A 
BRANCH  56  70
ATOM     70  C   UNL A   1      44.052  32.339  32.023  1.00  0.00     0.057 A 
ATOM     71  C   UNL A   1      44.648  33.391  31.316  1.00  0.00     0.134 A 
ATOM     72  C   UNL A   1      43.594  32.608  33.319  1.00  0.00     0.134 A 
ATOM     73  F   UNL A   1      45.120  33.198  30.076  1.00  0.00    -0.206 F 
ATOM     74  C   UNL A   1      44.818  34.653  31.891  1.00  0.00     0.040 A 
ATOM     75  C   UNL A   1      43.731  33.874  33.892  1.00  0.00     0.040 A 
ATOM     76  F   UNL A   1      43.009  31.648  34.049  1.00  0.00    -0.206 F 
ATOM     77  C   UNL A   1      44.354  34.897  33.181  1.00  0.00     0.006 A 
ENDBRANCH  56  70
BRANCH  57  78
ATOM     78  C   UNL A   1      42.709  23.597  27.408  1.00  0.00     0.057 A 
ATOM     79  C   UNL A   1      43.036  23.496  26.051  1.00  0.00     0.134 A 
ATOM     80  C   UNL A   1      42.230  22.446  28.046  1.00  0.00     0.134 A 
ATOM     81  F   UNL A   1      43.484  24.569  25.384  1.00  0.00    -0.206 F 
ATOM     82  C   UNL A   1      42.884  22.299  25.350  1.00  0.00     0.040 A 
ATOM     83  C   UNL A   1      42.094  21.237  27.362  1.00  0.00     0.040 A 
ATOM     84  F   UNL A   1      41.908  22.477  29.346  1.00  0.00    -0.206 F 
ATOM     85  C   UNL A   1      42.419  21.162  26.009  1.00  0.00     0.006 A 
ENDBRANCH  57  78
BRANCH  69  86
ATOM     86  C   UNL A   1      48.069  26.468  30.813  1.00  0.00     0.057 A 
ATOM     87  C   UNL A   1      48.407  25.888  32.042  1.00  0.00     0.134 A 
ATOM     88  C   UNL A   1      49.069  26.547  29.835  1.00  0.00     0.134 A 
ATOM     89  F   UNL A   1      47.497  25.796  33.024  1.00  0.00    -0.206 F 
ATOM     90  C   UNL A   1      49.697  25.418  32.294  1.00  0.00     0.040 A 
ATOM     91  C   UNL A   1      50.355  26.058  30.067  1.00  0.00     0.040 A 
ATOM     92  F   UNL A   1      48.808  27.084  28.634  1.00  0.00    -0.206 F 
ATOM     93  C   UNL A   1      50.672  25.496  31.302  1.00  0.00     0.006 A 
ENDBRANCH  69  86
ENDBRANCH  43  44
ENDBRANCH  35  38
ENDBRANCH  33  34
ENDBRANCH  32  33
ENDBRANCH  31  32
ENDBRANCH  30  31
ENDBRANCH  28  30
ENDBRANCH   1  26
TORSDOF 20
ENDMDL
MODEL 3
REMARK VINA RESULT:      -8.3      2.845      9.438
REMARK SMILES CCCCCCNC(=O)Oc1cccc(-c2ccc([C@@H](C)C(=O)NCCCCNC(=O)c3ccc(-c4c5nc(c(-c6c(F)cccc6F)c6ccc([nH]6)c(-c6c(F)cccc6F)c6nc(c(-c7c(F)cccc7F)c7ccc4[nH]7)C=C6)C=C5)cc3)cc2)c1
REMARK SMILES IDX 20 1 21 2 19 3 16 4 17 5 87 6 18 7 86 8 15 9 11 10 12 11
REMARK SMILES IDX 88 12 13 13 14 14 10 15 8 16 7 17 9 19 6 20 5 21 4 22 3 23
REMARK SMILES IDX 2 24 1 25 22 26 23 27 24 28 25 30 26 31 27 32 28 33 29 34
REMARK SMILES IDX 30 35 31 37 32 38 33 39 85 40 34 41 84 42 35 43 36 44 37 45
REMARK SMILES IDX 78 46 38 47 83 48 77 49 79 50 39 51 82 52 76 53 75 54 40 56
REMARK SMILES IDX 66 57 49 58 65 59 50 60 53 61 64 62 80 63 51 64 52 65 63 67
REMARK SMILES IDX 81 68 54 69 41 70 42 71 47 72 43 73 44 74 46 75 48 76 45 77
REMARK SMILES IDX 67 78 68 79 73 80 69 81 70 82 72 83 74 84 71 85 55 86 56 87
REMARK SMILES IDX 61 88 57 89 58 90 60 91 62 92 59 93
REMARK H PARENT 7 18 24 29 29 36 79 55 53 66
REMARK Flexibility Score: inf
ROOT
ATOM      1  C   UNL A   1      35.303  34.084  32.080  1.00  0.00     0.105 C 
ATOM      2  C   UNL A   1      34.888  33.137  33.206  1.00  0.00     0.023 C 
ENDROOT
BRANCH   1   3
ATOM      3  C   UNL A   1      36.797  34.183  31.815  1.00  0.00    -0.036 A 
ATOM      4  C   UNL A   1      39.633  34.198  31.414  1.00  0.00    -0.018 A 
ATOM      5  C   UNL A   1      38.732  34.094  30.342  1.00  0.00     0.009 A 
ATOM      6  C   UNL A   1      39.071  34.333  32.693  1.00  0.00     0.009 A 
ATOM      7  C   UNL A   1      37.347  34.129  30.533  1.00  0.00     0.005 A 
ATOM      8  C   UNL A   1      37.682  34.303  32.894  1.00  0.00     0.005 A 
BRANCH   4   9
ATOM      9  C   UNL A   1      41.099  34.162  31.191  1.00  0.00    -0.015 A 
ATOM     10  C   UNL A   1      43.083  33.189  30.165  1.00  0.00     0.133 A 
ATOM     11  C   UNL A   1      43.910  34.119  30.785  1.00  0.00     0.047 A 
ATOM     12  C   UNL A   1      41.699  33.201  30.356  1.00  0.00     0.056 A 
ATOM     13  C   UNL A   1      43.342  35.083  31.605  1.00  0.00     0.004 A 
ATOM     14  C   UNL A   1      41.958  35.094  31.814  1.00  0.00     0.009 A 
BRANCH  10  15
ATOM     15  O   UNL A   1      43.717  32.150  29.466  1.00  0.00    -0.410 OA
BRANCH  15  16
ATOM     16  C   UNL A   1      43.903  30.930  30.095  1.00  0.00     0.412 C 
ATOM     17  N   UNL A   1      43.313  29.895  29.423  1.00  0.00    -0.321 N 
ATOM     18  H   UNL A   1      43.383  29.003  29.833  1.00  0.00     0.167 HD
ATOM     19  O   UNL A   1      44.511  30.742  31.141  1.00  0.00    -0.224 OA
BRANCH  17  20
ATOM     20  C   UNL A   1      42.596  29.981  28.165  1.00  0.00     0.119 C 
BRANCH  20  21
ATOM     21  C   UNL A   1      43.104  28.961  27.147  1.00  0.00     0.021 C 
BRANCH  21  22
ATOM     22  C   UNL A   1      44.553  28.509  27.361  1.00  0.00     0.002 C 
BRANCH  22  23
ATOM     23  C   UNL A   1      45.609  29.278  26.558  1.00  0.00    -0.000 C 
BRANCH  23  24
ATOM     24  C   UNL A   1      46.542  30.167  27.383  1.00  0.00    -0.003 C 
ATOM     25  C   UNL A   1      47.367  29.394  28.399  1.00  0.00     0.004 C 
ENDBRANCH  23  24
ENDBRANCH  22  23
ENDBRANCH  21  22
ENDBRANCH  20  21
ENDBRANCH  17  20
ENDBRANCH  15  16
ENDBRANCH  10  15
ENDBRANCH   4   9
ENDBRANCH   1   3
BRANCH   1  26
ATOM     26  C   UNL A   1      34.590  35.445  32.119  1.00  0.00     0.227 C 
ATOM     27  O   UNL A   1      34.795  36.222  33.060  1.00  0.00    -0.274 OA
ATOM     28  N   UNL A   1      33.735  35.883  31.153  1.00  0.00    -0.356 N 
ATOM     29  H   UNL A   1      33.418  36.806  31.280  1.00  0.00     0.163 HD
BRANCH  28  30
ATOM     30  C   UNL A   1      33.213  35.232  29.970  1.00  0.00     0.116 C 
BRANCH  30  31
ATOM     31  C   UNL A   1      34.051  35.537  28.727  1.00  0.00     0.023 C 
BRANCH  31  32
ATOM     32  C   UNL A   1      34.585  34.310  27.993  1.00  0.00     0.023 C 
BRANCH  32  33
ATOM     33  C   UNL A   1      34.305  32.975  28.674  1.00  0.00     0.116 C 
BRANCH  33  34
ATOM     34  N   UNL A   1      33.842  31.929  27.774  1.00  0.00    -0.352 N 
ATOM     35  C   UNL A   1      34.449  30.726  27.491  1.00  0.00     0.251 C 
ATOM     36  H   UNL A   1      32.992  32.103  27.310  1.00  0.00     0.163 HD
ATOM     37  O   UNL A   1      33.978  29.965  26.652  1.00  0.00    -0.269 OA
BRANCH  35  38
ATOM     38  C   UNL A   1      35.710  30.386  28.180  1.00  0.00     0.039 A 
ATOM     39  C   UNL A   1      35.653  29.732  29.412  1.00  0.00     0.014 A 
ATOM     40  C   UNL A   1      36.939  30.639  27.566  1.00  0.00     0.014 A 
ATOM     41  C   UNL A   1      36.831  29.255  29.992  1.00  0.00     0.010 A 
ATOM     42  C   UNL A   1      38.098  30.093  28.102  1.00  0.00     0.010 A 
ATOM     43  C   UNL A   1      38.055  29.393  29.318  1.00  0.00    -0.014 A 
BRANCH  43  44
ATOM     44  C   UNL A   1      39.305  28.805  29.860  1.00  0.00     0.031 A 
ATOM     45  C   UNL A   1      39.949  29.400  31.080  1.00  0.00     0.074 A 
ATOM     46  C   UNL A   1      39.910  27.798  29.200  1.00  0.00     0.049 A 
ATOM     47  N   UNL A   1      41.082  29.083  31.656  1.00  0.00    -0.248 NA
ATOM     48  C   UNL A   1      39.248  30.527  31.713  1.00  0.00     0.031 C 
ATOM     49  C   UNL A   1      39.425  27.185  27.962  1.00  0.00     0.029 A 
ATOM     50  N   UNL A   1      41.074  27.125  29.469  1.00  0.00    -0.354 N 
ATOM     51  C   UNL A   1      41.239  29.988  32.697  1.00  0.00     0.074 A 
ATOM     52  C   UNL A   1      40.116  30.898  32.642  1.00  0.00     0.031 C 
ATOM     53  C   UNL A   1      40.276  26.217  27.588  1.00  0.00     0.029 A 
ATOM     54  C   UNL A   1      41.381  26.161  28.540  1.00  0.00     0.049 A 
ATOM     55  H   UNL A   1      41.639  27.317  30.253  1.00  0.00     0.167 HD
ATOM     56  C   UNL A   1      42.219  30.041  33.630  1.00  0.00     0.037 A 
ATOM     57  C   UNL A   1      42.436  25.328  28.462  1.00  0.00     0.037 A 
ATOM     58  C   UNL A   1      43.312  29.109  33.704  1.00  0.00     0.049 A 
ATOM     59  C   UNL A   1      43.489  25.375  29.533  1.00  0.00     0.074 A 
ATOM     60  C   UNL A   1      44.302  29.016  34.667  1.00  0.00     0.029 A 
ATOM     61  N   UNL A   1      43.563  28.112  32.773  1.00  0.00    -0.354 N 
ATOM     62  N   UNL A   1      43.577  26.173  30.569  1.00  0.00    -0.248 NA
ATOM     63  C   UNL A   1      44.584  24.401  29.428  1.00  0.00     0.031 C 
ATOM     64  C   UNL A   1      45.175  27.988  34.296  1.00  0.00     0.029 A 
ATOM     65  C   UNL A   1      44.705  27.412  33.126  1.00  0.00     0.049 A 
ATOM     66  H   UNL A   1      43.010  27.928  31.980  1.00  0.00     0.167 HD
ATOM     67  C   UNL A   1      44.723  25.786  31.252  1.00  0.00     0.074 A 
ATOM     68  C   UNL A   1      45.289  24.672  30.519  1.00  0.00     0.031 C 
ATOM     69  C   UNL A   1      45.257  26.307  32.384  1.00  0.00     0.037 A 
BRANCH  56  70
ATOM     70  C   UNL A   1      42.145  31.148  34.642  1.00  0.00     0.057 A 
ATOM     71  C   UNL A   1      41.302  31.075  35.759  1.00  0.00     0.134 A 
ATOM     72  C   UNL A   1      42.931  32.298  34.500  1.00  0.00     0.134 A 
ATOM     73  F   UNL A   1      40.512  30.007  35.948  1.00  0.00    -0.206 F 
ATOM     74  C   UNL A   1      41.215  32.124  36.677  1.00  0.00     0.040 A 
ATOM     75  C   UNL A   1      42.875  33.339  35.428  1.00  0.00     0.040 A 
ATOM     76  F   UNL A   1      43.764  32.430  33.458  1.00  0.00    -0.206 F 
ATOM     77  C   UNL A   1      42.007  33.257  36.515  1.00  0.00     0.006 A 
ENDBRANCH  56  70
BRANCH  57  78
ATOM     78  C   UNL A   1      42.524  24.358  27.344  1.00  0.00     0.057 A 
ATOM     79  C   UNL A   1      43.154  24.697  26.141  1.00  0.00     0.134 A 
ATOM     80  C   UNL A   1      42.006  23.062  27.459  1.00  0.00     0.134 A 
ATOM     81  F   UNL A   1      43.655  25.929  25.967  1.00  0.00    -0.206 F 
ATOM     82  C   UNL A   1      43.257  23.788  25.088  1.00  0.00     0.040 A 
ATOM     83  C   UNL A   1      42.122  22.135  26.421  1.00  0.00     0.040 A 
ATOM     84  F   UNL A   1      41.399  22.674  28.589  1.00  0.00    -0.206 F 
ATOM     85  C   UNL A   1      42.746  22.498  25.230  1.00  0.00     0.006 A 
ENDBRANCH  57  78
BRANCH  69  86
ATOM     86  C   UNL A   1      46.506  25.665  32.912  1.00  0.00     0.057 A 
ATOM     87  C   UNL A   1      47.778  26.071  32.491  1.00  0.00     0.134 A 
ATOM     88  C   UNL A   1      46.434  24.662  33.887  1.00  0.00     0.134 A 
ATOM     89  F   UNL A   1      47.914  27.018  31.550  1.00  0.00    -0.206 F 
ATOM     90  C   UNL A   1      48.936  25.488  33.009  1.00  0.00     0.040 A 
ATOM     91  C   UNL A   1      47.585  24.089  34.429  1.00  0.00     0.040 A 
ATOM     92  F   UNL A   1      45.246  24.234  34.339  1.00  0.00    -0.206 F 
ATOM     93  C   UNL A   1      48.840  24.499  33.986  1.00  0.00     0.006 A 
ENDBRANCH  69  86
ENDBRANCH  43  44
ENDBRANCH  35  38
ENDBRANCH  33  34
ENDBRANCH  32  33
ENDBRANCH  31  32
ENDBRANCH  30  31
ENDBRANCH  28  30
ENDBRANCH   1  26
TORSDOF 20
ENDMDL
