MODEL 1
REMARK VINA RESULT:     -11.2      0.000      0.000
REMARK SMILES CC[C@](C)(NS(=O)(=O)c1ccc(OC)c(F)c1)C(=O)NCCCCNC(=O)c1ccc(-c2c3nc(c(-c4c(F)cccc4F)c4ccc([nH]4)c(-c4c(F)cccc4F)c4nc(c(-c5c(F)cccc5F)c5ccc2[nH]5)C=C4)C=C3)cc1
REMARK SMILES IDX 21 1 20 2 18 3 19 4 3 6 4 7 2 8 1 9 5 10 6 12 7 13 8 14 9 15
REMARK SMILES IDX 10 16 17 17 11 18 15 19 12 20 16 21 13 22 14 23 22 24 23 25
REMARK SMILES IDX 24 26 25 27 26 28 27 30 28 31 29 32 81 33 30 34 80 35 31 36
REMARK SMILES IDX 32 37 33 38 74 39 34 40 79 41 73 42 75 43 35 44 78 45 72 46
REMARK SMILES IDX 71 47 36 49 62 50 45 51 61 52 46 53 49 54 60 55 76 56 47 57
REMARK SMILES IDX 48 58 59 60 77 61 50 62 37 63 38 64 43 65 39 66 40 67 42 68
REMARK SMILES IDX 44 69 41 70 63 71 64 72 69 73 65 74 66 75 68 76 70 77 67 78
REMARK SMILES IDX 51 79 52 80 57 81 53 82 54 83 56 84 58 85 55 86
REMARK H PARENT 20 5 5 11 25 29 75 48 49 59
REMARK Flexibility Score: inf
ROOT
ATOM      1  C   UNL A   1      36.645  21.603  25.588  1.00  0.00     0.116 C 
ENDROOT
BRANCH   1   2
ATOM      2  N   UNL A   1      35.712  21.968  26.642  1.00  0.00    -0.354 N 
ATOM      3  C   UNL A   1      34.362  21.952  26.783  1.00  0.00     0.241 C 
ATOM      4  O   UNL A   1      33.994  21.921  27.968  1.00  0.00    -0.273 OA
ATOM      5  H   UNL A   1      36.169  22.308  27.445  1.00  0.00     0.163 HD
BRANCH   3   6
ATOM      6  C   UNL A   1      33.305  22.019  25.652  1.00  0.00     0.108 C 
ATOM      7  C   UNL A   1      32.208  23.049  26.112  1.00  0.00     0.040 C 
BRANCH   6   8
ATOM      8  C   UNL A   1      32.566  20.673  25.478  1.00  0.00     0.030 C 
ATOM      9  C   UNL A   1      32.578  20.159  24.025  1.00  0.00     0.006 C 
ENDBRANCH   6   8
BRANCH   6  10
ATOM     10  N   UNL A   1      33.688  22.645  24.363  1.00  0.00    -0.196 NA
ATOM     11  H   UNL A   1      32.792  22.719  23.882  1.00  0.00     0.142 HD
BRANCH  10  12
ATOM     12  S   UNL A   1      34.460  24.022  23.886  1.00  0.00     0.241 S 
ATOM     13  O   UNL A   1      35.103  24.578  25.059  1.00  0.00    -0.207 OA
ATOM     14  O   UNL A   1      35.275  23.584  22.780  1.00  0.00    -0.207 OA
BRANCH  12  15
ATOM     15  C   UNL A   1      33.349  25.225  23.197  1.00  0.00     0.085 A 
ATOM     16  C   UNL A   1      32.767  26.154  24.071  1.00  0.00     0.026 A 
ATOM     17  C   UNL A   1      33.012  25.273  21.852  1.00  0.00     0.065 A 
ATOM     18  C   UNL A   1      31.782  27.041  23.609  1.00  0.00     0.051 A 
ATOM     19  C   UNL A   1      31.957  26.084  21.421  1.00  0.00     0.166 A 
ATOM     20  C   UNL A   1      31.318  26.967  22.293  1.00  0.00     0.154 A 
ATOM     21  F   UNL A   1      31.558  25.955  20.147  1.00  0.00    -0.203 F 
BRANCH  20  22
ATOM     22  O   UNL A   1      30.273  27.800  22.004  1.00  0.00    -0.494 OA
ATOM     23  C   UNL A   1      30.003  28.848  22.932  1.00  0.00     0.278 C 
ENDBRANCH  20  22
ENDBRANCH  12  15
ENDBRANCH  10  12
ENDBRANCH   6  10
ENDBRANCH   3   6
ENDBRANCH   1   2
BRANCH   1  24
ATOM     24  C   UNL A   1      36.509  20.187  25.038  1.00  0.00     0.023 C 
BRANCH  24  25
ATOM     25  C   UNL A   1      37.794  19.389  24.879  1.00  0.00     0.023 C 
BRANCH  25  26
ATOM     26  C   UNL A   1      38.987  19.996  25.584  1.00  0.00     0.116 C 
BRANCH  26  27
ATOM     27  N   UNL A   1      40.058  19.027  25.762  1.00  0.00    -0.352 N 
ATOM     28  C   UNL A   1      41.399  19.226  25.978  1.00  0.00     0.251 C 
ATOM     29  H   UNL A   1      39.778  18.084  25.721  1.00  0.00     0.163 HD
ATOM     30  O   UNL A   1      42.183  18.288  25.854  1.00  0.00    -0.269 OA
BRANCH  28  31
ATOM     31  C   UNL A   1      41.905  20.564  26.358  1.00  0.00     0.039 A 
ATOM     32  C   UNL A   1      42.022  20.891  27.712  1.00  0.00     0.014 A 
ATOM     33  C   UNL A   1      42.227  21.511  25.385  1.00  0.00     0.014 A 
ATOM     34  C   UNL A   1      42.492  22.153  28.081  1.00  0.00     0.010 A 
ATOM     35  C   UNL A   1      42.813  22.714  25.749  1.00  0.00     0.010 A 
ATOM     36  C   UNL A   1      42.910  23.067  27.100  1.00  0.00    -0.014 A 
BRANCH  36  37
ATOM     37  C   UNL A   1      43.377  24.431  27.449  1.00  0.00     0.031 A 
ATOM     38  C   UNL A   1      42.373  25.473  27.870  1.00  0.00     0.074 A 
ATOM     39  C   UNL A   1      44.681  24.746  27.338  1.00  0.00     0.049 A 
ATOM     40  N   UNL A   1      42.556  26.741  28.131  1.00  0.00    -0.248 NA
ATOM     41  C   UNL A   1      40.966  25.042  27.975  1.00  0.00     0.031 C 
ATOM     42  C   UNL A   1      45.738  23.833  26.897  1.00  0.00     0.029 A 
ATOM     43  N   UNL A   1      45.340  25.923  27.584  1.00  0.00    -0.354 N 
ATOM     44  C   UNL A   1      41.295  27.255  28.407  1.00  0.00     0.074 A 
ATOM     45  C   UNL A   1      40.345  26.185  28.213  1.00  0.00     0.031 C 
ATOM     46  C   UNL A   1      46.918  24.471  26.947  1.00  0.00     0.029 A 
ATOM     47  C   UNL A   1      46.696  25.849  27.378  1.00  0.00     0.049 A 
ATOM     48  H   UNL A   1      44.885  26.743  27.883  1.00  0.00     0.167 HD
ATOM     49  C   UNL A   1      40.963  28.498  28.821  1.00  0.00     0.037 A 
ATOM     50  C   UNL A   1      47.651  26.788  27.519  1.00  0.00     0.037 A 
ATOM     51  C   UNL A   1      41.922  29.542  29.063  1.00  0.00     0.049 A 
ATOM     52  C   UNL A   1      47.257  28.163  27.982  1.00  0.00     0.074 A 
ATOM     53  C   UNL A   1      41.698  30.818  29.545  1.00  0.00     0.029 A 
ATOM     54  N   UNL A   1      43.287  29.423  28.849  1.00  0.00    -0.354 N 
ATOM     55  N   UNL A   1      46.067  28.622  28.288  1.00  0.00    -0.248 NA
ATOM     56  C   UNL A   1      48.335  29.152  28.122  1.00  0.00     0.031 C 
ATOM     57  C   UNL A   1      42.922  31.489  29.578  1.00  0.00     0.029 A 
ATOM     58  C   UNL A   1      43.916  30.613  29.171  1.00  0.00     0.049 A 
ATOM     59  H   UNL A   1      43.740  28.613  28.519  1.00  0.00     0.167 HD
ATOM     60  C   UNL A   1      46.255  29.940  28.679  1.00  0.00     0.074 A 
ATOM     61  C   UNL A   1      47.675  30.205  28.585  1.00  0.00     0.031 C 
ATOM     62  C   UNL A   1      45.334  30.850  29.081  1.00  0.00     0.037 A 
BRANCH  49  63
ATOM     63  C   UNL A   1      39.512  28.798  29.065  1.00  0.00     0.057 A 
ATOM     64  C   UNL A   1      38.713  29.339  28.050  1.00  0.00     0.134 A 
ATOM     65  C   UNL A   1      38.922  28.618  30.323  1.00  0.00     0.134 A 
ATOM     66  F   UNL A   1      39.214  29.541  26.821  1.00  0.00    -0.206 F 
ATOM     67  C   UNL A   1      37.387  29.707  28.282  1.00  0.00     0.040 A 
ATOM     68  C   UNL A   1      37.589  28.954  30.560  1.00  0.00     0.040 A 
ATOM     69  F   UNL A   1      39.628  28.089  31.335  1.00  0.00    -0.206 F 
ATOM     70  C   UNL A   1      36.821  29.513  29.541  1.00  0.00     0.006 A 
ENDBRANCH  49  63
BRANCH  50  71
ATOM     71  C   UNL A   1      49.071  26.440  27.259  1.00  0.00     0.057 A 
ATOM     72  C   UNL A   1      49.595  26.407  25.961  1.00  0.00     0.134 A 
ATOM     73  C   UNL A   1      49.934  26.102  28.309  1.00  0.00     0.134 A 
ATOM     74  F   UNL A   1      48.819  26.713  24.910  1.00  0.00    -0.206 F 
ATOM     75  C   UNL A   1      50.917  26.035  25.714  1.00  0.00     0.040 A 
ATOM     76  C   UNL A   1      51.265  25.752  28.080  1.00  0.00     0.040 A 
ATOM     77  F   UNL A   1      49.496  26.131  29.576  1.00  0.00    -0.206 F 
ATOM     78  C   UNL A   1      51.759  25.709  26.777  1.00  0.00     0.006 A 
ENDBRANCH  50  71
BRANCH  62  79
ATOM     79  C   UNL A   1      45.824  32.212  29.473  1.00  0.00     0.057 A 
ATOM     80  C   UNL A   1      45.921  33.235  28.521  1.00  0.00     0.134 A 
ATOM     81  C   UNL A   1      46.292  32.482  30.765  1.00  0.00     0.134 A 
ATOM     82  F   UNL A   1      45.505  33.035  27.261  1.00  0.00    -0.206 F 
ATOM     83  C   UNL A   1      46.483  34.472  28.834  1.00  0.00     0.040 A 
ATOM     84  C   UNL A   1      46.829  33.725  31.098  1.00  0.00     0.040 A 
ATOM     85  F   UNL A   1      46.219  31.546  31.723  1.00  0.00    -0.206 F 
ATOM     86  C   UNL A   1      46.937  34.720  30.127  1.00  0.00     0.006 A 
ENDBRANCH  62  79
ENDBRANCH  36  37
ENDBRANCH  28  31
ENDBRANCH  26  27
ENDBRANCH  25  26
ENDBRANCH  24  25
ENDBRANCH   1  24
TORSDOF 16
ENDMDL
MODEL 2
REMARK VINA RESULT:     -11.2      1.366      6.293
REMARK SMILES CC[C@](C)(NS(=O)(=O)c1ccc(OC)c(F)c1)C(=O)NCCCCNC(=O)c1ccc(-c2c3nc(c(-c4c(F)cccc4F)c4ccc([nH]4)c(-c4c(F)cccc4F)c4nc(c(-c5c(F)cccc5F)c5ccc2[nH]5)C=C4)C=C3)cc1
REMARK SMILES IDX 21 1 20 2 18 3 19 4 3 6 4 7 2 8 1 9 5 10 6 12 7 13 8 14 9 15
REMARK SMILES IDX 10 16 17 17 11 18 15 19 12 20 16 21 13 22 14 23 22 24 23 25
REMARK SMILES IDX 24 26 25 27 26 28 27 30 28 31 29 32 81 33 30 34 80 35 31 36
REMARK SMILES IDX 32 37 33 38 74 39 34 40 79 41 73 42 75 43 35 44 78 45 72 46
REMARK SMILES IDX 71 47 36 49 62 50 45 51 61 52 46 53 49 54 60 55 76 56 47 57
REMARK SMILES IDX 48 58 59 60 77 61 50 62 37 63 38 64 43 65 39 66 40 67 42 68
REMARK SMILES IDX 44 69 41 70 63 71 64 72 69 73 65 74 66 75 68 76 70 77 67 78
REMARK SMILES IDX 51 79 52 80 57 81 53 82 54 83 56 84 58 85 55 86
REMARK H PARENT 20 5 5 11 25 29 75 48 49 59
REMARK Flexibility Score: inf
ROOT
ATOM      1  C   UNL A   1      36.464  21.423  25.349  1.00  0.00     0.116 C 
ENDROOT
BRANCH   1   2
ATOM      2  N   UNL A   1      35.571  21.753  26.448  1.00  0.00    -0.354 N 
ATOM      3  C   UNL A   1      34.225  21.790  26.619  1.00  0.00     0.241 C 
ATOM      4  O   UNL A   1      33.879  21.691  27.807  1.00  0.00    -0.273 OA
ATOM      5  H   UNL A   1      36.060  22.013  27.262  1.00  0.00     0.163 HD
BRANCH   3   6
ATOM      6  C   UNL A   1      33.151  21.989  25.520  1.00  0.00     0.108 C 
ATOM      7  C   UNL A   1      32.072  22.973  26.108  1.00  0.00     0.040 C 
BRANCH   6   8
ATOM      8  C   UNL A   1      32.394  20.677  25.215  1.00  0.00     0.030 C 
ATOM      9  C   UNL A   1      32.500  20.246  23.739  1.00  0.00     0.006 C 
ENDBRANCH   6   8
BRANCH   6  10
ATOM     10  N   UNL A   1      33.519  22.748  24.300  1.00  0.00    -0.196 NA
ATOM     11  H   UNL A   1      32.627  22.825  23.814  1.00  0.00     0.142 HD
BRANCH  10  12
ATOM     12  S   UNL A   1      34.232  24.197  23.963  1.00  0.00     0.241 S 
ATOM     13  O   UNL A   1      34.972  24.593  25.144  1.00  0.00    -0.207 OA
ATOM     14  O   UNL A   1      34.948  23.941  22.738  1.00  0.00    -0.207 OA
BRANCH  12  15
ATOM     15  C   UNL A   1      33.052  25.461  23.557  1.00  0.00     0.085 A 
ATOM     16  C   UNL A   1      31.790  25.056  23.098  1.00  0.00     0.026 A 
ATOM     17  C   UNL A   1      33.324  26.818  23.646  1.00  0.00     0.065 A 
ATOM     18  C   UNL A   1      30.866  26.005  22.635  1.00  0.00     0.051 A 
ATOM     19  C   UNL A   1      32.442  27.750  23.087  1.00  0.00     0.166 A 
ATOM     20  C   UNL A   1      31.211  27.358  22.562  1.00  0.00     0.154 A 
ATOM     21  F   UNL A   1      32.841  29.029  23.043  1.00  0.00    -0.203 F 
BRANCH  20  22
ATOM     22  O   UNL A   1      30.268  28.160  21.979  1.00  0.00    -0.494 OA
ATOM     23  C   UNL A   1      29.328  28.790  22.845  1.00  0.00     0.278 C 
ENDBRANCH  20  22
ENDBRANCH  12  15
ENDBRANCH  10  12
ENDBRANCH   6  10
ENDBRANCH   3   6
ENDBRANCH   1   2
BRANCH   1  24
ATOM     24  C   UNL A   1      36.558  19.944  24.988  1.00  0.00     0.023 C 
BRANCH  24  25
ATOM     25  C   UNL A   1      37.955  19.371  24.808  1.00  0.00     0.023 C 
BRANCH  25  26
ATOM     26  C   UNL A   1      38.990  19.968  25.736  1.00  0.00     0.116 C 
BRANCH  26  27
ATOM     27  N   UNL A   1      40.185  19.143  25.812  1.00  0.00    -0.352 N 
ATOM     28  C   UNL A   1      41.489  19.501  26.053  1.00  0.00     0.251 C 
ATOM     29  H   UNL A   1      40.038  18.180  25.669  1.00  0.00     0.163 HD
ATOM     30  O   UNL A   1      42.393  18.699  25.832  1.00  0.00    -0.269 OA
BRANCH  28  31
ATOM     31  C   UNL A   1      41.810  20.847  26.578  1.00  0.00     0.039 A 
ATOM     32  C   UNL A   1      41.782  21.068  27.958  1.00  0.00     0.014 A 
ATOM     33  C   UNL A   1      42.100  21.903  25.712  1.00  0.00     0.014 A 
ATOM     34  C   UNL A   1      42.077  22.336  28.462  1.00  0.00     0.010 A 
ATOM     35  C   UNL A   1      42.517  23.125  26.217  1.00  0.00     0.010 A 
ATOM     36  C   UNL A   1      42.466  23.370  27.594  1.00  0.00    -0.014 A 
BRANCH  36  37
ATOM     37  C   UNL A   1      42.748  24.740  28.086  1.00  0.00     0.031 A 
ATOM     38  C   UNL A   1      44.164  25.128  28.426  1.00  0.00     0.074 A 
ATOM     39  C   UNL A   1      41.737  25.609  28.278  1.00  0.00     0.049 A 
ATOM     40  N   UNL A   1      44.614  26.239  28.951  1.00  0.00    -0.248 NA
ATOM     41  C   UNL A   1      45.212  24.121  28.177  1.00  0.00     0.031 C 
ATOM     42  C   UNL A   1      40.322  25.329  28.028  1.00  0.00     0.029 A 
ATOM     43  N   UNL A   1      41.746  26.903  28.731  1.00  0.00    -0.354 N 
ATOM     44  C   UNL A   1      45.981  26.051  29.113  1.00  0.00     0.074 A 
ATOM     45  C   UNL A   1      46.281  24.700  28.699  1.00  0.00     0.031 C 
ATOM     46  C   UNL A   1      39.604  26.434  28.289  1.00  0.00     0.029 A 
ATOM     47  C   UNL A   1      40.500  27.482  28.767  1.00  0.00     0.049 A 
ATOM     48  H   UNL A   1      42.566  27.373  29.003  1.00  0.00     0.167 HD
ATOM     49  C   UNL A   1      46.911  26.938  29.534  1.00  0.00     0.037 A 
ATOM     50  C   UNL A   1      40.126  28.719  29.146  1.00  0.00     0.037 A 
ATOM     51  C   UNL A   1      46.611  28.298  29.892  1.00  0.00     0.049 A 
ATOM     52  C   UNL A   1      41.178  29.688  29.609  1.00  0.00     0.074 A 
ATOM     53  C   UNL A   1      47.488  29.299  30.270  1.00  0.00     0.029 A 
ATOM     54  N   UNL A   1      45.338  28.847  29.907  1.00  0.00    -0.354 N 
ATOM     55  N   UNL A   1      42.474  29.514  29.709  1.00  0.00    -0.248 NA
ATOM     56  C   UNL A   1      40.719  31.026  30.011  1.00  0.00     0.031 C 
ATOM     57  C   UNL A   1      46.740  30.441  30.561  1.00  0.00     0.029 A 
ATOM     58  C   UNL A   1      45.404  30.170  30.309  1.00  0.00     0.049 A 
ATOM     59  H   UNL A   1      44.512  28.368  29.666  1.00  0.00     0.167 HD
ATOM     60  C   UNL A   1      42.988  30.723  30.159  1.00  0.00     0.074 A 
ATOM     61  C   UNL A   1      41.866  31.627  30.300  1.00  0.00     0.031 C 
ATOM     62  C   UNL A   1      44.274  31.055  30.431  1.00  0.00     0.037 A 
BRANCH  49  63
ATOM     63  C   UNL A   1      48.340  26.484  29.606  1.00  0.00     0.057 A 
ATOM     64  C   UNL A   1      48.861  25.949  30.791  1.00  0.00     0.134 A 
ATOM     65  C   UNL A   1      49.220  26.641  28.528  1.00  0.00     0.134 A 
ATOM     66  F   UNL A   1      48.074  25.773  31.864  1.00  0.00    -0.206 F 
ATOM     67  C   UNL A   1      50.208  25.604  30.906  1.00  0.00     0.040 A 
ATOM     68  C   UNL A   1      50.563  26.272  28.621  1.00  0.00     0.040 A 
ATOM     69  F   UNL A   1      48.782  27.133  27.358  1.00  0.00    -0.206 F 
ATOM     70  C   UNL A   1      51.063  25.763  29.817  1.00  0.00     0.006 A 
ENDBRANCH  49  63
BRANCH  50  71
ATOM     71  C   UNL A   1      38.698  29.116  29.060  1.00  0.00     0.057 A 
ATOM     72  C   UNL A   1      38.142  29.616  27.876  1.00  0.00     0.134 A 
ATOM     73  C   UNL A   1      37.858  29.030  30.177  1.00  0.00     0.134 A 
ATOM     74  F   UNL A   1      38.895  29.731  26.771  1.00  0.00    -0.206 F 
ATOM     75  C   UNL A   1      36.812  30.033  27.810  1.00  0.00     0.040 A 
ATOM     76  C   UNL A   1      36.519  29.419  30.119  1.00  0.00     0.040 A 
ATOM     77  F   UNL A   1      38.327  28.543  31.336  1.00  0.00    -0.206 F 
ATOM     78  C   UNL A   1      35.994  29.930  28.934  1.00  0.00     0.006 A 
ENDBRANCH  50  71
BRANCH  62  79
ATOM     79  C   UNL A   1      44.551  32.457  30.886  1.00  0.00     0.057 A 
ATOM     80  C   UNL A   1      44.938  33.440  29.966  1.00  0.00     0.134 A 
ATOM     81  C   UNL A   1      44.531  32.808  32.241  1.00  0.00     0.134 A 
ATOM     82  F   UNL A   1      44.991  33.162  28.655  1.00  0.00    -0.206 F 
ATOM     83  C   UNL A   1      45.313  34.717  30.380  1.00  0.00     0.040 A 
ATOM     84  C   UNL A   1      44.877  34.091  32.665  1.00  0.00     0.040 A 
ATOM     85  F   UNL A   1      44.163  31.912  33.170  1.00  0.00    -0.206 F 
ATOM     86  C   UNL A   1      45.281  35.046  31.733  1.00  0.00     0.006 A 
ENDBRANCH  62  79
ENDBRANCH  36  37
ENDBRANCH  28  31
ENDBRANCH  26  27
ENDBRANCH  25  26
ENDBRANCH  24  25
ENDBRANCH   1  24
TORSDOF 16
ENDMDL
MODEL 3
REMARK VINA RESULT:     -11.2      2.224      3.718
REMARK SMILES CC[C@](C)(NS(=O)(=O)c1ccc(OC)c(F)c1)C(=O)NCCCCNC(=O)c1ccc(-c2c3nc(c(-c4c(F)cccc4F)c4ccc([nH]4)c(-c4c(F)cccc4F)c4nc(c(-c5c(F)cccc5F)c5ccc2[nH]5)C=C4)C=C3)cc1
REMARK SMILES IDX 21 1 20 2 18 3 19 4 3 6 4 7 2 8 1 9 5 10 6 12 7 13 8 14 9 15
REMARK SMILES IDX 10 16 17 17 11 18 15 19 12 20 16 21 13 22 14 23 22 24 23 25
REMARK SMILES IDX 24 26 25 27 26 28 27 30 28 31 29 32 81 33 30 34 80 35 31 36
REMARK SMILES IDX 32 37 33 38 74 39 34 40 79 41 73 42 75 43 35 44 78 45 72 46
REMARK SMILES IDX 71 47 36 49 62 50 45 51 61 52 46 53 49 54 60 55 76 56 47 57
REMARK SMILES IDX 48 58 59 60 77 61 50 62 37 63 38 64 43 65 39 66 40 67 42 68
REMARK SMILES IDX 44 69 41 70 63 71 64 72 69 73 65 74 66 75 68 76 70 77 67 78
REMARK SMILES IDX 51 79 52 80 57 81 53 82 54 83 56 84 58 85 55 86
REMARK H PARENT 20 5 5 11 25 29 75 48 49 59
REMARK Flexibility Score: inf
ROOT
ATOM      1  C   UNL A   1      36.775  21.976  24.241  1.00  0.00     0.116 C 
ENDROOT
BRANCH   1   2
ATOM      2  N   UNL A   1      35.731  22.638  23.476  1.00  0.00    -0.354 N 
ATOM      3  C   UNL A   1      34.821  23.614  23.729  1.00  0.00     0.241 C 
ATOM      4  O   UNL A   1      34.422  24.191  22.705  1.00  0.00    -0.273 OA
ATOM      5  H   UNL A   1      35.668  22.298  22.554  1.00  0.00     0.163 HD
BRANCH   3   6
ATOM      6  C   UNL A   1      34.234  24.005  25.109  1.00  0.00     0.108 C 
ATOM      7  C   UNL A   1      34.284  25.576  25.198  1.00  0.00     0.040 C 
BRANCH   6   8
ATOM      8  C   UNL A   1      35.114  23.495  26.272  1.00  0.00     0.030 C 
ATOM      9  C   UNL A   1      34.303  22.810  27.389  1.00  0.00     0.006 C 
ENDBRANCH   6   8
BRANCH   6  10
ATOM     10  N   UNL A   1      32.783  23.804  25.343  1.00  0.00    -0.196 NA
ATOM     11  H   UNL A   1      32.401  24.730  25.154  1.00  0.00     0.142 HD
BRANCH  10  12
ATOM     12  S   UNL A   1      31.604  22.810  24.758  1.00  0.00     0.241 S 
ATOM     13  O   UNL A   1      30.528  22.807  25.728  1.00  0.00    -0.207 OA
ATOM     14  O   UNL A   1      31.356  23.326  23.435  1.00  0.00    -0.207 OA
BRANCH  12  15
ATOM     15  C   UNL A   1      32.175  21.146  24.507  1.00  0.00     0.085 A 
ATOM     16  C   UNL A   1      32.261  20.674  23.190  1.00  0.00     0.026 A 
ATOM     17  C   UNL A   1      32.513  20.289  25.545  1.00  0.00     0.065 A 
ATOM     18  C   UNL A   1      32.576  19.331  22.937  1.00  0.00     0.051 A 
ATOM     19  C   UNL A   1      32.722  18.929  25.293  1.00  0.00     0.166 A 
ATOM     20  C   UNL A   1      32.742  18.427  23.991  1.00  0.00     0.154 A 
ATOM     21  F   UNL A   1      32.867  18.119  26.352  1.00  0.00    -0.203 F 
BRANCH  20  22
ATOM     22  O   UNL A   1      32.922  17.127  23.610  1.00  0.00    -0.494 OA
ATOM     23  C   UNL A   1      34.112  16.821  22.887  1.00  0.00     0.278 C 
ENDBRANCH  20  22
ENDBRANCH  12  15
ENDBRANCH  10  12
ENDBRANCH   6  10
ENDBRANCH   3   6
ENDBRANCH   1   2
BRANCH   1  24
ATOM     24  C   UNL A   1      36.446  20.574  24.743  1.00  0.00     0.023 C 
BRANCH  24  25
ATOM     25  C   UNL A   1      37.619  19.628  24.949  1.00  0.00     0.023 C 
BRANCH  25  26
ATOM     26  C   UNL A   1      38.805  20.261  25.643  1.00  0.00     0.116 C 
BRANCH  26  27
ATOM     27  N   UNL A   1      39.919  19.332  25.760  1.00  0.00    -0.352 N 
ATOM     28  C   UNL A   1      41.239  19.573  26.052  1.00  0.00     0.251 C 
ATOM     29  H   UNL A   1      39.691  18.387  25.607  1.00  0.00     0.163 HD
ATOM     30  O   UNL A   1      42.075  18.694  25.861  1.00  0.00    -0.269 OA
BRANCH  28  31
ATOM     31  C   UNL A   1      41.659  20.884  26.595  1.00  0.00     0.039 A 
ATOM     32  C   UNL A   1      41.566  21.117  27.970  1.00  0.00     0.014 A 
ATOM     33  C   UNL A   1      42.105  21.900  25.748  1.00  0.00     0.014 A 
ATOM     34  C   UNL A   1      41.953  22.353  28.491  1.00  0.00     0.010 A 
ATOM     35  C   UNL A   1      42.609  23.078  26.278  1.00  0.00     0.010 A 
ATOM     36  C   UNL A   1      42.496  23.337  27.648  1.00  0.00    -0.014 A 
BRANCH  36  37
ATOM     37  C   UNL A   1      42.882  24.676  28.156  1.00  0.00     0.031 A 
ATOM     38  C   UNL A   1      41.817  25.720  28.373  1.00  0.00     0.074 A 
ATOM     39  C   UNL A   1      44.179  24.968  28.369  1.00  0.00     0.049 A 
ATOM     40  N   UNL A   1      41.947  26.973  28.726  1.00  0.00    -0.248 NA
ATOM     41  C   UNL A   1      40.421  25.313  28.126  1.00  0.00     0.031 C 
ATOM     42  C   UNL A   1      45.300  24.053  28.150  1.00  0.00     0.029 A 
ATOM     43  N   UNL A   1      44.773  26.121  28.814  1.00  0.00    -0.354 N 
ATOM     44  C   UNL A   1      40.662  27.501  28.719  1.00  0.00     0.074 A 
ATOM     45  C   UNL A   1      39.773  26.459  28.261  1.00  0.00     0.031 C 
ATOM     46  C   UNL A   1      46.441  24.665  28.503  1.00  0.00     0.029 A 
ATOM     47  C   UNL A   1      46.138  26.028  28.929  1.00  0.00     0.049 A 
ATOM     48  H   UNL A   1      44.268  26.938  29.032  1.00  0.00     0.167 HD
ATOM     49  C   UNL A   1      40.254  28.733  29.096  1.00  0.00     0.037 A 
ATOM     50  C   UNL A   1      47.043  26.942  29.332  1.00  0.00     0.037 A 
ATOM     51  C   UNL A   1      41.139  29.747  29.602  1.00  0.00     0.049 A 
ATOM     52  C   UNL A   1      46.565  28.305  29.748  1.00  0.00     0.074 A 
ATOM     53  C   UNL A   1      40.820  31.008  30.073  1.00  0.00     0.029 A 
ATOM     54  N   UNL A   1      42.514  29.609  29.710  1.00  0.00    -0.354 N 
ATOM     55  N   UNL A   1      45.340  28.775  29.784  1.00  0.00    -0.248 NA
ATOM     56  C   UNL A   1      47.589  29.267  30.180  1.00  0.00     0.031 C 
ATOM     57  C   UNL A   1      42.009  31.651  30.422  1.00  0.00     0.029 A 
ATOM     58  C   UNL A   1      43.062  30.773  30.222  1.00  0.00     0.049 A 
ATOM     59  H   UNL A   1      43.025  28.804  29.462  1.00  0.00     0.167 HD
ATOM     60  C   UNL A   1      45.444  30.073  30.266  1.00  0.00     0.074 A 
ATOM     61  C   UNL A   1      46.849  30.313  30.520  1.00  0.00     0.031 C 
ATOM     62  C   UNL A   1      44.464  30.985  30.478  1.00  0.00     0.037 A 
BRANCH  49  63
ATOM     63  C   UNL A   1      38.790  29.052  29.005  1.00  0.00     0.057 A 
ATOM     64  C   UNL A   1      38.235  29.530  27.811  1.00  0.00     0.134 A 
ATOM     65  C   UNL A   1      37.942  28.954  30.116  1.00  0.00     0.134 A 
ATOM     66  F   UNL A   1      38.990  29.651  26.708  1.00  0.00    -0.206 F 
ATOM     67  C   UNL A   1      36.896  29.916  27.731  1.00  0.00     0.040 A 
ATOM     68  C   UNL A   1      36.594  29.309  30.041  1.00  0.00     0.040 A 
ATOM     69  F   UNL A   1      38.406  28.488  31.286  1.00  0.00    -0.206 F 
ATOM     70  C   UNL A   1      36.070  29.804  28.849  1.00  0.00     0.006 A 
ENDBRANCH  49  63
BRANCH  50  71
ATOM     71  C   UNL A   1      48.480  26.577  29.398  1.00  0.00     0.057 A 
ATOM     72  C   UNL A   1      49.034  25.966  30.531  1.00  0.00     0.134 A 
ATOM     73  C   UNL A   1      49.345  26.859  28.334  1.00  0.00     0.134 A 
ATOM     74  F   UNL A   1      48.261  25.675  31.588  1.00  0.00    -0.206 F 
ATOM     75  C   UNL A   1      50.394  25.667  30.610  1.00  0.00     0.040 A 
ATOM     76  C   UNL A   1      50.703  26.542  28.388  1.00  0.00     0.040 A 
ATOM     77  F   UNL A   1      48.872  27.428  27.215  1.00  0.00    -0.206 F 
ATOM     78  C   UNL A   1      51.233  25.951  29.533  1.00  0.00     0.006 A 
ENDBRANCH  50  71
BRANCH  62  79
ATOM     79  C   UNL A   1      44.861  32.320  31.034  1.00  0.00     0.057 A 
ATOM     80  C   UNL A   1      44.844  32.549  32.416  1.00  0.00     0.134 A 
ATOM     81  C   UNL A   1      45.165  33.403  30.200  1.00  0.00     0.134 A 
ATOM     82  F   UNL A   1      44.546  31.556  33.267  1.00  0.00    -0.206 F 
ATOM     83  C   UNL A   1      45.096  33.813  32.948  1.00  0.00     0.040 A 
ATOM     84  C   UNL A   1      45.447  34.665  30.722  1.00  0.00     0.040 A 
ATOM     85  F   UNL A   1      45.204  33.245  28.868  1.00  0.00    -0.206 F 
ATOM     86  C   UNL A   1      45.401  34.875  32.100  1.00  0.00     0.006 A 
ENDBRANCH  62  79
ENDBRANCH  36  37
ENDBRANCH  28  31
ENDBRANCH  26  27
ENDBRANCH  25  26
ENDBRANCH  24  25
ENDBRANCH   1  24
TORSDOF 16
ENDMDL
