MODEL 1
REMARK VINA RESULT:     -12.8      0.000      0.000
REMARK SMILES COc1ccc([C@H]2CC(c3ccc(S(C)(=O)=O)cc3)=NN2c2ccc(C(=O)NCCCCNC(=O)c3ccc(-c4c5nc(c(-c6c(F)cccc6F)c6ccc([nH]6)c(-c6c(F)cccc6F)c6nc(c(-c7c(F)cccc7F)c7ccc4[nH]7)C=C6)C=C5)cc3)cc2)cc1
REMARK SMILES IDX 30 1 29 2 28 3 26 4 27 5 25 7 22 8 23 9 91 10 24 11 90 12
REMARK SMILES IDX 21 13 7 14 8 15 9 16 20 17 6 18 3 19 4 20 93 21 5 22 92 23
REMARK SMILES IDX 2 24 1 25 10 26 11 27 19 28 12 29 18 30 13 31 14 32 15 33
REMARK SMILES IDX 16 34 17 35 31 36 32 37 33 38 34 39 35 41 36 42 37 43 89 44
REMARK SMILES IDX 38 45 88 46 39 47 40 48 41 49 82 50 42 51 87 52 81 53 83 54
REMARK SMILES IDX 43 55 86 56 80 57 79 58 44 60 70 61 53 62 69 63 54 64 57 65
REMARK SMILES IDX 68 66 84 67 55 68 56 69 67 71 85 72 58 73 45 74 46 75 51 76
REMARK SMILES IDX 47 77 48 78 50 79 52 80 49 81 71 82 72 83 77 84 73 85 74 86
REMARK SMILES IDX 76 87 78 88 75 89 59 90 60 91 65 92 61 93 62 94 64 95 66 96
REMARK SMILES IDX 63 97
REMARK H PARENT 28 6 33 40 83 59 57 70
REMARK Flexibility Score: inf
ROOT
ATOM      1  C   UNL A   1      40.543  25.563  26.754  1.00  0.00     0.023 C 
ENDROOT
BRANCH   1   2
ATOM      2  C   UNL A   1      39.229  24.813  26.987  1.00  0.00     0.116 C 
BRANCH   2   3
ATOM      3  N   UNL A   1      39.374  23.418  26.624  1.00  0.00    -0.352 N 
ATOM      4  C   UNL A   1      38.563  22.574  25.908  1.00  0.00     0.251 C 
ATOM      5  O   UNL A   1      38.951  21.416  25.750  1.00  0.00    -0.269 OA
ATOM      6  H   UNL A   1      40.203  23.000  26.950  1.00  0.00     0.163 HD
BRANCH   4   7
ATOM      7  C   UNL A   1      37.287  23.010  25.270  1.00  0.00     0.039 A 
ATOM      8  C   UNL A   1      34.748  23.754  24.284  1.00  0.00     0.060 A 
ATOM      9  C   UNL A   1      35.135  24.087  25.586  1.00  0.00     0.029 A 
ATOM     10  C   UNL A   1      35.673  23.124  23.456  1.00  0.00     0.029 A 
ATOM     11  C   UNL A   1      36.381  23.703  26.083  1.00  0.00     0.016 A 
ATOM     12  C   UNL A   1      36.942  22.790  23.933  1.00  0.00     0.016 A 
BRANCH   8  13
ATOM     13  N   UNL A   1      33.455  24.000  23.865  1.00  0.00    -0.257 N 
ATOM     14  C   UNL A   1      32.632  23.028  23.146  1.00  0.00     0.144 C 
ATOM     15  C   UNL A   1      31.310  23.790  22.980  1.00  0.00     0.091 C 
ATOM     16  C   UNL A   1      31.759  25.165  23.397  1.00  0.00     0.071 C 
ATOM     17  N   UNL A   1      32.953  25.252  23.895  1.00  0.00    -0.176 NA
BRANCH  14  18
ATOM     18  C   UNL A   1      32.523  21.725  23.919  1.00  0.00    -0.023 A 
ATOM     19  C   UNL A   1      32.582  19.272  25.314  1.00  0.00     0.118 A 
ATOM     20  C   UNL A   1      32.445  19.295  23.926  1.00  0.00     0.047 A 
ATOM     21  C   UNL A   1      32.691  20.475  26.009  1.00  0.00     0.047 A 
ATOM     22  C   UNL A   1      32.408  20.508  23.231  1.00  0.00     0.010 A 
ATOM     23  C   UNL A   1      32.658  21.689  25.316  1.00  0.00     0.010 A 
BRANCH  19  24
ATOM     24  O   UNL A   1      32.647  18.024  25.869  1.00  0.00    -0.497 OA
ATOM     25  C   UNL A   1      33.056  16.974  25.001  1.00  0.00     0.278 C 
ENDBRANCH  19  24
ENDBRANCH  14  18
BRANCH  16  26
ATOM     26  C   UNL A   1      30.900  26.342  23.241  1.00  0.00    -0.002 A 
ATOM     27  C   UNL A   1      29.594  26.280  23.743  1.00  0.00     0.011 A 
ATOM     28  C   UNL A   1      31.351  27.469  22.552  1.00  0.00     0.011 A 
ATOM     29  C   UNL A   1      28.731  27.359  23.562  1.00  0.00     0.021 A 
ATOM     30  C   UNL A   1      30.480  28.540  22.346  1.00  0.00     0.021 A 
ATOM     31  C   UNL A   1      29.174  28.475  22.846  1.00  0.00     0.067 A 
BRANCH  31  32
ATOM     32  S   UNL A   1      28.049  29.826  22.580  1.00  0.00     0.175 S 
ATOM     33  C   UNL A   1      28.846  31.212  23.351  1.00  0.00     0.163 C 
ATOM     34  O   UNL A   1      28.004  30.054  21.151  1.00  0.00    -0.224 OA
ATOM     35  O   UNL A   1      26.841  29.543  23.332  1.00  0.00    -0.224 OA
ENDBRANCH  31  32
ENDBRANCH  16  26
ENDBRANCH   8  13
ENDBRANCH   4   7
ENDBRANCH   2   3
ENDBRANCH   1   2
BRANCH   1  36
ATOM     36  C   UNL A   1      41.546  24.811  25.882  1.00  0.00     0.023 C 
BRANCH  36  37
ATOM     37  C   UNL A   1      42.560  25.701  25.180  1.00  0.00     0.116 C 
BRANCH  37  38
ATOM     38  N   UNL A   1      43.908  25.149  25.175  1.00  0.00    -0.352 N 
ATOM     39  C   UNL A   1      44.870  25.280  26.149  1.00  0.00     0.251 C 
ATOM     40  H   UNL A   1      44.160  24.622  24.383  1.00  0.00     0.163 HD
ATOM     41  O   UNL A   1      46.004  24.846  25.986  1.00  0.00    -0.269 OA
BRANCH  39  42
ATOM     42  C   UNL A   1      44.512  26.004  27.382  1.00  0.00     0.039 A 
ATOM     43  C   UNL A   1      44.657  27.391  27.419  1.00  0.00     0.014 A 
ATOM     44  C   UNL A   1      43.933  25.314  28.451  1.00  0.00     0.014 A 
ATOM     45  C   UNL A   1      44.144  28.103  28.504  1.00  0.00     0.010 A 
ATOM     46  C   UNL A   1      43.359  26.030  29.492  1.00  0.00     0.010 A 
ATOM     47  C   UNL A   1      43.452  27.431  29.525  1.00  0.00    -0.014 A 
BRANCH  47  48
ATOM     48  C   UNL A   1      42.804  28.164  30.639  1.00  0.00     0.031 A 
ATOM     49  C   UNL A   1      41.508  28.885  30.399  1.00  0.00     0.074 A 
ATOM     50  C   UNL A   1      43.428  28.266  31.828  1.00  0.00     0.049 A 
ATOM     51  N   UNL A   1      40.853  29.694  31.190  1.00  0.00    -0.248 NA
ATOM     52  C   UNL A   1      40.887  28.697  29.079  1.00  0.00     0.031 C 
ATOM     53  C   UNL A   1      44.712  27.650  32.168  1.00  0.00     0.029 A 
ATOM     54  N   UNL A   1      43.075  28.947  32.965  1.00  0.00    -0.354 N 
ATOM     55  C   UNL A   1      39.758  30.130  30.457  1.00  0.00     0.074 A 
ATOM     56  C   UNL A   1      39.863  29.536  29.142  1.00  0.00     0.031 C 
ATOM     57  C   UNL A   1      45.033  27.972  33.432  1.00  0.00     0.029 A 
ATOM     58  C   UNL A   1      44.000  28.849  33.976  1.00  0.00     0.049 A 
ATOM     59  H   UNL A   1      42.238  29.458  33.050  1.00  0.00     0.167 HD
ATOM     60  C   UNL A   1      38.746  30.939  30.850  1.00  0.00     0.037 A 
ATOM     61  C   UNL A   1      44.021  29.415  35.197  1.00  0.00     0.037 A 
ATOM     62  C   UNL A   1      38.631  31.504  32.168  1.00  0.00     0.049 A 
ATOM     63  C   UNL A   1      42.885  30.307  35.614  1.00  0.00     0.074 A 
ATOM     64  C   UNL A   1      37.612  32.284  32.685  1.00  0.00     0.029 A 
ATOM     65  N   UNL A   1      39.570  31.349  33.177  1.00  0.00    -0.354 N 
ATOM     66  N   UNL A   1      41.822  30.662  34.932  1.00  0.00    -0.248 NA
ATOM     67  C   UNL A   1      42.945  30.872  36.969  1.00  0.00     0.031 C 
ATOM     68  C   UNL A   1      37.953  32.634  33.996  1.00  0.00     0.029 A 
ATOM     69  C   UNL A   1      39.162  32.033  34.310  1.00  0.00     0.049 A 
ATOM     70  H   UNL A   1      40.403  30.829  33.100  1.00  0.00     0.167 HD
ATOM     71  C   UNL A   1      41.074  31.465  35.784  1.00  0.00     0.074 A 
ATOM     72  C   UNL A   1      41.801  31.538  37.034  1.00  0.00     0.031 C 
ATOM     73  C   UNL A   1      39.890  32.081  35.553  1.00  0.00     0.037 A 
BRANCH  60  74
ATOM     74  C   UNL A   1      37.685  31.258  29.837  1.00  0.00     0.057 A 
ATOM     75  C   UNL A   1      36.630  30.376  29.569  1.00  0.00     0.134 A 
ATOM     76  C   UNL A   1      37.707  32.471  29.138  1.00  0.00     0.134 A 
ATOM     77  F   UNL A   1      36.558  29.191  30.194  1.00  0.00    -0.206 F 
ATOM     78  C   UNL A   1      35.652  30.676  28.620  1.00  0.00     0.040 A 
ATOM     79  C   UNL A   1      36.719  32.795  28.207  1.00  0.00     0.040 A 
ATOM     80  F   UNL A   1      38.687  33.363  29.350  1.00  0.00    -0.206 F 
ATOM     81  C   UNL A   1      35.692  31.892  27.940  1.00  0.00     0.006 A 
ENDBRANCH  60  74
BRANCH  61  82
ATOM     82  C   UNL A   1      45.148  29.139  36.125  1.00  0.00     0.057 A 
ATOM     83  C   UNL A   1      46.272  29.972  36.160  1.00  0.00     0.134 A 
ATOM     84  C   UNL A   1      45.130  28.042  36.995  1.00  0.00     0.134 A 
ATOM     85  F   UNL A   1      46.354  31.028  35.337  1.00  0.00    -0.206 F 
ATOM     86  C   UNL A   1      47.346  29.717  37.013  1.00  0.00     0.040 A 
ATOM     87  C   UNL A   1      46.187  27.788  37.870  1.00  0.00     0.040 A 
ATOM     88  F   UNL A   1      44.078  27.212  37.015  1.00  0.00    -0.206 F 
ATOM     89  C   UNL A   1      47.302  28.624  37.877  1.00  0.00     0.006 A 
ENDBRANCH  61  82
BRANCH  73  90
ATOM     90  C   UNL A   1      39.277  32.848  36.687  1.00  0.00     0.057 A 
ATOM     91  C   UNL A   1      38.304  32.287  37.522  1.00  0.00     0.134 A 
ATOM     92  C   UNL A   1      39.711  34.148  36.978  1.00  0.00     0.134 A 
ATOM     93  F   UNL A   1      37.837  31.052  37.288  1.00  0.00    -0.206 F 
ATOM     94  C   UNL A   1      37.771  33.000  38.598  1.00  0.00     0.040 A 
ATOM     95  C   UNL A   1      39.206  34.859  38.066  1.00  0.00     0.040 A 
ATOM     96  F   UNL A   1      40.649  34.739  36.221  1.00  0.00    -0.206 F 
ATOM     97  C   UNL A   1      38.228  34.286  38.877  1.00  0.00     0.006 A 
ENDBRANCH  73  90
ENDBRANCH  47  48
ENDBRANCH  39  42
ENDBRANCH  37  38
ENDBRANCH  36  37
ENDBRANCH   1  36
TORSDOF 16
ENDMDL
MODEL 2
REMARK VINA RESULT:     -12.7      4.508     10.311
REMARK SMILES COc1ccc([C@H]2CC(c3ccc(S(C)(=O)=O)cc3)=NN2c2ccc(C(=O)NCCCCNC(=O)c3ccc(-c4c5nc(c(-c6c(F)cccc6F)c6ccc([nH]6)c(-c6c(F)cccc6F)c6nc(c(-c7c(F)cccc7F)c7ccc4[nH]7)C=C6)C=C5)cc3)cc2)cc1
REMARK SMILES IDX 30 1 29 2 28 3 26 4 27 5 25 7 22 8 23 9 91 10 24 11 90 12
REMARK SMILES IDX 21 13 7 14 8 15 9 16 20 17 6 18 3 19 4 20 93 21 5 22 92 23
REMARK SMILES IDX 2 24 1 25 10 26 11 27 19 28 12 29 18 30 13 31 14 32 15 33
REMARK SMILES IDX 16 34 17 35 31 36 32 37 33 38 34 39 35 41 36 42 37 43 89 44
REMARK SMILES IDX 38 45 88 46 39 47 40 48 41 49 82 50 42 51 87 52 81 53 83 54
REMARK SMILES IDX 43 55 86 56 80 57 79 58 44 60 70 61 53 62 69 63 54 64 57 65
REMARK SMILES IDX 68 66 84 67 55 68 56 69 67 71 85 72 58 73 45 74 46 75 51 76
REMARK SMILES IDX 47 77 48 78 50 79 52 80 49 81 71 82 72 83 77 84 73 85 74 86
REMARK SMILES IDX 76 87 78 88 75 89 59 90 60 91 65 92 61 93 62 94 64 95 66 96
REMARK SMILES IDX 63 97
REMARK H PARENT 28 6 33 40 83 59 57 70
REMARK Flexibility Score: inf
ROOT
ATOM      1  C   UNL A   1      36.641  30.002  30.076  1.00  0.00     0.023 C 
ENDROOT
BRANCH   1   2
ATOM      2  C   UNL A   1      35.982  29.505  28.786  1.00  0.00     0.116 C 
BRANCH   2   3
ATOM      3  N   UNL A   1      35.020  30.475  28.305  1.00  0.00    -0.352 N 
ATOM      4  C   UNL A   1      33.882  30.332  27.552  1.00  0.00     0.251 C 
ATOM      5  O   UNL A   1      33.244  31.353  27.293  1.00  0.00    -0.269 OA
ATOM      6  H   UNL A   1      35.218  31.404  28.565  1.00  0.00     0.163 HD
BRANCH   4   7
ATOM      7  C   UNL A   1      33.360  29.010  27.099  1.00  0.00     0.039 A 
ATOM      8  C   UNL A   1      32.446  26.577  25.995  1.00  0.00     0.060 A 
ATOM      9  C   UNL A   1      33.700  27.093  25.649  1.00  0.00     0.029 A 
ATOM     10  C   UNL A   1      31.696  27.244  26.960  1.00  0.00     0.029 A 
ATOM     11  C   UNL A   1      34.145  28.306  26.178  1.00  0.00     0.016 A 
ATOM     12  C   UNL A   1      32.166  28.427  27.532  1.00  0.00     0.016 A 
BRANCH   8  13
ATOM     13  N   UNL A   1      31.955  25.464  25.342  1.00  0.00    -0.257 N 
ATOM     14  C   UNL A   1      30.605  25.371  24.789  1.00  0.00     0.144 C 
ATOM     15  C   UNL A   1      30.615  23.976  24.151  1.00  0.00     0.091 C 
ATOM     16  C   UNL A   1      31.899  23.445  24.730  1.00  0.00     0.071 C 
ATOM     17  N   UNL A   1      32.630  24.296  25.380  1.00  0.00    -0.176 NA
BRANCH  14  18
ATOM     18  C   UNL A   1      30.329  26.512  23.824  1.00  0.00    -0.023 A 
ATOM     19  C   UNL A   1      29.865  28.796  22.232  1.00  0.00     0.118 A 
ATOM     20  C   UNL A   1      28.844  28.259  23.017  1.00  0.00     0.047 A 
ATOM     21  C   UNL A   1      31.121  28.192  22.241  1.00  0.00     0.047 A 
ATOM     22  C   UNL A   1      29.067  27.124  23.802  1.00  0.00     0.010 A 
ATOM     23  C   UNL A   1      31.348  27.059  23.028  1.00  0.00     0.010 A 
BRANCH  19  24
ATOM     24  O   UNL A   1      29.532  29.930  21.545  1.00  0.00    -0.497 OA
ATOM     25  C   UNL A   1      28.198  30.393  21.712  1.00  0.00     0.278 C 
ENDBRANCH  19  24
ENDBRANCH  14  18
BRANCH  16  26
ATOM     26  C   UNL A   1      32.297  22.042  24.578  1.00  0.00    -0.002 A 
ATOM     27  C   UNL A   1      32.917  21.409  25.663  1.00  0.00     0.011 A 
ATOM     28  C   UNL A   1      32.121  21.379  23.363  1.00  0.00     0.011 A 
ATOM     29  C   UNL A   1      33.359  20.094  25.535  1.00  0.00     0.021 A 
ATOM     30  C   UNL A   1      32.588  20.070  23.225  1.00  0.00     0.021 A 
ATOM     31  C   UNL A   1      33.210  19.439  24.308  1.00  0.00     0.067 A 
BRANCH  31  32
ATOM     32  S   UNL A   1      33.821  17.778  24.142  1.00  0.00     0.175 S 
ATOM     33  C   UNL A   1      32.888  16.852  25.335  1.00  0.00     0.163 C 
ATOM     34  O   UNL A   1      33.450  17.329  22.816  1.00  0.00    -0.224 OA
ATOM     35  O   UNL A   1      35.206  17.777  24.574  1.00  0.00    -0.224 OA
ENDBRANCH  31  32
ENDBRANCH  16  26
ENDBRANCH   8  13
ENDBRANCH   4   7
ENDBRANCH   2   3
ENDBRANCH   1   2
BRANCH   1  36
ATOM     36  C   UNL A   1      35.876  31.124  30.775  1.00  0.00     0.023 C 
BRANCH  36  37
ATOM     37  C   UNL A   1      36.053  31.159  32.286  1.00  0.00     0.116 C 
BRANCH  37  38
ATOM     38  N   UNL A   1      36.077  32.509  32.833  1.00  0.00    -0.352 N 
ATOM     39  C   UNL A   1      37.150  33.367  32.898  1.00  0.00     0.251 C 
ATOM     40  H   UNL A   1      35.228  32.845  33.200  1.00  0.00     0.163 HD
ATOM     41  O   UNL A   1      37.067  34.446  33.471  1.00  0.00    -0.269 OA
BRANCH  39  42
ATOM     42  C   UNL A   1      38.424  32.929  32.299  1.00  0.00     0.039 A 
ATOM     43  C   UNL A   1      39.281  32.121  33.047  1.00  0.00     0.014 A 
ATOM     44  C   UNL A   1      38.705  33.232  30.964  1.00  0.00     0.014 A 
ATOM     45  C   UNL A   1      40.391  31.546  32.428  1.00  0.00     0.010 A 
ATOM     46  C   UNL A   1      39.767  32.600  30.333  1.00  0.00     0.010 A 
ATOM     47  C   UNL A   1      40.615  31.746  31.056  1.00  0.00    -0.014 A 
BRANCH  47  48
ATOM     48  C   UNL A   1      41.723  31.068  30.341  1.00  0.00     0.031 A 
ATOM     49  C   UNL A   1      42.998  31.813  30.067  1.00  0.00     0.074 A 
ATOM     50  C   UNL A   1      41.545  29.826  29.851  1.00  0.00     0.049 A 
ATOM     51  N   UNL A   1      44.026  31.457  29.342  1.00  0.00    -0.248 NA
ATOM     52  C   UNL A   1      43.115  33.155  30.661  1.00  0.00     0.031 C 
ATOM     53  C   UNL A   1      40.334  29.017  30.010  1.00  0.00     0.029 A 
ATOM     54  N   UNL A   1      42.376  29.035  29.099  1.00  0.00    -0.354 N 
ATOM     55  C   UNL A   1      44.898  32.536  29.372  1.00  0.00     0.074 A 
ATOM     56  C   UNL A   1      44.258  33.578  30.145  1.00  0.00     0.031 C 
ATOM     57  C   UNL A   1      40.507  27.841  29.385  1.00  0.00     0.029 A 
ATOM     58  C   UNL A   1      41.820  27.829  28.747  1.00  0.00     0.049 A 
ATOM     59  H   UNL A   1      43.285  29.306  28.835  1.00  0.00     0.167 HD
ATOM     60  C   UNL A   1      46.130  32.642  28.819  1.00  0.00     0.037 A 
ATOM     61  C   UNL A   1      42.307  26.834  27.983  1.00  0.00     0.037 A 
ATOM     62  C   UNL A   1      46.774  31.592  28.076  1.00  0.00     0.049 A 
ATOM     63  C   UNL A   1      43.679  26.972  27.383  1.00  0.00     0.074 A 
ATOM     64  C   UNL A   1      48.045  31.577  27.531  1.00  0.00     0.029 A 
ATOM     65  N   UNL A   1      46.192  30.369  27.775  1.00  0.00    -0.354 N 
ATOM     66  N   UNL A   1      44.521  27.974  27.470  1.00  0.00    -0.248 NA
ATOM     67  C   UNL A   1      44.172  25.842  26.584  1.00  0.00     0.031 C 
ATOM     68  C   UNL A   1      48.219  30.360  26.864  1.00  0.00     0.029 A 
ATOM     69  C   UNL A   1      47.074  29.598  27.035  1.00  0.00     0.049 A 
ATOM     70  H   UNL A   1      45.288  30.091  28.046  1.00  0.00     0.167 HD
ATOM     71  C   UNL A   1      45.652  27.583  26.766  1.00  0.00     0.074 A 
ATOM     72  C   UNL A   1      45.392  26.250  26.264  1.00  0.00     0.031 C 
ATOM     73  C   UNL A   1      46.805  28.265  26.558  1.00  0.00     0.037 A 
BRANCH  60  74
ATOM     74  C   UNL A   1      46.857  33.942  29.002  1.00  0.00     0.057 A 
ATOM     75  C   UNL A   1      47.724  34.160  30.081  1.00  0.00     0.134 A 
ATOM     76  C   UNL A   1      46.706  34.981  28.074  1.00  0.00     0.134 A 
ATOM     77  F   UNL A   1      47.902  33.211  31.013  1.00  0.00    -0.206 F 
ATOM     78  C   UNL A   1      48.390  35.375  30.249  1.00  0.00     0.040 A 
ATOM     79  C   UNL A   1      47.389  36.190  28.216  1.00  0.00     0.040 A 
ATOM     80  F   UNL A   1      45.896  34.837  27.015  1.00  0.00    -0.206 F 
ATOM     81  C   UNL A   1      48.228  36.392  29.310  1.00  0.00     0.006 A 
ENDBRANCH  60  74
BRANCH  61  82
ATOM     82  C   UNL A   1      41.501  25.607  27.757  1.00  0.00     0.057 A 
ATOM     83  C   UNL A   1      40.439  25.602  26.847  1.00  0.00     0.134 A 
ATOM     84  C   UNL A   1      41.771  24.416  28.442  1.00  0.00     0.134 A 
ATOM     85  F   UNL A   1      40.121  26.717  26.174  1.00  0.00    -0.206 F 
ATOM     86  C   UNL A   1      39.661  24.462  26.637  1.00  0.00     0.040 A 
ATOM     87  C   UNL A   1      41.017  23.262  28.224  1.00  0.00     0.040 A 
ATOM     88  F   UNL A   1      42.781  24.355  29.321  1.00  0.00    -0.206 F 
ATOM     89  C   UNL A   1      39.954  23.285  27.323  1.00  0.00     0.006 A 
ENDBRANCH  61  82
BRANCH  73  90
ATOM     90  C   UNL A   1      47.893  27.567  25.797  1.00  0.00     0.057 A 
ATOM     91  C   UNL A   1      47.937  27.568  24.398  1.00  0.00     0.134 A 
ATOM     92  C   UNL A   1      48.939  26.933  26.480  1.00  0.00     0.134 A 
ATOM     93  F   UNL A   1      46.959  28.147  23.687  1.00  0.00    -0.206 F 
ATOM     94  C   UNL A   1      48.978  26.947  23.704  1.00  0.00     0.040 A 
ATOM     95  C   UNL A   1      49.996  26.332  25.798  1.00  0.00     0.040 A 
ATOM     96  F   UNL A   1      48.959  26.904  27.822  1.00  0.00    -0.206 F 
ATOM     97  C   UNL A   1      50.015  26.334  24.404  1.00  0.00     0.006 A 
ENDBRANCH  73  90
ENDBRANCH  47  48
ENDBRANCH  39  42
ENDBRANCH  37  38
ENDBRANCH  36  37
ENDBRANCH   1  36
TORSDOF 16
ENDMDL
MODEL 3
REMARK VINA RESULT:     -12.7      0.505      5.797
REMARK SMILES COc1ccc([C@H]2CC(c3ccc(S(C)(=O)=O)cc3)=NN2c2ccc(C(=O)NCCCCNC(=O)c3ccc(-c4c5nc(c(-c6c(F)cccc6F)c6ccc([nH]6)c(-c6c(F)cccc6F)c6nc(c(-c7c(F)cccc7F)c7ccc4[nH]7)C=C6)C=C5)cc3)cc2)cc1
REMARK SMILES IDX 30 1 29 2 28 3 26 4 27 5 25 7 22 8 23 9 91 10 24 11 90 12
REMARK SMILES IDX 21 13 7 14 8 15 9 16 20 17 6 18 3 19 4 20 93 21 5 22 92 23
REMARK SMILES IDX 2 24 1 25 10 26 11 27 19 28 12 29 18 30 13 31 14 32 15 33
REMARK SMILES IDX 16 34 17 35 31 36 32 37 33 38 34 39 35 41 36 42 37 43 89 44
REMARK SMILES IDX 38 45 88 46 39 47 40 48 41 49 82 50 42 51 87 52 81 53 83 54
REMARK SMILES IDX 43 55 86 56 80 57 79 58 44 60 70 61 53 62 69 63 54 64 57 65
REMARK SMILES IDX 68 66 84 67 55 68 56 69 67 71 85 72 58 73 45 74 46 75 51 76
REMARK SMILES IDX 47 77 48 78 50 79 52 80 49 81 71 82 72 83 77 84 73 85 74 86
REMARK SMILES IDX 76 87 78 88 75 89 59 90 60 91 65 92 61 93 62 94 64 95 66 96
REMARK SMILES IDX 63 97
REMARK H PARENT 28 6 33 40 83 59 57 70
REMARK Flexibility Score: inf
ROOT
ATOM      1  C   UNL A   1      40.853  25.399  26.510  1.00  0.00     0.023 C 
ENDROOT
BRANCH   1   2
ATOM      2  C   UNL A   1      39.436  24.818  26.531  1.00  0.00     0.116 C 
BRANCH   2   3
ATOM      3  N   UNL A   1      39.481  23.376  26.407  1.00  0.00    -0.352 N 
ATOM      4  C   UNL A   1      38.580  22.478  25.891  1.00  0.00     0.251 C 
ATOM      5  O   UNL A   1      38.893  21.288  25.914  1.00  0.00    -0.269 OA
ATOM      6  H   UNL A   1      40.305  22.965  26.754  1.00  0.00     0.163 HD
BRANCH   4   7
ATOM      7  C   UNL A   1      37.292  22.883  25.257  1.00  0.00     0.039 A 
ATOM      8  C   UNL A   1      34.730  23.543  24.270  1.00  0.00     0.060 A 
ATOM      9  C   UNL A   1      35.070  23.798  25.603  1.00  0.00     0.029 A 
ATOM     10  C   UNL A   1      35.709  23.036  23.419  1.00  0.00     0.029 A 
ATOM     11  C   UNL A   1      36.329  23.454  26.098  1.00  0.00     0.016 A 
ATOM     12  C   UNL A   1      36.987  22.745  23.900  1.00  0.00     0.016 A 
BRANCH   8  13
ATOM     13  N   UNL A   1      33.433  23.740  23.840  1.00  0.00    -0.257 N 
ATOM     14  C   UNL A   1      32.643  22.730  23.137  1.00  0.00     0.144 C 
ATOM     15  C   UNL A   1      31.300  23.447  22.949  1.00  0.00     0.091 C 
ATOM     16  C   UNL A   1      31.704  24.843  23.341  1.00  0.00     0.071 C 
ATOM     17  N   UNL A   1      32.893  24.976  23.842  1.00  0.00    -0.176 NA
BRANCH  14  18
ATOM     18  C   UNL A   1      32.571  21.439  23.935  1.00  0.00    -0.023 A 
ATOM     19  C   UNL A   1      32.697  19.017  25.379  1.00  0.00     0.118 A 
ATOM     20  C   UNL A   1      32.561  19.008  23.991  1.00  0.00     0.047 A 
ATOM     21  C   UNL A   1      32.771  20.236  26.050  1.00  0.00     0.047 A 
ATOM     22  C   UNL A   1      32.491  20.206  23.272  1.00  0.00     0.010 A 
ATOM     23  C   UNL A   1      32.705  21.435  25.333  1.00  0.00     0.010 A 
BRANCH  19  24
ATOM     24  O   UNL A   1      32.797  17.782  25.959  1.00  0.00    -0.497 OA
ATOM     25  C   UNL A   1      33.350  16.754  25.148  1.00  0.00     0.278 C 
ENDBRANCH  19  24
ENDBRANCH  14  18
BRANCH  16  26
ATOM     26  C   UNL A   1      30.810  25.990  23.157  1.00  0.00    -0.002 A 
ATOM     27  C   UNL A   1      31.303  27.110  22.476  1.00  0.00     0.011 A 
ATOM     28  C   UNL A   1      29.526  25.988  23.703  1.00  0.00     0.011 A 
ATOM     29  C   UNL A   1      30.499  28.240  22.331  1.00  0.00     0.021 A 
ATOM     30  C   UNL A   1      28.730  27.129  23.583  1.00  0.00     0.021 A 
ATOM     31  C   UNL A   1      29.224  28.249  22.904  1.00  0.00     0.067 A 
BRANCH  31  32
ATOM     32  S   UNL A   1      28.227  29.713  22.755  1.00  0.00     0.175 S 
ATOM     33  C   UNL A   1      29.141  30.953  23.637  1.00  0.00     0.163 C 
ATOM     34  O   UNL A   1      28.208  30.063  21.350  1.00  0.00    -0.224 OA
ATOM     35  O   UNL A   1      26.994  29.478  23.485  1.00  0.00    -0.224 OA
ENDBRANCH  31  32
ENDBRANCH  16  26
ENDBRANCH   8  13
ENDBRANCH   4   7
ENDBRANCH   2   3
ENDBRANCH   1   2
BRANCH   1  36
ATOM     36  C   UNL A   1      41.903  24.463  25.915  1.00  0.00     0.023 C 
BRANCH  36  37
ATOM     37  C   UNL A   1      42.924  25.151  25.023  1.00  0.00     0.116 C 
BRANCH  37  38
ATOM     38  N   UNL A   1      44.252  24.555  25.098  1.00  0.00    -0.352 N 
ATOM     39  C   UNL A   1      45.198  24.740  26.079  1.00  0.00     0.251 C 
ATOM     40  H   UNL A   1      44.501  23.952  24.361  1.00  0.00     0.163 HD
ATOM     41  O   UNL A   1      46.318  24.255  25.981  1.00  0.00    -0.269 OA
BRANCH  39  42
ATOM     42  C   UNL A   1      44.840  25.582  27.236  1.00  0.00     0.039 A 
ATOM     43  C   UNL A   1      45.075  26.956  27.170  1.00  0.00     0.014 A 
ATOM     44  C   UNL A   1      44.176  25.018  28.328  1.00  0.00     0.014 A 
ATOM     45  C   UNL A   1      44.568  27.783  28.173  1.00  0.00     0.010 A 
ATOM     46  C   UNL A   1      43.611  25.850  29.284  1.00  0.00     0.010 A 
ATOM     47  C   UNL A   1      43.795  27.240  29.211  1.00  0.00    -0.014 A 
BRANCH  47  48
ATOM     48  C   UNL A   1      43.153  28.099  30.235  1.00  0.00     0.031 A 
ATOM     49  C   UNL A   1      43.751  28.190  31.610  1.00  0.00     0.074 A 
ATOM     50  C   UNL A   1      41.984  28.710  29.962  1.00  0.00     0.049 A 
ATOM     51  N   UNL A   1      43.275  28.767  32.684  1.00  0.00    -0.248 NA
ATOM     52  C   UNL A   1      45.040  27.511  31.812  1.00  0.00     0.031 C 
ATOM     53  C   UNL A   1      41.280  28.659  28.679  1.00  0.00     0.029 A 
ATOM     54  N   UNL A   1      41.170  29.477  30.757  1.00  0.00    -0.354 N 
ATOM     55  C   UNL A   1      44.192  28.499  33.691  1.00  0.00     0.074 A 
ATOM     56  C   UNL A   1      45.226  27.668  33.114  1.00  0.00     0.031 C 
ATOM     57  C   UNL A   1      40.146  29.373  28.771  1.00  0.00     0.029 A 
ATOM     58  C   UNL A   1      40.023  29.897  30.128  1.00  0.00     0.049 A 
ATOM     59  H   UNL A   1      41.387  29.705  31.689  1.00  0.00     0.167 HD
ATOM     60  C   UNL A   1      44.182  28.922  34.977  1.00  0.00     0.037 A 
ATOM     61  C   UNL A   1      38.982  30.609  30.598  1.00  0.00     0.037 A 
ATOM     62  C   UNL A   1      43.165  29.773  35.537  1.00  0.00     0.049 A 
ATOM     63  C   UNL A   1      38.994  31.072  32.029  1.00  0.00     0.074 A 
ATOM     64  C   UNL A   1      43.098  30.309  36.810  1.00  0.00     0.029 A 
ATOM     65  N   UNL A   1      42.039  30.209  34.856  1.00  0.00    -0.354 N 
ATOM     66  N   UNL A   1      39.898  30.865  32.955  1.00  0.00    -0.248 NA
ATOM     67  C   UNL A   1      37.846  31.873  32.478  1.00  0.00     0.031 C 
ATOM     68  C   UNL A   1      41.908  31.039  36.913  1.00  0.00     0.029 A 
ATOM     69  C   UNL A   1      41.259  30.996  35.689  1.00  0.00     0.049 A 
ATOM     70  H   UNL A   1      41.824  29.992  33.920  1.00  0.00     0.167 HD
ATOM     71  C   UNL A   1      39.446  31.533  34.086  1.00  0.00     0.074 A 
ATOM     72  C   UNL A   1      38.190  32.159  33.726  1.00  0.00     0.031 C 
ATOM     73  C   UNL A   1      40.021  31.625  35.310  1.00  0.00     0.037 A 
BRANCH  60  74
ATOM     74  C   UNL A   1      45.306  28.469  35.860  1.00  0.00     0.057 A 
ATOM     75  C   UNL A   1      46.470  29.231  36.026  1.00  0.00     0.134 A 
ATOM     76  C   UNL A   1      45.215  27.266  36.572  1.00  0.00     0.134 A 
ATOM     77  F   UNL A   1      46.628  30.387  35.362  1.00  0.00    -0.206 F 
ATOM     78  C   UNL A   1      47.516  28.799  36.843  1.00  0.00     0.040 A 
ATOM     79  C   UNL A   1      46.242  26.837  37.415  1.00  0.00     0.040 A 
ATOM     80  F   UNL A   1      44.126  26.491  36.464  1.00  0.00    -0.206 F 
ATOM     81  C   UNL A   1      47.400  27.601  37.545  1.00  0.00     0.006 A 
ENDBRANCH  60  74
BRANCH  61  82
ATOM     82  C   UNL A   1      37.848  30.948  29.701  1.00  0.00     0.057 A 
ATOM     83  C   UNL A   1      37.730  32.224  29.139  1.00  0.00     0.134 A 
ATOM     84  C   UNL A   1      36.858  30.009  29.384  1.00  0.00     0.134 A 
ATOM     85  F   UNL A   1      38.638  33.170  29.420  1.00  0.00    -0.206 F 
ATOM     86  C   UNL A   1      36.661  32.562  28.309  1.00  0.00     0.040 A 
ATOM     87  C   UNL A   1      35.797  30.326  28.536  1.00  0.00     0.040 A 
ATOM     88  F   UNL A   1      36.919  28.766  29.883  1.00  0.00    -0.206 F 
ATOM     89  C   UNL A   1      35.692  31.609  28.000  1.00  0.00     0.006 A 
ENDBRANCH  61  82
BRANCH  73  90
ATOM     90  C   UNL A   1      39.327  32.470  36.337  1.00  0.00     0.057 A 
ATOM     91  C   UNL A   1      38.273  31.975  37.115  1.00  0.00     0.134 A 
ATOM     92  C   UNL A   1      39.759  33.779  36.586  1.00  0.00     0.134 A 
ATOM     93  F   UNL A   1      37.805  30.734  36.916  1.00  0.00    -0.206 F 
ATOM     94  C   UNL A   1      37.663  32.761  38.095  1.00  0.00     0.040 A 
ATOM     95  C   UNL A   1      39.174  34.563  37.579  1.00  0.00     0.040 A 
ATOM     96  F   UNL A   1      40.770  34.308  35.880  1.00  0.00    -0.206 F 
ATOM     97  C   UNL A   1      38.119  34.055  38.335  1.00  0.00     0.006 A 
ENDBRANCH  73  90
ENDBRANCH  47  48
ENDBRANCH  39  42
ENDBRANCH  37  38
ENDBRANCH  36  37
ENDBRANCH   1  36
TORSDOF 16
ENDMDL
