MODEL 1
REMARK VINA RESULT:     -10.5      0.000      0.000
REMARK SMILES Cc1ccc(C(=O)N2CCC(CC(=O)NCCCCNC(=O)c3ccc(-c4c5nc(c(-c6c(F)cccc6F)c6ccc([nH]6)c(-c6c(F)cccc6F)c6nc(c(-c7c(F)cccc7F)c7ccc4[nH]7)C=C6)C=C5)cc3)CC2)cn1
REMARK SMILES IDX 17 1 16 2 15 3 13 4 14 5 12 7 11 8 6 9 7 10 8 11 9 12 78 13
REMARK SMILES IDX 10 14 77 15 5 16 1 17 2 18 3 19 80 20 4 21 79 22 18 23 19 24
REMARK SMILES IDX 20 25 21 26 22 28 23 29 24 30 76 31 25 32 75 33 26 34 27 35
REMARK SMILES IDX 28 36 69 37 29 38 74 39 68 40 70 41 30 42 73 43 67 44 66 45
REMARK SMILES IDX 31 47 57 48 40 49 56 50 41 51 44 52 55 53 71 54 42 55 43 56
REMARK SMILES IDX 54 58 72 59 45 60 32 61 33 62 38 63 34 64 35 65 37 66 39 67
REMARK SMILES IDX 36 68 58 69 59 70 64 71 60 72 61 73 63 74 65 75 62 76 46 77
REMARK SMILES IDX 47 78 52 79 48 80 49 81 51 82 53 83 50 84
REMARK H PARENT 15 6 20 27 70 46 44 57
REMARK Flexibility Score: inf
ROOT
ATOM      1  C   UNL A   1      34.047  34.769  29.313  1.00  0.00     0.023 C 
ENDROOT
BRANCH   1   2
ATOM      2  C   UNL A   1      33.051  35.261  30.368  1.00  0.00     0.116 C 
BRANCH   2   3
ATOM      3  N   UNL A   1      33.538  36.444  31.061  1.00  0.00    -0.356 N 
ATOM      4  C   UNL A   1      34.103  36.573  32.298  1.00  0.00     0.220 C 
ATOM      5  O   UNL A   1      34.379  37.705  32.699  1.00  0.00    -0.275 OA
ATOM      6  H   UNL A   1      33.448  37.285  30.558  1.00  0.00     0.163 HD
BRANCH   4   7
ATOM      7  C   UNL A   1      34.366  35.353  33.168  1.00  0.00     0.103 C 
BRANCH   7   8
ATOM      8  C   UNL A   1      35.335  34.331  32.539  1.00  0.00     0.002 C 
ATOM      9  C   UNL A   1      37.796  31.554  34.067  1.00  0.00     0.255 C 
ATOM     10  O   UNL A   1      37.402  31.751  35.209  1.00  0.00    -0.269 OA
ATOM     11  N   UNL A   1      37.268  32.193  32.958  1.00  0.00    -0.339 N 
ATOM     12  C   UNL A   1      37.768  33.500  32.600  1.00  0.00     0.120 C 
ATOM     13  C   UNL A   1      35.939  31.859  32.483  1.00  0.00     0.120 C 
ATOM     14  C   UNL A   1      36.775  34.577  32.991  1.00  0.00     0.026 C 
ATOM     15  C   UNL A   1      34.903  32.899  32.902  1.00  0.00     0.026 C 
BRANCH   9  16
ATOM     16  C   UNL A   1      38.890  30.596  33.766  1.00  0.00     0.058 A 
ATOM     17  C   UNL A   1      42.146  27.957  33.049  1.00  0.00     0.066 C 
ATOM     18  C   UNL A   1      40.984  28.871  33.292  1.00  0.00     0.037 A 
ATOM     19  C   UNL A   1      39.708  28.513  32.870  1.00  0.00     0.024 A 
ATOM     20  N   UNL A   1      41.239  30.042  33.925  1.00  0.00    -0.261 NA
ATOM     21  C   UNL A   1      38.653  29.385  33.112  1.00  0.00     0.017 A 
ATOM     22  C   UNL A   1      40.191  30.877  34.151  1.00  0.00     0.125 A 
ENDBRANCH   9  16
ENDBRANCH   7   8
ENDBRANCH   4   7
ENDBRANCH   2   3
ENDBRANCH   1   2
BRANCH   1  23
ATOM     23  C   UNL A   1      34.375  33.289  29.364  1.00  0.00     0.023 C 
BRANCH  23  24
ATOM     24  C   UNL A   1      34.644  32.674  28.007  1.00  0.00     0.116 C 
BRANCH  24  25
ATOM     25  N   UNL A   1      33.974  31.396  27.802  1.00  0.00    -0.352 N 
ATOM     26  C   UNL A   1      34.509  30.127  27.858  1.00  0.00     0.251 C 
ATOM     27  H   UNL A   1      33.014  31.446  27.594  1.00  0.00     0.163 HD
ATOM     28  O   UNL A   1      33.841  29.147  27.571  1.00  0.00    -0.269 OA
BRANCH  26  29
ATOM     29  C   UNL A   1      35.930  29.985  28.229  1.00  0.00     0.039 A 
ATOM     30  C   UNL A   1      36.255  29.575  29.524  1.00  0.00     0.014 A 
ATOM     31  C   UNL A   1      36.921  30.150  27.261  1.00  0.00     0.014 A 
ATOM     32  C   UNL A   1      37.577  29.240  29.819  1.00  0.00     0.010 A 
ATOM     33  C   UNL A   1      38.207  29.706  27.524  1.00  0.00     0.010 A 
ATOM     34  C   UNL A   1      38.550  29.255  28.807  1.00  0.00    -0.014 A 
BRANCH  34  35
ATOM     35  C   UNL A   1      39.949  28.837  29.061  1.00  0.00     0.031 A 
ATOM     36  C   UNL A   1      40.894  29.798  29.727  1.00  0.00     0.074 A 
ATOM     37  C   UNL A   1      40.389  27.644  28.617  1.00  0.00     0.049 A 
ATOM     38  N   UNL A   1      42.181  29.689  29.928  1.00  0.00    -0.248 NA
ATOM     39  C   UNL A   1      40.321  31.074  30.188  1.00  0.00     0.031 C 
ATOM     40  C   UNL A   1      39.584  26.650  27.903  1.00  0.00     0.029 A 
ATOM     41  N   UNL A   1      41.632  27.069  28.691  1.00  0.00    -0.354 N 
ATOM     42  C   UNL A   1      42.571  30.890  30.505  1.00  0.00     0.074 A 
ATOM     43  C   UNL A   1      41.402  31.737  30.562  1.00  0.00     0.031 C 
ATOM     44  C   UNL A   1      40.345  25.576  27.635  1.00  0.00     0.029 A 
ATOM     45  C   UNL A   1      41.698  25.820  28.123  1.00  0.00     0.049 A 
ATOM     46  H   UNL A   1      42.405  27.511  29.113  1.00  0.00     0.167 HD
ATOM     47  C   UNL A   1      43.788  31.244  30.978  1.00  0.00     0.037 A 
ATOM     48  C   UNL A   1      42.737  24.971  28.011  1.00  0.00     0.037 A 
ATOM     49  C   UNL A   1      44.935  30.378  30.968  1.00  0.00     0.049 A 
ATOM     50  C   UNL A   1      44.073  25.376  28.568  1.00  0.00     0.074 A 
ATOM     51  C   UNL A   1      46.196  30.610  31.485  1.00  0.00     0.029 A 
ATOM     52  N   UNL A   1      44.950  29.103  30.421  1.00  0.00    -0.354 N 
ATOM     53  N   UNL A   1      44.417  26.492  29.166  1.00  0.00    -0.248 NA
ATOM     54  C   UNL A   1      45.167  24.402  28.439  1.00  0.00     0.031 C 
ATOM     55  C   UNL A   1      46.985  29.483  31.225  1.00  0.00     0.029 A 
ATOM     56  C   UNL A   1      46.204  28.538  30.579  1.00  0.00     0.049 A 
ATOM     57  H   UNL A   1      44.184  28.666  29.985  1.00  0.00     0.167 HD
ATOM     58  C   UNL A   1      45.754  26.344  29.508  1.00  0.00     0.074 A 
ATOM     59  C   UNL A   1      46.157  25.026  29.061  1.00  0.00     0.031 C 
ATOM     60  C   UNL A   1      46.576  27.220  30.137  1.00  0.00     0.037 A 
BRANCH  47  61
ATOM     61  C   UNL A   1      43.926  32.621  31.556  1.00  0.00     0.057 A 
ATOM     62  C   UNL A   1      43.862  32.849  32.938  1.00  0.00     0.134 A 
ATOM     63  C   UNL A   1      44.127  33.731  30.727  1.00  0.00     0.134 A 
ATOM     64  F   UNL A   1      43.652  31.831  33.786  1.00  0.00    -0.206 F 
ATOM     65  C   UNL A   1      43.958  34.135  33.471  1.00  0.00     0.040 A 
ATOM     66  C   UNL A   1      44.254  35.019  31.251  1.00  0.00     0.040 A 
ATOM     67  F   UNL A   1      44.200  33.583  29.395  1.00  0.00    -0.206 F 
ATOM     68  C   UNL A   1      44.162  35.223  32.627  1.00  0.00     0.006 A 
ENDBRANCH  47  61
BRANCH  48  69
ATOM     69  C   UNL A   1      42.548  23.641  27.381  1.00  0.00     0.057 A 
ATOM     70  C   UNL A   1      42.251  22.516  28.161  1.00  0.00     0.134 A 
ATOM     71  C   UNL A   1      42.661  23.456  26.000  1.00  0.00     0.134 A 
ATOM     72  F   UNL A   1      42.146  22.627  29.494  1.00  0.00    -0.206 F 
ATOM     73  C   UNL A   1      42.091  21.252  27.591  1.00  0.00     0.040 A 
ATOM     74  C   UNL A   1      42.483  22.201  25.413  1.00  0.00     0.040 A 
ATOM     75  F   UNL A   1      42.936  24.495  25.197  1.00  0.00    -0.206 F 
ATOM     76  C   UNL A   1      42.204  21.093  26.212  1.00  0.00     0.006 A 
ENDBRANCH  48  69
BRANCH  60  77
ATOM     77  C   UNL A   1      47.977  26.768  30.411  1.00  0.00     0.057 A 
ATOM     78  C   UNL A   1      48.295  25.986  31.527  1.00  0.00     0.134 A 
ATOM     79  C   UNL A   1      49.011  27.077  29.517  1.00  0.00     0.134 A 
ATOM     80  F   UNL A   1      47.350  25.668  32.426  1.00  0.00    -0.206 F 
ATOM     81  C   UNL A   1      49.596  25.539  31.755  1.00  0.00     0.040 A 
ATOM     82  C   UNL A   1      50.311  26.617  29.722  1.00  0.00     0.040 A 
ATOM     83  F   UNL A   1      48.768  27.817  28.425  1.00  0.00    -0.206 F 
ATOM     84  C   UNL A   1      50.608  25.848  30.846  1.00  0.00     0.006 A 
ENDBRANCH  60  77
ENDBRANCH  34  35
ENDBRANCH  26  29
ENDBRANCH  24  25
ENDBRANCH  23  24
ENDBRANCH   1  23
TORSDOF 13
ENDMDL
MODEL 2
REMARK VINA RESULT:     -10.4      3.333      6.431
REMARK SMILES Cc1ccc(C(=O)N2CCC(CC(=O)NCCCCNC(=O)c3ccc(-c4c5nc(c(-c6c(F)cccc6F)c6ccc([nH]6)c(-c6c(F)cccc6F)c6nc(c(-c7c(F)cccc7F)c7ccc4[nH]7)C=C6)C=C5)cc3)CC2)cn1
REMARK SMILES IDX 17 1 16 2 15 3 13 4 14 5 12 7 11 8 6 9 7 10 8 11 9 12 78 13
REMARK SMILES IDX 10 14 77 15 5 16 1 17 2 18 3 19 80 20 4 21 79 22 18 23 19 24
REMARK SMILES IDX 20 25 21 26 22 28 23 29 24 30 76 31 25 32 75 33 26 34 27 35
REMARK SMILES IDX 28 36 69 37 29 38 74 39 68 40 70 41 30 42 73 43 67 44 66 45
REMARK SMILES IDX 31 47 57 48 40 49 56 50 41 51 44 52 55 53 71 54 42 55 43 56
REMARK SMILES IDX 54 58 72 59 45 60 32 61 33 62 38 63 34 64 35 65 37 66 39 67
REMARK SMILES IDX 36 68 58 69 59 70 64 71 60 72 61 73 63 74 65 75 62 76 46 77
REMARK SMILES IDX 47 78 52 79 48 80 49 81 51 82 53 83 50 84
REMARK H PARENT 15 6 20 27 70 46 44 57
REMARK Flexibility Score: inf
ROOT
ATOM      1  C   UNL A   1      32.865  29.765  25.213  1.00  0.00     0.023 C 
ENDROOT
BRANCH   1   2
ATOM      2  C   UNL A   1      31.342  29.677  25.081  1.00  0.00     0.116 C 
BRANCH   2   3
ATOM      3  N   UNL A   1      30.922  29.627  23.689  1.00  0.00    -0.356 N 
ATOM      4  C   UNL A   1      30.269  28.646  22.999  1.00  0.00     0.220 C 
ATOM      5  O   UNL A   1      30.078  28.809  21.792  1.00  0.00    -0.275 OA
ATOM      6  H   UNL A   1      31.143  30.427  23.161  1.00  0.00     0.163 HD
BRANCH   4   7
ATOM      7  C   UNL A   1      29.806  27.376  23.696  1.00  0.00     0.103 C 
BRANCH   7   8
ATOM      8  C   UNL A   1      30.661  26.134  23.372  1.00  0.00     0.002 C 
ATOM      9  C   UNL A   1      33.755  24.353  25.205  1.00  0.00     0.255 C 
ATOM     10  O   UNL A   1      33.688  25.102  26.170  1.00  0.00    -0.269 OA
ATOM     11  N   UNL A   1      32.860  24.389  24.149  1.00  0.00    -0.339 N 
ATOM     12  C   UNL A   1      33.085  25.328  23.074  1.00  0.00     0.120 C 
ATOM     13  C   UNL A   1      31.497  23.927  24.325  1.00  0.00     0.120 C 
ATOM     14  C   UNL A   1      32.133  26.503  23.183  1.00  0.00     0.026 C 
ATOM     15  C   UNL A   1      30.516  25.085  24.489  1.00  0.00     0.026 C 
BRANCH   9  16
ATOM     16  C   UNL A   1      34.815  23.321  25.081  1.00  0.00     0.058 A 
ATOM     17  C   UNL A   1      37.717  20.223  24.819  1.00  0.00     0.066 C 
ATOM     18  C   UNL A   1      36.706  21.327  24.895  1.00  0.00     0.037 A 
ATOM     19  C   UNL A   1      36.861  22.475  24.126  1.00  0.00     0.024 A 
ATOM     20  N   UNL A   1      35.659  21.151  25.738  1.00  0.00    -0.261 NA
ATOM     21  C   UNL A   1      35.904  23.480  24.221  1.00  0.00     0.017 A 
ATOM     22  C   UNL A   1      34.737  22.147  25.813  1.00  0.00     0.125 A 
ENDBRANCH   9  16
ENDBRANCH   7   8
ENDBRANCH   4   7
ENDBRANCH   2   3
ENDBRANCH   1   2
BRANCH   1  23
ATOM     23  C   UNL A   1      33.534  28.574  25.872  1.00  0.00     0.023 C 
BRANCH  23  24
ATOM     24  C   UNL A   1      33.665  28.699  27.376  1.00  0.00     0.116 C 
BRANCH  24  25
ATOM     25  N   UNL A   1      33.704  30.080  27.845  1.00  0.00    -0.352 N 
ATOM     26  C   UNL A   1      34.763  30.771  28.390  1.00  0.00     0.251 C 
ATOM     27  H   UNL A   1      32.862  30.583  27.762  1.00  0.00     0.163 HD
ATOM     28  O   UNL A   1      34.622  31.903  28.826  1.00  0.00    -0.269 OA
BRANCH  26  29
ATOM     29  C   UNL A   1      36.069  30.090  28.480  1.00  0.00     0.039 A 
ATOM     30  C   UNL A   1      36.947  30.160  27.396  1.00  0.00     0.014 A 
ATOM     31  C   UNL A   1      36.457  29.485  29.676  1.00  0.00     0.014 A 
ATOM     32  C   UNL A   1      38.255  29.700  27.550  1.00  0.00     0.010 A 
ATOM     33  C   UNL A   1      37.785  29.137  29.861  1.00  0.00     0.010 A 
ATOM     34  C   UNL A   1      38.695  29.232  28.799  1.00  0.00    -0.014 A 
BRANCH  34  35
ATOM     35  C   UNL A   1      40.096  28.803  29.023  1.00  0.00     0.031 A 
ATOM     36  C   UNL A   1      41.069  29.766  29.643  1.00  0.00     0.074 A 
ATOM     37  C   UNL A   1      40.510  27.596  28.591  1.00  0.00     0.049 A 
ATOM     38  N   UNL A   1      42.360  29.647  29.811  1.00  0.00    -0.248 NA
ATOM     39  C   UNL A   1      40.522  31.058  30.094  1.00  0.00     0.031 C 
ATOM     40  C   UNL A   1      39.675  26.597  27.920  1.00  0.00     0.029 A 
ATOM     41  N   UNL A   1      41.749  27.009  28.643  1.00  0.00    -0.354 N 
ATOM     42  C   UNL A   1      42.779  30.854  30.353  1.00  0.00     0.074 A 
ATOM     43  C   UNL A   1      41.621  31.715  30.425  1.00  0.00     0.031 C 
ATOM     44  C   UNL A   1      40.417  25.510  27.654  1.00  0.00     0.029 A 
ATOM     45  C   UNL A   1      41.785  25.749  28.099  1.00  0.00     0.049 A 
ATOM     46  H   UNL A   1      42.537  27.450  29.035  1.00  0.00     0.167 HD
ATOM     47  C   UNL A   1      44.012  31.204  30.785  1.00  0.00     0.037 A 
ATOM     48  C   UNL A   1      42.812  24.886  27.976  1.00  0.00     0.037 A 
ATOM     49  C   UNL A   1      45.149  30.325  30.762  1.00  0.00     0.049 A 
ATOM     50  C   UNL A   1      44.167  25.286  28.488  1.00  0.00     0.074 A 
ATOM     51  C   UNL A   1      46.426  30.553  31.239  1.00  0.00     0.029 A 
ATOM     52  N   UNL A   1      45.135  29.039  30.241  1.00  0.00    -0.354 N 
ATOM     53  N   UNL A   1      44.539  26.409  29.053  1.00  0.00    -0.248 NA
ATOM     54  C   UNL A   1      45.246  24.297  28.348  1.00  0.00     0.031 C 
ATOM     55  C   UNL A   1      47.195  29.412  30.981  1.00  0.00     0.029 A 
ATOM     56  C   UNL A   1      46.386  28.463  30.375  1.00  0.00     0.049 A 
ATOM     57  H   UNL A   1      44.352  28.602  29.834  1.00  0.00     0.167 HD
ATOM     58  C   UNL A   1      45.883  26.254  29.362  1.00  0.00     0.074 A 
ATOM     59  C   UNL A   1      46.259  24.923  28.930  1.00  0.00     0.031 C 
ATOM     60  C   UNL A   1      46.731  27.132  29.951  1.00  0.00     0.037 A 
BRANCH  47  61
ATOM     61  C   UNL A   1      44.181  32.591  31.332  1.00  0.00     0.057 A 
ATOM     62  C   UNL A   1      43.974  32.878  32.688  1.00  0.00     0.134 A 
ATOM     63  C   UNL A   1      44.555  33.650  30.497  1.00  0.00     0.134 A 
ATOM     64  F   UNL A   1      43.596  31.911  33.538  1.00  0.00    -0.206 F 
ATOM     65  C   UNL A   1      44.101  34.175  33.188  1.00  0.00     0.040 A 
ATOM     66  C   UNL A   1      44.713  34.946  30.991  1.00  0.00     0.040 A 
ATOM     67  F   UNL A   1      44.770  33.445  29.188  1.00  0.00    -0.206 F 
ATOM     68  C   UNL A   1      44.478  35.212  32.339  1.00  0.00     0.006 A 
ENDBRANCH  47  61
BRANCH  48  69
ATOM     69  C   UNL A   1      42.591  23.545  27.379  1.00  0.00     0.057 A 
ATOM     70  C   UNL A   1      42.719  23.347  25.998  1.00  0.00     0.134 A 
ATOM     71  C   UNL A   1      42.244  22.438  28.159  1.00  0.00     0.134 A 
ATOM     72  F   UNL A   1      43.033  24.374  25.195  1.00  0.00    -0.206 F 
ATOM     73  C   UNL A   1      42.493  22.099  25.414  1.00  0.00     0.040 A 
ATOM     74  C   UNL A   1      42.035  21.179  27.591  1.00  0.00     0.040 A 
ATOM     75  F   UNL A   1      42.113  22.561  29.488  1.00  0.00    -0.206 F 
ATOM     76  C   UNL A   1      42.154  21.010  26.213  1.00  0.00     0.006 A 
ENDBRANCH  48  69
BRANCH  60  77
ATOM     77  C   UNL A   1      48.135  26.669  30.195  1.00  0.00     0.057 A 
ATOM     78  C   UNL A   1      49.170  26.949  29.295  1.00  0.00     0.134 A 
ATOM     79  C   UNL A   1      48.462  25.980  31.369  1.00  0.00     0.134 A 
ATOM     80  F   UNL A   1      48.917  27.595  28.146  1.00  0.00    -0.206 F 
ATOM     81  C   UNL A   1      50.481  26.546  29.547  1.00  0.00     0.040 A 
ATOM     82  C   UNL A   1      49.773  25.591  31.643  1.00  0.00     0.040 A 
ATOM     83  F   UNL A   1      47.515  25.688  32.274  1.00  0.00    -0.206 F 
ATOM     84  C   UNL A   1      50.786  25.871  30.730  1.00  0.00     0.006 A 
ENDBRANCH  60  77
ENDBRANCH  34  35
ENDBRANCH  26  29
ENDBRANCH  24  25
ENDBRANCH  23  24
ENDBRANCH   1  23
TORSDOF 13
ENDMDL
MODEL 3
REMARK VINA RESULT:     -10.4      4.116      9.813
REMARK SMILES Cc1ccc(C(=O)N2CCC(CC(=O)NCCCCNC(=O)c3ccc(-c4c5nc(c(-c6c(F)cccc6F)c6ccc([nH]6)c(-c6c(F)cccc6F)c6nc(c(-c7c(F)cccc7F)c7ccc4[nH]7)C=C6)C=C5)cc3)CC2)cn1
REMARK SMILES IDX 17 1 16 2 15 3 13 4 14 5 12 7 11 8 6 9 7 10 8 11 9 12 78 13
REMARK SMILES IDX 10 14 77 15 5 16 1 17 2 18 3 19 80 20 4 21 79 22 18 23 19 24
REMARK SMILES IDX 20 25 21 26 22 28 23 29 24 30 76 31 25 32 75 33 26 34 27 35
REMARK SMILES IDX 28 36 69 37 29 38 74 39 68 40 70 41 30 42 73 43 67 44 66 45
REMARK SMILES IDX 31 47 57 48 40 49 56 50 41 51 44 52 55 53 71 54 42 55 43 56
REMARK SMILES IDX 54 58 72 59 45 60 32 61 33 62 38 63 34 64 35 65 37 66 39 67
REMARK SMILES IDX 36 68 58 69 59 70 64 71 60 72 61 73 63 74 65 75 62 76 46 77
REMARK SMILES IDX 47 78 52 79 48 80 49 81 51 82 53 83 50 84
REMARK H PARENT 15 6 20 27 70 46 44 57
REMARK Flexibility Score: inf
ROOT
ATOM      1  C   UNL A   1      36.366  20.129  24.980  1.00  0.00     0.023 C 
ENDROOT
BRANCH   1   2
ATOM      2  C   UNL A   1      34.906  20.591  24.956  1.00  0.00     0.116 C 
BRANCH   2   3
ATOM      3  N   UNL A   1      34.452  21.019  26.270  1.00  0.00    -0.356 N 
ATOM      4  C   UNL A   1      34.227  22.273  26.761  1.00  0.00     0.220 C 
ATOM      5  O   UNL A   1      33.903  22.388  27.945  1.00  0.00    -0.275 OA
ATOM      6  H   UNL A   1      34.280  20.288  26.906  1.00  0.00     0.163 HD
BRANCH   4   7
ATOM      7  C   UNL A   1      34.389  23.499  25.876  1.00  0.00     0.103 C 
BRANCH   7   8
ATOM      8  C   UNL A   1      33.316  24.584  26.102  1.00  0.00     0.002 C 
ATOM      9  C   UNL A   1      31.119  26.857  23.631  1.00  0.00     0.255 C 
ATOM     10  O   UNL A   1      31.543  26.285  22.636  1.00  0.00    -0.269 OA
ATOM     11  N   UNL A   1      31.456  26.489  24.923  1.00  0.00    -0.339 N 
ATOM     12  C   UNL A   1      32.678  27.001  25.499  1.00  0.00     0.120 C 
ATOM     13  C   UNL A   1      30.939  25.261  25.494  1.00  0.00     0.120 C 
ATOM     14  C   UNL A   1      33.750  25.929  25.518  1.00  0.00     0.026 C 
ATOM     15  C   UNL A   1      31.978  24.143  25.483  1.00  0.00     0.026 C 
BRANCH   9  16
ATOM     16  C   UNL A   1      30.190  28.012  23.540  1.00  0.00     0.058 A 
ATOM     17  C   UNL A   1      27.702  31.452  23.287  1.00  0.00     0.066 C 
ATOM     18  C   UNL A   1      28.561  30.227  23.368  1.00  0.00     0.037 A 
ATOM     19  C   UNL A   1      28.044  28.982  23.026  1.00  0.00     0.024 A 
ATOM     20  N   UNL A   1      29.839  30.393  23.788  1.00  0.00    -0.261 NA
ATOM     21  C   UNL A   1      28.869  27.866  23.113  1.00  0.00     0.017 A 
ATOM     22  C   UNL A   1      30.626  29.287  23.864  1.00  0.00     0.125 A 
ENDBRANCH   9  16
ENDBRANCH   7   8
ENDBRANCH   4   7
ENDBRANCH   2   3
ENDBRANCH   1   2
BRANCH   1  23
ATOM     23  C   UNL A   1      37.397  21.206  24.704  1.00  0.00     0.023 C 
BRANCH  23  24
ATOM     24  C   UNL A   1      38.543  21.224  25.693  1.00  0.00     0.116 C 
BRANCH  24  25
ATOM     25  N   UNL A   1      39.389  20.038  25.627  1.00  0.00    -0.352 N 
ATOM     26  C   UNL A   1      40.713  19.907  25.984  1.00  0.00     0.251 C 
ATOM     27  H   UNL A   1      38.958  19.225  25.281  1.00  0.00     0.163 HD
ATOM     28  O   UNL A   1      41.321  18.868  25.785  1.00  0.00    -0.269 OA
BRANCH  26  29
ATOM     29  C   UNL A   1      41.397  21.076  26.571  1.00  0.00     0.039 A 
ATOM     30  C   UNL A   1      41.963  22.029  25.721  1.00  0.00     0.014 A 
ATOM     31  C   UNL A   1      41.373  21.275  27.952  1.00  0.00     0.014 A 
ATOM     32  C   UNL A   1      42.424  23.231  26.259  1.00  0.00     0.010 A 
ATOM     33  C   UNL A   1      41.723  22.512  28.466  1.00  0.00     0.010 A 
ATOM     34  C   UNL A   1      42.261  23.499  27.627  1.00  0.00    -0.014 A 
BRANCH  34  35
ATOM     35  C   UNL A   1      42.670  24.792  28.224  1.00  0.00     0.031 A 
ATOM     36  C   UNL A   1      41.634  25.856  28.453  1.00  0.00     0.074 A 
ATOM     37  C   UNL A   1      43.971  25.040  28.472  1.00  0.00     0.049 A 
ATOM     38  N   UNL A   1      41.790  27.096  28.841  1.00  0.00    -0.248 NA
ATOM     39  C   UNL A   1      40.237  25.491  28.164  1.00  0.00     0.031 C 
ATOM     40  C   UNL A   1      45.077  24.110  28.235  1.00  0.00     0.029 A 
ATOM     41  N   UNL A   1      44.584  26.162  28.969  1.00  0.00    -0.354 N 
ATOM     42  C   UNL A   1      40.522  27.660  28.808  1.00  0.00     0.074 A 
ATOM     43  C   UNL A   1      39.619  26.651  28.302  1.00  0.00     0.031 C 
ATOM     44  C   UNL A   1      46.228  24.687  28.617  1.00  0.00     0.029 A 
ATOM     45  C   UNL A   1      45.947  26.038  29.090  1.00  0.00     0.049 A 
ATOM     46  H   UNL A   1      44.093  26.979  29.217  1.00  0.00     0.167 HD
ATOM     47  C   UNL A   1      40.137  28.896  29.197  1.00  0.00     0.037 A 
ATOM     48  C   UNL A   1      46.863  26.921  29.533  1.00  0.00     0.037 A 
ATOM     49  C   UNL A   1      41.030  29.877  29.751  1.00  0.00     0.049 A 
ATOM     50  C   UNL A   1      46.408  28.279  29.986  1.00  0.00     0.074 A 
ATOM     51  C   UNL A   1      40.734  31.134  30.243  1.00  0.00     0.029 A 
ATOM     52  N   UNL A   1      42.398  29.698  29.896  1.00  0.00    -0.354 N 
ATOM     53  N   UNL A   1      45.196  28.781  30.006  1.00  0.00    -0.248 NA
ATOM     54  C   UNL A   1      47.446  29.194  30.482  1.00  0.00     0.031 C 
ATOM     55  C   UNL A   1      41.929  31.729  30.662  1.00  0.00     0.029 A 
ATOM     56  C   UNL A   1      42.963  30.827  30.462  1.00  0.00     0.049 A 
ATOM     57  H   UNL A   1      42.894  28.888  29.634  1.00  0.00     0.167 HD
ATOM     58  C   UNL A   1      45.321  30.056  30.541  1.00  0.00     0.074 A 
ATOM     59  C   UNL A   1      46.726  30.247  30.842  1.00  0.00     0.031 C 
ATOM     60  C   UNL A   1      44.361  30.987  30.764  1.00  0.00     0.037 A 
BRANCH  47  61
ATOM     61  C   UNL A   1      38.685  29.242  29.049  1.00  0.00     0.057 A 
ATOM     62  C   UNL A   1      37.796  29.168  30.130  1.00  0.00     0.134 A 
ATOM     63  C   UNL A   1      38.168  29.655  27.815  1.00  0.00     0.134 A 
ATOM     64  F   UNL A   1      38.224  28.762  31.336  1.00  0.00    -0.206 F 
ATOM     65  C   UNL A   1      36.439  29.460  29.982  1.00  0.00     0.040 A 
ATOM     66  C   UNL A   1      36.818  29.977  27.661  1.00  0.00     0.040 A 
ATOM     67  F   UNL A   1      38.964  29.748  26.739  1.00  0.00    -0.206 F 
ATOM     68  C   UNL A   1      35.949  29.872  28.746  1.00  0.00     0.006 A 
ENDBRANCH  47  61
BRANCH  48  69
ATOM     69  C   UNL A   1      48.294  26.534  29.608  1.00  0.00     0.057 A 
ATOM     70  C   UNL A   1      48.794  25.854  30.726  1.00  0.00     0.134 A 
ATOM     71  C   UNL A   1      49.194  26.834  28.581  1.00  0.00     0.134 A 
ATOM     72  F   UNL A   1      47.983  25.554  31.751  1.00  0.00    -0.206 F 
ATOM     73  C   UNL A   1      50.141  25.502  30.826  1.00  0.00     0.040 A 
ATOM     74  C   UNL A   1      50.540  26.469  28.658  1.00  0.00     0.040 A 
ATOM     75  F   UNL A   1      48.776  27.477  27.480  1.00  0.00    -0.206 F 
ATOM     76  C   UNL A   1      51.017  25.807  29.787  1.00  0.00     0.006 A 
ENDBRANCH  48  69
BRANCH  60  77
ATOM     77  C   UNL A   1      44.790  32.276  31.395  1.00  0.00     0.057 A 
ATOM     78  C   UNL A   1      44.846  32.435  32.784  1.00  0.00     0.134 A 
ATOM     79  C   UNL A   1      45.202  33.353  30.599  1.00  0.00     0.134 A 
ATOM     80  F   UNL A   1      44.452  31.443  33.598  1.00  0.00    -0.206 F 
ATOM     81  C   UNL A   1      45.281  33.627  33.363  1.00  0.00     0.040 A 
ATOM     82  C   UNL A   1      45.660  34.543  31.166  1.00  0.00     0.040 A 
ATOM     83  F   UNL A   1      45.179  33.260  29.261  1.00  0.00    -0.206 F 
ATOM     84  C   UNL A   1      45.698  34.683  32.552  1.00  0.00     0.006 A 
ENDBRANCH  60  77
ENDBRANCH  34  35
ENDBRANCH  26  29
ENDBRANCH  24  25
ENDBRANCH  23  24
ENDBRANCH   1  23
TORSDOF 13
ENDMDL
