MODEL 1
REMARK VINA RESULT:     -10.7      0.000      0.000
REMARK SMILES C[C@H](CSc1ccc(C(=O)N(C)C)cn1)C(=O)NCCCCNC(=O)c1ccc(-c2c3nc(c(-c4c(F)cccc4F)c4ccc([nH]4)c(-c4c(F)cccc4F)c4nc(c(-c5c(F)cccc5F)c5ccc2[nH]5)C=C4)C=C3)cc1
REMARK SMILES IDX 19 1 18 2 16 3 17 4 2 6 1 7 3 8 4 9 5 10 6 11 15 12 7 13
REMARK SMILES IDX 14 14 8 15 9 16 10 17 11 18 12 19 13 20 20 21 21 22 22 23
REMARK SMILES IDX 23 24 24 25 25 27 26 28 27 29 79 30 28 31 78 32 29 33 30 34
REMARK SMILES IDX 31 35 72 36 32 37 77 38 71 39 73 40 33 41 76 42 70 43 69 44
REMARK SMILES IDX 34 46 60 47 43 48 59 49 44 50 47 51 58 52 74 53 45 54 46 55
REMARK SMILES IDX 57 57 75 58 48 59 35 60 36 61 41 62 37 63 38 64 40 65 42 66
REMARK SMILES IDX 39 67 61 68 62 69 67 70 63 71 64 72 66 73 68 74 65 75 49 76
REMARK SMILES IDX 50 77 55 78 51 79 52 80 54 81 56 82 53 83
REMARK H PARENT 18 5 23 26 73 45 47 56
REMARK Flexibility Score: inf
ROOT
ATOM      1  C   UNL A   1      32.379  26.355  26.413  1.00  0.00     0.116 C 
ENDROOT
BRANCH   1   2
ATOM      2  N   UNL A   1      31.434  25.365  26.876  1.00  0.00    -0.356 N 
ATOM      3  C   UNL A   1      31.342  24.032  26.633  1.00  0.00     0.223 C 
ATOM      4  O   UNL A   1      30.397  23.447  27.175  1.00  0.00    -0.275 OA
ATOM      5  H   UNL A   1      30.736  25.718  27.473  1.00  0.00     0.163 HD
BRANCH   3   6
ATOM      6  C   UNL A   1      32.387  23.219  25.853  1.00  0.00     0.085 C 
ATOM      7  C   UNL A   1      33.656  23.124  26.697  1.00  0.00     0.019 C 
BRANCH   6   8
ATOM      8  C   UNL A   1      32.531  23.518  24.345  1.00  0.00     0.089 C 
BRANCH   8   9
ATOM      9  S   UNL A   1      31.019  23.667  23.299  1.00  0.00    -0.106 SA
BRANCH   9  10
ATOM     10  C   UNL A   1      30.715  25.420  23.339  1.00  0.00     0.096 A 
ATOM     11  C   UNL A   1      31.542  26.287  22.631  1.00  0.00     0.036 A 
ATOM     12  N   UNL A   1      29.678  25.864  24.083  1.00  0.00    -0.249 NA
ATOM     13  C   UNL A   1      31.360  27.667  22.759  1.00  0.00     0.018 A 
ATOM     14  C   UNL A   1      29.483  27.212  24.138  1.00  0.00     0.126 A 
ATOM     15  C   UNL A   1      30.336  28.149  23.568  1.00  0.00     0.058 A 
BRANCH  15  16
ATOM     16  C   UNL A   1      30.063  29.589  23.790  1.00  0.00     0.254 C 
ATOM     17  O   UNL A   1      30.762  30.159  24.624  1.00  0.00    -0.269 OA
ATOM     18  N   UNL A   1      29.074  30.256  23.060  1.00  0.00    -0.345 N 
ATOM     19  C   UNL A   1      28.281  29.703  21.972  1.00  0.00     0.146 C 
ATOM     20  C   UNL A   1      28.779  31.640  23.410  1.00  0.00     0.146 C 
ENDBRANCH  15  16
ENDBRANCH   9  10
ENDBRANCH   8   9
ENDBRANCH   6   8
ENDBRANCH   3   6
ENDBRANCH   1   2
BRANCH   1  21
ATOM     21  C   UNL A   1      31.944  27.776  26.789  1.00  0.00     0.023 C 
BRANCH  21  22
ATOM     22  C   UNL A   1      32.929  28.518  27.694  1.00  0.00     0.023 C 
BRANCH  22  23
ATOM     23  C   UNL A   1      33.620  29.712  27.043  1.00  0.00     0.116 C 
BRANCH  23  24
ATOM     24  N   UNL A   1      33.801  30.846  27.933  1.00  0.00    -0.352 N 
ATOM     25  C   UNL A   1      34.886  31.175  28.716  1.00  0.00     0.251 C 
ATOM     26  H   UNL A   1      33.040  31.469  27.984  1.00  0.00     0.163 HD
ATOM     27  O   UNL A   1      34.813  32.134  29.478  1.00  0.00    -0.269 OA
BRANCH  25  28
ATOM     28  C   UNL A   1      36.086  30.303  28.725  1.00  0.00     0.039 A 
ATOM     29  C   UNL A   1      36.900  30.297  27.588  1.00  0.00     0.014 A 
ATOM     30  C   UNL A   1      36.475  29.588  29.860  1.00  0.00     0.014 A 
ATOM     31  C   UNL A   1      38.161  29.703  27.640  1.00  0.00     0.010 A 
ATOM     32  C   UNL A   1      37.761  29.061  29.939  1.00  0.00     0.010 A 
ATOM     33  C   UNL A   1      38.629  29.153  28.844  1.00  0.00    -0.014 A 
BRANCH  33  34
ATOM     34  C   UNL A   1      40.057  28.784  29.004  1.00  0.00     0.031 A 
ATOM     35  C   UNL A   1      41.055  29.768  29.530  1.00  0.00     0.074 A 
ATOM     36  C   UNL A   1      40.458  27.568  28.578  1.00  0.00     0.049 A 
ATOM     37  N   UNL A   1      42.343  29.621  29.706  1.00  0.00    -0.248 NA
ATOM     38  C   UNL A   1      40.547  31.104  29.877  1.00  0.00     0.031 C 
ATOM     39  C   UNL A   1      39.588  26.557  27.970  1.00  0.00     0.029 A 
ATOM     40  N   UNL A   1      41.697  26.980  28.580  1.00  0.00    -0.354 N 
ATOM     41  C   UNL A   1      42.800  30.840  30.187  1.00  0.00     0.074 A 
ATOM     42  C   UNL A   1      41.663  31.735  30.218  1.00  0.00     0.031 C 
ATOM     43  C   UNL A   1      40.315  25.466  27.681  1.00  0.00     0.029 A 
ATOM     44  C   UNL A   1      41.703  25.708  28.058  1.00  0.00     0.049 A 
ATOM     45  H   UNL A   1      42.504  27.425  28.924  1.00  0.00     0.167 HD
ATOM     46  C   UNL A   1      44.051  31.174  30.588  1.00  0.00     0.037 A 
ATOM     47  C   UNL A   1      42.713  24.833  27.903  1.00  0.00     0.037 A 
ATOM     48  C   UNL A   1      45.174  30.273  30.557  1.00  0.00     0.049 A 
ATOM     49  C   UNL A   1      44.087  25.220  28.372  1.00  0.00     0.074 A 
ATOM     50  C   UNL A   1      46.470  30.493  30.992  1.00  0.00     0.029 A 
ATOM     51  N   UNL A   1      45.136  28.979  30.057  1.00  0.00    -0.354 N 
ATOM     52  N   UNL A   1      44.487  26.347  28.909  1.00  0.00    -0.248 NA
ATOM     53  C   UNL A   1      45.144  24.211  28.228  1.00  0.00     0.031 C 
ATOM     54  C   UNL A   1      47.224  29.346  30.720  1.00  0.00     0.029 A 
ATOM     55  C   UNL A   1      46.388  28.395  30.155  1.00  0.00     0.049 A 
ATOM     56  H   UNL A   1      44.336  28.541  29.687  1.00  0.00     0.167 HD
ATOM     57  C   UNL A   1      45.836  26.177  29.189  1.00  0.00     0.074 A 
ATOM     58  C   UNL A   1      46.181  24.831  28.776  1.00  0.00     0.031 C 
ATOM     59  C   UNL A   1      46.710  27.055  29.738  1.00  0.00     0.037 A 
BRANCH  46  60
ATOM     60  C   UNL A   1      44.260  32.567  31.103  1.00  0.00     0.057 A 
ATOM     61  C   UNL A   1      44.116  32.878  32.462  1.00  0.00     0.134 A 
ATOM     62  C   UNL A   1      44.635  33.606  30.240  1.00  0.00     0.134 A 
ATOM     63  F   UNL A   1      43.748  31.932  33.340  1.00  0.00    -0.206 F 
ATOM     64  C   UNL A   1      44.307  34.175  32.940  1.00  0.00     0.040 A 
ATOM     65  C   UNL A   1      44.854  34.902  30.711  1.00  0.00     0.040 A 
ATOM     66  F   UNL A   1      44.796  33.378  28.929  1.00  0.00    -0.206 F 
ATOM     67  C   UNL A   1      44.683  35.190  32.064  1.00  0.00     0.006 A 
ENDBRANCH  46  60
BRANCH  47  68
ATOM     68  C   UNL A   1      42.452  23.496  27.315  1.00  0.00     0.057 A 
ATOM     69  C   UNL A   1      42.605  23.269  25.943  1.00  0.00     0.134 A 
ATOM     70  C   UNL A   1      42.057  22.412  28.108  1.00  0.00     0.134 A 
ATOM     71  F   UNL A   1      42.967  24.272  25.129  1.00  0.00    -0.206 F 
ATOM     72  C   UNL A   1      42.360  22.017  25.376  1.00  0.00     0.040 A 
ATOM     73  C   UNL A   1      41.831  21.148  27.558  1.00  0.00     0.040 A 
ATOM     74  F   UNL A   1      41.904  22.561  29.432  1.00  0.00    -0.206 F 
ATOM     75  C   UNL A   1      41.977  20.951  26.186  1.00  0.00     0.006 A 
ENDBRANCH  47  68
BRANCH  59  76
ATOM     76  C   UNL A   1      48.116  26.576  29.943  1.00  0.00     0.057 A 
ATOM     77  C   UNL A   1      48.507  25.915  31.115  1.00  0.00     0.134 A 
ATOM     78  C   UNL A   1      49.080  26.750  28.943  1.00  0.00     0.134 A 
ATOM     79  F   UNL A   1      47.632  25.731  32.115  1.00  0.00    -0.206 F 
ATOM     80  C   UNL A   1      49.815  25.461  31.292  1.00  0.00     0.040 A 
ATOM     81  C   UNL A   1      50.385  26.280  29.099  1.00  0.00     0.040 A 
ATOM     82  F   UNL A   1      48.768  27.370  27.795  1.00  0.00    -0.206 F 
ATOM     83  C   UNL A   1      50.756  25.638  30.280  1.00  0.00     0.006 A 
ENDBRANCH  59  76
ENDBRANCH  33  34
ENDBRANCH  25  28
ENDBRANCH  23  24
ENDBRANCH  22  23
ENDBRANCH  21  22
ENDBRANCH   1  21
TORSDOF 15
ENDMDL
MODEL 2
REMARK VINA RESULT:     -10.7      3.527      4.791
REMARK SMILES C[C@H](CSc1ccc(C(=O)N(C)C)cn1)C(=O)NCCCCNC(=O)c1ccc(-c2c3nc(c(-c4c(F)cccc4F)c4ccc([nH]4)c(-c4c(F)cccc4F)c4nc(c(-c5c(F)cccc5F)c5ccc2[nH]5)C=C4)C=C3)cc1
REMARK SMILES IDX 19 1 18 2 16 3 17 4 2 6 1 7 3 8 4 9 5 10 6 11 15 12 7 13
REMARK SMILES IDX 14 14 8 15 9 16 10 17 11 18 12 19 13 20 20 21 21 22 22 23
REMARK SMILES IDX 23 24 24 25 25 27 26 28 27 29 79 30 28 31 78 32 29 33 30 34
REMARK SMILES IDX 31 35 72 36 32 37 77 38 71 39 73 40 33 41 76 42 70 43 69 44
REMARK SMILES IDX 34 46 60 47 43 48 59 49 44 50 47 51 58 52 74 53 45 54 46 55
REMARK SMILES IDX 57 57 75 58 48 59 35 60 36 61 41 62 37 63 38 64 40 65 42 66
REMARK SMILES IDX 39 67 61 68 62 69 67 70 63 71 64 72 66 73 68 74 65 75 49 76
REMARK SMILES IDX 50 77 55 78 51 79 52 80 54 81 56 82 53 83
REMARK H PARENT 18 5 23 26 73 45 47 56
REMARK Flexibility Score: inf
ROOT
ATOM      1  C   UNL A   1      31.970  28.383  25.902  1.00  0.00     0.116 C 
ENDROOT
BRANCH   1   2
ATOM      2  N   UNL A   1      32.944  27.602  25.174  1.00  0.00    -0.356 N 
ATOM      3  C   UNL A   1      33.250  26.281  25.222  1.00  0.00     0.223 C 
ATOM      4  O   UNL A   1      34.158  25.907  24.470  1.00  0.00    -0.275 OA
ATOM      5  H   UNL A   1      33.479  28.120  24.530  1.00  0.00     0.163 HD
BRANCH   3   6
ATOM      6  C   UNL A   1      32.468  25.239  26.037  1.00  0.00     0.085 C 
ATOM      7  C   UNL A   1      33.417  24.099  26.403  1.00  0.00     0.019 C 
BRANCH   6   8
ATOM      8  C   UNL A   1      31.049  24.880  25.547  1.00  0.00     0.089 C 
BRANCH   8   9
ATOM      9  S   UNL A   1      30.723  24.736  23.736  1.00  0.00    -0.106 SA
BRANCH   9  10
ATOM     10  C   UNL A   1      30.113  26.361  23.342  1.00  0.00     0.096 A 
ATOM     11  C   UNL A   1      28.834  26.740  23.737  1.00  0.00     0.036 A 
ATOM     12  N   UNL A   1      30.924  27.187  22.645  1.00  0.00    -0.249 NA
ATOM     13  C   UNL A   1      28.328  27.977  23.326  1.00  0.00     0.018 A 
ATOM     14  C   UNL A   1      30.429  28.413  22.314  1.00  0.00     0.126 A 
ATOM     15  C   UNL A   1      29.123  28.820  22.556  1.00  0.00     0.058 A 
BRANCH  15  16
ATOM     16  C   UNL A   1      28.683  30.142  22.052  1.00  0.00     0.254 C 
ATOM     17  O   UNL A   1      28.133  30.157  20.953  1.00  0.00    -0.269 OA
ATOM     18  N   UNL A   1      28.869  31.302  22.812  1.00  0.00    -0.345 N 
ATOM     19  C   UNL A   1      29.395  31.371  24.167  1.00  0.00     0.146 C 
ATOM     20  C   UNL A   1      28.519  32.582  22.208  1.00  0.00     0.146 C 
ENDBRANCH  15  16
ENDBRANCH   9  10
ENDBRANCH   8   9
ENDBRANCH   6   8
ENDBRANCH   3   6
ENDBRANCH   1   2
BRANCH   1  21
ATOM     21  C   UNL A   1      32.630  29.269  26.964  1.00  0.00     0.023 C 
BRANCH  21  22
ATOM     22  C   UNL A   1      32.205  30.738  26.911  1.00  0.00     0.023 C 
BRANCH  22  23
ATOM     23  C   UNL A   1      33.269  31.728  27.374  1.00  0.00     0.116 C 
BRANCH  23  24
ATOM     24  N   UNL A   1      32.772  33.079  27.575  1.00  0.00    -0.352 N 
ATOM     25  C   UNL A   1      33.268  34.079  28.382  1.00  0.00     0.251 C 
ATOM     26  H   UNL A   1      31.966  33.313  27.060  1.00  0.00     0.163 HD
ATOM     27  O   UNL A   1      32.648  35.133  28.488  1.00  0.00    -0.269 OA
BRANCH  25  28
ATOM     28  C   UNL A   1      34.474  33.834  29.210  1.00  0.00     0.039 A 
ATOM     29  C   UNL A   1      34.316  33.117  30.400  1.00  0.00     0.014 A 
ATOM     30  C   UNL A   1      35.753  34.198  28.783  1.00  0.00     0.014 A 
ATOM     31  C   UNL A   1      35.439  32.640  31.077  1.00  0.00     0.010 A 
ATOM     32  C   UNL A   1      36.872  33.661  29.415  1.00  0.00     0.010 A 
ATOM     33  C   UNL A   1      36.720  32.842  30.542  1.00  0.00    -0.014 A 
BRANCH  33  34
ATOM     34  C   UNL A   1      37.891  32.106  31.079  1.00  0.00     0.031 A 
ATOM     35  C   UNL A   1      38.505  32.484  32.392  1.00  0.00     0.074 A 
ATOM     36  C   UNL A   1      38.451  31.145  30.317  1.00  0.00     0.049 A 
ATOM     37  N   UNL A   1      39.545  31.968  32.994  1.00  0.00    -0.248 NA
ATOM     38  C   UNL A   1      37.888  33.610  33.111  1.00  0.00     0.031 C 
ATOM     39  C   UNL A   1      37.991  30.749  28.983  1.00  0.00     0.029 A 
ATOM     40  N   UNL A   1      39.535  30.335  30.545  1.00  0.00    -0.354 N 
ATOM     41  C   UNL A   1      39.707  32.700  34.162  1.00  0.00     0.074 A 
ATOM     42  C   UNL A   1      38.695  33.735  34.155  1.00  0.00     0.031 C 
ATOM     43  C   UNL A   1      38.769  29.757  28.523  1.00  0.00     0.029 A 
ATOM     44  C   UNL A   1      39.798  29.464  29.515  1.00  0.00     0.049 A 
ATOM     45  H   UNL A   1      40.072  30.374  31.369  1.00  0.00     0.167 HD
ATOM     46  C   UNL A   1      40.604  32.510  35.159  1.00  0.00     0.037 A 
ATOM     47  C   UNL A   1      40.758  28.531  29.385  1.00  0.00     0.037 A 
ATOM     48  C   UNL A   1      41.603  31.472  35.158  1.00  0.00     0.049 A 
ATOM     49  C   UNL A   1      41.729  28.326  30.513  1.00  0.00     0.074 A 
ATOM     50  C   UNL A   1      42.523  31.158  36.143  1.00  0.00     0.029 A 
ATOM     51  N   UNL A   1      41.816  30.582  34.115  1.00  0.00    -0.354 N 
ATOM     52  N   UNL A   1      41.815  28.968  31.653  1.00  0.00    -0.248 NA
ATOM     53  C   UNL A   1      42.726  27.261  30.344  1.00  0.00     0.031 C 
ATOM     54  C   UNL A   1      43.317  30.102  35.680  1.00  0.00     0.029 A 
ATOM     55  C   UNL A   1      42.864  29.732  34.423  1.00  0.00     0.049 A 
ATOM     56  H   UNL A   1      41.298  30.560  33.278  1.00  0.00     0.167 HD
ATOM     57  C   UNL A   1      42.858  28.371  32.347  1.00  0.00     0.074 A 
ATOM     58  C   UNL A   1      43.363  27.305  31.505  1.00  0.00     0.031 C 
ATOM     59  C   UNL A   1      43.352  28.677  33.571  1.00  0.00     0.037 A 
BRANCH  46  60
ATOM     60  C   UNL A   1      40.532  33.437  36.337  1.00  0.00     0.057 A 
ATOM     61  C   UNL A   1      39.662  33.199  37.409  1.00  0.00     0.134 A 
ATOM     62  C   UNL A   1      41.358  34.567  36.415  1.00  0.00     0.134 A 
ATOM     63  F   UNL A   1      38.836  32.141  37.391  1.00  0.00    -0.206 F 
ATOM     64  C   UNL A   1      39.594  34.064  38.502  1.00  0.00     0.040 A 
ATOM     65  C   UNL A   1      41.317  35.426  37.515  1.00  0.00     0.040 A 
ATOM     66  F   UNL A   1      42.218  34.852  35.427  1.00  0.00    -0.206 F 
ATOM     67  C   UNL A   1      40.427  35.178  38.560  1.00  0.00     0.006 A 
ENDBRANCH  46  60
BRANCH  47  68
ATOM     68  C   UNL A   1      40.819  27.696  28.160  1.00  0.00     0.057 A 
ATOM     69  C   UNL A   1      41.554  28.108  27.042  1.00  0.00     0.134 A 
ATOM     70  C   UNL A   1      40.159  26.464  28.078  1.00  0.00     0.134 A 
ATOM     71  F   UNL A   1      42.196  29.286  27.054  1.00  0.00    -0.206 F 
ATOM     72  C   UNL A   1      41.618  27.335  25.882  1.00  0.00     0.040 A 
ATOM     73  C   UNL A   1      40.233  25.669  26.933  1.00  0.00     0.040 A 
ATOM     74  F   UNL A   1      39.448  26.007  29.119  1.00  0.00    -0.206 F 
ATOM     75  C   UNL A   1      40.961  26.108  25.828  1.00  0.00     0.006 A 
ENDBRANCH  47  68
BRANCH  59  76
ATOM     76  C   UNL A   1      44.482  27.832  34.079  1.00  0.00     0.057 A 
ATOM     77  C   UNL A   1      44.255  26.640  34.777  1.00  0.00     0.134 A 
ATOM     78  C   UNL A   1      45.811  28.202  33.837  1.00  0.00     0.134 A 
ATOM     79  F   UNL A   1      43.005  26.241  35.053  1.00  0.00    -0.206 F 
ATOM     80  C   UNL A   1      45.313  25.853  35.236  1.00  0.00     0.040 A 
ATOM     81  C   UNL A   1      46.877  27.411  34.270  1.00  0.00     0.040 A 
ATOM     82  F   UNL A   1      46.094  29.330  33.169  1.00  0.00    -0.206 F 
ATOM     83  C   UNL A   1      46.628  26.236  34.976  1.00  0.00     0.006 A 
ENDBRANCH  59  76
ENDBRANCH  33  34
ENDBRANCH  25  28
ENDBRANCH  23  24
ENDBRANCH  22  23
ENDBRANCH  21  22
ENDBRANCH   1  21
TORSDOF 15
ENDMDL
MODEL 3
REMARK VINA RESULT:     -10.7      3.389      4.389
REMARK SMILES C[C@H](CSc1ccc(C(=O)N(C)C)cn1)C(=O)NCCCCNC(=O)c1ccc(-c2c3nc(c(-c4c(F)cccc4F)c4ccc([nH]4)c(-c4c(F)cccc4F)c4nc(c(-c5c(F)cccc5F)c5ccc2[nH]5)C=C4)C=C3)cc1
REMARK SMILES IDX 19 1 18 2 16 3 17 4 2 6 1 7 3 8 4 9 5 10 6 11 15 12 7 13
REMARK SMILES IDX 14 14 8 15 9 16 10 17 11 18 12 19 13 20 20 21 21 22 22 23
REMARK SMILES IDX 23 24 24 25 25 27 26 28 27 29 79 30 28 31 78 32 29 33 30 34
REMARK SMILES IDX 31 35 72 36 32 37 77 38 71 39 73 40 33 41 76 42 70 43 69 44
REMARK SMILES IDX 34 46 60 47 43 48 59 49 44 50 47 51 58 52 74 53 45 54 46 55
REMARK SMILES IDX 57 57 75 58 48 59 35 60 36 61 41 62 37 63 38 64 40 65 42 66
REMARK SMILES IDX 39 67 61 68 62 69 67 70 63 71 64 72 66 73 68 74 65 75 49 76
REMARK SMILES IDX 50 77 55 78 51 79 52 80 54 81 56 82 53 83
REMARK H PARENT 18 5 23 26 73 45 47 56
REMARK Flexibility Score: inf
ROOT
ATOM      1  C   UNL A   1      31.358  27.497  26.257  1.00  0.00     0.116 C 
ENDROOT
BRANCH   1   2
ATOM      2  N   UNL A   1      31.237  26.199  26.882  1.00  0.00    -0.356 N 
ATOM      3  C   UNL A   1      31.765  24.993  26.551  1.00  0.00     0.223 C 
ATOM      4  O   UNL A   1      31.463  24.048  27.289  1.00  0.00    -0.275 OA
ATOM      5  H   UNL A   1      30.674  26.188  27.689  1.00  0.00     0.163 HD
BRANCH   3   6
ATOM      6  C   UNL A   1      32.785  24.773  25.423  1.00  0.00     0.085 C 
ATOM      7  C   UNL A   1      34.090  25.466  25.808  1.00  0.00     0.019 C 
BRANCH   6   8
ATOM      8  C   UNL A   1      32.277  24.924  23.972  1.00  0.00     0.089 C 
BRANCH   8   9
ATOM      9  S   UNL A   1      30.488  24.662  23.605  1.00  0.00    -0.106 SA
BRANCH   9  10
ATOM     10  C   UNL A   1      29.939  26.318  23.250  1.00  0.00     0.096 A 
ATOM     11  C   UNL A   1      28.676  26.735  23.658  1.00  0.00     0.036 A 
ATOM     12  N   UNL A   1      30.779  27.128  22.570  1.00  0.00    -0.249 NA
ATOM     13  C   UNL A   1      28.215  27.998  23.277  1.00  0.00     0.018 A 
ATOM     14  C   UNL A   1      30.329  28.380  22.268  1.00  0.00     0.126 A 
ATOM     15  C   UNL A   1      29.039  28.829  22.524  1.00  0.00     0.058 A 
BRANCH  15  16
ATOM     16  C   UNL A   1      28.648  30.178  22.052  1.00  0.00     0.254 C 
ATOM     17  O   UNL A   1      28.084  30.237  20.962  1.00  0.00    -0.269 OA
ATOM     18  N   UNL A   1      28.893  31.314  22.831  1.00  0.00    -0.345 N 
ATOM     19  C   UNL A   1      29.441  31.335  24.179  1.00  0.00     0.146 C 
ATOM     20  C   UNL A   1      28.589  32.619  22.257  1.00  0.00     0.146 C 
ENDBRANCH  15  16
ENDBRANCH   9  10
ENDBRANCH   8   9
ENDBRANCH   6   8
ENDBRANCH   3   6
ENDBRANCH   1   2
BRANCH   1  21
ATOM     21  C   UNL A   1      32.281  28.427  27.052  1.00  0.00     0.023 C 
BRANCH  21  22
ATOM     22  C   UNL A   1      31.731  29.841  27.249  1.00  0.00     0.023 C 
BRANCH  22  23
ATOM     23  C   UNL A   1      32.412  30.915  26.406  1.00  0.00     0.116 C 
BRANCH  23  24
ATOM     24  N   UNL A   1      32.397  32.237  27.009  1.00  0.00    -0.352 N 
ATOM     25  C   UNL A   1      33.387  32.882  27.717  1.00  0.00     0.251 C 
ATOM     26  H   UNL A   1      31.561  32.743  26.894  1.00  0.00     0.163 HD
ATOM     27  O   UNL A   1      33.150  33.971  28.231  1.00  0.00    -0.269 OA
BRANCH  25  28
ATOM     28  C   UNL A   1      34.686  32.209  27.959  1.00  0.00     0.039 A 
ATOM     29  C   UNL A   1      35.817  33.013  28.136  1.00  0.00     0.014 A 
ATOM     30  C   UNL A   1      34.786  30.825  28.122  1.00  0.00     0.014 A 
ATOM     31  C   UNL A   1      37.000  32.451  28.617  1.00  0.00     0.010 A 
ATOM     32  C   UNL A   1      35.940  30.275  28.672  1.00  0.00     0.010 A 
ATOM     33  C   UNL A   1      37.041  31.091  28.965  1.00  0.00    -0.014 A 
BRANCH  33  34
ATOM     34  C   UNL A   1      38.179  30.541  29.741  1.00  0.00     0.031 A 
ATOM     35  C   UNL A   1      38.409  30.946  31.165  1.00  0.00     0.074 A 
ATOM     36  C   UNL A   1      39.059  29.738  29.110  1.00  0.00     0.049 A 
ATOM     37  N   UNL A   1      39.368  30.585  31.978  1.00  0.00    -0.248 NA
ATOM     38  C   UNL A   1      37.455  31.904  31.743  1.00  0.00     0.031 C 
ATOM     39  C   UNL A   1      38.982  29.344  27.700  1.00  0.00     0.029 A 
ATOM     40  N   UNL A   1      40.194  29.117  29.565  1.00  0.00    -0.354 N 
ATOM     41  C   UNL A   1      39.133  31.267  33.164  1.00  0.00     0.074 A 
ATOM     42  C   UNL A   1      37.976  32.109  32.945  1.00  0.00     0.031 C 
ATOM     43  C   UNL A   1      40.011  28.530  27.413  1.00  0.00     0.029 A 
ATOM     44  C   UNL A   1      40.832  28.365  28.607  1.00  0.00     0.049 A 
ATOM     45  H   UNL A   1      40.521  29.202  30.489  1.00  0.00     0.167 HD
ATOM     46  C   UNL A   1      39.808  31.179  34.335  1.00  0.00     0.037 A 
ATOM     47  C   UNL A   1      41.951  27.623  28.683  1.00  0.00     0.037 A 
ATOM     48  C   UNL A   1      40.955  30.334  34.544  1.00  0.00     0.049 A 
ATOM     49  C   UNL A   1      42.671  27.526  29.997  1.00  0.00     0.074 A 
ATOM     50  C   UNL A   1      41.679  30.129  35.707  1.00  0.00     0.029 A 
ATOM     51  N   UNL A   1      41.551  29.555  33.561  1.00  0.00    -0.354 N 
ATOM     52  N   UNL A   1      42.386  28.108  31.138  1.00  0.00    -0.248 NA
ATOM     53  C   UNL A   1      43.858  26.663  30.041  1.00  0.00     0.031 C 
ATOM     54  C   UNL A   1      42.734  29.256  35.418  1.00  0.00     0.029 A 
ATOM     55  C   UNL A   1      42.643  28.884  34.085  1.00  0.00     0.049 A 
ATOM     56  H   UNL A   1      41.243  29.491  32.629  1.00  0.00     0.167 HD
ATOM     57  C   UNL A   1      43.342  27.663  32.041  1.00  0.00     0.074 A 
ATOM     58  C   UNL A   1      44.206  26.751  31.318  1.00  0.00     0.031 C 
ATOM     59  C   UNL A   1      43.490  27.981  33.349  1.00  0.00     0.037 A 
BRANCH  46  60
ATOM     60  C   UNL A   1      39.312  32.012  35.481  1.00  0.00     0.057 A 
ATOM     61  C   UNL A   1      39.730  33.337  35.662  1.00  0.00     0.134 A 
ATOM     62  C   UNL A   1      38.387  31.496  36.398  1.00  0.00     0.134 A 
ATOM     63  F   UNL A   1      40.624  33.888  34.826  1.00  0.00    -0.206 F 
ATOM     64  C   UNL A   1      39.270  34.109  36.730  1.00  0.00     0.040 A 
ATOM     65  C   UNL A   1      37.900  32.268  37.455  1.00  0.00     0.040 A 
ATOM     66  F   UNL A   1      37.939  30.237  36.281  1.00  0.00    -0.206 F 
ATOM     67  C   UNL A   1      38.348  33.577  37.627  1.00  0.00     0.006 A 
ENDBRANCH  46  60
BRANCH  47  68
ATOM     68  C   UNL A   1      42.432  26.882  27.490  1.00  0.00     0.057 A 
ATOM     69  C   UNL A   1      43.282  27.489  26.558  1.00  0.00     0.134 A 
ATOM     70  C   UNL A   1      42.066  25.551  27.257  1.00  0.00     0.134 A 
ATOM     71  F   UNL A   1      43.656  28.767  26.719  1.00  0.00    -0.206 F 
ATOM     72  C   UNL A   1      43.739  26.806  25.430  1.00  0.00     0.040 A 
ATOM     73  C   UNL A   1      42.534  24.848  26.145  1.00  0.00     0.040 A 
ATOM     74  F   UNL A   1      41.263  24.909  28.118  1.00  0.00    -0.206 F 
ATOM     75  C   UNL A   1      43.369  25.478  25.225  1.00  0.00     0.006 A 
ENDBRANCH  47  68
BRANCH  59  76
ATOM     76  C   UNL A   1      44.616  27.318  34.086  1.00  0.00     0.057 A 
ATOM     77  C   UNL A   1      44.463  26.067  34.695  1.00  0.00     0.134 A 
ATOM     78  C   UNL A   1      45.875  27.927  34.158  1.00  0.00     0.134 A 
ATOM     79  F   UNL A   1      43.278  25.441  34.674  1.00  0.00    -0.206 F 
ATOM     80  C   UNL A   1      45.520  25.452  35.368  1.00  0.00     0.040 A 
ATOM     81  C   UNL A   1      46.946  27.311  34.807  1.00  0.00     0.040 A 
ATOM     82  F   UNL A   1      46.087  29.123  33.589  1.00  0.00    -0.206 F 
ATOM     83  C   UNL A   1      46.768  26.072  35.420  1.00  0.00     0.006 A 
ENDBRANCH  59  76
ENDBRANCH  33  34
ENDBRANCH  25  28
ENDBRANCH  23  24
ENDBRANCH  22  23
ENDBRANCH  21  22
ENDBRANCH   1  21
TORSDOF 15
ENDMDL
