MODEL 1
REMARK VINA RESULT:     -12.5      0.000      0.000
REMARK SMILES O=C(NCCCCNC(=O)c1cc(=O)[nH]c2ccc(C(F)(F)F)cc12)c1ccc(-c2c3nc(c(-c4c(F)cccc4F)c4ccc([nH]4)c(-c4c(F)cccc4F)c4nc(c(-c5c(F)cccc5F)c5ccc2[nH]5)C=C4)C=C3)cc1
REMARK SMILES IDX 5 1 4 2 3 3 1 4 2 5 26 7 27 8 79 9 28 10 78 11 29 12 30 13
REMARK SMILES IDX 31 14 72 15 32 16 77 17 71 18 73 19 33 20 76 21 70 22 69 23
REMARK SMILES IDX 34 25 60 26 43 27 59 28 44 29 47 30 58 31 74 32 45 33 46 34
REMARK SMILES IDX 57 36 75 37 48 38 35 39 36 40 41 41 37 42 38 43 40 44 42 45
REMARK SMILES IDX 39 46 61 47 62 48 67 49 63 50 64 51 66 52 68 53 65 54 49 55
REMARK SMILES IDX 50 56 55 57 51 58 52 59 54 60 56 61 53 62 6 63 7 64 8 65
REMARK SMILES IDX 9 66 10 68 11 69 12 70 25 71 13 72 16 73 24 74 14 75 15 76
REMARK SMILES IDX 17 77 19 78 18 80 20 81 21 82 22 83 23 84
REMARK H PARENT 3 6 73 24 47 35 8 67 15 79
REMARK Flexibility Score: inf
ROOT
ATOM      1  C   UNL A   1      31.403  32.025  26.908  1.00  0.00     0.023 C 
ENDROOT
BRANCH   1   2
ATOM      2  C   UNL A   1      32.687  32.837  27.011  1.00  0.00     0.116 C 
BRANCH   2   3
ATOM      3  N   UNL A   1      32.482  34.152  27.596  1.00  0.00    -0.352 N 
ATOM      4  O   UNL A   1      32.747  35.814  29.099  1.00  0.00    -0.269 OA
ATOM      5  C   UNL A   1      33.142  34.743  28.646  1.00  0.00     0.251 C 
ATOM      6  H   UNL A   1      31.774  34.695  27.180  1.00  0.00     0.163 HD
BRANCH   5   7
ATOM      7  C   UNL A   1      34.317  34.076  29.248  1.00  0.00     0.039 A 
ATOM      8  C   UNL A   1      34.155  33.107  30.242  1.00  0.00     0.014 A 
ATOM      9  C   UNL A   1      35.596  34.410  28.795  1.00  0.00     0.014 A 
ATOM     10  C   UNL A   1      35.273  32.560  30.862  1.00  0.00     0.010 A 
ATOM     11  C   UNL A   1      36.717  33.800  29.364  1.00  0.00     0.010 A 
ATOM     12  C   UNL A   1      36.564  32.879  30.412  1.00  0.00    -0.014 A 
BRANCH  12  13
ATOM     13  C   UNL A   1      37.727  32.145  30.968  1.00  0.00     0.031 A 
ATOM     14  C   UNL A   1      38.408  31.050  30.200  1.00  0.00     0.074 A 
ATOM     15  C   UNL A   1      38.163  32.490  32.196  1.00  0.00     0.049 A 
ATOM     16  N   UNL A   1      39.430  30.313  30.556  1.00  0.00    -0.248 NA
ATOM     17  C   UNL A   1      37.876  30.733  28.865  1.00  0.00     0.031 C 
ATOM     18  C   UNL A   1      37.560  33.523  33.043  1.00  0.00     0.029 A 
ATOM     19  N   UNL A   1      39.210  32.018  32.944  1.00  0.00    -0.354 N 
ATOM     20  C   UNL A   1      39.654  29.435  29.503  1.00  0.00     0.074 A 
ATOM     21  C   UNL A   1      38.652  29.720  28.498  1.00  0.00     0.031 C 
ATOM     22  C   UNL A   1      38.262  33.626  34.180  1.00  0.00     0.029 A 
ATOM     23  C   UNL A   1      39.325  32.629  34.170  1.00  0.00     0.049 A 
ATOM     24  H   UNL A   1      39.821  31.311  32.634  1.00  0.00     0.167 HD
ATOM     25  C   UNL A   1      40.610  28.484  29.393  1.00  0.00     0.037 A 
ATOM     26  C   UNL A   1      40.171  32.393  35.188  1.00  0.00     0.037 A 
ATOM     27  C   UNL A   1      41.618  28.224  30.390  1.00  0.00     0.049 A 
ATOM     28  C   UNL A   1      41.203  31.316  35.040  1.00  0.00     0.074 A 
ATOM     29  C   UNL A   1      42.678  27.334  30.332  1.00  0.00     0.029 A 
ATOM     30  N   UNL A   1      41.686  28.843  31.628  1.00  0.00    -0.354 N 
ATOM     31  N   UNL A   1      41.443  30.540  34.011  1.00  0.00    -0.248 NA
ATOM     32  C   UNL A   1      42.076  31.073  36.196  1.00  0.00     0.031 C 
ATOM     33  C   UNL A   1      43.355  27.378  31.555  1.00  0.00     0.029 A 
ATOM     34  C   UNL A   1      42.745  28.327  32.358  1.00  0.00     0.049 A 
ATOM     35  H   UNL A   1      41.073  29.546  31.943  1.00  0.00     0.167 HD
ATOM     36  C   UNL A   1      42.495  29.720  34.393  1.00  0.00     0.074 A 
ATOM     37  C   UNL A   1      42.868  30.115  35.736  1.00  0.00     0.031 C 
ATOM     38  C   UNL A   1      43.093  28.724  33.697  1.00  0.00     0.037 A 
BRANCH  25  39
ATOM     39  C   UNL A   1      40.625  27.632  28.157  1.00  0.00     0.057 A 
ATOM     40  C   UNL A   1      41.353  27.994  27.018  1.00  0.00     0.134 A 
ATOM     41  C   UNL A   1      39.985  26.386  28.148  1.00  0.00     0.134 A 
ATOM     42  F   UNL A   1      41.984  29.176  26.962  1.00  0.00    -0.206 F 
ATOM     43  C   UNL A   1      41.442  27.146  25.911  1.00  0.00     0.040 A 
ATOM     44  C   UNL A   1      40.083  25.522  27.056  1.00  0.00     0.040 A 
ATOM     45  F   UNL A   1      39.278  25.975  29.212  1.00  0.00    -0.206 F 
ATOM     46  C   UNL A   1      40.815  25.902  25.934  1.00  0.00     0.006 A 
ENDBRANCH  25  39
BRANCH  26  47
ATOM     47  C   UNL A   1      40.049  33.167  36.447  1.00  0.00     0.057 A 
ATOM     48  C   UNL A   1      40.824  34.307  36.679  1.00  0.00     0.134 A 
ATOM     49  C   UNL A   1      39.157  32.776  37.455  1.00  0.00     0.134 A 
ATOM     50  F   UNL A   1      41.708  34.720  35.759  1.00  0.00    -0.206 F 
ATOM     51  C   UNL A   1      40.731  35.022  37.874  1.00  0.00     0.040 A 
ATOM     52  C   UNL A   1      39.033  33.497  38.642  1.00  0.00     0.040 A 
ATOM     53  F   UNL A   1      38.381  31.695  37.290  1.00  0.00    -0.206 F 
ATOM     54  C   UNL A   1      39.830  34.619  38.858  1.00  0.00     0.006 A 
ENDBRANCH  26  47
BRANCH  38  55
ATOM     55  C   UNL A   1      44.210  27.998  34.382  1.00  0.00     0.057 A 
ATOM     56  C   UNL A   1      43.982  26.821  35.107  1.00  0.00     0.134 A 
ATOM     57  C   UNL A   1      45.526  28.467  34.304  1.00  0.00     0.134 A 
ATOM     58  F   UNL A   1      42.739  26.331  35.233  1.00  0.00    -0.206 F 
ATOM     59  C   UNL A   1      45.022  26.146  35.747  1.00  0.00     0.040 A 
ATOM     60  C   UNL A   1      46.578  27.788  34.919  1.00  0.00     0.040 A 
ATOM     61  F   UNL A   1      45.812  29.586  33.621  1.00  0.00    -0.206 F 
ATOM     62  C   UNL A   1      46.326  26.628  35.649  1.00  0.00     0.006 A 
ENDBRANCH  38  55
ENDBRANCH  12  13
ENDBRANCH   5   7
ENDBRANCH   2   3
ENDBRANCH   1   2
BRANCH   1  63
ATOM     63  C   UNL A   1      31.381  30.970  25.804  1.00  0.00     0.023 C 
BRANCH  63  64
ATOM     64  C   UNL A   1      32.481  29.913  25.881  1.00  0.00     0.116 C 
BRANCH  64  65
ATOM     65  N   UNL A   1      33.091  29.641  24.590  1.00  0.00    -0.352 N 
ATOM     66  C   UNL A   1      32.787  28.699  23.650  1.00  0.00     0.252 C 
ATOM     67  H   UNL A   1      33.844  30.230  24.356  1.00  0.00     0.163 HD
ATOM     68  O   UNL A   1      33.489  28.597  22.648  1.00  0.00    -0.269 OA
BRANCH  66  69
ATOM     69  C   UNL A   1      31.632  27.794  23.871  1.00  0.00     0.054 A 
ATOM     70  C   UNL A   1      31.888  26.631  24.495  1.00  0.00     0.086 A 
ATOM     71  C   UNL A   1      30.243  28.164  23.544  1.00  0.00     0.012 A 
ATOM     72  C   UNL A   1      30.824  25.640  24.737  1.00  0.00     0.249 A 
ATOM     73  C   UNL A   1      29.229  27.230  23.806  1.00  0.00     0.049 A 
ATOM     74  C   UNL A   1      29.886  29.403  22.993  1.00  0.00     0.024 A 
ATOM     75  O   UNL A   1      31.089  24.549  25.228  1.00  0.00    -0.270 OA
ATOM     76  N   UNL A   1      29.557  25.994  24.374  1.00  0.00    -0.322 N 
ATOM     77  C   UNL A   1      27.894  27.515  23.518  1.00  0.00     0.027 A 
ATOM     78  C   UNL A   1      28.542  29.713  22.715  1.00  0.00     0.056 A 
ATOM     79  H   UNL A   1      28.833  25.343  24.521  1.00  0.00     0.170 HD
ATOM     80  C   UNL A   1      27.552  28.755  22.978  1.00  0.00     0.015 A 
BRANCH  78  81
ATOM     81  C   UNL A   1      28.185  31.067  22.146  1.00  0.00     0.416 C 
ATOM     82  F   UNL A   1      29.266  31.883  22.017  1.00  0.00    -0.166 F 
ATOM     83  F   UNL A   1      27.631  30.977  20.904  1.00  0.00    -0.166 F 
ATOM     84  F   UNL A   1      27.287  31.755  22.904  1.00  0.00    -0.166 F 
ENDBRANCH  78  81
ENDBRANCH  66  69
ENDBRANCH  64  65
ENDBRANCH  63  64
ENDBRANCH   1  63
TORSDOF 12
ENDMDL
MODEL 2
REMARK VINA RESULT:     -12.5      6.161     10.962
REMARK SMILES O=C(NCCCCNC(=O)c1cc(=O)[nH]c2ccc(C(F)(F)F)cc12)c1ccc(-c2c3nc(c(-c4c(F)cccc4F)c4ccc([nH]4)c(-c4c(F)cccc4F)c4nc(c(-c5c(F)cccc5F)c5ccc2[nH]5)C=C4)C=C3)cc1
REMARK SMILES IDX 5 1 4 2 3 3 1 4 2 5 26 7 27 8 79 9 28 10 78 11 29 12 30 13
REMARK SMILES IDX 31 14 72 15 32 16 77 17 71 18 73 19 33 20 76 21 70 22 69 23
REMARK SMILES IDX 34 25 60 26 43 27 59 28 44 29 47 30 58 31 74 32 45 33 46 34
REMARK SMILES IDX 57 36 75 37 48 38 35 39 36 40 41 41 37 42 38 43 40 44 42 45
REMARK SMILES IDX 39 46 61 47 62 48 67 49 63 50 64 51 66 52 68 53 65 54 49 55
REMARK SMILES IDX 50 56 55 57 51 58 52 59 54 60 56 61 53 62 6 63 7 64 8 65
REMARK SMILES IDX 9 66 10 68 11 69 12 70 25 71 13 72 16 73 24 74 14 75 15 76
REMARK SMILES IDX 17 77 19 78 18 80 20 81 21 82 22 83 23 84
REMARK H PARENT 3 6 73 24 47 35 8 67 15 79
REMARK Flexibility Score: inf
ROOT
ATOM      1  C   UNL A   1      37.765  19.578  25.000  1.00  0.00     0.023 C 
ENDROOT
BRANCH   1   2
ATOM      2  C   UNL A   1      38.998  20.084  25.737  1.00  0.00     0.116 C 
BRANCH   2   3
ATOM      3  N   UNL A   1      40.059  19.094  25.815  1.00  0.00    -0.352 N 
ATOM      4  O   UNL A   1      42.182  18.340  25.939  1.00  0.00    -0.269 OA
ATOM      5  C   UNL A   1      41.401  19.282  26.039  1.00  0.00     0.251 C 
ATOM      6  H   UNL A   1      39.776  18.159  25.692  1.00  0.00     0.163 HD
BRANCH   5   7
ATOM      7  C   UNL A   1      41.910  20.628  26.380  1.00  0.00     0.039 A 
ATOM      8  C   UNL A   1      42.189  21.560  25.377  1.00  0.00     0.014 A 
ATOM      9  C   UNL A   1      42.090  20.969  27.724  1.00  0.00     0.014 A 
ATOM     10  C   UNL A   1      42.756  22.786  25.709  1.00  0.00     0.010 A 
ATOM     11  C   UNL A   1      42.585  22.232  28.061  1.00  0.00     0.010 A 
ATOM     12  C   UNL A   1      42.934  23.145  27.055  1.00  0.00    -0.014 A 
BRANCH  12  13
ATOM     13  C   UNL A   1      43.369  24.524  27.384  1.00  0.00     0.031 A 
ATOM     14  C   UNL A   1      42.393  25.571  27.836  1.00  0.00     0.074 A 
ATOM     15  C   UNL A   1      44.679  24.819  27.266  1.00  0.00     0.049 A 
ATOM     16  N   UNL A   1      42.620  26.821  28.152  1.00  0.00    -0.248 NA
ATOM     17  C   UNL A   1      40.980  25.174  27.943  1.00  0.00     0.031 C 
ATOM     18  C   UNL A   1      45.713  23.885  26.810  1.00  0.00     0.029 A 
ATOM     19  N   UNL A   1      45.367  25.977  27.519  1.00  0.00    -0.354 N 
ATOM     20  C   UNL A   1      41.384  27.365  28.478  1.00  0.00     0.074 A 
ATOM     21  C   UNL A   1      40.404  26.313  28.307  1.00  0.00     0.031 C 
ATOM     22  C   UNL A   1      46.905  24.497  26.844  1.00  0.00     0.029 A 
ATOM     23  C   UNL A   1      46.713  25.879  27.263  1.00  0.00     0.049 A 
ATOM     24  H   UNL A   1      44.939  26.798  27.854  1.00  0.00     0.167 HD
ATOM     25  C   UNL A   1      41.102  28.626  28.882  1.00  0.00     0.037 A 
ATOM     26  C   UNL A   1      47.684  26.807  27.326  1.00  0.00     0.037 A 
ATOM     27  C   UNL A   1      42.088  29.660  29.072  1.00  0.00     0.049 A 
ATOM     28  C   UNL A   1      47.332  28.200  27.756  1.00  0.00     0.074 A 
ATOM     29  C   UNL A   1      41.907  30.944  29.555  1.00  0.00     0.029 A 
ATOM     30  N   UNL A   1      43.436  29.531  28.776  1.00  0.00    -0.354 N 
ATOM     31  N   UNL A   1      46.169  28.679  28.124  1.00  0.00    -0.248 NA
ATOM     32  C   UNL A   1      48.422  29.184  27.771  1.00  0.00     0.031 C 
ATOM     33  C   UNL A   1      43.137  31.610  29.503  1.00  0.00     0.029 A 
ATOM     34  C   UNL A   1      44.091  30.726  29.029  1.00  0.00     0.049 A 
ATOM     35  H   UNL A   1      43.866  28.714  28.436  1.00  0.00     0.167 HD
ATOM     36  C   UNL A   1      46.387  30.017  28.418  1.00  0.00     0.074 A 
ATOM     37  C   UNL A   1      47.799  30.266  28.215  1.00  0.00     0.031 C 
ATOM     38  C   UNL A   1      45.495  30.958  28.811  1.00  0.00     0.037 A 
BRANCH  25  39
ATOM     39  C   UNL A   1      39.668  28.982  29.145  1.00  0.00     0.057 A 
ATOM     40  C   UNL A   1      38.807  29.388  28.120  1.00  0.00     0.134 A 
ATOM     41  C   UNL A   1      39.120  28.817  30.424  1.00  0.00     0.134 A 
ATOM     42  F   UNL A   1      39.271  29.570  26.875  1.00  0.00    -0.206 F 
ATOM     43  C   UNL A   1      37.450  29.620  28.358  1.00  0.00     0.040 A 
ATOM     44  C   UNL A   1      37.762  29.027  30.670  1.00  0.00     0.040 A 
ATOM     45  F   UNL A   1      39.890  28.421  31.450  1.00  0.00    -0.206 F 
ATOM     46  C   UNL A   1      36.923  29.428  29.633  1.00  0.00     0.006 A 
ENDBRANCH  25  39
BRANCH  26  47
ATOM     47  C   UNL A   1      49.072  26.456  26.937  1.00  0.00     0.057 A 
ATOM     48  C   UNL A   1      49.533  26.646  25.632  1.00  0.00     0.134 A 
ATOM     49  C   UNL A   1      49.969  25.911  27.866  1.00  0.00     0.134 A 
ATOM     50  F   UNL A   1      48.715  27.147  24.694  1.00  0.00    -0.206 F 
ATOM     51  C   UNL A   1      50.829  26.291  25.256  1.00  0.00     0.040 A 
ATOM     52  C   UNL A   1      51.276  25.578  27.513  1.00  0.00     0.040 A 
ATOM     53  F   UNL A   1      49.589  25.711  29.137  1.00  0.00    -0.206 F 
ATOM     54  C   UNL A   1      51.706  25.759  26.201  1.00  0.00     0.006 A 
ENDBRANCH  26  47
BRANCH  38  55
ATOM     55  C   UNL A   1      46.029  32.338  29.045  1.00  0.00     0.057 A 
ATOM     56  C   UNL A   1      46.032  33.304  28.030  1.00  0.00     0.134 A 
ATOM     57  C   UNL A   1      46.528  32.712  30.298  1.00  0.00     0.134 A 
ATOM     58  F   UNL A   1      45.583  33.001  26.802  1.00  0.00    -0.206 F 
ATOM     59  C   UNL A   1      46.532  34.588  28.248  1.00  0.00     0.040 A 
ATOM     60  C   UNL A   1      47.009  34.000  30.535  1.00  0.00     0.040 A 
ATOM     61  F   UNL A   1      46.549  31.835  31.313  1.00  0.00    -0.206 F 
ATOM     62  C   UNL A   1      47.017  34.939  29.507  1.00  0.00     0.006 A 
ENDBRANCH  38  55
ENDBRANCH  12  13
ENDBRANCH   5   7
ENDBRANCH   2   3
ENDBRANCH   1   2
BRANCH   1  63
ATOM     63  C   UNL A   1      36.848  20.660  24.435  1.00  0.00     0.023 C 
BRANCH  63  64
ATOM     64  C   UNL A   1      36.629  21.873  25.337  1.00  0.00     0.116 C 
BRANCH  64  65
ATOM     65  N   UNL A   1      35.764  21.583  26.470  1.00  0.00    -0.352 N 
ATOM     66  C   UNL A   1      34.404  21.496  26.545  1.00  0.00     0.252 C 
ATOM     67  H   UNL A   1      36.235  21.424  27.320  1.00  0.00     0.163 HD
ATOM     68  O   UNL A   1      33.869  21.309  27.633  1.00  0.00    -0.269 OA
BRANCH  66  69
ATOM     69  C   UNL A   1      33.594  21.660  25.311  1.00  0.00     0.054 A 
ATOM     70  C   UNL A   1      33.249  22.916  24.980  1.00  0.00     0.086 A 
ATOM     71  C   UNL A   1      33.266  20.543  24.407  1.00  0.00     0.012 A 
ATOM     72  C   UNL A   1      32.416  23.195  23.796  1.00  0.00     0.249 A 
ATOM     73  C   UNL A   1      32.500  20.818  23.264  1.00  0.00     0.049 A 
ATOM     74  C   UNL A   1      33.686  19.224  24.630  1.00  0.00     0.024 A 
ATOM     75  O   UNL A   1      32.036  24.335  23.557  1.00  0.00    -0.270 OA
ATOM     76  N   UNL A   1      32.085  22.130  23.009  1.00  0.00    -0.322 N 
ATOM     77  C   UNL A   1      32.151  19.807  22.368  1.00  0.00     0.027 A 
ATOM     78  C   UNL A   1      33.359  18.196  23.726  1.00  0.00     0.056 A 
ATOM     79  H   UNL A   1      31.524  22.295  22.217  1.00  0.00     0.170 HD
ATOM     80  C   UNL A   1      32.583  18.501  22.597  1.00  0.00     0.015 A 
BRANCH  78  81
ATOM     81  C   UNL A   1      33.848  16.788  23.978  1.00  0.00     0.416 C 
ATOM     82  F   UNL A   1      34.798  16.731  24.952  1.00  0.00    -0.166 F 
ATOM     83  F   UNL A   1      32.847  15.956  24.379  1.00  0.00    -0.166 F 
ATOM     84  F   UNL A   1      34.403  16.202  22.882  1.00  0.00    -0.166 F 
ENDBRANCH  78  81
ENDBRANCH  66  69
ENDBRANCH  64  65
ENDBRANCH  63  64
ENDBRANCH   1  63
TORSDOF 12
ENDMDL
MODEL 3
REMARK VINA RESULT:     -12.4      5.975     10.123
REMARK SMILES O=C(NCCCCNC(=O)c1cc(=O)[nH]c2ccc(C(F)(F)F)cc12)c1ccc(-c2c3nc(c(-c4c(F)cccc4F)c4ccc([nH]4)c(-c4c(F)cccc4F)c4nc(c(-c5c(F)cccc5F)c5ccc2[nH]5)C=C4)C=C3)cc1
REMARK SMILES IDX 5 1 4 2 3 3 1 4 2 5 26 7 27 8 79 9 28 10 78 11 29 12 30 13
REMARK SMILES IDX 31 14 72 15 32 16 77 17 71 18 73 19 33 20 76 21 70 22 69 23
REMARK SMILES IDX 34 25 60 26 43 27 59 28 44 29 47 30 58 31 74 32 45 33 46 34
REMARK SMILES IDX 57 36 75 37 48 38 35 39 36 40 41 41 37 42 38 43 40 44 42 45
REMARK SMILES IDX 39 46 61 47 62 48 67 49 63 50 64 51 66 52 68 53 65 54 49 55
REMARK SMILES IDX 50 56 55 57 51 58 52 59 54 60 56 61 53 62 6 63 7 64 8 65
REMARK SMILES IDX 9 66 10 68 11 69 12 70 25 71 13 72 16 73 24 74 14 75 15 76
REMARK SMILES IDX 17 77 19 78 18 80 20 81 21 82 22 83 23 84
REMARK H PARENT 3 6 73 24 47 35 8 67 15 79
REMARK Flexibility Score: inf
ROOT
ATOM      1  C   UNL A   1      37.781  19.576  25.007  1.00  0.00     0.023 C 
ENDROOT
BRANCH   1   2
ATOM      2  C   UNL A   1      38.993  20.100  25.766  1.00  0.00     0.116 C 
BRANCH   2   3
ATOM      3  N   UNL A   1      40.076  19.135  25.842  1.00  0.00    -0.352 N 
ATOM      4  O   UNL A   1      42.215  18.429  25.985  1.00  0.00    -0.269 OA
ATOM      5  C   UNL A   1      41.410  19.350  26.091  1.00  0.00     0.251 C 
ATOM      6  H   UNL A   1      39.818  18.196  25.696  1.00  0.00     0.163 HD
BRANCH   5   7
ATOM      7  C   UNL A   1      41.881  20.701  26.467  1.00  0.00     0.039 A 
ATOM      8  C   UNL A   1      42.177  21.651  25.486  1.00  0.00     0.014 A 
ATOM      9  C   UNL A   1      42.006  21.027  27.821  1.00  0.00     0.014 A 
ATOM     10  C   UNL A   1      42.708  22.882  25.853  1.00  0.00     0.010 A 
ATOM     11  C   UNL A   1      42.465  22.294  28.191  1.00  0.00     0.010 A 
ATOM     12  C   UNL A   1      42.832  23.227  27.210  1.00  0.00    -0.014 A 
BRANCH  12  13
ATOM     13  C   UNL A   1      43.228  24.610  27.571  1.00  0.00     0.031 A 
ATOM     14  C   UNL A   1      44.661  25.055  27.529  1.00  0.00     0.074 A 
ATOM     15  C   UNL A   1      42.258  25.469  27.944  1.00  0.00     0.049 A 
ATOM     16  N   UNL A   1      45.164  26.228  27.824  1.00  0.00    -0.248 NA
ATOM     17  C   UNL A   1      45.663  24.062  27.110  1.00  0.00     0.031 C 
ATOM     18  C   UNL A   1      40.834  25.135  28.046  1.00  0.00     0.029 A 
ATOM     19  N   UNL A   1      42.315  26.790  28.302  1.00  0.00    -0.354 N 
ATOM     20  C   UNL A   1      46.536  26.112  27.644  1.00  0.00     0.074 A 
ATOM     21  C   UNL A   1      46.792  24.749  27.228  1.00  0.00     0.031 C 
ATOM     22  C   UNL A   1      40.151  26.229  28.411  1.00  0.00     0.029 A 
ATOM     23  C   UNL A   1      41.091  27.321  28.628  1.00  0.00     0.049 A 
ATOM     24  H   UNL A   1      43.151  27.309  28.322  1.00  0.00     0.167 HD
ATOM     25  C   UNL A   1      47.487  27.061  27.811  1.00  0.00     0.037 A 
ATOM     26  C   UNL A   1      40.761  28.543  29.083  1.00  0.00     0.037 A 
ATOM     27  C   UNL A   1      47.219  28.422  28.202  1.00  0.00     0.049 A 
ATOM     28  C   UNL A   1      41.843  29.562  29.279  1.00  0.00     0.074 A 
ATOM     29  C   UNL A   1      48.110  29.475  28.320  1.00  0.00     0.029 A 
ATOM     30  N   UNL A   1      45.971  28.914  28.550  1.00  0.00    -0.354 N 
ATOM     31  N   UNL A   1      43.128  29.455  29.041  1.00  0.00    -0.248 NA
ATOM     32  C   UNL A   1      41.435  30.867  29.815  1.00  0.00     0.031 C 
ATOM     33  C   UNL A   1      47.409  30.591  28.789  1.00  0.00     0.029 A 
ATOM     34  C   UNL A   1      46.075  30.246  28.921  1.00  0.00     0.049 A 
ATOM     35  H   UNL A   1      45.135  28.396  28.537  1.00  0.00     0.167 HD
ATOM     36  C   UNL A   1      43.680  30.678  29.393  1.00  0.00     0.074 A 
ATOM     37  C   UNL A   1      42.587  31.521  29.831  1.00  0.00     0.031 C 
ATOM     38  C   UNL A   1      44.978  31.065  29.365  1.00  0.00     0.037 A 
BRANCH  25  39
ATOM     39  C   UNL A   1      48.920  26.677  27.584  1.00  0.00     0.057 A 
ATOM     40  C   UNL A   1      49.728  26.188  28.618  1.00  0.00     0.134 A 
ATOM     41  C   UNL A   1      49.464  26.700  26.293  1.00  0.00     0.134 A 
ATOM     42  F   UNL A   1      49.268  26.144  29.876  1.00  0.00    -0.206 F 
ATOM     43  C   UNL A   1      51.028  25.738  28.375  1.00  0.00     0.040 A 
ATOM     44  C   UNL A   1      50.755  26.236  26.035  1.00  0.00     0.040 A 
ATOM     45  F   UNL A   1      48.739  27.149  25.256  1.00  0.00    -0.206 F 
ATOM     46  C   UNL A   1      51.540  25.751  27.079  1.00  0.00     0.006 A 
ENDBRANCH  25  39
BRANCH  26  47
ATOM     47  C   UNL A   1      39.350  28.852  29.420  1.00  0.00     0.057 A 
ATOM     48  C   UNL A   1      38.481  29.405  28.475  1.00  0.00     0.134 A 
ATOM     49  C   UNL A   1      38.841  28.610  30.703  1.00  0.00     0.134 A 
ATOM     50  F   UNL A   1      38.915  29.676  27.236  1.00  0.00    -0.206 F 
ATOM     51  C   UNL A   1      37.160  29.723  28.797  1.00  0.00     0.040 A 
ATOM     52  C   UNL A   1      37.516  28.896  31.030  1.00  0.00     0.040 A 
ATOM     53  F   UNL A   1      39.624  28.075  31.652  1.00  0.00    -0.206 F 
ATOM     54  C   UNL A   1      36.674  29.463  30.077  1.00  0.00     0.006 A 
ENDBRANCH  26  47
BRANCH  38  55
ATOM     55  C   UNL A   1      45.276  32.460  29.822  1.00  0.00     0.057 A 
ATOM     56  C   UNL A   1      45.648  32.733  31.145  1.00  0.00     0.134 A 
ATOM     57  C   UNL A   1      45.210  33.537  28.931  1.00  0.00     0.134 A 
ATOM     58  F   UNL A   1      45.712  31.745  32.051  1.00  0.00    -0.206 F 
ATOM     59  C   UNL A   1      45.923  34.033  31.570  1.00  0.00     0.040 A 
ATOM     60  C   UNL A   1      45.506  34.838  29.339  1.00  0.00     0.040 A 
ATOM     61  F   UNL A   1      44.865  33.342  27.649  1.00  0.00    -0.206 F 
ATOM     62  C   UNL A   1      45.858  35.089  30.663  1.00  0.00     0.006 A 
ENDBRANCH  38  55
ENDBRANCH  12  13
ENDBRANCH   5   7
ENDBRANCH   2   3
ENDBRANCH   1   2
BRANCH   1  63
ATOM     63  C   UNL A   1      36.812  20.643  24.502  1.00  0.00     0.023 C 
BRANCH  63  64
ATOM     64  C   UNL A   1      36.634  21.855  25.414  1.00  0.00     0.116 C 
BRANCH  64  65
ATOM     65  N   UNL A   1      35.769  21.580  26.551  1.00  0.00    -0.352 N 
ATOM     66  C   UNL A   1      34.409  21.507  26.630  1.00  0.00     0.252 C 
ATOM     67  H   UNL A   1      36.241  21.421  27.400  1.00  0.00     0.163 HD
ATOM     68  O   UNL A   1      33.875  21.333  27.721  1.00  0.00    -0.269 OA
BRANCH  66  69
ATOM     69  C   UNL A   1      33.597  21.673  25.398  1.00  0.00     0.054 A 
ATOM     70  C   UNL A   1      33.273  22.931  25.054  1.00  0.00     0.086 A 
ATOM     71  C   UNL A   1      33.244  20.552  24.508  1.00  0.00     0.012 A 
ATOM     72  C   UNL A   1      32.441  23.212  23.869  1.00  0.00     0.249 A 
ATOM     73  C   UNL A   1      32.479  20.829  23.364  1.00  0.00     0.049 A 
ATOM     74  C   UNL A   1      33.641  19.228  24.744  1.00  0.00     0.024 A 
ATOM     75  O   UNL A   1      32.082  24.357  23.619  1.00  0.00    -0.270 OA
ATOM     76  N   UNL A   1      32.087  22.145  23.096  1.00  0.00    -0.322 N 
ATOM     77  C   UNL A   1      32.108  19.814  22.482  1.00  0.00     0.027 A 
ATOM     78  C   UNL A   1      33.291  18.196  23.853  1.00  0.00     0.056 A 
ATOM     79  H   UNL A   1      31.526  22.311  22.305  1.00  0.00     0.170 HD
ATOM     80  C   UNL A   1      32.516  18.503  22.724  1.00  0.00     0.015 A 
BRANCH  78  81
ATOM     81  C   UNL A   1      33.755  16.782  24.120  1.00  0.00     0.416 C 
ATOM     82  F   UNL A   1      34.764  16.726  25.031  1.00  0.00    -0.166 F 
ATOM     83  F   UNL A   1      32.759  15.994  24.612  1.00  0.00    -0.166 F 
ATOM     84  F   UNL A   1      34.220  16.145  23.010  1.00  0.00    -0.166 F 
ENDBRANCH  78  81
ENDBRANCH  66  69
ENDBRANCH  64  65
ENDBRANCH  63  64
ENDBRANCH   1  63
TORSDOF 12
ENDMDL
