MODEL 1
REMARK VINA RESULT:      -9.2      0.000      0.000
REMARK SMILES COC[C@@H](C)CC(=O)N1CC(CC(=O)NCCCCNC(=O)c2ccc(-c3c4nc(c(-c5c(F)cccc5F)c5ccc([nH]5)c(-c5c(F)cccc5F)c5nc(c(-c6c(F)cccc6F)c6ccc3[nH]6)C=C5)C=C4)cc2)C1
REMARK SMILES IDX 16 1 15 2 13 3 14 4 12 6 11 7 7 8 8 9 9 10 10 11 77 12 6 13
REMARK SMILES IDX 4 14 5 15 3 16 2 17 1 18 17 19 18 20 19 21 20 22 21 23 22 25
REMARK SMILES IDX 23 26 24 27 76 28 25 29 75 30 26 31 27 32 28 33 69 34 29 35
REMARK SMILES IDX 74 36 68 37 70 38 30 39 73 40 67 41 66 42 31 44 57 45 40 46
REMARK SMILES IDX 56 47 41 48 44 49 55 50 71 51 42 52 43 53 54 55 72 56 45 57
REMARK SMILES IDX 32 58 33 59 38 60 34 61 35 62 37 63 39 64 36 65 58 66 59 67
REMARK SMILES IDX 64 68 60 69 61 70 63 71 65 72 62 73 46 74 47 75 52 76 48 77
REMARK SMILES IDX 49 78 51 79 53 80 50 81
REMARK H PARENT 15 5 20 24 70 43 44 54
REMARK Flexibility Score: inf
ROOT
ATOM      1  C   UNL A   1      34.156  36.601  33.329  1.00  0.00     0.116 C 
ENDROOT
BRANCH   1   2
ATOM      2  N   UNL A   1      33.613  35.258  33.291  1.00  0.00    -0.356 N 
ATOM      3  C   UNL A   1      34.241  34.049  33.252  1.00  0.00     0.220 C 
ATOM      4  O   UNL A   1      33.545  33.041  33.114  1.00  0.00    -0.275 OA
ATOM      5  H   UNL A   1      32.630  35.210  33.293  1.00  0.00     0.163 HD
BRANCH   3   6
ATOM      6  C   UNL A   1      35.755  33.935  33.345  1.00  0.00     0.107 C 
BRANCH   6   7
ATOM      7  C   UNL A   1      36.212  32.802  34.261  1.00  0.00     0.037 C 
ATOM      8  C   UNL A   1      38.845  31.113  35.384  1.00  0.00     0.222 C 
ATOM      9  O   UNL A   1      38.546  30.627  36.470  1.00  0.00    -0.275 OA
ATOM     10  N   UNL A   1      38.129  32.127  34.785  1.00  0.00    -0.342 N 
ATOM     11  C   UNL A   1      37.201  33.075  35.405  1.00  0.00     0.125 C 
ATOM     12  C   UNL A   1      37.274  31.912  33.634  1.00  0.00     0.125 C 
BRANCH   8  13
ATOM     13  C   UNL A   1      40.129  30.733  34.645  1.00  0.00     0.106 C 
BRANCH  13  14
ATOM     14  C   UNL A   1      40.887  29.470  35.106  1.00  0.00     0.021 C 
ATOM     15  C   UNL A   1      42.276  29.875  35.619  1.00  0.00     0.010 C 
BRANCH  14  16
ATOM     16  C   UNL A   1      41.038  28.447  33.971  1.00  0.00     0.163 C 
BRANCH  16  17
ATOM     17  O   UNL A   1      40.338  28.811  32.784  1.00  0.00    -0.384 OA
ATOM     18  C   UNL A   1      39.335  27.875  32.404  1.00  0.00     0.194 C 
ENDBRANCH  16  17
ENDBRANCH  14  16
ENDBRANCH  13  14
ENDBRANCH   8  13
ENDBRANCH   6   7
ENDBRANCH   3   6
ENDBRANCH   1   2
BRANCH   1  19
ATOM     19  C   UNL A   1      33.680  37.424  32.133  1.00  0.00     0.023 C 
BRANCH  19  20
ATOM     20  C   UNL A   1      32.810  36.699  31.118  1.00  0.00     0.023 C 
BRANCH  20  21
ATOM     21  C   UNL A   1      33.565  36.113  29.937  1.00  0.00     0.116 C 
BRANCH  21  22
ATOM     22  N   UNL A   1      32.732  35.327  29.037  1.00  0.00    -0.352 N 
ATOM     23  C   UNL A   1      33.040  34.163  28.368  1.00  0.00     0.251 C 
ATOM     24  H   UNL A   1      31.823  35.676  28.886  1.00  0.00     0.163 HD
ATOM     25  O   UNL A   1      32.261  33.683  27.559  1.00  0.00    -0.269 OA
BRANCH  23  26
ATOM     26  C   UNL A   1      34.350  33.525  28.621  1.00  0.00     0.039 A 
ATOM     27  C   UNL A   1      35.443  33.878  27.828  1.00  0.00     0.014 A 
ATOM     28  C   UNL A   1      34.501  32.635  29.686  1.00  0.00     0.014 A 
ATOM     29  C   UNL A   1      36.711  33.398  28.158  1.00  0.00     0.010 A 
ATOM     30  C   UNL A   1      35.773  32.238  30.069  1.00  0.00     0.010 A 
ATOM     31  C   UNL A   1      36.891  32.610  29.306  1.00  0.00    -0.014 A 
BRANCH  31  32
ATOM     32  C   UNL A   1      38.230  32.137  29.732  1.00  0.00     0.031 A 
ATOM     33  C   UNL A   1      38.725  30.799  29.255  1.00  0.00     0.074 A 
ATOM     34  C   UNL A   1      38.949  32.853  30.616  1.00  0.00     0.049 A 
ATOM     35  N   UNL A   1      39.792  30.134  29.616  1.00  0.00    -0.248 NA
ATOM     36  C   UNL A   1      37.883  30.098  28.273  1.00  0.00     0.031 C 
ATOM     37  C   UNL A   1      38.550  34.138  31.196  1.00  0.00     0.029 A 
ATOM     38  N   UNL A   1      40.163  32.590  31.199  1.00  0.00    -0.354 N 
ATOM     39  C   UNL A   1      39.731  28.928  28.931  1.00  0.00     0.074 A 
ATOM     40  C   UNL A   1      38.498  28.928  28.177  1.00  0.00     0.031 C 
ATOM     41  C   UNL A   1      39.511  34.560  32.034  1.00  0.00     0.029 A 
ATOM     42  C   UNL A   1      40.575  33.561  32.080  1.00  0.00     0.049 A 
ATOM     43  H   UNL A   1      40.691  31.782  31.004  1.00  0.00     0.167 HD
ATOM     44  C   UNL A   1      40.634  27.920  28.912  1.00  0.00     0.037 A 
ATOM     45  C   UNL A   1      41.681  33.631  32.842  1.00  0.00     0.037 A 
ATOM     46  C   UNL A   1      41.883  27.946  29.625  1.00  0.00     0.049 A 
ATOM     47  C   UNL A   1      42.685  32.514  32.780  1.00  0.00     0.074 A 
ATOM     48  C   UNL A   1      42.901  27.010  29.616  1.00  0.00     0.029 A 
ATOM     49  N   UNL A   1      42.285  28.970  30.469  1.00  0.00    -0.354 N 
ATOM     50  N   UNL A   1      42.644  31.404  32.083  1.00  0.00    -0.248 NA
ATOM     51  C   UNL A   1      43.893  32.661  33.605  1.00  0.00     0.031 C 
ATOM     52  C   UNL A   1      43.909  27.454  30.479  1.00  0.00     0.029 A 
ATOM     53  C   UNL A   1      43.533  28.684  30.995  1.00  0.00     0.049 A 
ATOM     54  H   UNL A   1      41.761  29.781  30.665  1.00  0.00     0.167 HD
ATOM     55  C   UNL A   1      43.826  30.733  32.364  1.00  0.00     0.074 A 
ATOM     56  C   UNL A   1      44.570  31.567  33.287  1.00  0.00     0.031 C 
ATOM     57  C   UNL A   1      44.259  29.535  31.902  1.00  0.00     0.037 A 
BRANCH  44  58
ATOM     58  C   UNL A   1      40.304  26.714  28.084  1.00  0.00     0.057 A 
ATOM     59  C   UNL A   1      39.451  25.706  28.554  1.00  0.00     0.134 A 
ATOM     60  C   UNL A   1      40.833  26.563  26.796  1.00  0.00     0.134 A 
ATOM     61  F   UNL A   1      38.924  25.781  29.786  1.00  0.00    -0.206 F 
ATOM     62  C   UNL A   1      39.159  24.579  27.785  1.00  0.00     0.040 A 
ATOM     63  C   UNL A   1      40.527  25.454  26.007  1.00  0.00     0.040 A 
ATOM     64  F   UNL A   1      41.655  27.492  26.285  1.00  0.00    -0.206 F 
ATOM     65  C   UNL A   1      39.694  24.453  26.504  1.00  0.00     0.006 A 
ENDBRANCH  44  58
BRANCH  45  66
ATOM     66  C   UNL A   1      41.917  34.815  33.706  1.00  0.00     0.057 A 
ATOM     67  C   UNL A   1      41.406  34.866  35.008  1.00  0.00     0.134 A 
ATOM     68  C   UNL A   1      42.653  35.918  33.258  1.00  0.00     0.134 A 
ATOM     69  F   UNL A   1      40.678  33.846  35.488  1.00  0.00    -0.206 F 
ATOM     70  C   UNL A   1      41.600  35.979  35.827  1.00  0.00     0.040 A 
ATOM     71  C   UNL A   1      42.874  37.029  34.073  1.00  0.00     0.040 A 
ATOM     72  F   UNL A   1      43.175  35.926  32.022  1.00  0.00    -0.206 F 
ATOM     73  C   UNL A   1      42.341  37.064  35.360  1.00  0.00     0.006 A 
ENDBRANCH  45  66
BRANCH  57  74
ATOM     74  C   UNL A   1      45.611  29.073  32.358  1.00  0.00     0.057 A 
ATOM     75  C   UNL A   1      46.781  29.435  31.681  1.00  0.00     0.134 A 
ATOM     76  C   UNL A   1      45.742  28.293  33.514  1.00  0.00     0.134 A 
ATOM     77  F   UNL A   1      46.719  30.170  30.560  1.00  0.00    -0.206 F 
ATOM     78  C   UNL A   1      48.036  29.022  32.128  1.00  0.00     0.040 A 
ATOM     79  C   UNL A   1      46.993  27.894  33.984  1.00  0.00     0.040 A 
ATOM     80  F   UNL A   1      44.659  27.921  34.211  1.00  0.00    -0.206 F 
ATOM     81  C   UNL A   1      48.145  28.255  33.287  1.00  0.00     0.006 A 
ENDBRANCH  57  74
ENDBRANCH  31  32
ENDBRANCH  23  26
ENDBRANCH  21  22
ENDBRANCH  20  21
ENDBRANCH  19  20
ENDBRANCH   1  19
TORSDOF 16
ENDMDL
MODEL 2
REMARK VINA RESULT:      -8.2      3.908      9.090
REMARK SMILES COC[C@@H](C)CC(=O)N1CC(CC(=O)NCCCCNC(=O)c2ccc(-c3c4nc(c(-c5c(F)cccc5F)c5ccc([nH]5)c(-c5c(F)cccc5F)c5nc(c(-c6c(F)cccc6F)c6ccc3[nH]6)C=C5)C=C4)cc2)C1
REMARK SMILES IDX 16 1 15 2 13 3 14 4 12 6 11 7 7 8 8 9 9 10 10 11 77 12 6 13
REMARK SMILES IDX 4 14 5 15 3 16 2 17 1 18 17 19 18 20 19 21 20 22 21 23 22 25
REMARK SMILES IDX 23 26 24 27 76 28 25 29 75 30 26 31 27 32 28 33 69 34 29 35
REMARK SMILES IDX 74 36 68 37 70 38 30 39 73 40 67 41 66 42 31 44 57 45 40 46
REMARK SMILES IDX 56 47 41 48 44 49 55 50 71 51 42 52 43 53 54 55 72 56 45 57
REMARK SMILES IDX 32 58 33 59 38 60 34 61 35 62 37 63 39 64 36 65 58 66 59 67
REMARK SMILES IDX 64 68 60 69 61 70 63 71 65 72 62 73 46 74 47 75 52 76 48 77
REMARK SMILES IDX 49 78 51 79 53 80 50 81
REMARK H PARENT 15 5 20 24 70 43 44 54
REMARK Flexibility Score: inf
ROOT
ATOM      1  C   UNL A   1      35.125  33.006  27.916  1.00  0.00     0.116 C 
ENDROOT
BRANCH   1   2
ATOM      2  N   UNL A   1      35.646  31.663  28.077  1.00  0.00    -0.356 N 
ATOM      3  C   UNL A   1      35.094  30.456  27.766  1.00  0.00     0.220 C 
ATOM      4  O   UNL A   1      35.703  29.439  28.104  1.00  0.00    -0.275 OA
ATOM      5  H   UNL A   1      36.545  31.613  28.476  1.00  0.00     0.163 HD
BRANCH   3   6
ATOM      6  C   UNL A   1      33.757  30.353  27.050  1.00  0.00     0.107 C 
BRANCH   6   7
ATOM      7  C   UNL A   1      33.271  28.913  26.898  1.00  0.00     0.037 C 
ATOM      8  C   UNL A   1      31.469  26.840  25.030  1.00  0.00     0.222 C 
ATOM      9  O   UNL A   1      31.883  25.700  25.222  1.00  0.00    -0.275 OA
ATOM     10  N   UNL A   1      32.173  27.972  25.378  1.00  0.00    -0.342 N 
ATOM     11  C   UNL A   1      33.608  28.107  25.634  1.00  0.00     0.125 C 
ATOM     12  C   UNL A   1      31.807  28.810  26.503  1.00  0.00     0.125 C 
BRANCH   8  13
ATOM     13  C   UNL A   1      30.180  27.119  24.254  1.00  0.00     0.106 C 
BRANCH  13  14
ATOM     14  C   UNL A   1      30.297  27.513  22.766  1.00  0.00     0.021 C 
ATOM     15  C   UNL A   1      31.457  26.736  22.128  1.00  0.00     0.010 C 
BRANCH  14  16
ATOM     16  C   UNL A   1      30.531  29.020  22.591  1.00  0.00     0.163 C 
BRANCH  16  17
ATOM     17  O   UNL A   1      29.672  29.618  21.623  1.00  0.00    -0.384 OA
ATOM     18  C   UNL A   1      28.314  29.706  22.043  1.00  0.00     0.194 C 
ENDBRANCH  16  17
ENDBRANCH  14  16
ENDBRANCH  13  14
ENDBRANCH   8  13
ENDBRANCH   6   7
ENDBRANCH   3   6
ENDBRANCH   1   2
BRANCH   1  19
ATOM     19  C   UNL A   1      34.338  33.445  29.151  1.00  0.00     0.023 C 
BRANCH  19  20
ATOM     20  C   UNL A   1      33.236  34.467  28.922  1.00  0.00     0.023 C 
BRANCH  20  21
ATOM     21  C   UNL A   1      33.499  35.833  29.533  1.00  0.00     0.116 C 
BRANCH  21  22
ATOM     22  N   UNL A   1      32.529  36.221  30.547  1.00  0.00    -0.352 N 
ATOM     23  C   UNL A   1      32.512  35.914  31.891  1.00  0.00     0.251 C 
ATOM     24  H   UNL A   1      31.781  36.779  30.230  1.00  0.00     0.163 HD
ATOM     25  O   UNL A   1      31.562  36.227  32.590  1.00  0.00    -0.269 OA
BRANCH  23  26
ATOM     26  C   UNL A   1      33.651  35.162  32.460  1.00  0.00     0.039 A 
ATOM     27  C   UNL A   1      33.456  33.846  32.883  1.00  0.00     0.014 A 
ATOM     28  C   UNL A   1      34.920  35.744  32.506  1.00  0.00     0.014 A 
ATOM     29  C   UNL A   1      34.556  33.084  33.277  1.00  0.00     0.010 A 
ATOM     30  C   UNL A   1      36.021  34.956  32.805  1.00  0.00     0.010 A 
ATOM     31  C   UNL A   1      35.852  33.620  33.199  1.00  0.00    -0.014 A 
BRANCH  31  32
ATOM     32  C   UNL A   1      37.053  32.822  33.542  1.00  0.00     0.031 A 
ATOM     33  C   UNL A   1      37.781  33.100  34.828  1.00  0.00     0.074 A 
ATOM     34  C   UNL A   1      37.544  31.929  32.661  1.00  0.00     0.049 A 
ATOM     35  N   UNL A   1      38.924  32.626  35.252  1.00  0.00    -0.248 NA
ATOM     36  C   UNL A   1      37.159  34.075  35.738  1.00  0.00     0.031 C 
ATOM     37  C   UNL A   1      36.960  31.613  31.355  1.00  0.00     0.029 A 
ATOM     38  N   UNL A   1      38.661  31.136  32.726  1.00  0.00    -0.354 N 
ATOM     39  C   UNL A   1      39.170  33.268  36.459  1.00  0.00     0.074 A 
ATOM     40  C   UNL A   1      38.089  34.204  36.672  1.00  0.00     0.031 C 
ATOM     41  C   UNL A   1      37.712  30.678  30.752  1.00  0.00     0.029 A 
ATOM     42  C   UNL A   1      38.850  30.357  31.610  1.00  0.00     0.049 A 
ATOM     43  H   UNL A   1      39.271  31.126  33.499  1.00  0.00     0.167 HD
ATOM     44  C   UNL A   1      40.193  33.077  37.324  1.00  0.00     0.037 A 
ATOM     45  C   UNL A   1      39.833  29.487  31.312  1.00  0.00     0.037 A 
ATOM     46  C   UNL A   1      41.239  32.109  37.130  1.00  0.00     0.049 A 
ATOM     47  C   UNL A   1      40.942  29.269  32.303  1.00  0.00     0.074 A 
ATOM     48  C   UNL A   1      42.282  31.784  37.980  1.00  0.00     0.029 A 
ATOM     49  N   UNL A   1      41.368  31.304  36.010  1.00  0.00    -0.354 N 
ATOM     50  N   UNL A   1      41.133  29.839  33.468  1.00  0.00    -0.248 NA
ATOM     51  C   UNL A   1      41.968  28.281  31.942  1.00  0.00     0.031 C 
ATOM     52  C   UNL A   1      43.059  30.801  37.359  1.00  0.00     0.029 A 
ATOM     53  C   UNL A   1      42.479  30.488  36.140  1.00  0.00     0.049 A 
ATOM     54  H   UNL A   1      40.759  31.310  35.235  1.00  0.00     0.167 HD
ATOM     55  C   UNL A   1      42.284  29.264  33.990  1.00  0.00     0.074 A 
ATOM     56  C   UNL A   1      42.741  28.290  33.019  1.00  0.00     0.031 C 
ATOM     57  C   UNL A   1      42.907  29.518  35.166  1.00  0.00     0.037 A 
BRANCH  44  58
ATOM     58  C   UNL A   1      40.218  33.925  38.561  1.00  0.00     0.057 A 
ATOM     59  C   UNL A   1      39.547  33.542  39.731  1.00  0.00     0.134 A 
ATOM     60  C   UNL A   1      40.929  35.130  38.590  1.00  0.00     0.134 A 
ATOM     61  F   UNL A   1      38.833  32.407  39.765  1.00  0.00    -0.206 F 
ATOM     62  C   UNL A   1      39.560  34.342  40.874  1.00  0.00     0.040 A 
ATOM     63  C   UNL A   1      40.972  35.925  39.735  1.00  0.00     0.040 A 
ATOM     64  F   UNL A   1      41.594  35.554  37.504  1.00  0.00    -0.206 F 
ATOM     65  C   UNL A   1      40.280  35.536  40.880  1.00  0.00     0.006 A 
ENDBRANCH  44  58
BRANCH  45  66
ATOM     66  C   UNL A   1      39.799  28.733  30.034  1.00  0.00     0.057 A 
ATOM     67  C   UNL A   1      40.419  29.239  28.886  1.00  0.00     0.134 A 
ATOM     68  C   UNL A   1      39.151  27.497  29.926  1.00  0.00     0.134 A 
ATOM     69  F   UNL A   1      41.041  30.427  28.923  1.00  0.00    -0.206 F 
ATOM     70  C   UNL A   1      40.380  28.554  27.671  1.00  0.00     0.040 A 
ATOM     71  C   UNL A   1      39.122  26.790  28.723  1.00  0.00     0.040 A 
ATOM     72  F   UNL A   1      38.544  26.956  30.993  1.00  0.00    -0.206 F 
ATOM     73  C   UNL A   1      39.733  27.322  27.589  1.00  0.00     0.006 A 
ENDBRANCH  45  66
BRANCH  57  74
ATOM     74  C   UNL A   1      44.128  28.707  35.482  1.00  0.00     0.057 A 
ATOM     75  C   UNL A   1      45.411  29.136  35.126  1.00  0.00     0.134 A 
ATOM     76  C   UNL A   1      44.017  27.504  36.190  1.00  0.00     0.134 A 
ATOM     77  F   UNL A   1      45.581  30.274  34.435  1.00  0.00    -0.206 F 
ATOM     78  C   UNL A   1      46.543  28.387  35.448  1.00  0.00     0.040 A 
ATOM     79  C   UNL A   1      45.144  26.758  36.539  1.00  0.00     0.040 A 
ATOM     80  F   UNL A   1      42.816  27.043  36.568  1.00  0.00    -0.206 F 
ATOM     81  C   UNL A   1      46.412  27.197  36.162  1.00  0.00     0.006 A 
ENDBRANCH  57  74
ENDBRANCH  31  32
ENDBRANCH  23  26
ENDBRANCH  21  22
ENDBRANCH  20  21
ENDBRANCH  19  20
ENDBRANCH   1  19
TORSDOF 16
ENDMDL
MODEL 3
REMARK VINA RESULT:      -8.0      4.325      7.021
REMARK SMILES COC[C@@H](C)CC(=O)N1CC(CC(=O)NCCCCNC(=O)c2ccc(-c3c4nc(c(-c5c(F)cccc5F)c5ccc([nH]5)c(-c5c(F)cccc5F)c5nc(c(-c6c(F)cccc6F)c6ccc3[nH]6)C=C5)C=C4)cc2)C1
REMARK SMILES IDX 16 1 15 2 13 3 14 4 12 6 11 7 7 8 8 9 9 10 10 11 77 12 6 13
REMARK SMILES IDX 4 14 5 15 3 16 2 17 1 18 17 19 18 20 19 21 20 22 21 23 22 25
REMARK SMILES IDX 23 26 24 27 76 28 25 29 75 30 26 31 27 32 28 33 69 34 29 35
REMARK SMILES IDX 74 36 68 37 70 38 30 39 73 40 67 41 66 42 31 44 57 45 40 46
REMARK SMILES IDX 56 47 41 48 44 49 55 50 71 51 42 52 43 53 54 55 72 56 45 57
REMARK SMILES IDX 32 58 33 59 38 60 34 61 35 62 37 63 39 64 36 65 58 66 59 67
REMARK SMILES IDX 64 68 60 69 61 70 63 71 65 72 62 73 46 74 47 75 52 76 48 77
REMARK SMILES IDX 49 78 51 79 53 80 50 81
REMARK H PARENT 15 5 20 24 70 43 44 54
REMARK Flexibility Score: inf
ROOT
ATOM      1  C   UNL A   1      33.249  29.668  26.081  1.00  0.00     0.116 C 
ENDROOT
BRANCH   1   2
ATOM      2  N   UNL A   1      32.995  29.722  24.655  1.00  0.00    -0.356 N 
ATOM      3  C   UNL A   1      32.701  28.728  23.770  1.00  0.00     0.220 C 
ATOM      4  O   UNL A   1      32.634  29.021  22.575  1.00  0.00    -0.275 OA
ATOM      5  H   UNL A   1      33.044  30.623  24.260  1.00  0.00     0.163 HD
BRANCH   3   6
ATOM      6  C   UNL A   1      32.487  27.293  24.226  1.00  0.00     0.107 C 
BRANCH   6   7
ATOM      7  C   UNL A   1      33.670  26.383  23.904  1.00  0.00     0.037 C 
ATOM      8  C   UNL A   1      34.639  23.231  23.499  1.00  0.00     0.222 C 
ATOM      9  O   UNL A   1      35.635  23.230  22.781  1.00  0.00    -0.275 OA
ATOM     10  N   UNL A   1      33.788  24.309  23.615  1.00  0.00    -0.342 N 
ATOM     11  C   UNL A   1      33.618  25.435  22.695  1.00  0.00     0.125 C 
ATOM     12  C   UNL A   1      33.743  25.152  24.793  1.00  0.00     0.125 C 
BRANCH   8  13
ATOM     13  C   UNL A   1      34.165  21.978  24.237  1.00  0.00     0.106 C 
BRANCH  13  14
ATOM     14  C   UNL A   1      32.656  21.654  24.229  1.00  0.00     0.021 C 
ATOM     15  C   UNL A   1      32.075  21.921  25.626  1.00  0.00     0.010 C 
BRANCH  14  16
ATOM     16  C   UNL A   1      32.385  20.197  23.831  1.00  0.00     0.163 C 
BRANCH  16  17
ATOM     17  O   UNL A   1      32.051  19.361  24.936  1.00  0.00    -0.384 OA
ATOM     18  C   UNL A   1      33.044  18.384  25.231  1.00  0.00     0.194 C 
ENDBRANCH  16  17
ENDBRANCH  14  16
ENDBRANCH  13  14
ENDBRANCH   8  13
ENDBRANCH   6   7
ENDBRANCH   3   6
ENDBRANCH   1   2
BRANCH   1  19
ATOM     19  C   UNL A   1      32.047  30.178  26.876  1.00  0.00     0.023 C 
BRANCH  19  20
ATOM     20  C   UNL A   1      31.765  31.670  26.793  1.00  0.00     0.023 C 
BRANCH  20  21
ATOM     21  C   UNL A   1      32.871  32.557  27.338  1.00  0.00     0.116 C 
BRANCH  21  22
ATOM     22  N   UNL A   1      32.450  33.926  27.604  1.00  0.00    -0.352 N 
ATOM     23  C   UNL A   1      32.966  34.830  28.507  1.00  0.00     0.251 C 
ATOM     24  H   UNL A   1      31.693  34.251  27.064  1.00  0.00     0.163 HD
ATOM     25  O   UNL A   1      32.426  35.910  28.686  1.00  0.00    -0.269 OA
BRANCH  23  26
ATOM     26  C   UNL A   1      34.165  34.450  29.284  1.00  0.00     0.039 A 
ATOM     27  C   UNL A   1      34.005  33.879  30.548  1.00  0.00     0.014 A 
ATOM     28  C   UNL A   1      35.436  34.599  28.726  1.00  0.00     0.014 A 
ATOM     29  C   UNL A   1      35.122  33.379  31.219  1.00  0.00     0.010 A 
ATOM     30  C   UNL A   1      36.529  34.016  29.351  1.00  0.00     0.010 A 
ATOM     31  C   UNL A   1      36.385  33.405  30.606  1.00  0.00    -0.014 A 
BRANCH  31  32
ATOM     32  C   UNL A   1      37.584  32.823  31.254  1.00  0.00     0.031 A 
ATOM     33  C   UNL A   1      38.256  31.632  30.628  1.00  0.00     0.074 A 
ATOM     34  C   UNL A   1      38.004  33.295  32.444  1.00  0.00     0.049 A 
ATOM     35  N   UNL A   1      39.220  30.883  31.098  1.00  0.00    -0.248 NA
ATOM     36  C   UNL A   1      37.743  31.201  29.318  1.00  0.00     0.031 C 
ATOM     37  C   UNL A   1      37.400  34.408  33.179  1.00  0.00     0.029 A 
ATOM     38  N   UNL A   1      39.031  32.880  33.254  1.00  0.00    -0.354 N 
ATOM     39  C   UNL A   1      39.405  29.879  30.157  1.00  0.00     0.074 A 
ATOM     40  C   UNL A   1      38.419  30.079  29.120  1.00  0.00     0.031 C 
ATOM     41  C   UNL A   1      38.080  34.602  34.321  1.00  0.00     0.029 A 
ATOM     42  C   UNL A   1      39.142  33.604  34.417  1.00  0.00     0.049 A 
ATOM     43  H   UNL A   1      39.631  32.135  33.024  1.00  0.00     0.167 HD
ATOM     44  C   UNL A   1      40.330  28.891  30.147  1.00  0.00     0.037 A 
ATOM     45  C   UNL A   1      40.001  33.472  35.445  1.00  0.00     0.037 A 
ATOM     46  C   UNL A   1      41.341  28.725  31.157  1.00  0.00     0.049 A 
ATOM     47  C   UNL A   1      41.040  32.387  35.395  1.00  0.00     0.074 A 
ATOM     48  C   UNL A   1      42.371  27.803  31.204  1.00  0.00     0.029 A 
ATOM     49  N   UNL A   1      41.451  29.510  32.295  1.00  0.00    -0.354 N 
ATOM     50  N   UNL A   1      41.243  31.478  34.472  1.00  0.00    -0.248 NA
ATOM     51  C   UNL A   1      41.975  32.312  36.527  1.00  0.00     0.031 C 
ATOM     52  C   UNL A   1      43.088  28.011  32.386  1.00  0.00     0.029 A 
ATOM     53  C   UNL A   1      42.527  29.087  33.057  1.00  0.00     0.049 A 
ATOM     54  H   UNL A   1      40.854  30.258  32.527  1.00  0.00     0.167 HD
ATOM     55  C   UNL A   1      42.340  30.741  34.897  1.00  0.00     0.074 A 
ATOM     56  C   UNL A   1      42.767  31.317  36.156  1.00  0.00     0.031 C 
ATOM     57  C   UNL A   1      42.940  29.683  34.300  1.00  0.00     0.037 A 
BRANCH  44  58
ATOM     58  C   UNL A   1      40.295  27.925  29.000  1.00  0.00     0.057 A 
ATOM     59  C   UNL A   1      39.530  26.752  29.047  1.00  0.00     0.134 A 
ATOM     60  C   UNL A   1      41.022  28.175  27.830  1.00  0.00     0.134 A 
ATOM     61  F   UNL A   1      38.823  26.444  30.145  1.00  0.00    -0.206 F 
ATOM     62  C   UNL A   1      39.512  25.849  27.982  1.00  0.00     0.040 A 
ATOM     63  C   UNL A   1      40.992  27.294  26.749  1.00  0.00     0.040 A 
ATOM     64  F   UNL A   1      41.774  29.281  27.719  1.00  0.00    -0.206 F 
ATOM     65  C   UNL A   1      40.241  26.122  26.826  1.00  0.00     0.006 A 
ENDBRANCH  44  58
BRANCH  45  66
ATOM     66  C   UNL A   1      39.937  34.409  36.594  1.00  0.00     0.057 A 
ATOM     67  C   UNL A   1      39.191  34.095  37.735  1.00  0.00     0.134 A 
ATOM     68  C   UNL A   1      40.613  35.634  36.582  1.00  0.00     0.134 A 
ATOM     69  F   UNL A   1      38.507  32.942  37.799  1.00  0.00    -0.206 F 
ATOM     70  C   UNL A   1      39.104  34.972  38.817  1.00  0.00     0.040 A 
ATOM     71  C   UNL A   1      40.553  36.513  37.665  1.00  0.00     0.040 A 
ATOM     72  F   UNL A   1      41.351  35.990  35.519  1.00  0.00    -0.206 F 
ATOM     73  C   UNL A   1      39.790  36.185  38.784  1.00  0.00     0.006 A 
ENDBRANCH  45  66
BRANCH  57  74
ATOM     74  C   UNL A   1      44.143  29.104  34.983  1.00  0.00     0.057 A 
ATOM     75  C   UNL A   1      44.031  28.080  35.930  1.00  0.00     0.134 A 
ATOM     76  C   UNL A   1      45.430  29.550  34.655  1.00  0.00     0.134 A 
ATOM     77  F   UNL A   1      42.825  27.620  36.296  1.00  0.00    -0.206 F 
ATOM     78  C   UNL A   1      45.159  27.530  36.541  1.00  0.00     0.040 A 
ATOM     79  C   UNL A   1      46.565  28.991  35.241  1.00  0.00     0.040 A 
ATOM     80  F   UNL A   1      45.603  30.523  33.748  1.00  0.00    -0.206 F 
ATOM     81  C   UNL A   1      46.431  27.981  36.192  1.00  0.00     0.006 A 
ENDBRANCH  57  74
ENDBRANCH  31  32
ENDBRANCH  23  26
ENDBRANCH  21  22
ENDBRANCH  20  21
ENDBRANCH  19  20
ENDBRANCH   1  19
TORSDOF 16
ENDMDL
