MODEL 1
REMARK VINA RESULT:     -10.2      0.000      0.000
REMARK SMILES COc1cccc([C@H]2CC(c3ccc(S(C)(=O)=O)cc3)=NN2c2ccc(C(=O)NCCCCNC(=O)c3ccc(-c4c5nc(c(-c6c(F)cccc6F)c6ccc([nH]6)c(-c6c(F)cccc6F)c6nc(c(-c7c(F)cccc7F)c7ccc4[nH]7)C=C6)C=C5)cc3)cc2)c1
REMARK SMILES IDX 31 1 30 2 29 3 27 4 28 5 26 7 23 8 24 9 92 10 25 11 91 12
REMARK SMILES IDX 22 13 8 14 9 15 10 16 21 17 7 18 3 19 4 20 93 21 5 22 6 23
REMARK SMILES IDX 2 24 1 25 11 26 12 27 20 28 13 29 19 30 14 31 15 32 16 33
REMARK SMILES IDX 17 34 18 35 32 36 33 37 34 38 35 39 36 41 37 42 38 43 90 44
REMARK SMILES IDX 39 45 89 46 40 47 41 48 42 49 83 50 43 51 88 52 82 53 84 54
REMARK SMILES IDX 44 55 87 56 81 57 80 58 45 60 71 61 54 62 70 63 55 64 58 65
REMARK SMILES IDX 69 66 85 67 56 68 57 69 68 71 86 72 59 73 46 74 47 75 52 76
REMARK SMILES IDX 48 77 49 78 51 79 53 80 50 81 72 82 73 83 78 84 74 85 75 86
REMARK SMILES IDX 77 87 79 88 76 89 60 90 61 91 66 92 62 93 63 94 65 95 67 96
REMARK SMILES IDX 64 97
REMARK H PARENT 29 6 34 40 84 59 58 70
REMARK Flexibility Score: inf
ROOT
ATOM      1  C   UNL A   1      34.367  33.450  28.738  1.00  0.00     0.023 C 
ENDROOT
BRANCH   1   2
ATOM      2  C   UNL A   1      34.495  34.720  29.583  1.00  0.00     0.116 C 
BRANCH   2   3
ATOM      3  N   UNL A   1      33.710  34.603  30.795  1.00  0.00    -0.352 N 
ATOM      4  C   UNL A   1      34.037  34.209  32.068  1.00  0.00     0.251 C 
ATOM      5  O   UNL A   1      33.136  34.226  32.908  1.00  0.00    -0.269 OA
ATOM      6  H   UNL A   1      32.764  34.852  30.683  1.00  0.00     0.163 HD
BRANCH   4   7
ATOM      7  C   UNL A   1      35.415  33.820  32.486  1.00  0.00     0.039 A 
ATOM      8  C   UNL A   1      37.954  32.884  33.329  1.00  0.00     0.060 A 
ATOM      9  C   UNL A   1      36.932  31.988  32.997  1.00  0.00     0.029 A 
ATOM     10  C   UNL A   1      37.706  34.249  33.183  1.00  0.00     0.029 A 
ATOM     11  C   UNL A   1      35.674  32.448  32.600  1.00  0.00     0.016 A 
ATOM     12  C   UNL A   1      36.464  34.710  32.731  1.00  0.00     0.016 A 
BRANCH   8  13
ATOM     13  N   UNL A   1      39.171  32.407  33.780  1.00  0.00    -0.257 N 
ATOM     14  C   UNL A   1      40.011  33.085  34.766  1.00  0.00     0.144 C 
ATOM     15  C   UNL A   1      41.283  32.226  34.768  1.00  0.00     0.091 C 
ATOM     16  C   UNL A   1      40.960  31.285  33.641  1.00  0.00     0.071 C 
ATOM     17  N   UNL A   1      39.784  31.404  33.109  1.00  0.00    -0.176 NA
BRANCH  14  18
ATOM     18  C   UNL A   1      39.322  33.147  36.119  1.00  0.00    -0.019 A 
ATOM     19  C   UNL A   1      37.936  32.116  37.845  1.00  0.00     0.119 A 
ATOM     20  C   UNL A   1      37.944  33.315  38.555  1.00  0.00     0.046 A 
ATOM     21  C   UNL A   1      38.613  32.039  36.626  1.00  0.00     0.052 A 
ATOM     22  C   UNL A   1      38.644  34.421  38.072  1.00  0.00     0.004 A 
ATOM     23  C   UNL A   1      39.332  34.337  36.862  1.00  0.00     0.006 A 
BRANCH  19  24
ATOM     24  O   UNL A   1      37.210  31.107  38.415  1.00  0.00    -0.497 OA
ATOM     25  C   UNL A   1      36.719  31.353  39.727  1.00  0.00     0.278 C 
ENDBRANCH  19  24
ENDBRANCH  14  18
BRANCH  16  26
ATOM     26  C   UNL A   1      41.942  30.317  33.152  1.00  0.00    -0.002 A 
ATOM     27  C   UNL A   1      43.062  30.794  32.465  1.00  0.00     0.011 A 
ATOM     28  C   UNL A   1      41.734  28.948  33.332  1.00  0.00     0.011 A 
ATOM     29  C   UNL A   1      43.998  29.893  31.961  1.00  0.00     0.021 A 
ATOM     30  C   UNL A   1      42.656  28.042  32.804  1.00  0.00     0.021 A 
ATOM     31  C   UNL A   1      43.779  28.521  32.118  1.00  0.00     0.067 A 
BRANCH  31  32
ATOM     32  S   UNL A   1      44.961  27.378  31.440  1.00  0.00     0.175 S 
ATOM     33  C   UNL A   1      44.013  25.911  31.125  1.00  0.00     0.163 C 
ATOM     34  O   UNL A   1      45.393  27.930  30.173  1.00  0.00    -0.224 OA
ATOM     35  O   UNL A   1      45.917  27.065  32.487  1.00  0.00    -0.224 OA
ENDBRANCH  31  32
ENDBRANCH  16  26
ENDBRANCH   8  13
ENDBRANCH   4   7
ENDBRANCH   2   3
ENDBRANCH   1   2
BRANCH   1  36
ATOM     36  C   UNL A   1      35.684  32.976  28.116  1.00  0.00     0.023 C 
BRANCH  36  37
ATOM     37  C   UNL A   1      35.822  31.463  27.981  1.00  0.00     0.116 C 
BRANCH  37  38
ATOM     38  N   UNL A   1      35.530  30.748  29.214  1.00  0.00    -0.352 N 
ATOM     39  C   UNL A   1      36.358  29.934  29.946  1.00  0.00     0.251 C 
ATOM     40  H   UNL A   1      34.619  30.863  29.569  1.00  0.00     0.163 HD
ATOM     41  O   UNL A   1      35.928  29.320  30.916  1.00  0.00    -0.269 OA
BRANCH  39  42
ATOM     42  C   UNL A   1      37.763  29.765  29.524  1.00  0.00     0.039 A 
ATOM     43  C   UNL A   1      38.747  29.639  30.507  1.00  0.00     0.014 A 
ATOM     44  C   UNL A   1      38.099  29.695  28.170  1.00  0.00     0.014 A 
ATOM     45  C   UNL A   1      40.063  29.367  30.133  1.00  0.00     0.010 A 
ATOM     46  C   UNL A   1      39.399  29.367  27.800  1.00  0.00     0.010 A 
ATOM     47  C   UNL A   1      40.390  29.189  28.778  1.00  0.00    -0.014 A 
BRANCH  47  48
ATOM     48  C   UNL A   1      41.757  28.790  28.366  1.00  0.00     0.031 A 
ATOM     49  C   UNL A   1      42.053  27.363  28.009  1.00  0.00     0.074 A 
ATOM     50  C   UNL A   1      42.746  29.703  28.391  1.00  0.00     0.049 A 
ATOM     51  N   UNL A   1      43.198  26.809  27.704  1.00  0.00    -0.248 NA
ATOM     52  C   UNL A   1      40.916  26.429  28.021  1.00  0.00     0.031 C 
ATOM     53  C   UNL A   1      42.593  31.110  28.769  1.00  0.00     0.029 A 
ATOM     54  N   UNL A   1      44.083  29.580  28.104  1.00  0.00    -0.354 N 
ATOM     55  C   UNL A   1      42.924  25.463  27.502  1.00  0.00     0.074 A 
ATOM     56  C   UNL A   1      41.513  25.275  27.762  1.00  0.00     0.031 C 
ATOM     57  C   UNL A   1      43.784  31.722  28.677  1.00  0.00     0.029 A 
ATOM     58  C   UNL A   1      44.789  30.747  28.267  1.00  0.00     0.049 A 
ATOM     59  H   UNL A   1      44.495  28.736  27.811  1.00  0.00     0.167 HD
ATOM     60  C   UNL A   1      43.770  24.478  27.117  1.00  0.00     0.037 A 
ATOM     61  C   UNL A   1      46.102  30.999  28.110  1.00  0.00     0.037 A 
ATOM     62  C   UNL A   1      45.167  24.673  26.835  1.00  0.00     0.049 A 
ATOM     63  C   UNL A   1      47.018  29.888  27.681  1.00  0.00     0.074 A 
ATOM     64  C   UNL A   1      46.090  23.751  26.373  1.00  0.00     0.029 A 
ATOM     65  N   UNL A   1      45.843  25.873  26.992  1.00  0.00    -0.354 N 
ATOM     66  N   UNL A   1      46.732  28.634  27.428  1.00  0.00    -0.248 NA
ATOM     67  C   UNL A   1      48.437  30.229  27.512  1.00  0.00     0.031 C 
ATOM     68  C   UNL A   1      47.334  24.386  26.283  1.00  0.00     0.029 A 
ATOM     69  C   UNL A   1      47.176  25.712  26.655  1.00  0.00     0.049 A 
ATOM     70  H   UNL A   1      45.436  26.715  27.298  1.00  0.00     0.167 HD
ATOM     71  C   UNL A   1      47.930  28.041  27.051  1.00  0.00     0.074 A 
ATOM     72  C   UNL A   1      48.942  29.076  27.094  1.00  0.00     0.031 C 
ATOM     73  C   UNL A   1      48.169  26.753  26.702  1.00  0.00     0.037 A 
BRANCH  60  74
ATOM     74  C   UNL A   1      43.199  23.098  26.973  1.00  0.00     0.057 A 
ATOM     75  C   UNL A   1      42.925  22.295  28.088  1.00  0.00     0.134 A 
ATOM     76  C   UNL A   1      42.894  22.578  25.709  1.00  0.00     0.134 A 
ATOM     77  F   UNL A   1      43.207  22.730  29.325  1.00  0.00    -0.206 F 
ATOM     78  C   UNL A   1      42.388  21.014  27.949  1.00  0.00     0.040 A 
ATOM     79  C   UNL A   1      42.334  21.308  25.559  1.00  0.00     0.040 A 
ATOM     80  F   UNL A   1      43.129  23.297  24.602  1.00  0.00    -0.206 F 
ATOM     81  C   UNL A   1      42.086  20.520  26.682  1.00  0.00     0.006 A 
ENDBRANCH  60  74
BRANCH  61  82
ATOM     82  C   UNL A   1      46.626  32.367  28.340  1.00  0.00     0.057 A 
ATOM     83  C   UNL A   1      47.115  32.748  29.595  1.00  0.00     0.134 A 
ATOM     84  C   UNL A   1      46.650  33.324  27.319  1.00  0.00     0.134 A 
ATOM     85  F   UNL A   1      47.100  31.878  30.616  1.00  0.00    -0.206 F 
ATOM     86  C   UNL A   1      47.595  34.037  29.832  1.00  0.00     0.040 A 
ATOM     87  C   UNL A   1      47.147  34.610  27.535  1.00  0.00     0.040 A 
ATOM     88  F   UNL A   1      46.202  33.016  26.093  1.00  0.00    -0.206 F 
ATOM     89  C   UNL A   1      47.616  34.970  28.797  1.00  0.00     0.006 A 
ENDBRANCH  61  82
BRANCH  73  90
ATOM     90  C   UNL A   1      49.576  26.401  26.320  1.00  0.00     0.057 A 
ATOM     91  C   UNL A   1      50.452  25.788  27.223  1.00  0.00     0.134 A 
ATOM     92  C   UNL A   1      50.046  26.649  25.024  1.00  0.00     0.134 A 
ATOM     93  F   UNL A   1      50.065  25.538  28.483  1.00  0.00    -0.206 F 
ATOM     94  C   UNL A   1      51.756  25.449  26.856  1.00  0.00     0.040 A 
ATOM     95  C   UNL A   1      51.339  26.294  24.639  1.00  0.00     0.040 A 
ATOM     96  F   UNL A   1      49.254  27.229  24.110  1.00  0.00    -0.206 F 
ATOM     97  C   UNL A   1      52.200  25.696  25.558  1.00  0.00     0.006 A 
ENDBRANCH  73  90
ENDBRANCH  47  48
ENDBRANCH  39  42
ENDBRANCH  37  38
ENDBRANCH  36  37
ENDBRANCH   1  36
TORSDOF 16
ENDMDL
MODEL 2
REMARK VINA RESULT:     -10.2      6.272     13.402
REMARK SMILES COc1cccc([C@H]2CC(c3ccc(S(C)(=O)=O)cc3)=NN2c2ccc(C(=O)NCCCCNC(=O)c3ccc(-c4c5nc(c(-c6c(F)cccc6F)c6ccc([nH]6)c(-c6c(F)cccc6F)c6nc(c(-c7c(F)cccc7F)c7ccc4[nH]7)C=C6)C=C5)cc3)cc2)c1
REMARK SMILES IDX 31 1 30 2 29 3 27 4 28 5 26 7 23 8 24 9 92 10 25 11 91 12
REMARK SMILES IDX 22 13 8 14 9 15 10 16 21 17 7 18 3 19 4 20 93 21 5 22 6 23
REMARK SMILES IDX 2 24 1 25 11 26 12 27 20 28 13 29 19 30 14 31 15 32 16 33
REMARK SMILES IDX 17 34 18 35 32 36 33 37 34 38 35 39 36 41 37 42 38 43 90 44
REMARK SMILES IDX 39 45 89 46 40 47 41 48 42 49 83 50 43 51 88 52 82 53 84 54
REMARK SMILES IDX 44 55 87 56 81 57 80 58 45 60 71 61 54 62 70 63 55 64 58 65
REMARK SMILES IDX 69 66 85 67 56 68 57 69 68 71 86 72 59 73 46 74 47 75 52 76
REMARK SMILES IDX 48 77 49 78 51 79 53 80 50 81 72 82 73 83 78 84 74 85 75 86
REMARK SMILES IDX 77 87 79 88 76 89 60 90 61 91 66 92 62 93 63 94 65 95 67 96
REMARK SMILES IDX 64 97
REMARK H PARENT 29 6 34 40 84 59 58 70
REMARK Flexibility Score: inf
ROOT
ATOM      1  C   UNL A   1      41.144  25.843  25.803  1.00  0.00     0.023 C 
ENDROOT
BRANCH   1   2
ATOM      2  C   UNL A   1      39.811  25.354  26.374  1.00  0.00     0.116 C 
BRANCH   2   3
ATOM      3  N   UNL A   1      39.841  23.920  26.572  1.00  0.00    -0.352 N 
ATOM      4  C   UNL A   1      38.934  22.933  26.281  1.00  0.00     0.251 C 
ATOM      5  O   UNL A   1      39.254  21.777  26.563  1.00  0.00    -0.269 OA
ATOM      6  H   UNL A   1      40.667  23.593  26.996  1.00  0.00     0.163 HD
BRANCH   4   7
ATOM      7  C   UNL A   1      37.627  23.181  25.605  1.00  0.00     0.039 A 
ATOM      8  C   UNL A   1      35.051  23.637  24.517  1.00  0.00     0.060 A 
ATOM      9  C   UNL A   1      35.293  23.808  25.884  1.00  0.00     0.029 A 
ATOM     10  C   UNL A   1      36.123  23.287  23.697  1.00  0.00     0.029 A 
ATOM     11  C   UNL A   1      36.558  23.565  26.425  1.00  0.00     0.016 A 
ATOM     12  C   UNL A   1      37.404  23.098  24.229  1.00  0.00     0.016 A 
BRANCH   8  13
ATOM     13  N   UNL A   1      33.776  23.822  24.014  1.00  0.00    -0.257 N 
ATOM     14  C   UNL A   1      33.105  22.897  23.102  1.00  0.00     0.144 C 
ATOM     15  C   UNL A   1      31.820  23.657  22.743  1.00  0.00     0.091 C 
ATOM     16  C   UNL A   1      32.094  24.965  23.430  1.00  0.00     0.071 C 
ATOM     17  N   UNL A   1      33.183  25.033  24.128  1.00  0.00    -0.176 NA
BRANCH  14  18
ATOM     18  C   UNL A   1      32.847  21.559  23.774  1.00  0.00    -0.019 A 
ATOM     19  C   UNL A   1      32.527  19.142  23.638  1.00  0.00     0.119 A 
ATOM     20  C   UNL A   1      32.237  19.113  25.001  1.00  0.00     0.046 A 
ATOM     21  C   UNL A   1      32.818  20.363  23.027  1.00  0.00     0.052 A 
ATOM     22  C   UNL A   1      32.265  20.284  25.757  1.00  0.00     0.004 A 
ATOM     23  C   UNL A   1      32.572  21.501  25.148  1.00  0.00     0.006 A 
BRANCH  19  24
ATOM     24  O   UNL A   1      32.460  17.932  23.003  1.00  0.00    -0.497 OA
ATOM     25  C   UNL A   1      33.402  16.952  23.422  1.00  0.00     0.278 C 
ENDBRANCH  19  24
ENDBRANCH  14  18
BRANCH  16  26
ATOM     26  C   UNL A   1      31.191  26.108  23.279  1.00  0.00    -0.002 A 
ATOM     27  C   UNL A   1      29.911  26.022  23.835  1.00  0.00     0.011 A 
ATOM     28  C   UNL A   1      31.591  27.233  22.555  1.00  0.00     0.011 A 
ATOM     29  C   UNL A   1      29.020  27.082  23.680  1.00  0.00     0.021 A 
ATOM     30  C   UNL A   1      30.690  28.284  22.375  1.00  0.00     0.021 A 
ATOM     31  C   UNL A   1      29.410  28.199  22.935  1.00  0.00     0.067 A 
BRANCH  31  32
ATOM     32  S   UNL A   1      28.252  29.531  22.713  1.00  0.00     0.175 S 
ATOM     33  C   UNL A   1      29.021  30.912  23.521  1.00  0.00     0.163 C 
ATOM     34  O   UNL A   1      28.195  29.800  21.291  1.00  0.00    -0.224 OA
ATOM     35  O   UNL A   1      27.054  29.198  23.462  1.00  0.00    -0.224 OA
ENDBRANCH  31  32
ENDBRANCH  16  26
ENDBRANCH   8  13
ENDBRANCH   4   7
ENDBRANCH   2   3
ENDBRANCH   1   2
BRANCH   1  36
ATOM     36  C   UNL A   1      42.150  24.725  25.513  1.00  0.00     0.023 C 
BRANCH  36  37
ATOM     37  C   UNL A   1      43.498  25.197  24.980  1.00  0.00     0.116 C 
BRANCH  37  38
ATOM     38  N   UNL A   1      44.601  24.326  25.357  1.00  0.00    -0.352 N 
ATOM     39  C   UNL A   1      45.265  24.257  26.556  1.00  0.00     0.251 C 
ATOM     40  H   UNL A   1      44.912  23.705  24.659  1.00  0.00     0.163 HD
ATOM     41  O   UNL A   1      46.246  23.534  26.684  1.00  0.00    -0.269 OA
BRANCH  39  42
ATOM     42  C   UNL A   1      44.814  25.102  27.681  1.00  0.00     0.039 A 
ATOM     43  C   UNL A   1      45.238  26.432  27.731  1.00  0.00     0.014 A 
ATOM     44  C   UNL A   1      43.949  24.595  28.654  1.00  0.00     0.014 A 
ATOM     45  C   UNL A   1      44.736  27.277  28.720  1.00  0.00     0.010 A 
ATOM     46  C   UNL A   1      43.404  25.453  29.603  1.00  0.00     0.010 A 
ATOM     47  C   UNL A   1      43.784  26.804  29.639  1.00  0.00    -0.014 A 
BRANCH  47  48
ATOM     48  C   UNL A   1      43.154  27.712  30.626  1.00  0.00     0.031 A 
ATOM     49  C   UNL A   1      43.747  27.869  31.996  1.00  0.00     0.074 A 
ATOM     50  C   UNL A   1      42.002  28.333  30.310  1.00  0.00     0.049 A 
ATOM     51  N   UNL A   1      43.296  28.550  33.017  1.00  0.00    -0.248 NA
ATOM     52  C   UNL A   1      44.999  27.143  32.261  1.00  0.00     0.031 C 
ATOM     53  C   UNL A   1      41.302  28.220  29.029  1.00  0.00     0.029 A 
ATOM     54  N   UNL A   1      41.209  29.174  31.049  1.00  0.00    -0.354 N 
ATOM     55  C   UNL A   1      44.198  28.326  34.048  1.00  0.00     0.074 A 
ATOM     56  C   UNL A   1      45.199  27.409  33.543  1.00  0.00     0.031 C 
ATOM     57  C   UNL A   1      40.192  28.975  29.066  1.00  0.00     0.029 A 
ATOM     58  C   UNL A   1      40.085  29.597  30.381  1.00  0.00     0.049 A 
ATOM     59  H   UNL A   1      41.425  29.448  31.969  1.00  0.00     0.167 HD
ATOM     60  C   UNL A   1      44.201  28.850  35.297  1.00  0.00     0.037 A 
ATOM     61  C   UNL A   1      39.078  30.391  30.788  1.00  0.00     0.037 A 
ATOM     62  C   UNL A   1      43.219  29.780  35.788  1.00  0.00     0.049 A 
ATOM     63  C   UNL A   1      39.107  30.961  32.178  1.00  0.00     0.074 A 
ATOM     64  C   UNL A   1      43.176  30.420  37.014  1.00  0.00     0.029 A 
ATOM     65  N   UNL A   1      42.106  30.200  35.077  1.00  0.00    -0.354 N 
ATOM     66  N   UNL A   1      40.002  30.794  33.121  1.00  0.00    -0.248 NA
ATOM     67  C   UNL A   1      37.987  31.833  32.559  1.00  0.00     0.031 C 
ATOM     68  C   UNL A   1      42.015  31.201  37.058  1.00  0.00     0.029 A 
ATOM     69  C   UNL A   1      41.357  31.076  35.844  1.00  0.00     0.049 A 
ATOM     70  H   UNL A   1      41.881  29.918  34.160  1.00  0.00     0.167 HD
ATOM     71  C   UNL A   1      39.565  31.553  34.198  1.00  0.00     0.074 A 
ATOM     72  C   UNL A   1      38.333  32.194  33.786  1.00  0.00     0.031 C 
ATOM     73  C   UNL A   1      40.134  31.705  35.419  1.00  0.00     0.037 A 
BRANCH  60  74
ATOM     74  C   UNL A   1      45.309  28.431  36.217  1.00  0.00     0.057 A 
ATOM     75  C   UNL A   1      46.522  29.130  36.273  1.00  0.00     0.134 A 
ATOM     76  C   UNL A   1      45.151  27.338  37.076  1.00  0.00     0.134 A 
ATOM     77  F   UNL A   1      46.741  30.179  35.466  1.00  0.00    -0.206 F 
ATOM     78  C   UNL A   1      47.549  28.741  37.136  1.00  0.00     0.040 A 
ATOM     79  C   UNL A   1      46.161  26.953  37.961  1.00  0.00     0.040 A 
ATOM     80  F   UNL A   1      44.013  26.628  37.075  1.00  0.00    -0.206 F 
ATOM     81  C   UNL A   1      47.367  27.653  37.987  1.00  0.00     0.006 A 
ENDBRANCH  60  74
BRANCH  61  82
ATOM     82  C   UNL A   1      37.966  30.712  29.861  1.00  0.00     0.057 A 
ATOM     83  C   UNL A   1      37.897  31.955  29.223  1.00  0.00     0.134 A 
ATOM     84  C   UNL A   1      36.948  29.789  29.592  1.00  0.00     0.134 A 
ATOM     85  F   UNL A   1      38.835  32.885  29.457  1.00  0.00    -0.206 F 
ATOM     86  C   UNL A   1      36.848  32.277  28.361  1.00  0.00     0.040 A 
ATOM     87  C   UNL A   1      35.904  30.089  28.716  1.00  0.00     0.040 A 
ATOM     88  F   UNL A   1      36.962  28.578  30.168  1.00  0.00    -0.206 F 
ATOM     89  C   UNL A   1      35.849  31.340  28.103  1.00  0.00     0.006 A 
ENDBRANCH  61  82
BRANCH  73  90
ATOM     90  C   UNL A   1      39.439  32.615  36.386  1.00  0.00     0.057 A 
ATOM     91  C   UNL A   1      38.367  32.174  37.171  1.00  0.00     0.134 A 
ATOM     92  C   UNL A   1      39.868  33.937  36.557  1.00  0.00     0.134 A 
ATOM     93  F   UNL A   1      37.900  30.922  37.043  1.00  0.00    -0.206 F 
ATOM     94  C   UNL A   1      37.733  33.022  38.081  1.00  0.00     0.040 A 
ATOM     95  C   UNL A   1      39.257  34.787  37.479  1.00  0.00     0.040 A 
ATOM     96  F   UNL A   1      40.893  34.419  35.839  1.00  0.00    -0.206 F 
ATOM     97  C   UNL A   1      38.183  34.331  38.241  1.00  0.00     0.006 A 
ENDBRANCH  73  90
ENDBRANCH  47  48
ENDBRANCH  39  42
ENDBRANCH  37  38
ENDBRANCH  36  37
ENDBRANCH   1  36
TORSDOF 16
ENDMDL
MODEL 3
REMARK VINA RESULT:     -10.0      3.384     11.352
REMARK SMILES COc1cccc([C@H]2CC(c3ccc(S(C)(=O)=O)cc3)=NN2c2ccc(C(=O)NCCCCNC(=O)c3ccc(-c4c5nc(c(-c6c(F)cccc6F)c6ccc([nH]6)c(-c6c(F)cccc6F)c6nc(c(-c7c(F)cccc7F)c7ccc4[nH]7)C=C6)C=C5)cc3)cc2)c1
REMARK SMILES IDX 31 1 30 2 29 3 27 4 28 5 26 7 23 8 24 9 92 10 25 11 91 12
REMARK SMILES IDX 22 13 8 14 9 15 10 16 21 17 7 18 3 19 4 20 93 21 5 22 6 23
REMARK SMILES IDX 2 24 1 25 11 26 12 27 20 28 13 29 19 30 14 31 15 32 16 33
REMARK SMILES IDX 17 34 18 35 32 36 33 37 34 38 35 39 36 41 37 42 38 43 90 44
REMARK SMILES IDX 39 45 89 46 40 47 41 48 42 49 83 50 43 51 88 52 82 53 84 54
REMARK SMILES IDX 44 55 87 56 81 57 80 58 45 60 71 61 54 62 70 63 55 64 58 65
REMARK SMILES IDX 69 66 85 67 56 68 57 69 68 71 86 72 59 73 46 74 47 75 52 76
REMARK SMILES IDX 48 77 49 78 51 79 53 80 50 81 72 82 73 83 78 84 74 85 75 86
REMARK SMILES IDX 77 87 79 88 76 89 60 90 61 91 66 92 62 93 63 94 65 95 67 96
REMARK SMILES IDX 64 97
REMARK H PARENT 29 6 34 40 84 59 58 70
REMARK Flexibility Score: inf
ROOT
ATOM      1  C   UNL A   1      52.030  29.215  27.981  1.00  0.00     0.023 C 
ENDROOT
BRANCH   1   2
ATOM      2  C   UNL A   1      51.144  29.036  29.217  1.00  0.00     0.116 C 
BRANCH   2   3
ATOM      3  N   UNL A   1      51.438  27.778  29.872  1.00  0.00    -0.352 N 
ATOM      4  C   UNL A   1      50.697  26.982  30.708  1.00  0.00     0.251 C 
ATOM      5  O   UNL A   1      51.226  25.942  31.104  1.00  0.00    -0.269 OA
ATOM      6  H   UNL A   1      52.339  27.430  29.682  1.00  0.00     0.163 HD
BRANCH   4   7
ATOM      7  C   UNL A   1      49.293  27.284  31.110  1.00  0.00     0.039 A 
ATOM      8  C   UNL A   1      46.560  27.741  31.702  1.00  0.00     0.060 A 
ATOM      9  C   UNL A   1      46.946  26.688  30.867  1.00  0.00     0.029 A 
ATOM     10  C   UNL A   1      47.558  28.526  32.278  1.00  0.00     0.029 A 
ATOM     11  C   UNL A   1      48.292  26.474  30.557  1.00  0.00     0.016 A 
ATOM     12  C   UNL A   1      48.911  28.277  32.015  1.00  0.00     0.016 A 
BRANCH   8  13
ATOM     13  N   UNL A   1      45.218  27.973  31.944  1.00  0.00    -0.257 N 
ATOM     14  C   UNL A   1      44.136  27.087  31.519  1.00  0.00     0.144 C 
ATOM     15  C   UNL A   1      42.881  27.891  31.889  1.00  0.00     0.091 C 
ATOM     16  C   UNL A   1      43.521  29.177  32.331  1.00  0.00     0.071 C 
ATOM     17  N   UNL A   1      44.816  29.199  32.353  1.00  0.00    -0.176 NA
BRANCH  14  18
ATOM     18  C   UNL A   1      44.221  25.744  32.225  1.00  0.00    -0.019 A 
ATOM     19  C   UNL A   1      44.530  24.432  34.260  1.00  0.00     0.119 A 
ATOM     20  C   UNL A   1      44.512  23.264  33.499  1.00  0.00     0.046 A 
ATOM     21  C   UNL A   1      44.398  25.666  33.621  1.00  0.00     0.052 A 
ATOM     22  C   UNL A   1      44.334  23.321  32.117  1.00  0.00     0.004 A 
ATOM     23  C   UNL A   1      44.186  24.554  31.483  1.00  0.00     0.006 A 
BRANCH  19  24
ATOM     24  O   UNL A   1      44.719  24.248  35.603  1.00  0.00    -0.497 OA
ATOM     25  C   UNL A   1      45.049  22.928  36.014  1.00  0.00     0.278 C 
ENDBRANCH  19  24
ENDBRANCH  14  18
BRANCH  16  26
ATOM     26  C   UNL A   1      42.715  30.349  32.678  1.00  0.00    -0.002 A 
ATOM     27  C   UNL A   1      43.367  31.568  32.881  1.00  0.00     0.011 A 
ATOM     28  C   UNL A   1      41.334  30.230  32.846  1.00  0.00     0.011 A 
ATOM     29  C   UNL A   1      42.628  32.693  33.243  1.00  0.00     0.021 A 
ATOM     30  C   UNL A   1      40.596  31.350  33.236  1.00  0.00     0.021 A 
ATOM     31  C   UNL A   1      41.248  32.572  33.436  1.00  0.00     0.067 A 
BRANCH  31  32
ATOM     32  S   UNL A   1      40.321  34.005  33.933  1.00  0.00     0.175 S 
ATOM     33  C   UNL A   1      41.554  35.259  34.167  1.00  0.00     0.163 C 
ATOM     34  O   UNL A   1      39.492  34.377  32.804  1.00  0.00    -0.224 OA
ATOM     35  O   UNL A   1      39.736  33.720  35.230  1.00  0.00    -0.224 OA
ENDBRANCH  31  32
ENDBRANCH  16  26
ENDBRANCH   8  13
ENDBRANCH   4   7
ENDBRANCH   2   3
ENDBRANCH   1   2
BRANCH   1  36
ATOM     36  C   UNL A   1      52.943  28.022  27.686  1.00  0.00     0.023 C 
BRANCH  36  37
ATOM     37  C   UNL A   1      53.245  27.796  26.208  1.00  0.00     0.116 C 
BRANCH  37  38
ATOM     38  N   UNL A   1      53.570  26.412  25.894  1.00  0.00    -0.352 N 
ATOM     39  C   UNL A   1      52.736  25.323  25.869  1.00  0.00     0.251 C 
ATOM     40  H   UNL A   1      54.513  26.235  25.671  1.00  0.00     0.163 HD
ATOM     41  O   UNL A   1      53.187  24.198  25.681  1.00  0.00    -0.269 OA
BRANCH  39  42
ATOM     42  C   UNL A   1      51.293  25.512  26.119  1.00  0.00     0.039 A 
ATOM     43  C   UNL A   1      50.784  25.193  27.380  1.00  0.00     0.014 A 
ATOM     44  C   UNL A   1      50.459  26.036  25.128  1.00  0.00     0.014 A 
ATOM     45  C   UNL A   1      49.449  25.469  27.673  1.00  0.00     0.010 A 
ATOM     46  C   UNL A   1      49.143  26.364  25.439  1.00  0.00     0.010 A 
ATOM     47  C   UNL A   1      48.630  26.093  26.717  1.00  0.00    -0.014 A 
BRANCH  47  48
ATOM     48  C   UNL A   1      47.242  26.497  27.044  1.00  0.00     0.031 A 
ATOM     49  C   UNL A   1      46.946  27.900  27.487  1.00  0.00     0.074 A 
ATOM     50  C   UNL A   1      46.262  25.574  27.016  1.00  0.00     0.049 A 
ATOM     51  N   UNL A   1      45.814  28.417  27.891  1.00  0.00    -0.248 NA
ATOM     52  C   UNL A   1      48.077  28.841  27.501  1.00  0.00     0.031 C 
ATOM     53  C   UNL A   1      46.435  24.166  26.652  1.00  0.00     0.029 A 
ATOM     54  N   UNL A   1      44.927  25.678  27.314  1.00  0.00    -0.354 N 
ATOM     55  C   UNL A   1      46.098  29.735  28.220  1.00  0.00     0.074 A 
ATOM     56  C   UNL A   1      47.518  29.928  28.011  1.00  0.00     0.031 C 
ATOM     57  C   UNL A   1      45.248  23.542  26.733  1.00  0.00     0.029 A 
ATOM     58  C   UNL A   1      44.241  24.495  27.187  1.00  0.00     0.049 A 
ATOM     59  H   UNL A   1      44.502  26.521  27.593  1.00  0.00     0.167 HD
ATOM     60  C   UNL A   1      45.249  30.703  28.642  1.00  0.00     0.037 A 
ATOM     61  C   UNL A   1      42.946  24.211  27.416  1.00  0.00     0.037 A 
ATOM     62  C   UNL A   1      43.834  30.515  28.824  1.00  0.00     0.049 A 
ATOM     63  C   UNL A   1      42.024  25.302  27.882  1.00  0.00     0.074 A 
ATOM     64  C   UNL A   1      42.879  31.452  29.182  1.00  0.00     0.029 A 
ATOM     65  N   UNL A   1      43.171  29.308  28.666  1.00  0.00    -0.354 N 
ATOM     66  N   UNL A   1      42.293  26.561  28.125  1.00  0.00    -0.248 NA
ATOM     67  C   UNL A   1      40.619  24.932  28.102  1.00  0.00     0.031 C 
ATOM     68  C   UNL A   1      41.643  30.801  29.274  1.00  0.00     0.029 A 
ATOM     69  C   UNL A   1      41.823  29.469  28.938  1.00  0.00     0.049 A 
ATOM     70  H   UNL A   1      43.596  28.460  28.400  1.00  0.00     0.167 HD
ATOM     71  C   UNL A   1      41.090  27.139  28.506  1.00  0.00     0.074 A 
ATOM     72  C   UNL A   1      40.087  26.096  28.447  1.00  0.00     0.031 C 
ATOM     73  C   UNL A   1      40.839  28.420  28.874  1.00  0.00     0.037 A 
BRANCH  60  74
ATOM     74  C   UNL A   1      45.831  32.055  28.927  1.00  0.00     0.057 A 
ATOM     75  C   UNL A   1      45.884  33.055  27.948  1.00  0.00     0.134 A 
ATOM     76  C   UNL A   1      46.317  32.370  30.201  1.00  0.00     0.134 A 
ATOM     77  F   UNL A   1      45.447  32.812  26.703  1.00  0.00    -0.206 F 
ATOM     78  C   UNL A   1      46.421  34.315  28.220  1.00  0.00     0.040 A 
ATOM     79  C   UNL A   1      46.835  33.634  30.493  1.00  0.00     0.040 A 
ATOM     80  F   UNL A   1      46.293  31.459  31.185  1.00  0.00    -0.206 F 
ATOM     81  C   UNL A   1      46.893  34.608  29.497  1.00  0.00     0.006 A 
ENDBRANCH  60  74
BRANCH  61  82
ATOM     82  C   UNL A   1      42.438  22.835  27.190  1.00  0.00     0.057 A 
ATOM     83  C   UNL A   1      42.124  21.998  28.267  1.00  0.00     0.134 A 
ATOM     84  C   UNL A   1      42.258  22.324  25.900  1.00  0.00     0.134 A 
ATOM     85  F   UNL A   1      42.295  22.428  29.526  1.00  0.00    -0.206 F 
ATOM     86  C   UNL A   1      41.663  20.697  28.070  1.00  0.00     0.040 A 
ATOM     87  C   UNL A   1      41.776  21.032  25.687  1.00  0.00     0.040 A 
ATOM     88  F   UNL A   1      42.535  23.081  24.827  1.00  0.00    -0.206 F 
ATOM     89  C   UNL A   1      41.483  20.212  26.776  1.00  0.00     0.006 A 
ENDBRANCH  61  82
BRANCH  73  90
ATOM     90  C   UNL A   1      39.421  28.765  29.218  1.00  0.00     0.057 A 
ATOM     91  C   UNL A   1      38.889  28.507  30.487  1.00  0.00     0.134 A 
ATOM     92  C   UNL A   1      38.591  29.391  28.281  1.00  0.00     0.134 A 
ATOM     93  F   UNL A   1      39.630  27.895  31.424  1.00  0.00    -0.206 F 
ATOM     94  C   UNL A   1      37.573  28.844  30.807  1.00  0.00     0.040 A 
ATOM     95  C   UNL A   1      37.281  29.753  28.595  1.00  0.00     0.040 A 
ATOM     96  F   UNL A   1      39.043  29.671  27.049  1.00  0.00    -0.206 F 
ATOM     97  C   UNL A   1      36.767  29.475  29.861  1.00  0.00     0.006 A 
ENDBRANCH  73  90
ENDBRANCH  47  48
ENDBRANCH  39  42
ENDBRANCH  37  38
ENDBRANCH  36  37
ENDBRANCH   1  36
TORSDOF 16
ENDMDL
