MODEL 1
REMARK VINA RESULT:     -11.0      0.000      0.000
REMARK SMILES CC(C)C[C@@H](NS(=O)(=O)c1ccc(CC#N)cc1)C(=O)NCCCCNC(=O)c1ccc(-c2c3nc(c(-c4c(F)cccc4F)c4ccc([nH]4)c(-c4c(F)cccc4F)c4nc(c(-c5c(F)cccc5F)c5ccc2[nH]5)C=C4)C=C3)cc1
REMARK SMILES IDX 22 1 21 2 19 3 20 4 5 6 4 7 2 8 1 9 3 10 6 11 7 13 8 14 9 15
REMARK SMILES IDX 10 16 11 17 18 18 12 19 17 20 13 21 14 22 15 23 16 24 23 25
REMARK SMILES IDX 24 26 25 27 26 28 27 29 28 31 29 32 30 33 82 34 31 35 81 36
REMARK SMILES IDX 32 37 33 38 34 39 75 40 35 41 80 42 74 43 76 44 36 45 79 46
REMARK SMILES IDX 73 47 72 48 37 50 63 51 46 52 62 53 47 54 50 55 61 56 77 57
REMARK SMILES IDX 48 58 49 59 60 61 78 62 51 63 38 64 39 65 44 66 40 67 41 68
REMARK SMILES IDX 43 69 45 70 42 71 64 72 65 73 70 74 66 75 67 76 69 77 71 78
REMARK SMILES IDX 68 79 52 80 53 81 58 82 54 83 55 84 57 85 59 86 56 87
REMARK H PARENT 21 5 6 12 26 30 76 49 50 60
REMARK Flexibility Score: inf
ROOT
ATOM      1  C   UNL A   1      35.907  21.435  25.662  1.00  0.00     0.116 C 
ENDROOT
BRANCH   1   2
ATOM      2  N   UNL A   1      34.812  20.491  25.539  1.00  0.00    -0.355 N 
ATOM      3  C   UNL A   1      33.478  20.717  25.353  1.00  0.00     0.238 C 
ATOM      4  O   UNL A   1      32.706  19.766  25.504  1.00  0.00    -0.273 OA
ATOM      5  H   UNL A   1      35.070  19.542  25.598  1.00  0.00     0.163 HD
BRANCH   3   6
ATOM      6  C   UNL A   1      32.956  22.109  24.982  1.00  0.00     0.159 C 
BRANCH   6   7
ATOM      7  C   UNL A   1      33.048  22.237  23.452  1.00  0.00     0.033 C 
BRANCH   7   8
ATOM      8  C   UNL A   1      33.613  23.548  22.886  1.00  0.00    -0.015 C 
ATOM      9  C   UNL A   1      32.518  24.524  22.461  1.00  0.00     0.007 C 
ATOM     10  C   UNL A   1      34.503  24.196  23.955  1.00  0.00     0.007 C 
ENDBRANCH   7   8
ENDBRANCH   6   7
BRANCH   6  11
ATOM     11  N   UNL A   1      31.591  22.333  25.501  1.00  0.00    -0.199 NA
ATOM     12  H   UNL A   1      31.236  21.421  25.790  1.00  0.00     0.142 HD
BRANCH  11  13
ATOM     13  S   UNL A   1      31.324  23.383  26.789  1.00  0.00     0.241 S 
ATOM     14  O   UNL A   1      29.991  23.142  27.300  1.00  0.00    -0.207 OA
ATOM     15  O   UNL A   1      32.488  23.244  27.633  1.00  0.00    -0.207 OA
BRANCH  13  16
ATOM     16  C   UNL A   1      31.371  25.011  26.075  1.00  0.00     0.082 A 
ATOM     17  C   UNL A   1      30.305  25.432  25.281  1.00  0.00     0.022 A 
ATOM     18  C   UNL A   1      32.439  25.876  26.326  1.00  0.00     0.022 A 
ATOM     19  C   UNL A   1      30.375  26.651  24.605  1.00  0.00     0.006 A 
ATOM     20  C   UNL A   1      32.482  27.123  25.690  1.00  0.00     0.006 A 
ATOM     21  C   UNL A   1      31.468  27.505  24.793  1.00  0.00    -0.034 A 
BRANCH  21  22
ATOM     22  C   UNL A   1      31.517  28.828  24.070  1.00  0.00     0.155 C 
BRANCH  22  23
ATOM     23  C   UNL A   1      30.584  28.941  22.875  1.00  0.00     0.067 C 
ATOM     24  N   UNL A   1      29.810  29.035  21.883  1.00  0.00    -0.198 NA
ENDBRANCH  22  23
ENDBRANCH  21  22
ENDBRANCH  13  16
ENDBRANCH  11  13
ENDBRANCH   6  11
ENDBRANCH   3   6
ENDBRANCH   1   2
BRANCH   1  25
ATOM     25  C   UNL A   1      36.957  21.162  24.587  1.00  0.00     0.023 C 
BRANCH  25  26
ATOM     26  C   UNL A   1      37.872  19.979  24.909  1.00  0.00     0.023 C 
BRANCH  26  27
ATOM     27  C   UNL A   1      38.976  20.294  25.910  1.00  0.00     0.116 C 
BRANCH  27  28
ATOM     28  N   UNL A   1      40.076  19.341  25.837  1.00  0.00    -0.352 N 
ATOM     29  C   UNL A   1      41.412  19.566  26.049  1.00  0.00     0.251 C 
ATOM     30  H   UNL A   1      39.827  18.417  25.604  1.00  0.00     0.163 HD
ATOM     31  O   UNL A   1      42.239  18.698  25.787  1.00  0.00    -0.269 OA
BRANCH  29  32
ATOM     32  C   UNL A   1      41.845  20.876  26.573  1.00  0.00     0.039 A 
ATOM     33  C   UNL A   1      42.244  21.865  25.673  1.00  0.00     0.014 A 
ATOM     34  C   UNL A   1      41.819  21.131  27.947  1.00  0.00     0.014 A 
ATOM     35  C   UNL A   1      42.565  23.136  26.150  1.00  0.00     0.010 A 
ATOM     36  C   UNL A   1      42.068  22.416  28.412  1.00  0.00     0.010 A 
ATOM     37  C   UNL A   1      42.450  23.428  27.519  1.00  0.00    -0.014 A 
BRANCH  37  38
ATOM     38  C   UNL A   1      42.730  24.786  28.039  1.00  0.00     0.031 A 
ATOM     39  C   UNL A   1      44.124  25.155  28.460  1.00  0.00     0.074 A 
ATOM     40  C   UNL A   1      41.718  25.661  28.193  1.00  0.00     0.049 A 
ATOM     41  N   UNL A   1      44.559  26.267  28.995  1.00  0.00    -0.248 NA
ATOM     42  C   UNL A   1      45.162  24.129  28.278  1.00  0.00     0.031 C 
ATOM     43  C   UNL A   1      40.315  25.400  27.868  1.00  0.00     0.029 A 
ATOM     44  N   UNL A   1      41.714  26.946  28.675  1.00  0.00    -0.354 N 
ATOM     45  C   UNL A   1      45.914  26.069  29.226  1.00  0.00     0.074 A 
ATOM     46  C   UNL A   1      46.220  24.715  28.819  1.00  0.00     0.031 C 
ATOM     47  C   UNL A   1      39.590  26.497  28.141  1.00  0.00     0.029 A 
ATOM     48  C   UNL A   1      40.469  27.524  28.691  1.00  0.00     0.049 A 
ATOM     49  H   UNL A   1      42.528  27.410  28.980  1.00  0.00     0.167 HD
ATOM     50  C   UNL A   1      46.825  26.944  29.713  1.00  0.00     0.037 A 
ATOM     51  C   UNL A   1      40.081  28.742  29.111  1.00  0.00     0.037 A 
ATOM     52  C   UNL A   1      46.518  28.297  30.096  1.00  0.00     0.049 A 
ATOM     53  C   UNL A   1      41.111  29.695  29.650  1.00  0.00     0.074 A 
ATOM     54  C   UNL A   1      47.381  29.282  30.543  1.00  0.00     0.029 A 
ATOM     55  N   UNL A   1      45.249  28.853  30.080  1.00  0.00    -0.354 N 
ATOM     56  N   UNL A   1      42.403  29.520  29.796  1.00  0.00    -0.248 NA
ATOM     57  C   UNL A   1      40.631  31.016  30.078  1.00  0.00     0.031 C 
ATOM     58  C   UNL A   1      46.626  30.423  30.836  1.00  0.00     0.029 A 
ATOM     59  C   UNL A   1      45.301  30.162  30.528  1.00  0.00     0.049 A 
ATOM     60  H   UNL A   1      44.431  28.386  29.793  1.00  0.00     0.167 HD
ATOM     61  C   UNL A   1      42.892  30.715  30.305  1.00  0.00     0.074 A 
ATOM     62  C   UNL A   1      41.762  31.611  30.431  1.00  0.00     0.031 C 
ATOM     63  C   UNL A   1      44.165  31.042  30.639  1.00  0.00     0.037 A 
BRANCH  50  64
ATOM     64  C   UNL A   1      48.239  26.463  29.853  1.00  0.00     0.057 A 
ATOM     65  C   UNL A   1      48.684  25.810  31.011  1.00  0.00     0.134 A 
ATOM     66  C   UNL A   1      49.159  26.628  28.811  1.00  0.00     0.134 A 
ATOM     67  F   UNL A   1      47.857  25.632  32.052  1.00  0.00    -0.206 F 
ATOM     68  C   UNL A   1      50.000  25.362  31.135  1.00  0.00     0.040 A 
ATOM     69  C   UNL A   1      50.469  26.160  28.913  1.00  0.00     0.040 A 
ATOM     70  F   UNL A   1      48.798  27.241  27.673  1.00  0.00    -0.206 F 
ATOM     71  C   UNL A   1      50.895  25.529  30.080  1.00  0.00     0.006 A 
ENDBRANCH  50  64
BRANCH  51  72
ATOM     72  C   UNL A   1      38.655  29.143  29.012  1.00  0.00     0.057 A 
ATOM     73  C   UNL A   1      37.807  29.061  30.123  1.00  0.00     0.134 A 
ATOM     74  C   UNL A   1      38.106  29.611  27.814  1.00  0.00     0.134 A 
ATOM     75  F   UNL A   1      38.271  28.603  31.294  1.00  0.00    -0.206 F 
ATOM     76  C   UNL A   1      36.458  29.411  30.039  1.00  0.00     0.040 A 
ATOM     77  C   UNL A   1      36.765  29.987  27.722  1.00  0.00     0.040 A 
ATOM     78  F   UNL A   1      38.868  29.719  26.715  1.00  0.00    -0.206 F 
ATOM     79  C   UNL A   1      35.935  29.881  28.837  1.00  0.00     0.006 A 
ENDBRANCH  51  72
BRANCH  63  80
ATOM     80  C   UNL A   1      44.407  32.436  31.136  1.00  0.00     0.057 A 
ATOM     81  C   UNL A   1      44.388  32.748  32.501  1.00  0.00     0.134 A 
ATOM     82  C   UNL A   1      44.699  33.470  30.238  1.00  0.00     0.134 A 
ATOM     83  F   UNL A   1      44.101  31.804  33.410  1.00  0.00    -0.206 F 
ATOM     84  C   UNL A   1      44.632  34.045  32.955  1.00  0.00     0.040 A 
ATOM     85  C   UNL A   1      44.969  34.766  30.682  1.00  0.00     0.040 A 
ATOM     86  F   UNL A   1      44.740  33.237  28.918  1.00  0.00    -0.206 F 
ATOM     87  C   UNL A   1      44.931  35.057  32.044  1.00  0.00     0.006 A 
ENDBRANCH  63  80
ENDBRANCH  37  38
ENDBRANCH  29  32
ENDBRANCH  27  28
ENDBRANCH  26  27
ENDBRANCH  25  26
ENDBRANCH   1  25
TORSDOF 18
ENDMDL
MODEL 2
REMARK VINA RESULT:     -10.9      3.828      8.958
REMARK SMILES CC(C)C[C@@H](NS(=O)(=O)c1ccc(CC#N)cc1)C(=O)NCCCCNC(=O)c1ccc(-c2c3nc(c(-c4c(F)cccc4F)c4ccc([nH]4)c(-c4c(F)cccc4F)c4nc(c(-c5c(F)cccc5F)c5ccc2[nH]5)C=C4)C=C3)cc1
REMARK SMILES IDX 22 1 21 2 19 3 20 4 5 6 4 7 2 8 1 9 3 10 6 11 7 13 8 14 9 15
REMARK SMILES IDX 10 16 11 17 18 18 12 19 17 20 13 21 14 22 15 23 16 24 23 25
REMARK SMILES IDX 24 26 25 27 26 28 27 29 28 31 29 32 30 33 82 34 31 35 81 36
REMARK SMILES IDX 32 37 33 38 34 39 75 40 35 41 80 42 74 43 76 44 36 45 79 46
REMARK SMILES IDX 73 47 72 48 37 50 63 51 46 52 62 53 47 54 50 55 61 56 77 57
REMARK SMILES IDX 48 58 49 59 60 61 78 62 51 63 38 64 39 65 44 66 40 67 41 68
REMARK SMILES IDX 43 69 45 70 42 71 64 72 65 73 70 74 66 75 67 76 69 77 71 78
REMARK SMILES IDX 68 79 52 80 53 81 58 82 54 83 55 84 57 85 59 86 56 87
REMARK H PARENT 21 5 6 12 26 30 76 49 50 60
REMARK Flexibility Score: inf
ROOT
ATOM      1  C   UNL A   1      32.418  29.655  25.048  1.00  0.00     0.116 C 
ENDROOT
BRANCH   1   2
ATOM      2  N   UNL A   1      31.431  29.687  23.986  1.00  0.00    -0.355 N 
ATOM      3  C   UNL A   1      30.983  28.683  23.175  1.00  0.00     0.238 C 
ATOM      4  O   UNL A   1      30.304  28.995  22.193  1.00  0.00    -0.273 OA
ATOM      5  H   UNL A   1      31.019  30.568  23.825  1.00  0.00     0.163 HD
BRANCH   3   6
ATOM      6  C   UNL A   1      31.326  27.218  23.468  1.00  0.00     0.159 C 
BRANCH   6   7
ATOM      7  C   UNL A   1      30.218  26.666  24.381  1.00  0.00     0.033 C 
BRANCH   7   8
ATOM      8  C   UNL A   1      30.647  25.743  25.531  1.00  0.00    -0.015 C 
ATOM      9  C   UNL A   1      30.758  24.282  25.101  1.00  0.00     0.007 C 
ATOM     10  C   UNL A   1      31.997  26.232  26.070  1.00  0.00     0.007 C 
ENDBRANCH   7   8
ENDBRANCH   6   7
BRANCH   6  11
ATOM     11  N   UNL A   1      31.491  26.441  22.222  1.00  0.00    -0.199 NA
ATOM     12  H   UNL A   1      31.065  26.991  21.476  1.00  0.00     0.142 HD
BRANCH  11  13
ATOM     13  S   UNL A   1      33.024  26.003  21.682  1.00  0.00     0.241 S 
ATOM     14  O   UNL A   1      32.913  25.582  20.301  1.00  0.00    -0.207 OA
ATOM     15  O   UNL A   1      33.884  27.098  22.065  1.00  0.00    -0.207 OA
BRANCH  13  16
ATOM     16  C   UNL A   1      33.477  24.595  22.668  1.00  0.00     0.082 A 
ATOM     17  C   UNL A   1      32.975  23.340  22.327  1.00  0.00     0.022 A 
ATOM     18  C   UNL A   1      34.348  24.726  23.752  1.00  0.00     0.022 A 
ATOM     19  C   UNL A   1      33.209  22.243  23.156  1.00  0.00     0.006 A 
ATOM     20  C   UNL A   1      34.627  23.612  24.554  1.00  0.00     0.006 A 
ATOM     21  C   UNL A   1      34.029  22.368  24.285  1.00  0.00    -0.034 A 
BRANCH  21  22
ATOM     22  C   UNL A   1      34.287  21.167  25.160  1.00  0.00     0.155 C 
BRANCH  22  23
ATOM     23  C   UNL A   1      33.177  20.128  25.166  1.00  0.00     0.067 C 
ATOM     24  N   UNL A   1      32.256  19.267  25.172  1.00  0.00    -0.198 NA
ENDBRANCH  22  23
ENDBRANCH  21  22
ENDBRANCH  13  16
ENDBRANCH  11  13
ENDBRANCH   6  11
ENDBRANCH   3   6
ENDBRANCH   1   2
BRANCH   1  25
ATOM     25  C   UNL A   1      31.773  30.054  26.374  1.00  0.00     0.023 C 
BRANCH  25  26
ATOM     26  C   UNL A   1      31.599  31.564  26.541  1.00  0.00     0.023 C 
BRANCH  26  27
ATOM     27  C   UNL A   1      32.762  32.258  27.239  1.00  0.00     0.116 C 
BRANCH  27  28
ATOM     28  N   UNL A   1      32.456  33.640  27.581  1.00  0.00    -0.352 N 
ATOM     29  C   UNL A   1      33.110  34.464  28.462  1.00  0.00     0.251 C 
ATOM     30  H   UNL A   1      31.680  34.034  27.120  1.00  0.00     0.163 HD
ATOM     31  O   UNL A   1      32.634  35.551  28.768  1.00  0.00    -0.269 OA
BRANCH  29  32
ATOM     32  C   UNL A   1      34.383  34.012  29.057  1.00  0.00     0.039 A 
ATOM     33  C   UNL A   1      34.351  33.273  30.241  1.00  0.00     0.014 A 
ATOM     34  C   UNL A   1      35.597  34.288  28.423  1.00  0.00     0.014 A 
ATOM     35  C   UNL A   1      35.539  32.761  30.762  1.00  0.00     0.010 A 
ATOM     36  C   UNL A   1      36.769  33.716  28.902  1.00  0.00     0.010 A 
ATOM     37  C   UNL A   1      36.752  32.954  30.079  1.00  0.00    -0.014 A 
BRANCH  37  38
ATOM     38  C   UNL A   1      38.016  32.370  30.583  1.00  0.00     0.031 A 
ATOM     39  C   UNL A   1      38.543  31.095  29.987  1.00  0.00     0.074 A 
ATOM     40  C   UNL A   1      38.652  32.951  31.617  1.00  0.00     0.049 A 
ATOM     41  N   UNL A   1      39.594  30.395  30.329  1.00  0.00    -0.248 NA
ATOM     42  C   UNL A   1      37.771  30.517  28.876  1.00  0.00     0.031 C 
ATOM     43  C   UNL A   1      38.209  34.161  32.312  1.00  0.00     0.029 A 
ATOM     44  N   UNL A   1      39.801  32.592  32.275  1.00  0.00    -0.354 N 
ATOM     45  C   UNL A   1      39.601  29.291  29.487  1.00  0.00     0.074 A 
ATOM     46  C   UNL A   1      38.425  29.387  28.651  1.00  0.00     0.031 C 
ATOM     47  C   UNL A   1      39.088  34.456  33.284  1.00  0.00     0.029 A 
ATOM     48  C   UNL A   1      40.134  33.437  33.304  1.00  0.00     0.049 A 
ATOM     49  H   UNL A   1      40.337  31.802  32.031  1.00  0.00     0.167 HD
ATOM     50  C   UNL A   1      40.518  28.299  29.403  1.00  0.00     0.037 A 
ATOM     51  C   UNL A   1      41.162  33.391  34.170  1.00  0.00     0.037 A 
ATOM     52  C   UNL A   1      41.698  28.219  30.223  1.00  0.00     0.049 A 
ATOM     53  C   UNL A   1      42.165  32.277  34.059  1.00  0.00     0.074 A 
ATOM     54  C   UNL A   1      42.720  27.288  30.175  1.00  0.00     0.029 A 
ATOM     55  N   UNL A   1      42.011  29.106  31.242  1.00  0.00    -0.354 N 
ATOM     56  N   UNL A   1      42.200  31.277  33.210  1.00  0.00    -0.248 NA
ATOM     57  C   UNL A   1      43.276  32.287  35.022  1.00  0.00     0.031 C 
ATOM     58  C   UNL A   1      43.632  27.587  31.193  1.00  0.00     0.029 A 
ATOM     59  C   UNL A   1      43.201  28.732  31.844  1.00  0.00     0.049 A 
ATOM     60  H   UNL A   1      41.468  29.886  31.500  1.00  0.00     0.167 HD
ATOM     61  C   UNL A   1      43.347  30.558  33.518  1.00  0.00     0.074 A 
ATOM     62  C   UNL A   1      43.986  31.242  34.622  1.00  0.00     0.031 C 
ATOM     63  C   UNL A   1      43.827  29.431  32.938  1.00  0.00     0.037 A 
BRANCH  50  64
ATOM     64  C   UNL A   1      40.280  27.222  28.386  1.00  0.00     0.057 A 
ATOM     65  C   UNL A   1      40.857  27.272  27.110  1.00  0.00     0.134 A 
ATOM     66  C   UNL A   1      39.490  26.108  28.694  1.00  0.00     0.134 A 
ATOM     67  F   UNL A   1      41.614  28.318  26.746  1.00  0.00    -0.206 F 
ATOM     68  C   UNL A   1      40.635  26.266  26.168  1.00  0.00     0.040 A 
ATOM     69  C   UNL A   1      39.283  25.082  27.770  1.00  0.00     0.040 A 
ATOM     70  F   UNL A   1      38.911  25.994  29.899  1.00  0.00    -0.206 F 
ATOM     71  C   UNL A   1      39.852  25.162  26.501  1.00  0.00     0.006 A 
ENDBRANCH  50  64
BRANCH  51  72
ATOM     72  C   UNL A   1      41.313  34.447  35.203  1.00  0.00     0.057 A 
ATOM     73  C   UNL A   1      40.727  34.306  36.466  1.00  0.00     0.134 A 
ATOM     74  C   UNL A   1      42.038  35.617  34.955  1.00  0.00     0.134 A 
ATOM     75  F   UNL A   1      40.004  33.215  36.757  1.00  0.00    -0.206 F 
ATOM     76  C   UNL A   1      40.838  35.301  37.439  1.00  0.00     0.040 A 
ATOM     77  C   UNL A   1      42.179  36.609  35.927  1.00  0.00     0.040 A 
ATOM     78  F   UNL A   1      42.630  35.809  33.766  1.00  0.00    -0.206 F 
ATOM     79  C   UNL A   1      41.572  36.455  37.171  1.00  0.00     0.006 A 
ENDBRANCH  51  72
BRANCH  63  80
ATOM     80  C   UNL A   1      45.123  28.889  33.462  1.00  0.00     0.057 A 
ATOM     81  C   UNL A   1      46.360  29.318  32.964  1.00  0.00     0.134 A 
ATOM     82  C   UNL A   1      45.134  27.954  34.505  1.00  0.00     0.134 A 
ATOM     83  F   UNL A   1      46.417  30.202  31.957  1.00  0.00    -0.206 F 
ATOM     84  C   UNL A   1      47.561  28.821  33.471  1.00  0.00     0.040 A 
ATOM     85  C   UNL A   1      46.329  27.468  35.037  1.00  0.00     0.040 A 
ATOM     86  F   UNL A   1      43.984  27.507  35.032  1.00  0.00    -0.206 F 
ATOM     87  C   UNL A   1      47.547  27.898  34.516  1.00  0.00     0.006 A 
ENDBRANCH  63  80
ENDBRANCH  37  38
ENDBRANCH  29  32
ENDBRANCH  27  28
ENDBRANCH  26  27
ENDBRANCH  25  26
ENDBRANCH   1  25
TORSDOF 18
ENDMDL
MODEL 3
REMARK VINA RESULT:     -10.9      1.592      6.316
REMARK SMILES CC(C)C[C@@H](NS(=O)(=O)c1ccc(CC#N)cc1)C(=O)NCCCCNC(=O)c1ccc(-c2c3nc(c(-c4c(F)cccc4F)c4ccc([nH]4)c(-c4c(F)cccc4F)c4nc(c(-c5c(F)cccc5F)c5ccc2[nH]5)C=C4)C=C3)cc1
REMARK SMILES IDX 22 1 21 2 19 3 20 4 5 6 4 7 2 8 1 9 3 10 6 11 7 13 8 14 9 15
REMARK SMILES IDX 10 16 11 17 18 18 12 19 17 20 13 21 14 22 15 23 16 24 23 25
REMARK SMILES IDX 24 26 25 27 26 28 27 29 28 31 29 32 30 33 82 34 31 35 81 36
REMARK SMILES IDX 32 37 33 38 34 39 75 40 35 41 80 42 74 43 76 44 36 45 79 46
REMARK SMILES IDX 73 47 72 48 37 50 63 51 46 52 62 53 47 54 50 55 61 56 77 57
REMARK SMILES IDX 48 58 49 59 60 61 78 62 51 63 38 64 39 65 44 66 40 67 41 68
REMARK SMILES IDX 43 69 45 70 42 71 64 72 65 73 70 74 66 75 67 76 69 77 71 78
REMARK SMILES IDX 68 79 52 80 53 81 58 82 54 83 55 84 57 85 59 86 56 87
REMARK H PARENT 21 5 6 12 26 30 76 49 50 60
REMARK Flexibility Score: inf
ROOT
ATOM      1  C   UNL A   1      36.087  21.652  25.577  1.00  0.00     0.116 C 
ENDROOT
BRANCH   1   2
ATOM      2  N   UNL A   1      35.033  20.655  25.581  1.00  0.00    -0.355 N 
ATOM      3  C   UNL A   1      33.680  20.809  25.474  1.00  0.00     0.238 C 
ATOM      4  O   UNL A   1      32.967  19.835  25.730  1.00  0.00    -0.273 OA
ATOM      5  H   UNL A   1      35.340  19.723  25.674  1.00  0.00     0.163 HD
BRANCH   3   6
ATOM      6  C   UNL A   1      33.068  22.153  25.065  1.00  0.00     0.159 C 
BRANCH   6   7
ATOM      7  C   UNL A   1      33.174  22.255  23.534  1.00  0.00     0.033 C 
BRANCH   7   8
ATOM      8  C   UNL A   1      33.591  23.609  22.944  1.00  0.00    -0.015 C 
ATOM      9  C   UNL A   1      32.395  24.455  22.513  1.00  0.00     0.007 C 
ATOM     10  C   UNL A   1      34.414  24.366  23.995  1.00  0.00     0.007 C 
ENDBRANCH   7   8
ENDBRANCH   6   7
BRANCH   6  11
ATOM     11  N   UNL A   1      31.682  22.291  25.560  1.00  0.00    -0.199 NA
ATOM     12  H   UNL A   1      31.370  21.354  25.817  1.00  0.00     0.142 HD
BRANCH  11  13
ATOM     13  S   UNL A   1      31.335  23.290  26.870  1.00  0.00     0.241 S 
ATOM     14  O   UNL A   1      30.001  22.974  27.337  1.00  0.00    -0.207 OA
ATOM     15  O   UNL A   1      32.481  23.178  27.742  1.00  0.00    -0.207 OA
BRANCH  13  16
ATOM     16  C   UNL A   1      31.326  24.938  26.205  1.00  0.00     0.082 A 
ATOM     17  C   UNL A   1      30.252  25.342  25.411  1.00  0.00     0.022 A 
ATOM     18  C   UNL A   1      32.357  25.835  26.491  1.00  0.00     0.022 A 
ATOM     19  C   UNL A   1      30.282  26.582  24.772  1.00  0.00     0.006 A 
ATOM     20  C   UNL A   1      32.359  27.102  25.892  1.00  0.00     0.006 A 
ATOM     21  C   UNL A   1      31.340  27.471  24.996  1.00  0.00    -0.034 A 
BRANCH  21  22
ATOM     22  C   UNL A   1      31.345  28.816  24.312  1.00  0.00     0.155 C 
BRANCH  22  23
ATOM     23  C   UNL A   1      30.503  28.896  23.049  1.00  0.00     0.067 C 
ATOM     24  N   UNL A   1      29.805  28.962  22.001  1.00  0.00    -0.198 NA
ENDBRANCH  22  23
ENDBRANCH  21  22
ENDBRANCH  13  16
ENDBRANCH  11  13
ENDBRANCH   6  11
ENDBRANCH   3   6
ENDBRANCH   1   2
BRANCH   1  25
ATOM     25  C   UNL A   1      37.180  21.254  24.587  1.00  0.00     0.023 C 
BRANCH  25  26
ATOM     26  C   UNL A   1      37.946  19.994  24.994  1.00  0.00     0.023 C 
BRANCH  26  27
ATOM     27  C   UNL A   1      39.092  20.241  25.967  1.00  0.00     0.116 C 
BRANCH  27  28
ATOM     28  N   UNL A   1      40.056  19.149  25.973  1.00  0.00    -0.352 N 
ATOM     29  C   UNL A   1      41.421  19.219  26.091  1.00  0.00     0.251 C 
ATOM     30  H   UNL A   1      39.679  18.244  25.881  1.00  0.00     0.163 HD
ATOM     31  O   UNL A   1      42.114  18.223  25.911  1.00  0.00    -0.269 OA
BRANCH  29  32
ATOM     32  C   UNL A   1      42.048  20.516  26.410  1.00  0.00     0.039 A 
ATOM     33  C   UNL A   1      42.434  21.357  25.364  1.00  0.00     0.014 A 
ATOM     34  C   UNL A   1      42.217  20.911  27.740  1.00  0.00     0.014 A 
ATOM     35  C   UNL A   1      42.940  22.623  25.654  1.00  0.00     0.010 A 
ATOM     36  C   UNL A   1      42.652  22.200  28.024  1.00  0.00     0.010 A 
ATOM     37  C   UNL A   1      43.024  23.064  26.985  1.00  0.00    -0.014 A 
BRANCH  37  38
ATOM     38  C   UNL A   1      43.504  24.427  27.312  1.00  0.00     0.031 A 
ATOM     39  C   UNL A   1      42.530  25.475  27.770  1.00  0.00     0.074 A 
ATOM     40  C   UNL A   1      44.802  24.735  27.134  1.00  0.00     0.049 A 
ATOM     41  N   UNL A   1      42.742  26.736  28.045  1.00  0.00    -0.248 NA
ATOM     42  C   UNL A   1      41.128  25.055  27.915  1.00  0.00     0.031 C 
ATOM     43  C   UNL A   1      45.832  23.817  26.645  1.00  0.00     0.029 A 
ATOM     44  N   UNL A   1      45.475  25.915  27.331  1.00  0.00    -0.354 N 
ATOM     45  C   UNL A   1      41.501  27.262  28.380  1.00  0.00     0.074 A 
ATOM     46  C   UNL A   1      40.534  26.197  28.227  1.00  0.00     0.031 C 
ATOM     47  C   UNL A   1      47.010  24.462  26.601  1.00  0.00     0.029 A 
ATOM     48  C   UNL A   1      46.811  25.845  27.023  1.00  0.00     0.049 A 
ATOM     49  H   UNL A   1      45.041  26.734  27.664  1.00  0.00     0.167 HD
ATOM     50  C   UNL A   1      41.198  28.513  28.798  1.00  0.00     0.037 A 
ATOM     51  C   UNL A   1      47.765  26.793  27.069  1.00  0.00     0.037 A 
ATOM     52  C   UNL A   1      42.168  29.563  28.968  1.00  0.00     0.049 A 
ATOM     53  C   UNL A   1      47.403  28.176  27.533  1.00  0.00     0.074 A 
ATOM     54  C   UNL A   1      41.973  30.847  29.445  1.00  0.00     0.029 A 
ATOM     55  N   UNL A   1      43.516  29.449  28.664  1.00  0.00    -0.354 N 
ATOM     56  N   UNL A   1      46.239  28.641  27.916  1.00  0.00    -0.248 NA
ATOM     57  C   UNL A   1      48.490  29.165  27.577  1.00  0.00     0.031 C 
ATOM     58  C   UNL A   1      43.197  31.524  29.391  1.00  0.00     0.029 A 
ATOM     59  C   UNL A   1      44.161  30.645  28.924  1.00  0.00     0.049 A 
ATOM     60  H   UNL A   1      43.949  28.636  28.315  1.00  0.00     0.167 HD
ATOM     61  C   UNL A   1      46.457  29.964  28.273  1.00  0.00     0.074 A 
ATOM     62  C   UNL A   1      47.867  30.225  28.073  1.00  0.00     0.031 C 
ATOM     63  C   UNL A   1      45.569  30.883  28.726  1.00  0.00     0.037 A 
BRANCH  50  64
ATOM     64  C   UNL A   1      39.760  28.811  29.103  1.00  0.00     0.057 A 
ATOM     65  C   UNL A   1      38.863  29.216  28.105  1.00  0.00     0.134 A 
ATOM     66  C   UNL A   1      39.258  28.666  30.402  1.00  0.00     0.134 A 
ATOM     67  F   UNL A   1      39.282  29.387  26.842  1.00  0.00    -0.206 F 
ATOM     68  C   UNL A   1      37.525  29.488  28.393  1.00  0.00     0.040 A 
ATOM     69  C   UNL A   1      37.916  28.910  30.697  1.00  0.00     0.040 A 
ATOM     70  F   UNL A   1      40.061  28.279  31.404  1.00  0.00    -0.206 F 
ATOM     71  C   UNL A   1      37.046  29.328  29.692  1.00  0.00     0.006 A 
ENDBRANCH  50  64
BRANCH  51  72
ATOM     72  C   UNL A   1      49.162  26.461  26.690  1.00  0.00     0.057 A 
ATOM     73  C   UNL A   1      49.615  26.649  25.379  1.00  0.00     0.134 A 
ATOM     74  C   UNL A   1      50.071  25.946  27.620  1.00  0.00     0.134 A 
ATOM     75  F   UNL A   1      48.784  27.122  24.439  1.00  0.00    -0.206 F 
ATOM     76  C   UNL A   1      50.918  26.319  25.002  1.00  0.00     0.040 A 
ATOM     77  C   UNL A   1      51.384  25.635  27.263  1.00  0.00     0.040 A 
ATOM     78  F   UNL A   1      49.700  25.749  28.894  1.00  0.00    -0.206 F 
ATOM     79  C   UNL A   1      51.808  25.814  25.948  1.00  0.00     0.006 A 
ENDBRANCH  51  72
BRANCH  63  80
ATOM     80  C   UNL A   1      46.103  32.242  29.070  1.00  0.00     0.057 A 
ATOM     81  C   UNL A   1      46.608  32.537  30.342  1.00  0.00     0.134 A 
ATOM     82  C   UNL A   1      46.147  33.254  28.103  1.00  0.00     0.134 A 
ATOM     83  F   UNL A   1      46.581  31.614  31.315  1.00  0.00    -0.206 F 
ATOM     84  C   UNL A   1      47.119  33.800  30.647  1.00  0.00     0.040 A 
ATOM     85  C   UNL A   1      46.679  34.512  28.389  1.00  0.00     0.040 A 
ATOM     86  F   UNL A   1      45.687  33.034  26.863  1.00  0.00    -0.206 F 
ATOM     87  C   UNL A   1      47.162  34.789  29.666  1.00  0.00     0.006 A 
ENDBRANCH  63  80
ENDBRANCH  37  38
ENDBRANCH  29  32
ENDBRANCH  27  28
ENDBRANCH  26  27
ENDBRANCH  25  26
ENDBRANCH   1  25
TORSDOF 18
ENDMDL
