MODEL 1
REMARK VINA RESULT:     -11.4      0.000      0.000
REMARK SMILES C[C@@H](C(=O)NCCCCNC(=O)c1ccc(-c2c3nc(c(-c4c(F)cccc4F)c4ccc([nH]4)c(-c4c(F)cccc4F)c4nc(c(-c5c(F)cccc5F)c5ccc2[nH]5)C=C4)C=C3)cc1)c1ccc(O[C@H]2CCCC2=O)cc1F
REMARK SMILES IDX 7 1 6 2 5 3 3 4 4 5 2 7 1 8 67 9 68 10 79 11 69 12 78 13
REMARK SMILES IDX 80 14 70 15 71 16 72 17 73 18 76 19 74 20 75 21 77 22 8 23
REMARK SMILES IDX 9 24 10 25 11 26 12 28 13 29 14 30 66 31 15 32 65 33 16 34
REMARK SMILES IDX 17 35 18 36 59 37 19 38 64 39 58 40 60 41 20 42 63 43 57 44
REMARK SMILES IDX 56 45 21 47 47 48 30 49 46 50 31 51 34 52 45 53 61 54 32 55
REMARK SMILES IDX 33 56 44 58 62 59 35 60 22 61 23 62 28 63 24 64 25 65 27 66
REMARK SMILES IDX 29 67 26 68 48 69 49 70 54 71 50 72 51 73 53 74 55 75 52 76
REMARK SMILES IDX 36 77 37 78 42 79 38 80 39 81 41 82 43 83 40 84
REMARK H PARENT 5 6 10 27 60 46 34 57
REMARK Flexibility Score: inf
ROOT
ATOM      1  C   UNL A   1      36.469  19.564  25.025  1.00  0.00     0.023 C 
ENDROOT
BRANCH   1   2
ATOM      2  C   UNL A   1      35.110  20.231  24.788  1.00  0.00     0.116 C 
BRANCH   2   3
ATOM      3  N   UNL A   1      34.676  20.975  25.955  1.00  0.00    -0.356 N 
ATOM      4  C   UNL A   1      34.971  22.252  26.342  1.00  0.00     0.227 C 
ATOM      5  O   UNL A   1      34.718  22.531  27.515  1.00  0.00    -0.274 OA
ATOM      6  H   UNL A   1      34.076  20.483  26.563  1.00  0.00     0.163 HD
BRANCH   4   7
ATOM      7  C   UNL A   1      35.624  23.222  25.342  1.00  0.00     0.108 C 
ATOM      8  C   UNL A   1      36.808  23.890  26.057  1.00  0.00     0.023 C 
BRANCH   7   9
ATOM      9  C   UNL A   1      34.725  24.282  24.701  1.00  0.00     0.000 A 
ATOM     10  C   UNL A   1      34.318  25.467  25.323  1.00  0.00     0.011 A 
ATOM     11  C   UNL A   1      34.249  24.068  23.398  1.00  0.00     0.130 A 
ATOM     12  C   UNL A   1      33.566  26.424  24.628  1.00  0.00     0.047 A 
ATOM     13  C   UNL A   1      33.508  25.020  22.697  1.00  0.00     0.086 A 
ATOM     14  F   UNL A   1      34.501  22.905  22.776  1.00  0.00    -0.207 F 
ATOM     15  C   UNL A   1      33.190  26.225  23.299  1.00  0.00     0.123 A 
BRANCH  15  16
ATOM     16  O   UNL A   1      32.503  27.261  22.746  1.00  0.00    -0.483 OA
BRANCH  16  17
ATOM     17  C   UNL A   1      31.121  27.172  22.485  1.00  0.00     0.239 C 
ATOM     18  C   UNL A   1      30.388  26.076  23.275  1.00  0.00     0.054 C 
ATOM     19  C   UNL A   1      30.182  28.370  22.571  1.00  0.00     0.173 C 
ATOM     20  C   UNL A   1      29.195  26.742  23.958  1.00  0.00     0.012 C 
ATOM     21  C   UNL A   1      28.851  27.983  23.150  1.00  0.00     0.080 C 
ATOM     22  O   UNL A   1      30.447  29.502  22.183  1.00  0.00    -0.296 OA
ENDBRANCH  16  17
ENDBRANCH  15  16
ENDBRANCH   7   9
ENDBRANCH   4   7
ENDBRANCH   2   3
ENDBRANCH   1   2
BRANCH   1  23
ATOM     23  C   UNL A   1      37.681  20.405  24.623  1.00  0.00     0.023 C 
BRANCH  23  24
ATOM     24  C   UNL A   1      38.722  20.593  25.716  1.00  0.00     0.116 C 
BRANCH  24  25
ATOM     25  N   UNL A   1      39.726  19.541  25.721  1.00  0.00    -0.352 N 
ATOM     26  C   UNL A   1      41.059  19.625  26.042  1.00  0.00     0.251 C 
ATOM     27  H   UNL A   1      39.408  18.648  25.457  1.00  0.00     0.163 HD
ATOM     28  O   UNL A   1      41.803  18.667  25.860  1.00  0.00    -0.269 OA
BRANCH  26  29
ATOM     29  C   UNL A   1      41.596  20.890  26.583  1.00  0.00     0.039 A 
ATOM     30  C   UNL A   1      42.001  21.888  25.694  1.00  0.00     0.014 A 
ATOM     31  C   UNL A   1      41.675  21.097  27.963  1.00  0.00     0.014 A 
ATOM     32  C   UNL A   1      42.430  23.121  26.191  1.00  0.00     0.010 A 
ATOM     33  C   UNL A   1      42.028  22.349  28.452  1.00  0.00     0.010 A 
ATOM     34  C   UNL A   1      42.415  23.371  27.572  1.00  0.00    -0.014 A 
BRANCH  34  35
ATOM     35  C   UNL A   1      42.821  24.684  28.129  1.00  0.00     0.031 A 
ATOM     36  C   UNL A   1      41.782  25.740  28.380  1.00  0.00     0.074 A 
ATOM     37  C   UNL A   1      44.125  24.956  28.329  1.00  0.00     0.049 A 
ATOM     38  N   UNL A   1      41.938  26.987  28.748  1.00  0.00    -0.248 NA
ATOM     39  C   UNL A   1      40.380  25.350  28.156  1.00  0.00     0.031 C 
ATOM     40  C   UNL A   1      45.231  24.030  28.084  1.00  0.00     0.029 A 
ATOM     41  N   UNL A   1      44.740  26.101  28.768  1.00  0.00    -0.354 N 
ATOM     42  C   UNL A   1      40.662  27.533  28.774  1.00  0.00     0.074 A 
ATOM     43  C   UNL A   1      39.748  26.500  28.338  1.00  0.00     0.031 C 
ATOM     44  C   UNL A   1      46.389  24.639  28.391  1.00  0.00     0.029 A 
ATOM     45  C   UNL A   1      46.109  26.008  28.814  1.00  0.00     0.049 A 
ATOM     46  H   UNL A   1      44.246  26.913  29.025  1.00  0.00     0.167 HD
ATOM     47  C   UNL A   1      40.282  28.778  29.149  1.00  0.00     0.037 A 
ATOM     48  C   UNL A   1      47.034  26.927  29.150  1.00  0.00     0.037 A 
ATOM     49  C   UNL A   1      41.190  29.793  29.612  1.00  0.00     0.049 A 
ATOM     50  C   UNL A   1      46.589  28.302  29.563  1.00  0.00     0.074 A 
ATOM     51  C   UNL A   1      40.899  31.065  30.072  1.00  0.00     0.029 A 
ATOM     52  N   UNL A   1      42.567  29.649  29.673  1.00  0.00    -0.354 N 
ATOM     53  N   UNL A   1      45.374  28.789  29.640  1.00  0.00    -0.248 NA
ATOM     54  C   UNL A   1      47.643  29.254  29.941  1.00  0.00     0.031 C 
ATOM     55  C   UNL A   1      42.105  31.706  30.375  1.00  0.00     0.029 A 
ATOM     56  C   UNL A   1      43.143  30.817  30.148  1.00  0.00     0.049 A 
ATOM     57  H   UNL A   1      43.064  28.838  29.418  1.00  0.00     0.167 HD
ATOM     58  C   UNL A   1      45.515  30.092  30.103  1.00  0.00     0.074 A 
ATOM     59  C   UNL A   1      46.933  30.314  30.299  1.00  0.00     0.031 C 
ATOM     60  C   UNL A   1      44.556  31.018  30.348  1.00  0.00     0.037 A 
BRANCH  47  61
ATOM     61  C   UNL A   1      38.819  29.104  29.073  1.00  0.00     0.057 A 
ATOM     62  C   UNL A   1      37.978  28.999  30.190  1.00  0.00     0.134 A 
ATOM     63  C   UNL A   1      38.246  29.544  27.873  1.00  0.00     0.134 A 
ATOM     64  F   UNL A   1      38.461  28.569  31.366  1.00  0.00    -0.206 F 
ATOM     65  C   UNL A   1      36.615  29.288  30.108  1.00  0.00     0.040 A 
ATOM     66  C   UNL A   1      36.890  29.864  27.787  1.00  0.00     0.040 A 
ATOM     67  F   UNL A   1      38.993  29.672  26.767  1.00  0.00    -0.206 F 
ATOM     68  C   UNL A   1      36.069  29.729  28.905  1.00  0.00     0.006 A 
ENDBRANCH  47  61
BRANCH  48  69
ATOM     69  C   UNL A   1      48.475  26.570  29.130  1.00  0.00     0.057 A 
ATOM     70  C   UNL A   1      49.079  25.958  30.235  1.00  0.00     0.134 A 
ATOM     71  C   UNL A   1      49.280  26.828  28.015  1.00  0.00     0.134 A 
ATOM     72  F   UNL A   1      48.363  25.701  31.340  1.00  0.00    -0.206 F 
ATOM     73  C   UNL A   1      50.436  25.633  30.240  1.00  0.00     0.040 A 
ATOM     74  C   UNL A   1      50.634  26.486  27.997  1.00  0.00     0.040 A 
ATOM     75  F   UNL A   1      48.759  27.405  26.923  1.00  0.00    -0.206 F 
ATOM     76  C   UNL A   1      51.216  25.892  29.115  1.00  0.00     0.006 A 
ENDBRANCH  48  69
BRANCH  60  77
ATOM     77  C   UNL A   1      45.002  32.342  30.894  1.00  0.00     0.057 A 
ATOM     78  C   UNL A   1      45.149  32.565  32.268  1.00  0.00     0.134 A 
ATOM     79  C   UNL A   1      45.333  33.391  30.026  1.00  0.00     0.134 A 
ATOM     80  F   UNL A   1      44.836  31.605  33.151  1.00  0.00    -0.206 F 
ATOM     81  C   UNL A   1      45.594  33.793  32.763  1.00  0.00     0.040 A 
ATOM     82  C   UNL A   1      45.803  34.614  30.508  1.00  0.00     0.040 A 
ATOM     83  F   UNL A   1      45.223  33.238  28.699  1.00  0.00    -0.206 F 
ATOM     84  C   UNL A   1      45.928  34.819  31.880  1.00  0.00     0.006 A 
ENDBRANCH  60  77
ENDBRANCH  34  35
ENDBRANCH  26  29
ENDBRANCH  24  25
ENDBRANCH  23  24
ENDBRANCH   1  23
TORSDOF 14
ENDMDL
MODEL 2
REMARK VINA RESULT:     -11.3      0.558      6.217
REMARK SMILES C[C@@H](C(=O)NCCCCNC(=O)c1ccc(-c2c3nc(c(-c4c(F)cccc4F)c4ccc([nH]4)c(-c4c(F)cccc4F)c4nc(c(-c5c(F)cccc5F)c5ccc2[nH]5)C=C4)C=C3)cc1)c1ccc(O[C@H]2CCCC2=O)cc1F
REMARK SMILES IDX 7 1 6 2 5 3 3 4 4 5 2 7 1 8 67 9 68 10 79 11 69 12 78 13
REMARK SMILES IDX 80 14 70 15 71 16 72 17 73 18 76 19 74 20 75 21 77 22 8 23
REMARK SMILES IDX 9 24 10 25 11 26 12 28 13 29 14 30 66 31 15 32 65 33 16 34
REMARK SMILES IDX 17 35 18 36 59 37 19 38 64 39 58 40 60 41 20 42 63 43 57 44
REMARK SMILES IDX 56 45 21 47 47 48 30 49 46 50 31 51 34 52 45 53 61 54 32 55
REMARK SMILES IDX 33 56 44 58 62 59 35 60 22 61 23 62 28 63 24 64 25 65 27 66
REMARK SMILES IDX 29 67 26 68 48 69 49 70 54 71 50 72 51 73 53 74 55 75 52 76
REMARK SMILES IDX 36 77 37 78 42 79 38 80 39 81 41 82 43 83 40 84
REMARK H PARENT 5 6 10 27 60 46 34 57
REMARK Flexibility Score: inf
ROOT
ATOM      1  C   UNL A   1      36.634  19.296  25.012  1.00  0.00     0.023 C 
ENDROOT
BRANCH   1   2
ATOM      2  C   UNL A   1      35.347  20.075  24.723  1.00  0.00     0.116 C 
BRANCH   2   3
ATOM      3  N   UNL A   1      34.924  20.841  25.880  1.00  0.00    -0.356 N 
ATOM      4  C   UNL A   1      35.165  22.146  26.207  1.00  0.00     0.227 C 
ATOM      5  O   UNL A   1      34.947  22.457  27.378  1.00  0.00    -0.274 OA
ATOM      6  H   UNL A   1      34.376  20.343  26.531  1.00  0.00     0.163 HD
BRANCH   4   7
ATOM      7  C   UNL A   1      35.724  23.109  25.145  1.00  0.00     0.108 C 
ATOM      8  C   UNL A   1      37.035  23.689  25.695  1.00  0.00     0.023 C 
BRANCH   7   9
ATOM      9  C   UNL A   1      34.805  24.235  24.664  1.00  0.00     0.000 A 
ATOM     10  C   UNL A   1      34.381  25.311  25.451  1.00  0.00     0.011 A 
ATOM     11  C   UNL A   1      34.330  24.204  23.344  1.00  0.00     0.130 A 
ATOM     12  C   UNL A   1      33.612  26.346  24.903  1.00  0.00     0.047 A 
ATOM     13  C   UNL A   1      33.571  25.235  22.789  1.00  0.00     0.086 A 
ATOM     14  F   UNL A   1      34.598  23.148  22.560  1.00  0.00    -0.207 F 
ATOM     15  C   UNL A   1      33.235  26.335  23.559  1.00  0.00     0.123 A 
BRANCH  15  16
ATOM     16  O   UNL A   1      32.530  27.428  23.162  1.00  0.00    -0.483 OA
BRANCH  16  17
ATOM     17  C   UNL A   1      31.206  27.319  22.691  1.00  0.00     0.239 C 
ATOM     18  C   UNL A   1      30.343  26.286  23.434  1.00  0.00     0.054 C 
ATOM     19  C   UNL A   1      30.280  28.520  22.535  1.00  0.00     0.173 C 
ATOM     20  C   UNL A   1      29.065  27.002  23.865  1.00  0.00     0.012 C 
ATOM     21  C   UNL A   1      28.869  28.178  22.920  1.00  0.00     0.080 C 
ATOM     22  O   UNL A   1      30.617  29.618  22.109  1.00  0.00    -0.296 OA
ENDBRANCH  16  17
ENDBRANCH  15  16
ENDBRANCH   7   9
ENDBRANCH   4   7
ENDBRANCH   2   3
ENDBRANCH   1   2
BRANCH   1  23
ATOM     23  C   UNL A   1      37.928  20.027  24.653  1.00  0.00     0.023 C 
BRANCH  23  24
ATOM     24  C   UNL A   1      38.888  20.238  25.814  1.00  0.00     0.116 C 
BRANCH  24  25
ATOM     25  N   UNL A   1      39.997  19.296  25.802  1.00  0.00    -0.352 N 
ATOM     26  C   UNL A   1      41.322  19.525  26.082  1.00  0.00     0.251 C 
ATOM     27  H   UNL A   1      39.767  18.371  25.559  1.00  0.00     0.163 HD
ATOM     28  O   UNL A   1      42.158  18.647  25.889  1.00  0.00    -0.269 OA
BRANCH  26  29
ATOM     29  C   UNL A   1      41.739  20.847  26.591  1.00  0.00     0.039 A 
ATOM     30  C   UNL A   1      42.222  21.798  25.688  1.00  0.00     0.014 A 
ATOM     31  C   UNL A   1      41.629  21.153  27.950  1.00  0.00     0.014 A 
ATOM     32  C   UNL A   1      42.538  23.080  26.141  1.00  0.00     0.010 A 
ATOM     33  C   UNL A   1      41.871  22.451  28.385  1.00  0.00     0.010 A 
ATOM     34  C   UNL A   1      42.334  23.425  27.487  1.00  0.00    -0.014 A 
BRANCH  34  35
ATOM     35  C   UNL A   1      42.616  24.791  27.991  1.00  0.00     0.031 A 
ATOM     36  C   UNL A   1      44.007  25.149  28.434  1.00  0.00     0.074 A 
ATOM     37  C   UNL A   1      41.612  25.678  28.127  1.00  0.00     0.049 A 
ATOM     38  N   UNL A   1      44.437  26.241  29.013  1.00  0.00    -0.248 NA
ATOM     39  C   UNL A   1      45.047  24.128  28.228  1.00  0.00     0.031 C 
ATOM     40  C   UNL A   1      40.213  25.437  27.772  1.00  0.00     0.029 A 
ATOM     41  N   UNL A   1      41.614  26.958  28.621  1.00  0.00    -0.354 N 
ATOM     42  C   UNL A   1      45.786  26.028  29.261  1.00  0.00     0.074 A 
ATOM     43  C   UNL A   1      46.093  24.686  28.818  1.00  0.00     0.031 C 
ATOM     44  C   UNL A   1      39.494  26.539  28.045  1.00  0.00     0.029 A 
ATOM     45  C   UNL A   1      40.374  27.546  28.631  1.00  0.00     0.049 A 
ATOM     46  H   UNL A   1      42.428  27.412  28.939  1.00  0.00     0.167 HD
ATOM     47  C   UNL A   1      46.694  26.881  29.792  1.00  0.00     0.037 A 
ATOM     48  C   UNL A   1      39.987  28.759  29.073  1.00  0.00     0.037 A 
ATOM     49  C   UNL A   1      46.392  28.226  30.204  1.00  0.00     0.049 A 
ATOM     50  C   UNL A   1      41.013  29.689  29.658  1.00  0.00     0.074 A 
ATOM     51  C   UNL A   1      47.253  29.191  30.697  1.00  0.00     0.029 A 
ATOM     52  N   UNL A   1      45.129  28.796  30.169  1.00  0.00    -0.354 N 
ATOM     53  N   UNL A   1      42.298  29.498  29.834  1.00  0.00    -0.248 NA
ATOM     54  C   UNL A   1      40.536  31.007  30.101  1.00  0.00     0.031 C 
ATOM     55  C   UNL A   1      46.504  30.332  30.998  1.00  0.00     0.029 A 
ATOM     56  C   UNL A   1      45.184  30.095  30.648  1.00  0.00     0.049 A 
ATOM     57  H   UNL A   1      44.313  28.345  29.851  1.00  0.00     0.167 HD
ATOM     58  C   UNL A   1      42.788  30.678  30.379  1.00  0.00     0.074 A 
ATOM     59  C   UNL A   1      41.663  31.583  30.495  1.00  0.00     0.031 C 
ATOM     60  C   UNL A   1      44.056  30.986  30.746  1.00  0.00     0.037 A 
BRANCH  47  61
ATOM     61  C   UNL A   1      48.100  26.380  29.953  1.00  0.00     0.057 A 
ATOM     62  C   UNL A   1      48.523  25.727  31.119  1.00  0.00     0.134 A 
ATOM     63  C   UNL A   1      49.038  26.538  28.925  1.00  0.00     0.134 A 
ATOM     64  F   UNL A   1      47.679  25.557  32.148  1.00  0.00    -0.206 F 
ATOM     65  C   UNL A   1      49.837  25.278  31.269  1.00  0.00     0.040 A 
ATOM     66  C   UNL A   1      50.346  26.067  29.052  1.00  0.00     0.040 A 
ATOM     67  F   UNL A   1      48.698  27.149  27.781  1.00  0.00    -0.206 F 
ATOM     68  C   UNL A   1      50.750  25.443  30.231  1.00  0.00     0.006 A 
ENDBRANCH  47  61
BRANCH  48  69
ATOM     69  C   UNL A   1      38.566  29.171  28.960  1.00  0.00     0.057 A 
ATOM     70  C   UNL A   1      37.700  29.075  30.056  1.00  0.00     0.134 A 
ATOM     71  C   UNL A   1      38.039  29.668  27.763  1.00  0.00     0.134 A 
ATOM     72  F   UNL A   1      38.143  28.590  31.225  1.00  0.00    -0.206 F 
ATOM     73  C   UNL A   1      36.356  29.441  29.961  1.00  0.00     0.040 A 
ATOM     74  C   UNL A   1      36.703  30.060  27.660  1.00  0.00     0.040 A 
ATOM     75  F   UNL A   1      38.819  29.791  26.679  1.00  0.00    -0.206 F 
ATOM     76  C   UNL A   1      35.856  29.941  28.760  1.00  0.00     0.006 A 
ENDBRANCH  48  69
BRANCH  60  77
ATOM     77  C   UNL A   1      44.304  32.370  31.268  1.00  0.00     0.057 A 
ATOM     78  C   UNL A   1      44.717  33.415  30.433  1.00  0.00     0.134 A 
ATOM     79  C   UNL A   1      44.079  32.670  32.619  1.00  0.00     0.134 A 
ATOM     80  F   UNL A   1      44.962  33.190  29.133  1.00  0.00    -0.206 F 
ATOM     81  C   UNL A   1      44.916  34.706  30.925  1.00  0.00     0.040 A 
ATOM     82  C   UNL A   1      44.249  33.962  33.117  1.00  0.00     0.040 A 
ATOM     83  F   UNL A   1      43.673  31.716  33.469  1.00  0.00    -0.206 F 
ATOM     84  C   UNL A   1      44.675  34.983  32.270  1.00  0.00     0.006 A 
ENDBRANCH  60  77
ENDBRANCH  34  35
ENDBRANCH  26  29
ENDBRANCH  24  25
ENDBRANCH  23  24
ENDBRANCH   1  23
TORSDOF 14
ENDMDL
MODEL 3
REMARK VINA RESULT:     -11.3      4.458     10.112
REMARK SMILES C[C@@H](C(=O)NCCCCNC(=O)c1ccc(-c2c3nc(c(-c4c(F)cccc4F)c4ccc([nH]4)c(-c4c(F)cccc4F)c4nc(c(-c5c(F)cccc5F)c5ccc2[nH]5)C=C4)C=C3)cc1)c1ccc(O[C@H]2CCCC2=O)cc1F
REMARK SMILES IDX 7 1 6 2 5 3 3 4 4 5 2 7 1 8 67 9 68 10 79 11 69 12 78 13
REMARK SMILES IDX 80 14 70 15 71 16 72 17 73 18 76 19 74 20 75 21 77 22 8 23
REMARK SMILES IDX 9 24 10 25 11 26 12 28 13 29 14 30 66 31 15 32 65 33 16 34
REMARK SMILES IDX 17 35 18 36 59 37 19 38 64 39 58 40 60 41 20 42 63 43 57 44
REMARK SMILES IDX 56 45 21 47 47 48 30 49 46 50 31 51 34 52 45 53 61 54 32 55
REMARK SMILES IDX 33 56 44 58 62 59 35 60 22 61 23 62 28 63 24 64 25 65 27 66
REMARK SMILES IDX 29 67 26 68 48 69 49 70 54 71 50 72 51 73 53 74 55 75 52 76
REMARK SMILES IDX 36 77 37 78 42 79 38 80 39 81 41 82 43 83 40 84
REMARK H PARENT 5 6 10 27 60 46 34 57
REMARK Flexibility Score: inf
ROOT
ATOM      1  C   UNL A   1      34.651  35.335  28.912  1.00  0.00     0.023 C 
ENDROOT
BRANCH   1   2
ATOM      2  C   UNL A   1      33.500  36.345  28.978  1.00  0.00     0.116 C 
BRANCH   2   3
ATOM      3  N   UNL A   1      33.653  37.245  30.106  1.00  0.00    -0.356 N 
ATOM      4  C   UNL A   1      33.200  37.128  31.390  1.00  0.00     0.227 C 
ATOM      5  O   UNL A   1      33.208  38.162  32.059  1.00  0.00    -0.274 OA
ATOM      6  H   UNL A   1      34.163  38.066  29.917  1.00  0.00     0.163 HD
BRANCH   4   7
ATOM      7  C   UNL A   1      32.676  35.774  31.896  1.00  0.00     0.108 C 
ATOM      8  C   UNL A   1      31.488  36.059  32.827  1.00  0.00     0.023 C 
BRANCH   7   9
ATOM      9  C   UNL A   1      33.679  34.845  32.585  1.00  0.00     0.000 A 
ATOM     10  C   UNL A   1      33.985  33.546  32.165  1.00  0.00     0.011 A 
ATOM     11  C   UNL A   1      34.347  35.301  33.732  1.00  0.00     0.130 A 
ATOM     12  C   UNL A   1      34.983  32.798  32.804  1.00  0.00     0.047 A 
ATOM     13  C   UNL A   1      35.347  34.565  34.368  1.00  0.00     0.086 A 
ATOM     14  F   UNL A   1      34.027  36.490  34.265  1.00  0.00    -0.207 F 
ATOM     15  C   UNL A   1      35.698  33.316  33.884  1.00  0.00     0.123 A 
BRANCH  15  16
ATOM     16  O   UNL A   1      36.664  32.491  34.369  1.00  0.00    -0.483 OA
BRANCH  16  17
ATOM     17  C   UNL A   1      37.812  32.179  33.614  1.00  0.00     0.239 C 
ATOM     18  C   UNL A   1      38.661  33.393  33.203  1.00  0.00     0.054 C 
ATOM     19  C   UNL A   1      38.844  31.149  34.060  1.00  0.00     0.173 C 
ATOM     20  C   UNL A   1      40.096  33.099  33.636  1.00  0.00     0.012 C 
ATOM     21  C   UNL A   1      40.239  31.587  33.718  1.00  0.00     0.080 C 
ATOM     22  O   UNL A   1      38.584  30.077  34.593  1.00  0.00    -0.296 OA
ENDBRANCH  16  17
ENDBRANCH  15  16
ENDBRANCH   7   9
ENDBRANCH   4   7
ENDBRANCH   2   3
ENDBRANCH   1   2
BRANCH   1  23
ATOM     23  C   UNL A   1      34.399  34.126  28.010  1.00  0.00     0.023 C 
BRANCH  23  24
ATOM     24  C   UNL A   1      34.893  32.799  28.565  1.00  0.00     0.116 C 
BRANCH  24  25
ATOM     25  N   UNL A   1      34.007  31.692  28.243  1.00  0.00    -0.352 N 
ATOM     26  C   UNL A   1      34.324  30.376  28.008  1.00  0.00     0.251 C 
ATOM     27  H   UNL A   1      33.050  31.916  28.184  1.00  0.00     0.163 HD
ATOM     28  O   UNL A   1      33.468  29.593  27.609  1.00  0.00    -0.269 OA
BRANCH  26  29
ATOM     29  C   UNL A   1      35.712  29.918  28.211  1.00  0.00     0.039 A 
ATOM     30  C   UNL A   1      36.629  30.049  27.166  1.00  0.00     0.014 A 
ATOM     31  C   UNL A   1      36.112  29.382  29.439  1.00  0.00     0.014 A 
ATOM     32  C   UNL A   1      37.965  29.700  27.372  1.00  0.00     0.010 A 
ATOM     33  C   UNL A   1      37.456  29.108  29.666  1.00  0.00     0.010 A 
ATOM     34  C   UNL A   1      38.394  29.258  28.633  1.00  0.00    -0.014 A 
BRANCH  34  35
ATOM     35  C   UNL A   1      39.814  28.922  28.897  1.00  0.00     0.031 A 
ATOM     36  C   UNL A   1      40.726  29.956  29.497  1.00  0.00     0.074 A 
ATOM     37  C   UNL A   1      40.303  27.723  28.524  1.00  0.00     0.049 A 
ATOM     38  N   UNL A   1      42.018  29.907  29.696  1.00  0.00    -0.248 NA
ATOM     39  C   UNL A   1      40.103  31.229  29.895  1.00  0.00     0.031 C 
ATOM     40  C   UNL A   1      39.530  26.651  27.896  1.00  0.00     0.029 A 
ATOM     41  N   UNL A   1      41.574  27.215  28.605  1.00  0.00    -0.354 N 
ATOM     42  C   UNL A   1      42.364  31.146  30.218  1.00  0.00     0.074 A 
ATOM     43  C   UNL A   1      41.159  31.943  30.257  1.00  0.00     0.031 C 
ATOM     44  C   UNL A   1      40.341  25.605  27.661  1.00  0.00     0.029 A 
ATOM     45  C   UNL A   1      41.695  25.949  28.086  1.00  0.00     0.049 A 
ATOM     46  H   UNL A   1      42.329  27.710  28.997  1.00  0.00     0.167 HD
ATOM     47  C   UNL A   1      43.576  31.575  30.645  1.00  0.00     0.037 A 
ATOM     48  C   UNL A   1      42.778  25.160  27.956  1.00  0.00     0.037 A 
ATOM     49  C   UNL A   1      44.768  30.769  30.633  1.00  0.00     0.049 A 
ATOM     50  C   UNL A   1      44.112  25.657  28.439  1.00  0.00     0.074 A 
ATOM     51  C   UNL A   1      46.030  31.088  31.101  1.00  0.00     0.029 A 
ATOM     52  N   UNL A   1      44.842  29.480  30.127  1.00  0.00    -0.354 N 
ATOM     53  N   UNL A   1      44.417  26.809  28.984  1.00  0.00    -0.248 NA
ATOM     54  C   UNL A   1      45.253  24.742  28.293  1.00  0.00     0.031 C 
ATOM     55  C   UNL A   1      46.878  30.008  30.842  1.00  0.00     0.029 A 
ATOM     56  C   UNL A   1      46.134  28.997  30.256  1.00  0.00     0.049 A 
ATOM     57  H   UNL A   1      44.088  28.982  29.736  1.00  0.00     0.167 HD
ATOM     58  C   UNL A   1      45.774  26.747  29.274  1.00  0.00     0.074 A 
ATOM     59  C   UNL A   1      46.231  25.439  28.853  1.00  0.00     0.031 C 
ATOM     60  C   UNL A   1      46.570  27.687  29.841  1.00  0.00     0.037 A 
BRANCH  47  61
ATOM     61  C   UNL A   1      43.666  32.981  31.164  1.00  0.00     0.057 A 
ATOM     62  C   UNL A   1      43.805  34.079  30.304  1.00  0.00     0.134 A 
ATOM     63  C   UNL A   1      43.598  33.242  32.538  1.00  0.00     0.134 A 
ATOM     64  F   UNL A   1      43.891  33.897  28.978  1.00  0.00    -0.206 F 
ATOM     65  C   UNL A   1      43.905  35.382  30.794  1.00  0.00     0.040 A 
ATOM     66  C   UNL A   1      43.668  34.543  33.038  1.00  0.00     0.040 A 
ATOM     67  F   UNL A   1      43.461  32.238  33.417  1.00  0.00    -0.206 F 
ATOM     68  C   UNL A   1      43.830  35.617  32.165  1.00  0.00     0.006 A 
ENDBRANCH  47  61
BRANCH  48  69
ATOM     69  C   UNL A   1      42.643  23.806  27.362  1.00  0.00     0.057 A 
ATOM     70  C   UNL A   1      42.387  22.690  28.168  1.00  0.00     0.134 A 
ATOM     71  C   UNL A   1      42.763  23.593  25.985  1.00  0.00     0.134 A 
ATOM     72  F   UNL A   1      42.279  22.828  29.498  1.00  0.00    -0.206 F 
ATOM     73  C   UNL A   1      42.275  21.408  27.627  1.00  0.00     0.040 A 
ATOM     74  C   UNL A   1      42.629  22.320  25.427  1.00  0.00     0.040 A 
ATOM     75  F   UNL A   1      43.000  24.623  25.159  1.00  0.00    -0.206 F 
ATOM     76  C   UNL A   1      42.391  21.222  26.252  1.00  0.00     0.006 A 
ENDBRANCH  48  69
BRANCH  60  77
ATOM     77  C   UNL A   1      48.005  27.322  30.078  1.00  0.00     0.057 A 
ATOM     78  C   UNL A   1      48.418  26.656  31.239  1.00  0.00     0.134 A 
ATOM     79  C   UNL A   1      48.977  27.599  29.108  1.00  0.00     0.134 A 
ATOM     80  F   UNL A   1      47.538  26.373  32.211  1.00  0.00    -0.206 F 
ATOM     81  C   UNL A   1      49.752  26.295  31.435  1.00  0.00     0.040 A 
ATOM     82  C   UNL A   1      50.308  27.220  29.282  1.00  0.00     0.040 A 
ATOM     83  F   UNL A   1      48.644  28.226  27.971  1.00  0.00    -0.206 F 
ATOM     84  C   UNL A   1      50.700  26.571  30.450  1.00  0.00     0.006 A 
ENDBRANCH  60  77
ENDBRANCH  34  35
ENDBRANCH  26  29
ENDBRANCH  24  25
ENDBRANCH  23  24
ENDBRANCH   1  23
TORSDOF 14
ENDMDL
