MODEL 1
REMARK VINA RESULT:     -11.5      0.000      0.000
REMARK SMILES COc1cccc(S(=O)(=O)N[C@H](CC(C)C)C(=O)NCCCCNC(=O)c2ccc(-c3c4nc(c(-c5c(F)cccc5F)c5ccc([nH]5)c(-c5c(F)cccc5F)c5nc(c(-c6c(F)cccc6F)c6ccc3[nH]6)C=C5)C=C4)cc2)c1
REMARK SMILES IDX 20 1 19 2 17 3 18 4 12 6 11 7 8 9 9 10 10 11 7 12 3 13 4 14
REMARK SMILES IDX 81 15 5 16 6 17 2 18 1 19 13 20 14 21 15 22 16 23 21 24
REMARK SMILES IDX 22 25 23 26 24 27 25 28 26 30 27 31 28 32 80 33 29 34 79 35
REMARK SMILES IDX 30 36 31 37 32 38 73 39 33 40 78 41 72 42 74 43 34 44 77 45
REMARK SMILES IDX 71 46 70 47 35 49 61 50 44 51 60 52 45 53 48 54 59 55 75 56
REMARK SMILES IDX 46 57 47 58 58 60 76 61 49 62 36 63 37 64 42 65 38 66 39 67
REMARK SMILES IDX 41 68 43 69 40 70 62 71 63 72 68 73 64 74 65 75 67 76 69 77
REMARK SMILES IDX 66 78 50 79 51 80 56 81 52 82 53 83 55 84 57 85 54 86
REMARK H PARENT 19 5 11 8 24 29 74 48 48 59
REMARK Flexibility Score: inf
ROOT
ATOM      1  C   UNL A   1      31.760  29.478  25.672  1.00  0.00     0.116 C 
ENDROOT
BRANCH   1   2
ATOM      2  N   UNL A   1      31.292  29.917  24.368  1.00  0.00    -0.355 N 
ATOM      3  C   UNL A   1      30.659  29.199  23.377  1.00  0.00     0.238 C 
ATOM      4  O   UNL A   1      29.961  29.850  22.591  1.00  0.00    -0.273 OA
ATOM      5  H   UNL A   1      31.452  30.867  24.163  1.00  0.00     0.163 HD
BRANCH   3   6
ATOM      6  C   UNL A   1      30.902  27.683  23.139  1.00  0.00     0.159 C 
BRANCH   6   7
ATOM      7  N   UNL A   1      31.527  27.271  21.775  1.00  0.00    -0.199 NA
ATOM      8  H   UNL A   1      30.948  26.525  21.390  1.00  0.00     0.142 HD
BRANCH   7   9
ATOM      9  S   UNL A   1      33.188  26.701  21.773  1.00  0.00     0.241 S 
ATOM     10  O   UNL A   1      34.058  27.850  21.666  1.00  0.00    -0.207 OA
ATOM     11  O   UNL A   1      33.156  25.703  20.720  1.00  0.00    -0.207 OA
BRANCH   9  12
ATOM     12  C   UNL A   1      33.750  25.760  23.273  1.00  0.00     0.086 A 
ATOM     13  C   UNL A   1      33.961  23.715  24.650  1.00  0.00     0.120 A 
ATOM     14  C   UNL A   1      34.029  24.484  25.801  1.00  0.00     0.046 A 
ATOM     15  C   UNL A   1      33.886  24.364  23.402  1.00  0.00     0.068 A 
ATOM     16  C   UNL A   1      33.999  25.873  25.709  1.00  0.00     0.005 A 
ATOM     17  C   UNL A   1      33.837  26.505  24.462  1.00  0.00     0.022 A 
BRANCH  13  18
ATOM     18  O   UNL A   1      33.938  22.368  24.898  1.00  0.00    -0.497 OA
ATOM     19  C   UNL A   1      35.101  21.589  24.664  1.00  0.00     0.278 C 
ENDBRANCH  13  18
ENDBRANCH   9  12
ENDBRANCH   7   9
ENDBRANCH   6   7
BRANCH   6  20
ATOM     20  C   UNL A   1      29.558  26.994  23.488  1.00  0.00     0.033 C 
BRANCH  20  21
ATOM     21  C   UNL A   1      29.708  25.813  24.422  1.00  0.00    -0.015 C 
ATOM     22  C   UNL A   1      30.301  24.644  23.633  1.00  0.00     0.007 C 
ATOM     23  C   UNL A   1      30.325  25.992  25.808  1.00  0.00     0.007 C 
ENDBRANCH  20  21
ENDBRANCH   6  20
ENDBRANCH   3   6
ENDBRANCH   1   2
BRANCH   1  24
ATOM     24  C   UNL A   1      32.561  30.482  26.502  1.00  0.00     0.023 C 
BRANCH  24  25
ATOM     25  C   UNL A   1      31.985  31.816  26.932  1.00  0.00     0.023 C 
BRANCH  25  26
ATOM     26  C   UNL A   1      32.988  32.753  27.545  1.00  0.00     0.116 C 
BRANCH  26  27
ATOM     27  N   UNL A   1      32.514  34.120  27.726  1.00  0.00    -0.352 N 
ATOM     28  C   UNL A   1      33.030  35.071  28.591  1.00  0.00     0.251 C 
ATOM     29  H   UNL A   1      31.746  34.396  27.175  1.00  0.00     0.163 HD
ATOM     30  O   UNL A   1      32.548  36.169  28.705  1.00  0.00    -0.269 OA
BRANCH  28  31
ATOM     31  C   UNL A   1      34.172  34.632  29.421  1.00  0.00     0.039 A 
ATOM     32  C   UNL A   1      33.914  33.998  30.637  1.00  0.00     0.014 A 
ATOM     33  C   UNL A   1      35.451  34.644  28.864  1.00  0.00     0.014 A 
ATOM     34  C   UNL A   1      34.939  33.286  31.256  1.00  0.00     0.010 A 
ATOM     35  C   UNL A   1      36.422  33.825  29.408  1.00  0.00     0.010 A 
ATOM     36  C   UNL A   1      36.182  33.151  30.617  1.00  0.00    -0.014 A 
BRANCH  36  37
ATOM     37  C   UNL A   1      37.293  32.363  31.197  1.00  0.00     0.031 A 
ATOM     38  C   UNL A   1      37.875  32.810  32.508  1.00  0.00     0.074 A 
ATOM     39  C   UNL A   1      37.849  31.349  30.508  1.00  0.00     0.049 A 
ATOM     40  N   UNL A   1      38.968  32.419  33.107  1.00  0.00    -0.248 NA
ATOM     41  C   UNL A   1      37.156  33.889  33.208  1.00  0.00     0.031 C 
ATOM     42  C   UNL A   1      37.402  30.855  29.205  1.00  0.00     0.029 A 
ATOM     43  N   UNL A   1      38.938  30.568  30.804  1.00  0.00    -0.354 N 
ATOM     44  C   UNL A   1      39.089  33.235  34.223  1.00  0.00     0.074 A 
ATOM     45  C   UNL A   1      38.001  34.184  34.182  1.00  0.00     0.031 C 
ATOM     46  C   UNL A   1      38.200  29.845  28.821  1.00  0.00     0.029 A 
ATOM     47  C   UNL A   1      39.242  29.653  29.825  1.00  0.00     0.049 A 
ATOM     48  H   UNL A   1      39.452  30.655  31.639  1.00  0.00     0.167 HD
ATOM     49  C   UNL A   1      40.010  33.181  35.211  1.00  0.00     0.037 A 
ATOM     50  C   UNL A   1      40.259  28.774  29.743  1.00  0.00     0.037 A 
ATOM     51  C   UNL A   1      41.056  32.200  35.268  1.00  0.00     0.049 A 
ATOM     52  C   UNL A   1      41.264  28.712  30.862  1.00  0.00     0.074 A 
ATOM     53  C   UNL A   1      41.996  31.998  36.261  1.00  0.00     0.029 A 
ATOM     54  N   UNL A   1      41.296  31.250  34.284  1.00  0.00    -0.354 N 
ATOM     55  N   UNL A   1      41.335  29.446  31.947  1.00  0.00    -0.248 NA
ATOM     56  C   UNL A   1      42.325  27.702  30.750  1.00  0.00     0.031 C 
ATOM     57  C   UNL A   1      42.836  30.957  35.856  1.00  0.00     0.029 A 
ATOM     58  C   UNL A   1      42.383  30.471  34.638  1.00  0.00     0.049 A 
ATOM     59  H   UNL A   1      40.770  31.146  33.458  1.00  0.00     0.167 HD
ATOM     60  C   UNL A   1      42.422  28.963  32.664  1.00  0.00     0.074 A 
ATOM     61  C   UNL A   1      42.983  27.876  31.889  1.00  0.00     0.031 C 
ATOM     62  C   UNL A   1      42.908  29.378  33.859  1.00  0.00     0.037 A 
BRANCH  49  63
ATOM     63  C   UNL A   1      39.918  34.215  36.294  1.00  0.00     0.057 A 
ATOM     64  C   UNL A   1      39.195  33.996  37.475  1.00  0.00     0.134 A 
ATOM     65  C   UNL A   1      40.551  35.455  36.149  1.00  0.00     0.134 A 
ATOM     66  F   UNL A   1      38.548  32.836  37.672  1.00  0.00    -0.206 F 
ATOM     67  C   UNL A   1      39.067  34.987  38.450  1.00  0.00     0.040 A 
ATOM     68  C   UNL A   1      40.461  36.441  37.131  1.00  0.00     0.040 A 
ATOM     69  F   UNL A   1      41.263  35.732  35.045  1.00  0.00    -0.206 F 
ATOM     70  C   UNL A   1      39.707  36.213  38.281  1.00  0.00     0.006 A 
ENDBRANCH  49  63
BRANCH  50  71
ATOM     71  C   UNL A   1      40.358  27.869  28.571  1.00  0.00     0.057 A 
ATOM     72  C   UNL A   1      39.725  26.620  28.570  1.00  0.00     0.134 A 
ATOM     73  C   UNL A   1      41.064  28.234  27.419  1.00  0.00     0.134 A 
ATOM     74  F   UNL A   1      39.045  26.207  29.650  1.00  0.00    -0.206 F 
ATOM     75  C   UNL A   1      39.796  25.764  27.469  1.00  0.00     0.040 A 
ATOM     76  C   UNL A   1      41.125  27.398  26.302  1.00  0.00     0.040 A 
ATOM     77  F   UNL A   1      41.684  29.422  27.352  1.00  0.00    -0.206 F 
ATOM     78  C   UNL A   1      40.493  26.156  26.328  1.00  0.00     0.006 A 
ENDBRANCH  50  71
BRANCH  62  79
ATOM     79  C   UNL A   1      44.067  28.625  34.442  1.00  0.00     0.057 A 
ATOM     80  C   UNL A   1      45.390  29.045  34.263  1.00  0.00     0.134 A 
ATOM     81  C   UNL A   1      43.841  27.522  35.276  1.00  0.00     0.134 A 
ATOM     82  F   UNL A   1      45.672  30.089  33.468  1.00  0.00    -0.206 F 
ATOM     83  C   UNL A   1      46.450  28.390  34.893  1.00  0.00     0.040 A 
ATOM     84  C   UNL A   1      44.889  26.877  35.931  1.00  0.00     0.040 A 
ATOM     85  F   UNL A   1      42.594  27.079  35.496  1.00  0.00    -0.206 F 
ATOM     86  C   UNL A   1      46.199  27.311  35.739  1.00  0.00     0.006 A 
ENDBRANCH  62  79
ENDBRANCH  36  37
ENDBRANCH  28  31
ENDBRANCH  26  27
ENDBRANCH  25  26
ENDBRANCH  24  25
ENDBRANCH   1  24
TORSDOF 17
ENDMDL
MODEL 2
REMARK VINA RESULT:     -11.4      0.794      6.282
REMARK SMILES COc1cccc(S(=O)(=O)N[C@H](CC(C)C)C(=O)NCCCCNC(=O)c2ccc(-c3c4nc(c(-c5c(F)cccc5F)c5ccc([nH]5)c(-c5c(F)cccc5F)c5nc(c(-c6c(F)cccc6F)c6ccc3[nH]6)C=C5)C=C4)cc2)c1
REMARK SMILES IDX 20 1 19 2 17 3 18 4 12 6 11 7 8 9 9 10 10 11 7 12 3 13 4 14
REMARK SMILES IDX 81 15 5 16 6 17 2 18 1 19 13 20 14 21 15 22 16 23 21 24
REMARK SMILES IDX 22 25 23 26 24 27 25 28 26 30 27 31 28 32 80 33 29 34 79 35
REMARK SMILES IDX 30 36 31 37 32 38 73 39 33 40 78 41 72 42 74 43 34 44 77 45
REMARK SMILES IDX 71 46 70 47 35 49 61 50 44 51 60 52 45 53 48 54 59 55 75 56
REMARK SMILES IDX 46 57 47 58 58 60 76 61 49 62 36 63 37 64 42 65 38 66 39 67
REMARK SMILES IDX 41 68 43 69 40 70 62 71 63 72 68 73 64 74 65 75 67 76 69 77
REMARK SMILES IDX 66 78 50 79 51 80 56 81 52 82 53 83 55 84 57 85 54 86
REMARK H PARENT 19 5 11 8 24 29 74 48 48 59
REMARK Flexibility Score: inf
ROOT
ATOM      1  C   UNL A   1      32.034  29.668  24.834  1.00  0.00     0.116 C 
ENDROOT
BRANCH   1   2
ATOM      2  N   UNL A   1      31.044  29.696  23.771  1.00  0.00    -0.355 N 
ATOM      3  C   UNL A   1      30.309  28.664  23.230  1.00  0.00     0.238 C 
ATOM      4  O   UNL A   1      29.239  28.976  22.696  1.00  0.00    -0.273 OA
ATOM      5  H   UNL A   1      30.873  30.584  23.380  1.00  0.00     0.163 HD
BRANCH   3   6
ATOM      6  C   UNL A   1      30.832  27.203  23.146  1.00  0.00     0.159 C 
BRANCH   6   7
ATOM      7  N   UNL A   1      31.354  26.716  21.763  1.00  0.00    -0.199 NA
ATOM      8  H   UNL A   1      30.818  25.886  21.512  1.00  0.00     0.142 HD
BRANCH   7   9
ATOM      9  S   UNL A   1      33.055  26.303  21.629  1.00  0.00     0.241 S 
ATOM     10  O   UNL A   1      33.819  27.530  21.643  1.00  0.00    -0.207 OA
ATOM     11  O   UNL A   1      33.060  25.449  20.455  1.00  0.00    -0.207 OA
BRANCH   9  12
ATOM     12  C   UNL A   1      33.764  25.233  22.971  1.00  0.00     0.086 A 
ATOM     13  C   UNL A   1      34.066  23.083  24.157  1.00  0.00     0.120 A 
ATOM     14  C   UNL A   1      34.307  23.758  25.344  1.00  0.00     0.046 A 
ATOM     15  C   UNL A   1      33.860  23.827  22.980  1.00  0.00     0.068 A 
ATOM     16  C   UNL A   1      34.320  25.150  25.357  1.00  0.00     0.005 A 
ATOM     17  C   UNL A   1      34.028  25.881  24.191  1.00  0.00     0.022 A 
BRANCH  13  18
ATOM     18  O   UNL A   1      34.022  21.721  24.308  1.00  0.00    -0.497 OA
ATOM     19  C   UNL A   1      32.834  21.016  23.986  1.00  0.00     0.278 C 
ENDBRANCH  13  18
ENDBRANCH   9  12
ENDBRANCH   7   9
ENDBRANCH   6   7
BRANCH   6  20
ATOM     20  C   UNL A   1      29.715  26.332  23.776  1.00  0.00     0.033 C 
BRANCH  20  21
ATOM     21  C   UNL A   1      30.114  25.698  25.092  1.00  0.00    -0.015 C 
ATOM     22  C   UNL A   1      30.656  24.296  24.808  1.00  0.00     0.007 C 
ATOM     23  C   UNL A   1      30.938  26.480  26.113  1.00  0.00     0.007 C 
ENDBRANCH  20  21
ENDBRANCH   6  20
ENDBRANCH   3   6
ENDBRANCH   1   2
BRANCH   1  24
ATOM     24  C   UNL A   1      31.775  30.553  26.055  1.00  0.00     0.023 C 
BRANCH  24  25
ATOM     25  C   UNL A   1      32.702  30.564  27.253  1.00  0.00     0.023 C 
BRANCH  25  26
ATOM     26  C   UNL A   1      33.599  31.769  27.329  1.00  0.00     0.116 C 
BRANCH  26  27
ATOM     27  N   UNL A   1      32.900  33.042  27.456  1.00  0.00    -0.352 N 
ATOM     28  C   UNL A   1      33.189  34.064  28.346  1.00  0.00     0.251 C 
ATOM     29  H   UNL A   1      32.142  33.192  26.845  1.00  0.00     0.163 HD
ATOM     30  O   UNL A   1      32.530  35.071  28.409  1.00  0.00    -0.269 OA
BRANCH  28  31
ATOM     31  C   UNL A   1      34.319  33.815  29.266  1.00  0.00     0.039 A 
ATOM     32  C   UNL A   1      34.125  32.960  30.351  1.00  0.00     0.014 A 
ATOM     33  C   UNL A   1      35.594  34.240  28.894  1.00  0.00     0.014 A 
ATOM     34  C   UNL A   1      35.239  32.451  31.016  1.00  0.00     0.010 A 
ATOM     35  C   UNL A   1      36.693  33.626  29.464  1.00  0.00     0.010 A 
ATOM     36  C   UNL A   1      36.528  32.739  30.541  1.00  0.00    -0.014 A 
BRANCH  36  37
ATOM     37  C   UNL A   1      37.749  32.185  31.169  1.00  0.00     0.031 A 
ATOM     38  C   UNL A   1      38.495  31.103  30.443  1.00  0.00     0.074 A 
ATOM     39  C   UNL A   1      38.108  32.552  32.413  1.00  0.00     0.049 A 
ATOM     40  N   UNL A   1      39.454  30.325  30.870  1.00  0.00    -0.248 NA
ATOM     41  C   UNL A   1      38.057  30.817  29.065  1.00  0.00     0.031 C 
ATOM     42  C   UNL A   1      37.434  33.558  33.236  1.00  0.00     0.029 A 
ATOM     43  N   UNL A   1      39.123  32.093  33.215  1.00  0.00    -0.354 N 
ATOM     44  C   UNL A   1      39.696  29.434  29.834  1.00  0.00     0.074 A 
ATOM     45  C   UNL A   1      38.742  29.721  28.788  1.00  0.00     0.031 C 
ATOM     46  C   UNL A   1      38.064  33.650  34.419  1.00  0.00     0.029 A 
ATOM     47  C   UNL A   1      39.152  32.679  34.457  1.00  0.00     0.049 A 
ATOM     48  H   UNL A   1      39.771  31.410  32.926  1.00  0.00     0.167 HD
ATOM     49  C   UNL A   1      40.650  28.479  29.749  1.00  0.00     0.037 A 
ATOM     50  C   UNL A   1      39.956  32.441  35.511  1.00  0.00     0.037 A 
ATOM     51  C   UNL A   1      41.625  28.238  30.774  1.00  0.00     0.049 A 
ATOM     52  C   UNL A   1      41.025  31.389  35.393  1.00  0.00     0.074 A 
ATOM     53  C   UNL A   1      42.686  27.353  30.763  1.00  0.00     0.029 A 
ATOM     54  N   UNL A   1      41.657  28.894  31.997  1.00  0.00    -0.354 N 
ATOM     55  N   UNL A   1      41.289  30.592  34.384  1.00  0.00    -0.248 NA
ATOM     56  C   UNL A   1      41.909  31.203  36.552  1.00  0.00     0.031 C 
ATOM     57  C   UNL A   1      43.333  27.438  31.999  1.00  0.00     0.029 A 
ATOM     58  C   UNL A   1      42.710  28.418  32.758  1.00  0.00     0.049 A 
ATOM     59  H   UNL A   1      41.025  29.594  32.281  1.00  0.00     0.167 HD
ATOM     60  C   UNL A   1      42.391  29.839  34.770  1.00  0.00     0.074 A 
ATOM     61  C   UNL A   1      42.742  30.270  36.108  1.00  0.00     0.031 C 
ATOM     62  C   UNL A   1      43.054  28.881  34.078  1.00  0.00     0.037 A 
BRANCH  49  63
ATOM     63  C   UNL A   1      40.666  27.632  28.510  1.00  0.00     0.057 A 
ATOM     64  C   UNL A   1      39.972  26.418  28.428  1.00  0.00     0.134 A 
ATOM     65  C   UNL A   1      41.399  28.032  27.387  1.00  0.00     0.134 A 
ATOM     66  F   UNL A   1      39.264  25.965  29.475  1.00  0.00    -0.206 F 
ATOM     67  C   UNL A   1      40.042  25.610  27.292  1.00  0.00     0.040 A 
ATOM     68  C   UNL A   1      41.448  27.251  26.232  1.00  0.00     0.040 A 
ATOM     69  F   UNL A   1      42.085  29.186  27.395  1.00  0.00    -0.206 F 
ATOM     70  C   UNL A   1      40.779  26.031  26.186  1.00  0.00     0.006 A 
ENDBRANCH  49  63
BRANCH  50  71
ATOM     71  C   UNL A   1      39.792  33.233  36.756  1.00  0.00     0.057 A 
ATOM     72  C   UNL A   1      40.540  34.397  36.973  1.00  0.00     0.134 A 
ATOM     73  C   UNL A   1      38.873  32.864  37.746  1.00  0.00     0.134 A 
ATOM     74  F   UNL A   1      41.447  34.795  36.069  1.00  0.00    -0.206 F 
ATOM     75  C   UNL A   1      40.386  35.160  38.133  1.00  0.00     0.040 A 
ATOM     76  C   UNL A   1      38.693  33.630  38.900  1.00  0.00     0.040 A 
ATOM     77  F   UNL A   1      38.119  31.765  37.593  1.00  0.00    -0.206 F 
ATOM     78  C   UNL A   1      39.455  34.780  39.097  1.00  0.00     0.006 A 
ENDBRANCH  50  71
BRANCH  62  79
ATOM     79  C   UNL A   1      44.265  28.269  34.718  1.00  0.00     0.057 A 
ATOM     80  C   UNL A   1      44.196  27.081  35.452  1.00  0.00     0.134 A 
ATOM     81  C   UNL A   1      45.532  28.831  34.507  1.00  0.00     0.134 A 
ATOM     82  F   UNL A   1      43.011  26.499  35.696  1.00  0.00    -0.206 F 
ATOM     83  C   UNL A   1      45.346  26.472  35.958  1.00  0.00     0.040 A 
ATOM     84  C   UNL A   1      46.689  28.219  34.985  1.00  0.00     0.040 A 
ATOM     85  F   UNL A   1      45.665  29.965  33.801  1.00  0.00    -0.206 F 
ATOM     86  C   UNL A   1      46.598  27.035  35.713  1.00  0.00     0.006 A 
ENDBRANCH  62  79
ENDBRANCH  36  37
ENDBRANCH  28  31
ENDBRANCH  26  27
ENDBRANCH  25  26
ENDBRANCH  24  25
ENDBRANCH   1  24
TORSDOF 17
ENDMDL
MODEL 3
REMARK VINA RESULT:     -11.2      4.145      5.771
REMARK SMILES COc1cccc(S(=O)(=O)N[C@H](CC(C)C)C(=O)NCCCCNC(=O)c2ccc(-c3c4nc(c(-c5c(F)cccc5F)c5ccc([nH]5)c(-c5c(F)cccc5F)c5nc(c(-c6c(F)cccc6F)c6ccc3[nH]6)C=C5)C=C4)cc2)c1
REMARK SMILES IDX 20 1 19 2 17 3 18 4 12 6 11 7 8 9 9 10 10 11 7 12 3 13 4 14
REMARK SMILES IDX 81 15 5 16 6 17 2 18 1 19 13 20 14 21 15 22 16 23 21 24
REMARK SMILES IDX 22 25 23 26 24 27 25 28 26 30 27 31 28 32 80 33 29 34 79 35
REMARK SMILES IDX 30 36 31 37 32 38 73 39 33 40 78 41 72 42 74 43 34 44 77 45
REMARK SMILES IDX 71 46 70 47 35 49 61 50 44 51 60 52 45 53 48 54 59 55 75 56
REMARK SMILES IDX 46 57 47 58 58 60 76 61 49 62 36 63 37 64 42 65 38 66 39 67
REMARK SMILES IDX 41 68 43 69 40 70 62 71 63 72 68 73 64 74 65 75 67 76 69 77
REMARK SMILES IDX 66 78 50 79 51 80 56 81 52 82 53 83 55 84 57 85 54 86
REMARK H PARENT 19 5 11 8 24 29 74 48 48 59
REMARK Flexibility Score: inf
ROOT
ATOM      1  C   UNL A   1      32.329  29.609  24.675  1.00  0.00     0.116 C 
ENDROOT
BRANCH   1   2
ATOM      2  N   UNL A   1      31.216  29.683  23.743  1.00  0.00    -0.355 N 
ATOM      3  C   UNL A   1      30.403  28.679  23.268  1.00  0.00     0.238 C 
ATOM      4  O   UNL A   1      29.280  29.021  22.880  1.00  0.00    -0.273 OA
ATOM      5  H   UNL A   1      31.014  30.585  23.403  1.00  0.00     0.163 HD
BRANCH   3   6
ATOM      6  C   UNL A   1      30.886  27.214  23.076  1.00  0.00     0.159 C 
BRANCH   6   7
ATOM      7  N   UNL A   1      31.521  26.852  21.703  1.00  0.00    -0.199 NA
ATOM      8  H   UNL A   1      31.004  26.056  21.330  1.00  0.00     0.142 HD
BRANCH   7   9
ATOM      9  S   UNL A   1      33.225  26.429  21.675  1.00  0.00     0.241 S 
ATOM     10  O   UNL A   1      33.992  27.654  21.626  1.00  0.00    -0.207 OA
ATOM     11  O   UNL A   1      33.277  25.486  20.573  1.00  0.00    -0.207 OA
BRANCH   9  12
ATOM     12  C   UNL A   1      33.873  25.468  23.126  1.00  0.00     0.086 A 
ATOM     13  C   UNL A   1      34.244  23.386  24.412  1.00  0.00     0.120 A 
ATOM     14  C   UNL A   1      34.273  24.109  25.595  1.00  0.00     0.046 A 
ATOM     15  C   UNL A   1      34.107  24.080  23.194  1.00  0.00     0.068 A 
ATOM     16  C   UNL A   1      34.146  25.494  25.562  1.00  0.00     0.005 A 
ATOM     17  C   UNL A   1      33.923  26.166  24.345  1.00  0.00     0.022 A 
BRANCH  13  18
ATOM     18  O   UNL A   1      34.318  22.031  24.602  1.00  0.00    -0.497 OA
ATOM     19  C   UNL A   1      35.189  21.506  25.591  1.00  0.00     0.278 C 
ENDBRANCH  13  18
ENDBRANCH   9  12
ENDBRANCH   7   9
ENDBRANCH   6   7
BRANCH   6  20
ATOM     20  C   UNL A   1      29.688  26.329  23.507  1.00  0.00     0.033 C 
BRANCH  20  21
ATOM     21  C   UNL A   1      29.961  25.503  24.745  1.00  0.00    -0.015 C 
ATOM     22  C   UNL A   1      30.651  24.206  24.320  1.00  0.00     0.007 C 
ATOM     23  C   UNL A   1      30.575  26.146  25.988  1.00  0.00     0.007 C 
ENDBRANCH  20  21
ENDBRANCH   6  20
ENDBRANCH   3   6
ENDBRANCH   1   2
BRANCH   1  24
ATOM     24  C   UNL A   1      31.992  29.445  26.157  1.00  0.00     0.023 C 
BRANCH  24  25
ATOM     25  C   UNL A   1      33.009  28.953  27.166  1.00  0.00     0.023 C 
BRANCH  25  26
ATOM     26  C   UNL A   1      34.250  29.798  27.254  1.00  0.00     0.116 C 
BRANCH  26  27
ATOM     27  N   UNL A   1      34.241  30.786  28.325  1.00  0.00    -0.352 N 
ATOM     28  C   UNL A   1      35.261  31.045  29.226  1.00  0.00     0.251 C 
ATOM     29  H   UNL A   1      33.423  31.327  28.418  1.00  0.00     0.163 HD
ATOM     30  O   UNL A   1      35.151  31.857  30.110  1.00  0.00    -0.269 OA
BRANCH  28  31
ATOM     31  C   UNL A   1      36.473  30.212  29.082  1.00  0.00     0.039 A 
ATOM     32  C   UNL A   1      37.183  30.263  27.882  1.00  0.00     0.014 A 
ATOM     33  C   UNL A   1      37.004  29.596  30.215  1.00  0.00     0.014 A 
ATOM     34  C   UNL A   1      38.485  29.766  27.847  1.00  0.00     0.010 A 
ATOM     35  C   UNL A   1      38.337  29.234  30.214  1.00  0.00     0.010 A 
ATOM     36  C   UNL A   1      39.086  29.299  29.027  1.00  0.00    -0.014 A 
BRANCH  36  37
ATOM     37  C   UNL A   1      40.483  28.809  29.067  1.00  0.00     0.031 A 
ATOM     38  C   UNL A   1      41.570  29.787  29.411  1.00  0.00     0.074 A 
ATOM     39  C   UNL A   1      40.783  27.555  28.682  1.00  0.00     0.049 A 
ATOM     40  N   UNL A   1      42.866  29.657  29.311  1.00  0.00    -0.248 NA
ATOM     41  C   UNL A   1      41.132  31.115  29.876  1.00  0.00     0.031 C 
ATOM     42  C   UNL A   1      39.818  26.531  28.280  1.00  0.00     0.029 A 
ATOM     43  N   UNL A   1      42.001  26.938  28.541  1.00  0.00    -0.354 N 
ATOM     44  C   UNL A   1      43.389  30.896  29.652  1.00  0.00     0.074 A 
ATOM     45  C   UNL A   1      42.274  31.782  29.895  1.00  0.00     0.031 C 
ATOM     46  C   UNL A   1      40.480  25.409  27.952  1.00  0.00     0.029 A 
ATOM     47  C   UNL A   1      41.914  25.649  28.073  1.00  0.00     0.049 A 
ATOM     48  H   UNL A   1      42.855  27.378  28.755  1.00  0.00     0.167 HD
ATOM     49  C   UNL A   1      44.686  31.258  29.779  1.00  0.00     0.037 A 
ATOM     50  C   UNL A   1      42.887  24.771  27.761  1.00  0.00     0.037 A 
ATOM     51  C   UNL A   1      45.784  30.354  29.585  1.00  0.00     0.049 A 
ATOM     52  C   UNL A   1      44.325  25.183  27.929  1.00  0.00     0.074 A 
ATOM     53  C   UNL A   1      47.134  30.588  29.765  1.00  0.00     0.029 A 
ATOM     54  N   UNL A   1      45.653  29.037  29.168  1.00  0.00    -0.354 N 
ATOM     55  N   UNL A   1      44.812  26.339  28.313  1.00  0.00    -0.248 NA
ATOM     56  C   UNL A   1      45.347  24.173  27.624  1.00  0.00     0.031 C 
ATOM     57  C   UNL A   1      47.825  29.426  29.411  1.00  0.00     0.029 A 
ATOM     58  C   UNL A   1      46.902  28.450  29.066  1.00  0.00     0.049 A 
ATOM     59  H   UNL A   1      44.798  28.587  28.974  1.00  0.00     0.167 HD
ATOM     60  C   UNL A   1      46.192  26.185  28.334  1.00  0.00     0.074 A 
ATOM     61  C   UNL A   1      46.465  24.824  27.919  1.00  0.00     0.031 C 
ATOM     62  C   UNL A   1      47.146  27.085  28.672  1.00  0.00     0.037 A 
BRANCH  49  63
ATOM     63  C   UNL A   1      44.969  32.687  30.138  1.00  0.00     0.057 A 
ATOM     64  C   UNL A   1      45.076  33.114  31.469  1.00  0.00     0.134 A 
ATOM     65  C   UNL A   1      45.123  33.654  29.137  1.00  0.00     0.134 A 
ATOM     66  F   UNL A   1      44.920  32.243  32.478  1.00  0.00    -0.206 F 
ATOM     67  C   UNL A   1      45.281  34.456  31.792  1.00  0.00     0.040 A 
ATOM     68  C   UNL A   1      45.363  34.993  29.447  1.00  0.00     0.040 A 
ATOM     69  F   UNL A   1      45.036  33.314  27.842  1.00  0.00    -0.206 F 
ATOM     70  C   UNL A   1      45.431  35.400  30.777  1.00  0.00     0.006 A 
ENDBRANCH  49  63
BRANCH  50  71
ATOM     71  C   UNL A   1      42.528  23.412  27.285  1.00  0.00     0.057 A 
ATOM     72  C   UNL A   1      42.475  23.119  25.916  1.00  0.00     0.134 A 
ATOM     73  C   UNL A   1      42.255  22.369  28.177  1.00  0.00     0.134 A 
ATOM     74  F   UNL A   1      42.713  24.079  25.011  1.00  0.00    -0.206 F 
ATOM     75  C   UNL A   1      42.153  21.841  25.453  1.00  0.00     0.040 A 
ATOM     76  C   UNL A   1      41.954  21.081  27.729  1.00  0.00     0.040 A 
ATOM     77  F   UNL A   1      42.300  22.582  29.501  1.00  0.00    -0.206 F 
ATOM     78  C   UNL A   1      41.898  20.816  26.362  1.00  0.00     0.006 A 
ENDBRANCH  50  71
BRANCH  62  79
ATOM     79  C   UNL A   1      48.574  26.625  28.670  1.00  0.00     0.057 A 
ATOM     80  C   UNL A   1      49.147  25.981  29.772  1.00  0.00     0.134 A 
ATOM     81  C   UNL A   1      49.349  26.744  27.509  1.00  0.00     0.134 A 
ATOM     82  F   UNL A   1      48.458  25.844  30.916  1.00  0.00    -0.206 F 
ATOM     83  C   UNL A   1      50.446  25.471  29.719  1.00  0.00     0.040 A 
ATOM     84  C   UNL A   1      50.637  26.216  27.436  1.00  0.00     0.040 A 
ATOM     85  F   UNL A   1      48.851  27.342  26.416  1.00  0.00    -0.206 F 
ATOM     86  C   UNL A   1      51.189  25.577  28.545  1.00  0.00     0.006 A 
ENDBRANCH  62  79
ENDBRANCH  36  37
ENDBRANCH  28  31
ENDBRANCH  26  27
ENDBRANCH  25  26
ENDBRANCH  24  25
ENDBRANCH   1  24
TORSDOF 17
ENDMDL
