MODEL 1
REMARK VINA RESULT:     -10.6      0.000      0.000
REMARK SMILES O=C(NCCCCNC(=O)[C@@H](O)c1cscc1Br)c1ccc(-c2c3nc(c(-c4c(F)cccc4F)c4ccc([nH]4)c(-c4c(F)cccc4F)c4nc(c(-c5c(F)cccc5F)c5ccc2[nH]5)C=C4)C=C3)cc1
REMARK SMILES IDX 5 1 4 2 3 3 1 4 2 5 19 7 20 8 72 9 21 10 71 11 22 12 23 13
REMARK SMILES IDX 24 14 65 15 25 16 70 17 64 18 66 19 26 20 69 21 63 22 62 23
REMARK SMILES IDX 27 25 53 26 36 27 52 28 37 29 40 30 51 31 67 32 38 33 39 34
REMARK SMILES IDX 50 36 68 37 41 38 28 39 29 40 34 41 30 42 31 43 33 44 35 45
REMARK SMILES IDX 32 46 54 47 55 48 60 49 56 50 57 51 59 52 61 53 58 54 42 55
REMARK SMILES IDX 43 56 48 57 44 58 45 59 47 60 49 61 46 62 6 63 7 64 8 65
REMARK SMILES IDX 9 66 10 68 11 69 12 70 13 72 14 73 17 74 15 75 16 76 18 77
REMARK H PARENT 3 6 66 24 40 35 8 67 12 71
REMARK Flexibility Score: inf
ROOT
ATOM      1  C   UNL A   1      37.963  19.822  24.998  1.00  0.00     0.023 C 
ENDROOT
BRANCH   1   2
ATOM      2  C   UNL A   1      39.196  20.163  25.825  1.00  0.00     0.116 C 
BRANCH   2   3
ATOM      3  N   UNL A   1      40.200  19.111  25.824  1.00  0.00    -0.352 N 
ATOM      4  O   UNL A   1      42.277  18.221  25.904  1.00  0.00    -0.269 OA
ATOM      5  C   UNL A   1      41.553  19.200  26.064  1.00  0.00     0.251 C 
ATOM      6  H   UNL A   1      39.866  18.207  25.623  1.00  0.00     0.163 HD
BRANCH   5   7
ATOM      7  C   UNL A   1      42.140  20.492  26.477  1.00  0.00     0.039 A 
ATOM      8  C   UNL A   1      42.185  20.854  27.825  1.00  0.00     0.014 A 
ATOM      9  C   UNL A   1      42.627  21.364  25.500  1.00  0.00     0.014 A 
ATOM     10  C   UNL A   1      42.553  22.148  28.176  1.00  0.00     0.010 A 
ATOM     11  C   UNL A   1      43.081  22.635  25.865  1.00  0.00     0.010 A 
ATOM     12  C   UNL A   1      43.002  23.055  27.202  1.00  0.00    -0.014 A 
BRANCH  12  13
ATOM     13  C   UNL A   1      43.402  24.424  27.618  1.00  0.00     0.031 A 
ATOM     14  C   UNL A   1      44.833  24.879  27.531  1.00  0.00     0.074 A 
ATOM     15  C   UNL A   1      42.447  25.280  28.029  1.00  0.00     0.049 A 
ATOM     16  N   UNL A   1      45.339  26.060  27.792  1.00  0.00    -0.248 NA
ATOM     17  C   UNL A   1      45.829  23.885  27.105  1.00  0.00     0.031 C 
ATOM     18  C   UNL A   1      41.027  24.953  28.169  1.00  0.00     0.029 A 
ATOM     19  N   UNL A   1      42.518  26.606  28.373  1.00  0.00    -0.354 N 
ATOM     20  C   UNL A   1      46.708  25.944  27.589  1.00  0.00     0.074 A 
ATOM     21  C   UNL A   1      46.960  24.572  27.201  1.00  0.00     0.031 C 
ATOM     22  C   UNL A   1      40.352  26.061  28.506  1.00  0.00     0.029 A 
ATOM     23  C   UNL A   1      41.295  27.162  28.660  1.00  0.00     0.049 A 
ATOM     24  H   UNL A   1      43.363  27.109  28.411  1.00  0.00     0.167 HD
ATOM     25  C   UNL A   1      47.667  26.894  27.708  1.00  0.00     0.037 A 
ATOM     26  C   UNL A   1      40.969  28.419  29.010  1.00  0.00     0.037 A 
ATOM     27  C   UNL A   1      47.411  28.267  28.062  1.00  0.00     0.049 A 
ATOM     28  C   UNL A   1      42.049  29.452  29.130  1.00  0.00     0.074 A 
ATOM     29  C   UNL A   1      48.312  29.315  28.156  1.00  0.00     0.029 A 
ATOM     30  N   UNL A   1      46.164  28.783  28.378  1.00  0.00    -0.354 N 
ATOM     31  N   UNL A   1      43.333  29.333  28.899  1.00  0.00    -0.248 NA
ATOM     32  C   UNL A   1      41.634  30.792  29.564  1.00  0.00     0.031 C 
ATOM     33  C   UNL A   1      47.614  30.457  28.568  1.00  0.00     0.029 A 
ATOM     34  C   UNL A   1      46.274  30.129  28.690  1.00  0.00     0.049 A 
ATOM     35  H   UNL A   1      45.325  28.270  28.382  1.00  0.00     0.167 HD
ATOM     36  C   UNL A   1      43.879  30.585  29.144  1.00  0.00     0.074 A 
ATOM     37  C   UNL A   1      42.782  31.453  29.524  1.00  0.00     0.031 C 
ATOM     38  C   UNL A   1      45.173  30.979  29.066  1.00  0.00     0.037 A 
BRANCH  25  39
ATOM     39  C   UNL A   1      49.089  26.480  27.470  1.00  0.00     0.057 A 
ATOM     40  C   UNL A   1      49.917  26.034  28.506  1.00  0.00     0.134 A 
ATOM     41  C   UNL A   1      49.624  26.487  26.174  1.00  0.00     0.134 A 
ATOM     42  F   UNL A   1      49.470  26.013  29.772  1.00  0.00    -0.206 F 
ATOM     43  C   UNL A   1      51.231  25.628  28.268  1.00  0.00     0.040 A 
ATOM     44  C   UNL A   1      50.929  26.062  25.920  1.00  0.00     0.040 A 
ATOM     45  F   UNL A   1      48.882  26.897  25.134  1.00  0.00    -0.206 F 
ATOM     46  C   UNL A   1      51.739  25.636  26.970  1.00  0.00     0.006 A 
ENDBRANCH  25  39
BRANCH  26  47
ATOM     47  C   UNL A   1      39.549  28.768  29.253  1.00  0.00     0.057 A 
ATOM     48  C   UNL A   1      38.728  29.213  28.212  1.00  0.00     0.134 A 
ATOM     49  C   UNL A   1      38.975  28.649  30.525  1.00  0.00     0.134 A 
ATOM     50  F   UNL A   1      39.226  29.363  26.976  1.00  0.00    -0.206 F 
ATOM     51  C   UNL A   1      37.387  29.536  28.426  1.00  0.00     0.040 A 
ATOM     52  C   UNL A   1      37.631  28.946  30.749  1.00  0.00     0.040 A 
ATOM     53  F   UNL A   1      39.710  28.220  31.561  1.00  0.00    -0.206 F 
ATOM     54  C   UNL A   1      36.834  29.396  29.698  1.00  0.00     0.006 A 
ENDBRANCH  26  47
BRANCH  38  55
ATOM     55  C   UNL A   1      45.463  32.417  29.375  1.00  0.00     0.057 A 
ATOM     56  C   UNL A   1      45.808  32.838  30.664  1.00  0.00     0.134 A 
ATOM     57  C   UNL A   1      45.406  33.389  28.367  1.00  0.00     0.134 A 
ATOM     58  F   UNL A   1      45.863  31.957  31.675  1.00  0.00    -0.206 F 
ATOM     59  C   UNL A   1      46.063  34.180  30.948  1.00  0.00     0.040 A 
ATOM     60  C   UNL A   1      45.681  34.730  28.633  1.00  0.00     0.040 A 
ATOM     61  F   UNL A   1      45.086  33.048  27.110  1.00  0.00    -0.206 F 
ATOM     62  C   UNL A   1      46.004  35.130  29.929  1.00  0.00     0.006 A 
ENDBRANCH  38  55
ENDBRANCH  12  13
ENDBRANCH   5   7
ENDBRANCH   2   3
ENDBRANCH   1   2
BRANCH   1  63
ATOM     63  C   UNL A   1      36.985  20.974  24.773  1.00  0.00     0.023 C 
BRANCH  63  64
ATOM     64  C   UNL A   1      35.515  20.623  24.977  1.00  0.00     0.116 C 
BRANCH  64  65
ATOM     65  N   UNL A   1      35.022  21.035  26.282  1.00  0.00    -0.354 N 
ATOM     66  C   UNL A   1      33.774  21.494  26.613  1.00  0.00     0.253 C 
ATOM     67  H   UNL A   1      35.668  20.977  27.022  1.00  0.00     0.163 HD
ATOM     68  O   UNL A   1      33.535  21.726  27.800  1.00  0.00    -0.272 OA
BRANCH  66  69
ATOM     69  C   UNL A   1      32.709  21.729  25.513  1.00  0.00     0.235 C 
BRANCH  69  70
ATOM     70  O   UNL A   1      31.704  20.721  25.656  1.00  0.00    -0.378 OA
ATOM     71  H   UNL A   1      30.862  21.137  25.898  1.00  0.00     0.212 HD
ENDBRANCH  69  70
BRANCH  69  72
ATOM     72  C   UNL A   1      32.158  23.143  25.535  1.00  0.00     0.015 A 
ATOM     73  C   UNL A   1      30.870  23.462  25.954  1.00  0.00     0.073 A 
ATOM     74  C   UNL A   1      32.843  24.355  25.182  1.00  0.00     0.035 A 
ATOM     75  S   UNL A   1      30.489  25.121  25.813  1.00  0.00    -0.151 S 
ATOM     76  C   UNL A   1      32.058  25.482  25.257  1.00  0.00     0.080 A 
ATOM     77  Br  UNL A   1      34.661  24.455  24.656  1.00  0.00    -0.050 Br
ENDBRANCH  69  72
ENDBRANCH  66  69
ENDBRANCH  64  65
ENDBRANCH  63  64
ENDBRANCH   1  63
TORSDOF 13
ENDMDL
MODEL 2
REMARK VINA RESULT:     -10.5      0.352      1.723
REMARK SMILES O=C(NCCCCNC(=O)[C@@H](O)c1cscc1Br)c1ccc(-c2c3nc(c(-c4c(F)cccc4F)c4ccc([nH]4)c(-c4c(F)cccc4F)c4nc(c(-c5c(F)cccc5F)c5ccc2[nH]5)C=C4)C=C3)cc1
REMARK SMILES IDX 5 1 4 2 3 3 1 4 2 5 19 7 20 8 72 9 21 10 71 11 22 12 23 13
REMARK SMILES IDX 24 14 65 15 25 16 70 17 64 18 66 19 26 20 69 21 63 22 62 23
REMARK SMILES IDX 27 25 53 26 36 27 52 28 37 29 40 30 51 31 67 32 38 33 39 34
REMARK SMILES IDX 50 36 68 37 41 38 28 39 29 40 34 41 30 42 31 43 33 44 35 45
REMARK SMILES IDX 32 46 54 47 55 48 60 49 56 50 57 51 59 52 61 53 58 54 42 55
REMARK SMILES IDX 43 56 48 57 44 58 45 59 47 60 49 61 46 62 6 63 7 64 8 65
REMARK SMILES IDX 9 66 10 68 11 69 12 70 13 72 14 73 17 74 15 75 16 76 18 77
REMARK H PARENT 3 6 66 24 40 35 8 67 12 71
REMARK Flexibility Score: inf
ROOT
ATOM      1  C   UNL A   1      37.968  19.823  24.983  1.00  0.00     0.023 C 
ENDROOT
BRANCH   1   2
ATOM      2  C   UNL A   1      39.186  20.099  25.856  1.00  0.00     0.116 C 
BRANCH   2   3
ATOM      3  N   UNL A   1      40.189  19.048  25.795  1.00  0.00    -0.352 N 
ATOM      4  O   UNL A   1      42.268  18.160  25.752  1.00  0.00    -0.269 OA
ATOM      5  C   UNL A   1      41.553  19.138  25.955  1.00  0.00     0.251 C 
ATOM      6  H   UNL A   1      39.845  18.144  25.614  1.00  0.00     0.163 HD
BRANCH   5   7
ATOM      7  C   UNL A   1      42.163  20.431  26.333  1.00  0.00     0.039 A 
ATOM      8  C   UNL A   1      42.229  20.821  27.672  1.00  0.00     0.014 A 
ATOM      9  C   UNL A   1      42.649  21.275  25.332  1.00  0.00     0.014 A 
ATOM     10  C   UNL A   1      42.618  22.116  27.992  1.00  0.00     0.010 A 
ATOM     11  C   UNL A   1      43.124  22.548  25.665  1.00  0.00     0.010 A 
ATOM     12  C   UNL A   1      43.068  22.996  26.993  1.00  0.00    -0.014 A 
BRANCH  12  13
ATOM     13  C   UNL A   1      43.491  24.368  27.375  1.00  0.00     0.031 A 
ATOM     14  C   UNL A   1      44.918  24.817  27.219  1.00  0.00     0.074 A 
ATOM     15  C   UNL A   1      42.558  25.233  27.819  1.00  0.00     0.049 A 
ATOM     16  N   UNL A   1      45.439  25.998  27.444  1.00  0.00    -0.248 NA
ATOM     17  C   UNL A   1      45.890  23.813  26.761  1.00  0.00     0.031 C 
ATOM     18  C   UNL A   1      41.144  24.914  28.025  1.00  0.00     0.029 A 
ATOM     19  N   UNL A   1      42.650  26.562  28.144  1.00  0.00    -0.354 N 
ATOM     20  C   UNL A   1      46.798  25.874  27.182  1.00  0.00     0.074 A 
ATOM     21  C   UNL A   1      47.027  24.496  26.799  1.00  0.00     0.031 C 
ATOM     22  C   UNL A   1      40.489  26.028  28.379  1.00  0.00     0.029 A 
ATOM     23  C   UNL A   1      41.443  27.127  28.478  1.00  0.00     0.049 A 
ATOM     24  H   UNL A   1      43.497  27.063  28.138  1.00  0.00     0.167 HD
ATOM     25  C   UNL A   1      47.764  26.822  27.247  1.00  0.00     0.037 A 
ATOM     26  C   UNL A   1      41.136  28.389  28.828  1.00  0.00     0.037 A 
ATOM     27  C   UNL A   1      47.529  28.200  27.596  1.00  0.00     0.049 A 
ATOM     28  C   UNL A   1      42.225  29.419  28.887  1.00  0.00     0.074 A 
ATOM     29  C   UNL A   1      48.438  29.245  27.638  1.00  0.00     0.029 A 
ATOM     30  N   UNL A   1      46.300  28.725  27.962  1.00  0.00    -0.354 N 
ATOM     31  N   UNL A   1      43.497  29.292  28.601  1.00  0.00    -0.248 NA
ATOM     32  C   UNL A   1      41.835  30.765  29.325  1.00  0.00     0.031 C 
ATOM     33  C   UNL A   1      47.763  30.394  28.067  1.00  0.00     0.029 A 
ATOM     34  C   UNL A   1      46.429  30.074  28.252  1.00  0.00     0.049 A 
ATOM     35  H   UNL A   1      45.460  28.214  28.009  1.00  0.00     0.167 HD
ATOM     36  C   UNL A   1      44.058  30.545  28.808  1.00  0.00     0.074 A 
ATOM     37  C   UNL A   1      42.982  31.421  29.226  1.00  0.00     0.031 C 
ATOM     38  C   UNL A   1      45.348  30.932  28.668  1.00  0.00     0.037 A 
BRANCH  25  39
ATOM     39  C   UNL A   1      49.173  26.399  26.951  1.00  0.00     0.057 A 
ATOM     40  C   UNL A   1      49.697  26.414  25.653  1.00  0.00     0.134 A 
ATOM     41  C   UNL A   1      50.032  26.012  27.989  1.00  0.00     0.134 A 
ATOM     42  F   UNL A   1      48.924  26.764  24.612  1.00  0.00    -0.206 F 
ATOM     43  C   UNL A   1      51.018  26.043  25.394  1.00  0.00     0.040 A 
ATOM     44  C   UNL A   1      51.361  25.660  27.745  1.00  0.00     0.040 A 
ATOM     45  F   UNL A   1      49.595  25.982  29.257  1.00  0.00    -0.206 F 
ATOM     46  C   UNL A   1      51.856  25.670  26.443  1.00  0.00     0.006 A 
ENDBRANCH  25  39
BRANCH  26  47
ATOM     47  C   UNL A   1      39.730  28.747  29.130  1.00  0.00     0.057 A 
ATOM     48  C   UNL A   1      39.227  28.652  30.432  1.00  0.00     0.134 A 
ATOM     49  C   UNL A   1      38.863  29.208  28.133  1.00  0.00     0.134 A 
ATOM     50  F   UNL A   1      40.006  28.201  31.426  1.00  0.00    -0.206 F 
ATOM     51  C   UNL A   1      37.908  28.995  30.731  1.00  0.00     0.040 A 
ATOM     52  C   UNL A   1      37.549  29.577  28.421  1.00  0.00     0.040 A 
ATOM     53  F   UNL A   1      39.290  29.327  26.868  1.00  0.00    -0.206 F 
ATOM     54  C   UNL A   1      37.067  29.465  29.724  1.00  0.00     0.006 A 
ENDBRANCH  26  47
BRANCH  38  55
ATOM     55  C   UNL A   1      45.657  32.372  28.946  1.00  0.00     0.057 A 
ATOM     56  C   UNL A   1      45.567  33.350  27.948  1.00  0.00     0.134 A 
ATOM     57  C   UNL A   1      46.038  32.786  30.229  1.00  0.00     0.134 A 
ATOM     58  F   UNL A   1      45.222  33.014  26.696  1.00  0.00    -0.206 F 
ATOM     59  C   UNL A   1      45.869  34.687  28.210  1.00  0.00     0.040 A 
ATOM     60  C   UNL A   1      46.320  34.123  30.509  1.00  0.00     0.040 A 
ATOM     61  F   UNL A   1      46.138  31.898  31.229  1.00  0.00    -0.206 F 
ATOM     62  C   UNL A   1      46.243  35.077  29.496  1.00  0.00     0.006 A 
ENDBRANCH  38  55
ENDBRANCH  12  13
ENDBRANCH   5   7
ENDBRANCH   2   3
ENDBRANCH   1   2
BRANCH   1  63
ATOM     63  C   UNL A   1      37.085  21.034  24.687  1.00  0.00     0.023 C 
BRANCH  63  64
ATOM     64  C   UNL A   1      35.587  20.797  24.847  1.00  0.00     0.116 C 
BRANCH  64  65
ATOM     65  N   UNL A   1      35.121  21.078  26.196  1.00  0.00    -0.354 N 
ATOM     66  C   UNL A   1      33.863  21.436  26.603  1.00  0.00     0.253 C 
ATOM     67  H   UNL A   1      35.797  21.003  26.907  1.00  0.00     0.163 HD
ATOM     68  O   UNL A   1      33.657  21.563  27.812  1.00  0.00    -0.272 OA
BRANCH  66  69
ATOM     69  C   UNL A   1      32.746  21.692  25.561  1.00  0.00     0.235 C 
BRANCH  69  70
ATOM     70  O   UNL A   1      31.787  20.637  25.682  1.00  0.00    -0.378 OA
ATOM     71  H   UNL A   1      30.913  20.964  25.418  1.00  0.00     0.212 HD
ENDBRANCH  69  70
BRANCH  69  72
ATOM     72  C   UNL A   1      32.142  23.078  25.689  1.00  0.00     0.015 A 
ATOM     73  C   UNL A   1      30.832  23.314  26.093  1.00  0.00     0.073 A 
ATOM     74  C   UNL A   1      32.792  24.339  25.465  1.00  0.00     0.035 A 
ATOM     75  S   UNL A   1      30.393  24.965  26.086  1.00  0.00    -0.151 S 
ATOM     76  C   UNL A   1      31.963  25.428  25.613  1.00  0.00     0.080 A 
ATOM     77  Br  UNL A   1      34.618  24.549  25.007  1.00  0.00    -0.050 Br
ENDBRANCH  69  72
ENDBRANCH  66  69
ENDBRANCH  64  65
ENDBRANCH  63  64
ENDBRANCH   1  63
TORSDOF 13
ENDMDL
MODEL 3
REMARK VINA RESULT:     -10.5      5.670     10.526
REMARK SMILES O=C(NCCCCNC(=O)[C@@H](O)c1cscc1Br)c1ccc(-c2c3nc(c(-c4c(F)cccc4F)c4ccc([nH]4)c(-c4c(F)cccc4F)c4nc(c(-c5c(F)cccc5F)c5ccc2[nH]5)C=C4)C=C3)cc1
REMARK SMILES IDX 5 1 4 2 3 3 1 4 2 5 19 7 20 8 72 9 21 10 71 11 22 12 23 13
REMARK SMILES IDX 24 14 65 15 25 16 70 17 64 18 66 19 26 20 69 21 63 22 62 23
REMARK SMILES IDX 27 25 53 26 36 27 52 28 37 29 40 30 51 31 67 32 38 33 39 34
REMARK SMILES IDX 50 36 68 37 41 38 28 39 29 40 34 41 30 42 31 43 33 44 35 45
REMARK SMILES IDX 32 46 54 47 55 48 60 49 56 50 57 51 59 52 61 53 58 54 42 55
REMARK SMILES IDX 43 56 48 57 44 58 45 59 47 60 49 61 46 62 6 63 7 64 8 65
REMARK SMILES IDX 9 66 10 68 11 69 12 70 13 72 14 73 17 74 15 75 16 76 18 77
REMARK H PARENT 3 6 66 24 40 35 8 67 12 71
REMARK Flexibility Score: inf
ROOT
ATOM      1  C   UNL A   1      31.532  31.713  26.501  1.00  0.00     0.023 C 
ENDROOT
BRANCH   1   2
ATOM      2  C   UNL A   1      32.712  32.429  27.145  1.00  0.00     0.116 C 
BRANCH   2   3
ATOM      3  N   UNL A   1      32.417  33.801  27.526  1.00  0.00    -0.352 N 
ATOM      4  O   UNL A   1      32.563  35.694  28.753  1.00  0.00    -0.269 OA
ATOM      5  C   UNL A   1      33.022  34.588  28.479  1.00  0.00     0.251 C 
ATOM      6  H   UNL A   1      31.679  34.227  27.034  1.00  0.00     0.163 HD
BRANCH   5   7
ATOM      7  C   UNL A   1      34.207  34.081  29.203  1.00  0.00     0.039 A 
ATOM      8  C   UNL A   1      35.494  34.456  28.810  1.00  0.00     0.014 A 
ATOM      9  C   UNL A   1      34.029  33.198  30.270  1.00  0.00     0.014 A 
ATOM     10  C   UNL A   1      36.595  33.817  29.368  1.00  0.00     0.010 A 
ATOM     11  C   UNL A   1      35.142  32.622  30.891  1.00  0.00     0.010 A 
ATOM     12  C   UNL A   1      36.434  32.892  30.412  1.00  0.00    -0.014 A 
BRANCH  12  13
ATOM     13  C   UNL A   1      37.636  32.241  30.994  1.00  0.00     0.031 A 
ATOM     14  C   UNL A   1      38.117  32.585  32.378  1.00  0.00     0.074 A 
ATOM     15  C   UNL A   1      38.267  31.289  30.280  1.00  0.00     0.049 A 
ATOM     16  N   UNL A   1      39.108  32.064  33.058  1.00  0.00    -0.248 NA
ATOM     17  C   UNL A   1      37.403  33.655  33.089  1.00  0.00     0.031 C 
ATOM     18  C   UNL A   1      37.904  30.876  28.923  1.00  0.00     0.029 A 
ATOM     19  N   UNL A   1      39.321  30.475  30.605  1.00  0.00    -0.354 N 
ATOM     20  C   UNL A   1      39.154  32.757  34.261  1.00  0.00     0.074 A 
ATOM     21  C   UNL A   1      38.103  33.751  34.212  1.00  0.00     0.031 C 
ATOM     22  C   UNL A   1      38.677  29.845  28.556  1.00  0.00     0.029 A 
ATOM     23  C   UNL A   1      39.626  29.560  29.626  1.00  0.00     0.049 A 
ATOM     24  H   UNL A   1      39.811  30.539  31.455  1.00  0.00     0.167 HD
ATOM     25  C   UNL A   1      39.991  32.578  35.312  1.00  0.00     0.037 A 
ATOM     26  C   UNL A   1      40.566  28.598  29.592  1.00  0.00     0.037 A 
ATOM     27  C   UNL A   1      41.015  31.566  35.372  1.00  0.00     0.049 A 
ATOM     28  C   UNL A   1      41.475  28.418  30.771  1.00  0.00     0.074 A 
ATOM     29  C   UNL A   1      41.877  31.274  36.417  1.00  0.00     0.029 A 
ATOM     30  N   UNL A   1      41.315  30.682  34.348  1.00  0.00    -0.354 N 
ATOM     31  N   UNL A   1      41.480  29.059  31.914  1.00  0.00    -0.248 NA
ATOM     32  C   UNL A   1      42.512  27.386  30.652  1.00  0.00     0.031 C 
ATOM     33  C   UNL A   1      42.725  30.238  36.008  1.00  0.00     0.029 A 
ATOM     34  C   UNL A   1      42.364  29.858  34.726  1.00  0.00     0.049 A 
ATOM     35  H   UNL A   1      40.853  30.646  33.480  1.00  0.00     0.167 HD
ATOM     36  C   UNL A   1      42.509  28.498  32.657  1.00  0.00     0.074 A 
ATOM     37  C   UNL A   1      43.093  27.452  31.841  1.00  0.00     0.031 C 
ATOM     38  C   UNL A   1      42.934  28.823  33.902  1.00  0.00     0.037 A 
BRANCH  25  39
ATOM     39  C   UNL A   1      39.847  33.507  36.481  1.00  0.00     0.057 A 
ATOM     40  C   UNL A   1      40.544  34.718  36.559  1.00  0.00     0.134 A 
ATOM     41  C   UNL A   1      38.961  33.204  37.525  1.00  0.00     0.134 A 
ATOM     42  F   UNL A   1      41.416  35.063  35.599  1.00  0.00    -0.206 F 
ATOM     43  C   UNL A   1      40.383  35.586  37.641  1.00  0.00     0.040 A 
ATOM     44  C   UNL A   1      38.774  34.074  38.601  1.00  0.00     0.040 A 
ATOM     45  F   UNL A   1      38.256  32.062  37.509  1.00  0.00    -0.206 F 
ATOM     46  C   UNL A   1      39.490  35.267  38.663  1.00  0.00     0.006 A 
ENDBRANCH  25  39
BRANCH  26  47
ATOM     47  C   UNL A   1      40.677  27.721  28.402  1.00  0.00     0.057 A 
ATOM     48  C   UNL A   1      40.006  26.495  28.346  1.00  0.00     0.134 A 
ATOM     49  C   UNL A   1      41.439  28.094  27.289  1.00  0.00     0.134 A 
ATOM     50  F   UNL A   1      39.274  26.077  29.389  1.00  0.00    -0.206 F 
ATOM     51  C   UNL A   1      40.096  25.665  27.228  1.00  0.00     0.040 A 
ATOM     52  C   UNL A   1      41.519  27.286  26.155  1.00  0.00     0.040 A 
ATOM     53  F   UNL A   1      42.098  29.262  27.281  1.00  0.00    -0.206 F 
ATOM     54  C   UNL A   1      40.849  26.064  26.125  1.00  0.00     0.006 A 
ENDBRANCH  26  47
BRANCH  38  55
ATOM     55  C   UNL A   1      44.069  28.019  34.461  1.00  0.00     0.057 A 
ATOM     56  C   UNL A   1      45.400  28.425  34.315  1.00  0.00     0.134 A 
ATOM     57  C   UNL A   1      43.825  26.831  35.163  1.00  0.00     0.134 A 
ATOM     58  F   UNL A   1      45.699  29.546  33.640  1.00  0.00    -0.206 F 
ATOM     59  C   UNL A   1      46.454  27.665  34.825  1.00  0.00     0.040 A 
ATOM     60  C   UNL A   1      44.868  26.075  35.698  1.00  0.00     0.040 A 
ATOM     61  F   UNL A   1      42.571  26.391  35.341  1.00  0.00    -0.206 F 
ATOM     62  C   UNL A   1      46.187  26.488  35.524  1.00  0.00     0.006 A 
ENDBRANCH  38  55
ENDBRANCH  12  13
ENDBRANCH   5   7
ENDBRANCH   2   3
ENDBRANCH   1   2
BRANCH   1  63
ATOM     63  C   UNL A   1      31.738  30.224  26.226  1.00  0.00     0.023 C 
BRANCH  63  64
ATOM     64  C   UNL A   1      31.339  29.763  24.828  1.00  0.00     0.116 C 
BRANCH  64  65
ATOM     65  N   UNL A   1      32.489  29.535  23.969  1.00  0.00    -0.354 N 
ATOM     66  C   UNL A   1      32.682  28.532  23.055  1.00  0.00     0.253 C 
ATOM     67  H   UNL A   1      33.225  30.184  24.055  1.00  0.00     0.163 HD
ATOM     68  O   UNL A   1      33.708  28.557  22.371  1.00  0.00    -0.272 OA
BRANCH  66  69
ATOM     69  C   UNL A   1      31.643  27.393  22.911  1.00  0.00     0.235 C 
BRANCH  69  70
ATOM     70  O   UNL A   1      31.027  27.524  21.627  1.00  0.00    -0.378 OA
ATOM     71  H   UNL A   1      31.579  28.085  21.060  1.00  0.00     0.212 HD
ENDBRANCH  69  70
BRANCH  69  72
ATOM     72  C   UNL A   1      32.248  26.023  23.157  1.00  0.00     0.015 A 
ATOM     73  C   UNL A   1      32.652  25.166  22.139  1.00  0.00     0.073 A 
ATOM     74  C   UNL A   1      32.536  25.408  24.422  1.00  0.00     0.035 A 
ATOM     75  S   UNL A   1      33.237  23.660  22.696  1.00  0.00    -0.151 S 
ATOM     76  C   UNL A   1      33.040  24.132  24.320  1.00  0.00     0.080 A 
ATOM     77  Br  UNL A   1      32.269  26.228  26.109  1.00  0.00    -0.050 Br
ENDBRANCH  69  72
ENDBRANCH  66  69
ENDBRANCH  64  65
ENDBRANCH  63  64
ENDBRANCH   1  63
TORSDOF 13
ENDMDL
