MODEL 1
REMARK VINA RESULT:     -10.9      0.000      0.000
REMARK SMILES CC(C)[C@H](NC(N)=O)C(=O)N[C@H](C)C(=O)NCCCCNC(=O)c1ccc(-c2c3nc(c(-c4c(F)cccc4F)c4ccc([nH]4)c(-c4c(F)cccc4F)c4nc(c(-c5c(F)cccc5F)c5ccc2[nH]5)C=C4)C=C3)cc1
REMARK SMILES IDX 18 1 17 2 16 3 14 4 15 5 12 7 13 8 11 9 9 10 10 11 4 13 2 14
REMARK SMILES IDX 1 15 3 16 5 17 6 18 7 20 8 21 19 24 20 25 21 26 22 27 23 29
REMARK SMILES IDX 24 30 25 31 77 32 26 33 76 34 27 35 28 36 29 37 70 38 30 39
REMARK SMILES IDX 75 40 69 41 71 42 31 43 74 44 68 45 67 46 32 48 58 49 41 50
REMARK SMILES IDX 57 51 42 52 45 53 56 54 72 55 43 56 44 57 55 59 73 60 46 61
REMARK SMILES IDX 33 62 34 63 39 64 35 65 36 66 38 67 40 68 37 69 59 70 60 71
REMARK SMILES IDX 65 72 61 73 62 74 64 75 66 76 63 77 47 78 48 79 53 80 49 81
REMARK SMILES IDX 50 82 52 83 54 84 51 85
REMARK H PARENT 16 6 11 12 5 19 7 22 7 23 21 28 71 47 45 58
REMARK Flexibility Score: inf
ROOT
ATOM      1  C   UNL A   1      31.468  30.320  26.610  1.00  0.00     0.023 C 
ENDROOT
BRANCH   1   2
ATOM      2  C   UNL A   1      31.567  29.751  25.199  1.00  0.00     0.116 C 
BRANCH   2   3
ATOM      3  N   UNL A   1      30.678  30.478  24.315  1.00  0.00    -0.354 N 
ATOM      4  C   UNL A   1      29.726  30.012  23.466  1.00  0.00     0.242 C 
ATOM      5  O   UNL A   1      29.148  30.833  22.748  1.00  0.00    -0.273 OA
ATOM      6  H   UNL A   1      30.779  31.457  24.334  1.00  0.00     0.163 HD
BRANCH   4   7
ATOM      7  C   UNL A   1      29.414  28.513  23.386  1.00  0.00     0.168 C 
ATOM      8  C   UNL A   1      27.946  28.293  23.009  1.00  0.00     0.041 C 
BRANCH   7   9
ATOM      9  N   UNL A   1      30.315  27.806  22.477  1.00  0.00    -0.343 N 
ATOM     10  C   UNL A   1      31.193  26.794  22.722  1.00  0.00     0.243 C 
ATOM     11  O   UNL A   1      31.511  26.110  21.741  1.00  0.00    -0.273 OA
ATOM     12  H   UNL A   1      30.282  28.111  21.541  1.00  0.00     0.164 HD
BRANCH  10  13
ATOM     13  C   UNL A   1      31.686  26.402  24.144  1.00  0.00     0.175 C 
BRANCH  13  14
ATOM     14  C   UNL A   1      33.218  26.119  24.273  1.00  0.00     0.015 C 
ATOM     15  C   UNL A   1      33.922  26.690  25.510  1.00  0.00     0.010 C 
ATOM     16  C   UNL A   1      33.586  24.638  24.112  1.00  0.00     0.010 C 
ENDBRANCH  13  14
BRANCH  13  17
ATOM     17  N   UNL A   1      30.836  25.388  24.764  1.00  0.00    -0.326 N 
ATOM     18  C   UNL A   1      30.379  25.511  26.041  1.00  0.00     0.312 C 
ATOM     19  H   UNL A   1      30.585  24.591  24.242  1.00  0.00     0.166 HD
ATOM     20  N   UNL A   1      29.624  24.456  26.434  1.00  0.00    -0.352 N 
ATOM     21  O   UNL A   1      30.563  26.464  26.777  1.00  0.00    -0.249 OA
ATOM     22  H   UNL A   1      29.485  23.696  25.826  1.00  0.00     0.161 HD
ATOM     23  H   UNL A   1      29.213  24.452  27.329  1.00  0.00     0.161 HD
ENDBRANCH  13  17
ENDBRANCH  10  13
ENDBRANCH   7   9
ENDBRANCH   4   7
ENDBRANCH   2   3
ENDBRANCH   1   2
BRANCH   1  24
ATOM     24  C   UNL A   1      31.408  31.848  26.659  1.00  0.00     0.023 C 
BRANCH  24  25
ATOM     25  C   UNL A   1      32.727  32.512  27.037  1.00  0.00     0.116 C 
BRANCH  25  26
ATOM     26  N   UNL A   1      32.531  33.886  27.470  1.00  0.00    -0.352 N 
ATOM     27  C   UNL A   1      33.124  34.558  28.508  1.00  0.00     0.251 C 
ATOM     28  H   UNL A   1      31.882  34.407  26.944  1.00  0.00     0.163 HD
ATOM     29  O   UNL A   1      32.669  35.629  28.895  1.00  0.00    -0.269 OA
BRANCH  27  30
ATOM     30  C   UNL A   1      34.304  33.970  29.174  1.00  0.00     0.039 A 
ATOM     31  C   UNL A   1      34.110  33.007  30.164  1.00  0.00     0.014 A 
ATOM     32  C   UNL A   1      35.597  34.365  28.814  1.00  0.00     0.014 A 
ATOM     33  C   UNL A   1      35.215  32.394  30.752  1.00  0.00     0.010 A 
ATOM     34  C   UNL A   1      36.696  33.694  29.341  1.00  0.00     0.010 A 
ATOM     35  C   UNL A   1      36.517  32.705  30.319  1.00  0.00    -0.014 A 
BRANCH  35  36
ATOM     36  C   UNL A   1      37.691  31.988  30.876  1.00  0.00     0.031 A 
ATOM     37  C   UNL A   1      38.206  32.318  32.249  1.00  0.00     0.074 A 
ATOM     38  C   UNL A   1      38.316  31.061  30.123  1.00  0.00     0.049 A 
ATOM     39  N   UNL A   1      39.219  31.799  32.896  1.00  0.00    -0.248 NA
ATOM     40  C   UNL A   1      37.508  33.385  32.983  1.00  0.00     0.031 C 
ATOM     41  C   UNL A   1      37.944  30.690  28.756  1.00  0.00     0.029 A 
ATOM     42  N   UNL A   1      39.396  30.261  30.401  1.00  0.00    -0.354 N 
ATOM     43  C   UNL A   1      39.282  32.477  34.106  1.00  0.00     0.074 A 
ATOM     44  C   UNL A   1      38.245  33.485  34.080  1.00  0.00     0.031 C 
ATOM     45  C   UNL A   1      38.757  29.712  28.329  1.00  0.00     0.029 A 
ATOM     46  C   UNL A   1      39.733  29.415  29.373  1.00  0.00     0.049 A 
ATOM     47  H   UNL A   1      39.883  30.291  31.256  1.00  0.00     0.167 HD
ATOM     48  C   UNL A   1      40.111  32.261  35.156  1.00  0.00     0.037 A 
ATOM     49  C   UNL A   1      40.719  28.503  29.280  1.00  0.00     0.037 A 
ATOM     50  C   UNL A   1      41.133  31.248  35.182  1.00  0.00     0.049 A 
ATOM     51  C   UNL A   1      41.638  28.297  30.452  1.00  0.00     0.074 A 
ATOM     52  C   UNL A   1      41.988  30.914  36.218  1.00  0.00     0.029 A 
ATOM     53  N   UNL A   1      41.447  30.413  34.121  1.00  0.00    -0.354 N 
ATOM     54  N   UNL A   1      41.635  28.891  31.621  1.00  0.00    -0.248 NA
ATOM     55  C   UNL A   1      42.695  27.288  30.294  1.00  0.00     0.031 C 
ATOM     56  C   UNL A   1      42.856  29.916  35.765  1.00  0.00     0.029 A 
ATOM     57  C   UNL A   1      42.503  29.585  34.466  1.00  0.00     0.049 A 
ATOM     58  H   UNL A   1      40.988  30.409  33.250  1.00  0.00     0.167 HD
ATOM     59  C   UNL A   1      42.668  28.311  32.345  1.00  0.00     0.074 A 
ATOM     60  C   UNL A   1      43.262  27.304  31.491  1.00  0.00     0.031 C 
ATOM     61  C   UNL A   1      43.087  28.587  33.605  1.00  0.00     0.037 A 
BRANCH  48  62
ATOM     62  C   UNL A   1      39.945  33.139  36.364  1.00  0.00     0.057 A 
ATOM     63  C   UNL A   1      40.671  34.328  36.522  1.00  0.00     0.134 A 
ATOM     64  C   UNL A   1      39.020  32.813  37.364  1.00  0.00     0.134 A 
ATOM     65  F   UNL A   1      41.581  34.695  35.606  1.00  0.00    -0.206 F 
ATOM     66  C   UNL A   1      40.503  35.145  37.641  1.00  0.00     0.040 A 
ATOM     67  C   UNL A   1      38.822  33.637  38.473  1.00  0.00     0.040 A 
ATOM     68  F   UNL A   1      38.286  31.693  37.275  1.00  0.00    -0.206 F 
ATOM     69  C   UNL A   1      39.570  34.803  38.618  1.00  0.00     0.006 A 
ENDBRANCH  48  62
BRANCH  49  70
ATOM     70  C   UNL A   1      40.880  27.703  28.038  1.00  0.00     0.057 A 
ATOM     71  C   UNL A   1      40.271  26.451  27.900  1.00  0.00     0.134 A 
ATOM     72  C   UNL A   1      41.652  28.165  26.966  1.00  0.00     0.134 A 
ATOM     73  F   UNL A   1      39.532  25.945  28.899  1.00  0.00    -0.206 F 
ATOM     74  C   UNL A   1      40.444  25.676  26.752  1.00  0.00     0.040 A 
ATOM     75  C   UNL A   1      41.810  27.414  25.800  1.00  0.00     0.040 A 
ATOM     76  F   UNL A   1      42.255  29.362  27.031  1.00  0.00    -0.206 F 
ATOM     77  C   UNL A   1      41.212  26.160  25.695  1.00  0.00     0.006 A 
ENDBRANCH  49  70
BRANCH  61  78
ATOM     78  C   UNL A   1      44.224  27.768  34.145  1.00  0.00     0.057 A 
ATOM     79  C   UNL A   1      45.551  28.215  34.093  1.00  0.00     0.134 A 
ATOM     80  C   UNL A   1      43.985  26.527  34.751  1.00  0.00     0.134 A 
ATOM     81  F   UNL A   1      45.852  29.388  33.516  1.00  0.00    -0.206 F 
ATOM     82  C   UNL A   1      46.601  27.445  34.598  1.00  0.00     0.040 A 
ATOM     83  C   UNL A   1      45.022  25.763  35.286  1.00  0.00     0.040 A 
ATOM     84  F   UNL A   1      42.736  26.043  34.842  1.00  0.00    -0.206 F 
ATOM     85  C   UNL A   1      46.336  26.218  35.203  1.00  0.00     0.006 A 
ENDBRANCH  61  78
ENDBRANCH  35  36
ENDBRANCH  27  30
ENDBRANCH  25  26
ENDBRANCH  24  25
ENDBRANCH   1  24
TORSDOF 15
ENDMDL
MODEL 2
REMARK VINA RESULT:     -10.8      1.302      2.371
REMARK SMILES CC(C)[C@H](NC(N)=O)C(=O)N[C@H](C)C(=O)NCCCCNC(=O)c1ccc(-c2c3nc(c(-c4c(F)cccc4F)c4ccc([nH]4)c(-c4c(F)cccc4F)c4nc(c(-c5c(F)cccc5F)c5ccc2[nH]5)C=C4)C=C3)cc1
REMARK SMILES IDX 18 1 17 2 16 3 14 4 15 5 12 7 13 8 11 9 9 10 10 11 4 13 2 14
REMARK SMILES IDX 1 15 3 16 5 17 6 18 7 20 8 21 19 24 20 25 21 26 22 27 23 29
REMARK SMILES IDX 24 30 25 31 77 32 26 33 76 34 27 35 28 36 29 37 70 38 30 39
REMARK SMILES IDX 75 40 69 41 71 42 31 43 74 44 68 45 67 46 32 48 58 49 41 50
REMARK SMILES IDX 57 51 42 52 45 53 56 54 72 55 43 56 44 57 55 59 73 60 46 61
REMARK SMILES IDX 33 62 34 63 39 64 35 65 36 66 38 67 40 68 37 69 59 70 60 71
REMARK SMILES IDX 65 72 61 73 62 74 64 75 66 76 63 77 47 78 48 79 53 80 49 81
REMARK SMILES IDX 50 82 52 83 54 84 51 85
REMARK H PARENT 16 6 11 12 5 19 7 22 7 23 21 28 71 47 45 58
REMARK Flexibility Score: inf
ROOT
ATOM      1  C   UNL A   1      31.559  30.538  25.964  1.00  0.00     0.023 C 
ENDROOT
BRANCH   1   2
ATOM      2  C   UNL A   1      32.220  29.541  26.909  1.00  0.00     0.116 C 
BRANCH   2   3
ATOM      3  N   UNL A   1      31.402  28.349  27.014  1.00  0.00    -0.354 N 
ATOM      4  C   UNL A   1      31.459  27.192  26.305  1.00  0.00     0.242 C 
ATOM      5  O   UNL A   1      30.591  26.343  26.526  1.00  0.00    -0.273 OA
ATOM      6  H   UNL A   1      30.699  28.384  27.702  1.00  0.00     0.163 HD
BRANCH   4   7
ATOM      7  C   UNL A   1      32.548  26.973  25.249  1.00  0.00     0.168 C 
ATOM      8  C   UNL A   1      33.669  26.095  25.812  1.00  0.00     0.041 C 
BRANCH   7   9
ATOM      9  N   UNL A   1      32.011  26.428  24.003  1.00  0.00    -0.343 N 
ATOM     10  C   UNL A   1      31.576  25.170  23.710  1.00  0.00     0.243 C 
ATOM     11  O   UNL A   1      30.800  25.080  22.751  1.00  0.00    -0.273 OA
ATOM     12  H   UNL A   1      31.954  27.071  23.259  1.00  0.00     0.164 HD
BRANCH  10  13
ATOM     13  C   UNL A   1      31.900  23.920  24.577  1.00  0.00     0.175 C 
BRANCH  13  14
ATOM     14  C   UNL A   1      32.832  22.859  23.909  1.00  0.00     0.015 C 
ATOM     15  C   UNL A   1      32.153  21.801  23.029  1.00  0.00     0.010 C 
ATOM     16  C   UNL A   1      34.018  23.471  23.151  1.00  0.00     0.010 C 
ENDBRANCH  13  14
BRANCH  13  17
ATOM     17  N   UNL A   1      30.706  23.357  25.204  1.00  0.00    -0.326 N 
ATOM     18  C   UNL A   1      30.676  23.010  26.521  1.00  0.00     0.312 C 
ATOM     19  H   UNL A   1      29.897  23.225  24.658  1.00  0.00     0.166 HD
ATOM     20  N   UNL A   1      29.485  22.489  26.902  1.00  0.00    -0.352 N 
ATOM     21  O   UNL A   1      31.580  23.170  27.322  1.00  0.00    -0.249 OA
ATOM     22  H   UNL A   1      28.766  22.369  26.240  1.00  0.00     0.161 HD
ATOM     23  H   UNL A   1      29.338  22.232  27.841  1.00  0.00     0.161 HD
ENDBRANCH  13  17
ENDBRANCH  10  13
ENDBRANCH   7   9
ENDBRANCH   4   7
ENDBRANCH   2   3
ENDBRANCH   1   2
BRANCH   1  24
ATOM     24  C   UNL A   1      31.410  31.943  26.551  1.00  0.00     0.023 C 
BRANCH  24  25
ATOM     25  C   UNL A   1      32.678  32.485  27.201  1.00  0.00     0.116 C 
BRANCH  25  26
ATOM     26  N   UNL A   1      32.528  33.877  27.590  1.00  0.00    -0.352 N 
ATOM     27  C   UNL A   1      33.159  34.567  28.595  1.00  0.00     0.251 C 
ATOM     28  H   UNL A   1      31.884  34.399  27.059  1.00  0.00     0.163 HD
ATOM     29  O   UNL A   1      32.740  35.662  28.953  1.00  0.00    -0.269 OA
BRANCH  27  30
ATOM     30  C   UNL A   1      34.333  33.968  29.259  1.00  0.00     0.039 A 
ATOM     31  C   UNL A   1      34.131  33.072  30.310  1.00  0.00     0.014 A 
ATOM     32  C   UNL A   1      35.629  34.286  28.840  1.00  0.00     0.014 A 
ATOM     33  C   UNL A   1      35.228  32.448  30.901  1.00  0.00     0.010 A 
ATOM     34  C   UNL A   1      36.716  33.599  29.373  1.00  0.00     0.010 A 
ATOM     35  C   UNL A   1      36.528  32.677  30.412  1.00  0.00    -0.014 A 
BRANCH  35  36
ATOM     36  C   UNL A   1      37.689  31.943  30.976  1.00  0.00     0.031 A 
ATOM     37  C   UNL A   1      38.192  32.258  32.357  1.00  0.00     0.074 A 
ATOM     38  C   UNL A   1      38.313  31.016  30.222  1.00  0.00     0.049 A 
ATOM     39  N   UNL A   1      39.193  31.723  33.010  1.00  0.00    -0.248 NA
ATOM     40  C   UNL A   1      37.497  33.325  33.092  1.00  0.00     0.031 C 
ATOM     41  C   UNL A   1      37.951  30.660  28.848  1.00  0.00     0.029 A 
ATOM     42  N   UNL A   1      39.381  30.204  30.505  1.00  0.00    -0.354 N 
ATOM     43  C   UNL A   1      39.249  32.391  34.227  1.00  0.00     0.074 A 
ATOM     44  C   UNL A   1      38.223  33.409  34.198  1.00  0.00     0.031 C 
ATOM     45  C   UNL A   1      38.759  29.677  28.422  1.00  0.00     0.029 A 
ATOM     46  C   UNL A   1      39.721  29.362  29.474  1.00  0.00     0.049 A 
ATOM     47  H   UNL A   1      39.859  30.222  31.365  1.00  0.00     0.167 HD
ATOM     48  C   UNL A   1      40.064  32.158  35.283  1.00  0.00     0.037 A 
ATOM     49  C   UNL A   1      40.698  28.441  29.384  1.00  0.00     0.037 A 
ATOM     50  C   UNL A   1      41.076  31.134  35.312  1.00  0.00     0.049 A 
ATOM     51  C   UNL A   1      41.603  28.217  30.564  1.00  0.00     0.074 A 
ATOM     52  C   UNL A   1      41.917  30.783  36.355  1.00  0.00     0.029 A 
ATOM     53  N   UNL A   1      41.394  30.304  34.248  1.00  0.00    -0.354 N 
ATOM     54  N   UNL A   1      41.593  28.801  31.737  1.00  0.00    -0.248 NA
ATOM     55  C   UNL A   1      42.650  27.198  30.409  1.00  0.00     0.031 C 
ATOM     56  C   UNL A   1      42.779  29.780  35.902  1.00  0.00     0.029 A 
ATOM     57  C   UNL A   1      42.437  29.464  34.598  1.00  0.00     0.049 A 
ATOM     58  H   UNL A   1      40.944  30.312  33.372  1.00  0.00     0.167 HD
ATOM     59  C   UNL A   1      42.612  28.204  32.468  1.00  0.00     0.074 A 
ATOM     60  C   UNL A   1      43.205  27.199  31.613  1.00  0.00     0.031 C 
ATOM     61  C   UNL A   1      43.020  28.466  33.735  1.00  0.00     0.037 A 
BRANCH  48  62
ATOM     62  C   UNL A   1      39.894  33.028  36.496  1.00  0.00     0.057 A 
ATOM     63  C   UNL A   1      38.960  32.730  37.498  1.00  0.00     0.134 A 
ATOM     64  C   UNL A   1      40.700  34.158  36.685  1.00  0.00     0.134 A 
ATOM     65  F   UNL A   1      38.148  31.668  37.375  1.00  0.00    -0.206 F 
ATOM     66  C   UNL A   1      38.815  33.536  38.628  1.00  0.00     0.040 A 
ATOM     67  C   UNL A   1      40.585  34.956  37.825  1.00  0.00     0.040 A 
ATOM     68  F   UNL A   1      41.621  34.500  35.770  1.00  0.00    -0.206 F 
ATOM     69  C   UNL A   1      39.635  34.650  38.797  1.00  0.00     0.006 A 
ENDBRANCH  48  62
BRANCH  49  70
ATOM     70  C   UNL A   1      40.864  27.649  28.138  1.00  0.00     0.057 A 
ATOM     71  C   UNL A   1      41.640  28.125  27.075  1.00  0.00     0.134 A 
ATOM     72  C   UNL A   1      40.244  26.404  27.975  1.00  0.00     0.134 A 
ATOM     73  F   UNL A   1      42.247  29.319  27.163  1.00  0.00    -0.206 F 
ATOM     74  C   UNL A   1      41.774  27.406  25.887  1.00  0.00     0.040 A 
ATOM     75  C   UNL A   1      40.393  25.661  26.803  1.00  0.00     0.040 A 
ATOM     76  F   UNL A   1      39.494  25.887  28.959  1.00  0.00    -0.206 F 
ATOM     77  C   UNL A   1      41.153  26.166  25.751  1.00  0.00     0.006 A 
ENDBRANCH  49  70
BRANCH  61  78
ATOM     78  C   UNL A   1      44.143  27.632  34.280  1.00  0.00     0.057 A 
ATOM     79  C   UNL A   1      43.918  26.390  34.889  1.00  0.00     0.134 A 
ATOM     80  C   UNL A   1      45.472  28.063  34.168  1.00  0.00     0.134 A 
ATOM     81  F   UNL A   1      42.669  25.923  35.040  1.00  0.00    -0.206 F 
ATOM     82  C   UNL A   1      44.970  25.623  35.393  1.00  0.00     0.040 A 
ATOM     83  C   UNL A   1      46.534  27.291  34.639  1.00  0.00     0.040 A 
ATOM     84  F   UNL A   1      45.760  29.238  33.586  1.00  0.00    -0.206 F 
ATOM     85  C   UNL A   1      46.283  26.070  35.262  1.00  0.00     0.006 A 
ENDBRANCH  61  78
ENDBRANCH  35  36
ENDBRANCH  27  30
ENDBRANCH  25  26
ENDBRANCH  24  25
ENDBRANCH   1  24
TORSDOF 15
ENDMDL
MODEL 3
REMARK VINA RESULT:     -10.7      1.436      6.415
REMARK SMILES CC(C)[C@H](NC(N)=O)C(=O)N[C@H](C)C(=O)NCCCCNC(=O)c1ccc(-c2c3nc(c(-c4c(F)cccc4F)c4ccc([nH]4)c(-c4c(F)cccc4F)c4nc(c(-c5c(F)cccc5F)c5ccc2[nH]5)C=C4)C=C3)cc1
REMARK SMILES IDX 18 1 17 2 16 3 14 4 15 5 12 7 13 8 11 9 9 10 10 11 4 13 2 14
REMARK SMILES IDX 1 15 3 16 5 17 6 18 7 20 8 21 19 24 20 25 21 26 22 27 23 29
REMARK SMILES IDX 24 30 25 31 77 32 26 33 76 34 27 35 28 36 29 37 70 38 30 39
REMARK SMILES IDX 75 40 69 41 71 42 31 43 74 44 68 45 67 46 32 48 58 49 41 50
REMARK SMILES IDX 57 51 42 52 45 53 56 54 72 55 43 56 44 57 55 59 73 60 46 61
REMARK SMILES IDX 33 62 34 63 39 64 35 65 36 66 38 67 40 68 37 69 59 70 60 71
REMARK SMILES IDX 65 72 61 73 62 74 64 75 66 76 63 77 47 78 48 79 53 80 49 81
REMARK SMILES IDX 50 82 52 83 54 84 51 85
REMARK H PARENT 16 6 11 12 5 19 7 22 7 23 21 28 71 47 45 58
REMARK Flexibility Score: inf
ROOT
ATOM      1  C   UNL A   1      31.412  30.657  26.632  1.00  0.00     0.023 C 
ENDROOT
BRANCH   1   2
ATOM      2  C   UNL A   1      31.982  29.986  25.387  1.00  0.00     0.116 C 
BRANCH   2   3
ATOM      3  N   UNL A   1      31.069  30.159  24.276  1.00  0.00    -0.354 N 
ATOM      4  C   UNL A   1      30.642  29.258  23.354  1.00  0.00     0.242 C 
ATOM      5  O   UNL A   1      29.918  29.670  22.444  1.00  0.00    -0.273 OA
ATOM      6  H   UNL A   1      30.701  31.067  24.175  1.00  0.00     0.163 HD
BRANCH   4   7
ATOM      7  C   UNL A   1      31.079  27.791  23.433  1.00  0.00     0.168 C 
ATOM      8  C   UNL A   1      29.866  26.865  23.311  1.00  0.00     0.041 C 
BRANCH   7   9
ATOM      9  N   UNL A   1      32.107  27.465  22.445  1.00  0.00    -0.343 N 
ATOM     10  C   UNL A   1      32.869  26.343  22.307  1.00  0.00     0.243 C 
ATOM     11  O   UNL A   1      33.340  26.150  21.180  1.00  0.00    -0.273 OA
ATOM     12  H   UNL A   1      32.275  28.166  21.774  1.00  0.00     0.164 HD
BRANCH  10  13
ATOM     13  C   UNL A   1      33.050  25.279  23.426  1.00  0.00     0.175 C 
BRANCH  13  14
ATOM     14  C   UNL A   1      34.187  25.571  24.458  1.00  0.00     0.015 C 
ATOM     15  C   UNL A   1      33.802  26.392  25.695  1.00  0.00     0.010 C 
ATOM     16  C   UNL A   1      34.959  24.319  24.894  1.00  0.00     0.010 C 
ENDBRANCH  13  14
BRANCH  13  17
ATOM     17  N   UNL A   1      33.057  23.916  22.898  1.00  0.00    -0.326 N 
ATOM     18  C   UNL A   1      31.945  23.129  22.916  1.00  0.00     0.312 C 
ATOM     19  H   UNL A   1      33.890  23.556  22.517  1.00  0.00     0.166 HD
ATOM     20  N   UNL A   1      32.165  21.896  22.398  1.00  0.00    -0.352 N 
ATOM     21  O   UNL A   1      30.840  23.463  23.304  1.00  0.00    -0.249 OA
ATOM     22  H   UNL A   1      33.065  21.644  22.089  1.00  0.00     0.161 HD
ATOM     23  H   UNL A   1      31.424  21.251  22.331  1.00  0.00     0.161 HD
ENDBRANCH  13  17
ENDBRANCH  10  13
ENDBRANCH   7   9
ENDBRANCH   4   7
ENDBRANCH   2   3
ENDBRANCH   1   2
BRANCH   1  24
ATOM     24  C   UNL A   1      31.443  32.187  26.580  1.00  0.00     0.023 C 
BRANCH  24  25
ATOM     25  C   UNL A   1      32.647  32.810  27.277  1.00  0.00     0.116 C 
BRANCH  25  26
ATOM     26  N   UNL A   1      32.417  34.209  27.594  1.00  0.00    -0.352 N 
ATOM     27  C   UNL A   1      32.987  34.978  28.578  1.00  0.00     0.251 C 
ATOM     28  H   UNL A   1      31.761  34.671  27.023  1.00  0.00     0.163 HD
ATOM     29  O   UNL A   1      32.505  36.066  28.872  1.00  0.00    -0.269 OA
BRANCH  27  30
ATOM     30  C   UNL A   1      34.173  34.473  29.297  1.00  0.00     0.039 A 
ATOM     31  C   UNL A   1      34.002  33.883  30.550  1.00  0.00     0.014 A 
ATOM     32  C   UNL A   1      35.448  34.577  28.731  1.00  0.00     0.014 A 
ATOM     33  C   UNL A   1      35.104  33.342  31.210  1.00  0.00     0.010 A 
ATOM     34  C   UNL A   1      36.531  33.961  29.351  1.00  0.00     0.010 A 
ATOM     35  C   UNL A   1      36.372  33.342  30.599  1.00  0.00    -0.014 A 
BRANCH  35  36
ATOM     36  C   UNL A   1      37.529  32.683  31.256  1.00  0.00     0.031 A 
ATOM     37  C   UNL A   1      38.176  31.478  30.633  1.00  0.00     0.074 A 
ATOM     38  C   UNL A   1      37.971  33.154  32.439  1.00  0.00     0.049 A 
ATOM     39  N   UNL A   1      39.190  30.772  31.065  1.00  0.00    -0.248 NA
ATOM     40  C   UNL A   1      37.596  30.987  29.374  1.00  0.00     0.031 C 
ATOM     41  C   UNL A   1      37.392  34.284  33.170  1.00  0.00     0.029 A 
ATOM     42  N   UNL A   1      39.010  32.743  33.234  1.00  0.00    -0.354 N 
ATOM     43  C   UNL A   1      39.366  29.755  30.136  1.00  0.00     0.074 A 
ATOM     44  C   UNL A   1      38.317  29.898  29.150  1.00  0.00     0.031 C 
ATOM     45  C   UNL A   1      38.106  34.497  34.286  1.00  0.00     0.029 A 
ATOM     46  C   UNL A   1      39.165  33.496  34.373  1.00  0.00     0.049 A 
ATOM     47  H   UNL A   1      39.590  31.979  33.011  1.00  0.00     0.167 HD
ATOM     48  C   UNL A   1      40.331  28.805  30.092  1.00  0.00     0.037 A 
ATOM     49  C   UNL A   1      40.058  33.393  35.374  1.00  0.00     0.037 A 
ATOM     50  C   UNL A   1      41.380  28.674  31.069  1.00  0.00     0.049 A 
ATOM     51  C   UNL A   1      41.105  32.316  35.312  1.00  0.00     0.074 A 
ATOM     52  C   UNL A   1      42.436  27.780  31.085  1.00  0.00     0.029 A 
ATOM     53  N   UNL A   1      41.501  29.454  32.210  1.00  0.00    -0.354 N 
ATOM     54  N   UNL A   1      41.308  31.410  34.386  1.00  0.00    -0.248 NA
ATOM     55  C   UNL A   1      42.054  32.252  36.433  1.00  0.00     0.031 C 
ATOM     56  C   UNL A   1      43.162  27.980  32.263  1.00  0.00     0.029 A 
ATOM     57  C   UNL A   1      42.596  29.040  32.951  1.00  0.00     0.049 A 
ATOM     58  H   UNL A   1      40.898  30.192  32.456  1.00  0.00     0.167 HD
ATOM     59  C   UNL A   1      42.420  30.687  34.797  1.00  0.00     0.074 A 
ATOM     60  C   UNL A   1      42.860  31.273  36.046  1.00  0.00     0.031 C 
ATOM     61  C   UNL A   1      43.023  29.632  34.195  1.00  0.00     0.037 A 
BRANCH  48  62
ATOM     62  C   UNL A   1      40.294  27.830  28.949  1.00  0.00     0.057 A 
ATOM     63  C   UNL A   1      41.018  28.045  27.768  1.00  0.00     0.134 A 
ATOM     64  C   UNL A   1      39.556  26.643  29.044  1.00  0.00     0.134 A 
ATOM     65  F   UNL A   1      41.737  29.167  27.606  1.00  0.00    -0.206 F 
ATOM     66  C   UNL A   1      40.988  27.130  26.714  1.00  0.00     0.040 A 
ATOM     67  C   UNL A   1      39.542  25.707  28.010  1.00  0.00     0.040 A 
ATOM     68  F   UNL A   1      38.845  26.369  30.149  1.00  0.00    -0.206 F 
ATOM     69  C   UNL A   1      40.254  25.952  26.838  1.00  0.00     0.006 A 
ENDBRANCH  48  62
BRANCH  49  70
ATOM     70  C   UNL A   1      40.012  34.344  36.515  1.00  0.00     0.057 A 
ATOM     71  C   UNL A   1      39.338  34.025  37.698  1.00  0.00     0.134 A 
ATOM     72  C   UNL A   1      40.633  35.597  36.446  1.00  0.00     0.134 A 
ATOM     73  F   UNL A   1      38.708  32.846  37.820  1.00  0.00    -0.206 F 
ATOM     74  C   UNL A   1      39.259  34.925  38.762  1.00  0.00     0.040 A 
ATOM     75  C   UNL A   1      40.587  36.496  37.513  1.00  0.00     0.040 A 
ATOM     76  F   UNL A   1      41.305  35.961  35.343  1.00  0.00    -0.206 F 
ATOM     77  C   UNL A   1      39.890  36.164  38.672  1.00  0.00     0.006 A 
ENDBRANCH  49  70
BRANCH  61  78
ATOM     78  C   UNL A   1      44.240  29.064  34.865  1.00  0.00     0.057 A 
ATOM     79  C   UNL A   1      45.531  29.523  34.572  1.00  0.00     0.134 A 
ATOM     80  C   UNL A   1      44.117  28.063  35.837  1.00  0.00     0.134 A 
ATOM     81  F   UNL A   1      45.722  30.471  33.643  1.00  0.00    -0.206 F 
ATOM     82  C   UNL A   1      46.657  28.986  35.201  1.00  0.00     0.040 A 
ATOM     83  C   UNL A   1      45.231  27.540  36.495  1.00  0.00     0.040 A 
ATOM     84  F   UNL A   1      42.909  27.584  36.173  1.00  0.00    -0.206 F 
ATOM     85  C   UNL A   1      46.507  27.997  36.171  1.00  0.00     0.006 A 
ENDBRANCH  61  78
ENDBRANCH  35  36
ENDBRANCH  27  30
ENDBRANCH  25  26
ENDBRANCH  24  25
ENDBRANCH   1  24
TORSDOF 15
ENDMDL
