MODEL 1
REMARK VINA RESULT:     -11.0      0.000      0.000
REMARK SMILES CC[N@@H+](C[C@@H]1CCCO1)[C@@H](C)c1ccc(C(=O)NCCCCNC(=O)c2ccc(-c3c4nc(c(-c5c(F)cccc5F)c5ccc([nH]5)c(-c5c(F)cccc5F)c5nc(c(-c6c(F)cccc6F)c6ccc3[nH]6)C=C5)C=C4)cc2)o1
REMARK SMILES IDX 19 1 18 2 16 3 17 4 15 6 12 7 13 8 80 9 14 10 10 11 11 12
REMARK SMILES IDX 3 13 2 15 1 16 4 17 5 18 6 19 9 20 7 21 8 22 20 23 21 24
REMARK SMILES IDX 22 25 23 26 24 27 25 29 26 30 27 31 79 32 28 33 78 34 29 35
REMARK SMILES IDX 30 36 31 37 72 38 32 39 77 40 71 41 73 42 33 43 76 44 70 45
REMARK SMILES IDX 69 46 34 48 60 49 43 50 59 51 44 52 47 53 58 54 74 55 45 56
REMARK SMILES IDX 46 57 57 59 75 60 48 61 35 62 36 63 41 64 37 65 38 66 40 67
REMARK SMILES IDX 42 68 39 69 61 70 62 71 67 72 63 73 64 74 66 75 68 76 65 77
REMARK SMILES IDX 49 78 50 79 55 80 51 81 52 82 54 83 56 84 53 85
REMARK H PARENT 18 5 3 14 23 28 73 47 47 58
REMARK Flexibility Score: inf
ROOT
ATOM      1  C   UNL A   1      35.892  21.179  25.389  1.00  0.00     0.116 C 
ENDROOT
BRANCH   1   2
ATOM      2  N   UNL A   1      35.075  20.015  25.133  1.00  0.00    -0.349 N 
ATOM      3  C   UNL A   1      33.796  19.933  24.634  1.00  0.00     0.287 C 
ATOM      4  O   UNL A   1      33.357  18.794  24.463  1.00  0.00    -0.266 OA
ATOM      5  H   UNL A   1      35.496  19.153  25.348  1.00  0.00     0.163 HD
BRANCH   3   6
ATOM      6  C   UNL A   1      33.052  21.131  24.293  1.00  0.00     0.191 A 
ATOM      7  C   UNL A   1      31.956  22.967  24.870  1.00  0.00     0.161 A 
ATOM      8  C   UNL A   1      31.823  22.854  23.505  1.00  0.00     0.053 A 
ATOM      9  O   UNL A   1      32.732  21.952  25.340  1.00  0.00    -0.450 OA
ATOM     10  C   UNL A   1      32.543  21.692  23.133  1.00  0.00     0.057 A 
BRANCH   7  11
ATOM     11  C   UNL A   1      31.452  23.958  25.877  1.00  0.00     0.248 C 
ATOM     12  C   UNL A   1      30.281  23.367  26.675  1.00  0.00     0.084 C 
BRANCH  11  13
ATOM     13  N   UNL A   1      31.266  25.310  25.288  1.00  0.00    -0.324 N 
ATOM     14  H   UNL A   1      31.361  25.120  24.291  1.00  0.00     0.348 HD
BRANCH  13  15
ATOM     15  C   UNL A   1      29.931  25.917  25.363  1.00  0.00     0.259 C 
ATOM     16  C   UNL A   1      29.408  26.568  24.087  1.00  0.00     0.071 C 
ENDBRANCH  13  15
BRANCH  13  17
ATOM     17  C   UNL A   1      32.325  26.255  25.717  1.00  0.00     0.295 C 
BRANCH  17  18
ATOM     18  C   UNL A   1      33.308  26.788  24.652  1.00  0.00     0.173 C 
ATOM     19  C   UNL A   1      33.360  28.296  24.474  1.00  0.00     0.040 C 
ATOM     20  O   UNL A   1      32.958  26.278  23.350  1.00  0.00    -0.372 OA
ATOM     21  C   UNL A   1      34.028  28.390  23.123  1.00  0.00     0.031 C 
ATOM     22  C   UNL A   1      33.419  27.223  22.370  1.00  0.00     0.161 C 
ENDBRANCH  17  18
ENDBRANCH  13  17
ENDBRANCH  11  13
ENDBRANCH   7  11
ENDBRANCH   3   6
ENDBRANCH   1   2
BRANCH   1  23
ATOM     23  C   UNL A   1      37.206  21.097  24.616  1.00  0.00     0.023 C 
BRANCH  23  24
ATOM     24  C   UNL A   1      38.064  19.882  24.976  1.00  0.00     0.023 C 
BRANCH  24  25
ATOM     25  C   UNL A   1      39.250  20.182  25.884  1.00  0.00     0.116 C 
BRANCH  25  26
ATOM     26  N   UNL A   1      40.226  19.104  25.933  1.00  0.00    -0.352 N 
ATOM     27  C   UNL A   1      41.580  19.196  26.151  1.00  0.00     0.251 C 
ATOM     28  H   UNL A   1      39.872  18.196  25.791  1.00  0.00     0.163 HD
ATOM     29  O   UNL A   1      42.299  18.211  26.070  1.00  0.00    -0.269 OA
BRANCH  27  30
ATOM     30  C   UNL A   1      42.157  20.522  26.442  1.00  0.00     0.039 A 
ATOM     31  C   UNL A   1      42.529  21.343  25.375  1.00  0.00     0.014 A 
ATOM     32  C   UNL A   1      42.257  20.972  27.761  1.00  0.00     0.014 A 
ATOM     33  C   UNL A   1      42.935  22.653  25.629  1.00  0.00     0.010 A 
ATOM     34  C   UNL A   1      42.603  22.295  28.007  1.00  0.00     0.010 A 
ATOM     35  C   UNL A   1      42.935  23.149  26.944  1.00  0.00    -0.014 A 
BRANCH  35  36
ATOM     36  C   UNL A   1      43.268  24.563  27.236  1.00  0.00     0.031 A 
ATOM     37  C   UNL A   1      44.699  25.017  27.200  1.00  0.00     0.074 A 
ATOM     38  C   UNL A   1      42.295  25.410  27.623  1.00  0.00     0.049 A 
ATOM     39  N   UNL A   1      45.209  26.169  27.547  1.00  0.00    -0.248 NA
ATOM     40  C   UNL A   1      45.690  24.030  26.742  1.00  0.00     0.031 C 
ATOM     41  C   UNL A   1      40.875  25.076  27.739  1.00  0.00     0.029 A 
ATOM     42  N   UNL A   1      42.359  26.725  28.011  1.00  0.00    -0.354 N 
ATOM     43  C   UNL A   1      46.580  26.040  27.372  1.00  0.00     0.074 A 
ATOM     44  C   UNL A   1      46.826  24.685  26.929  1.00  0.00     0.031 C 
ATOM     45  C   UNL A   1      40.201  26.160  28.157  1.00  0.00     0.029 A 
ATOM     46  C   UNL A   1      41.144  27.252  28.373  1.00  0.00     0.049 A 
ATOM     47  H   UNL A   1      43.197  27.242  28.027  1.00  0.00     0.167 HD
ATOM     48  C   UNL A   1      47.545  26.974  27.547  1.00  0.00     0.037 A 
ATOM     49  C   UNL A   1      40.829  28.476  28.838  1.00  0.00     0.037 A 
ATOM     50  C   UNL A   1      47.293  28.330  27.956  1.00  0.00     0.049 A 
ATOM     51  C   UNL A   1      41.918  29.496  29.018  1.00  0.00     0.074 A 
ATOM     52  C   UNL A   1      48.196  29.368  28.100  1.00  0.00     0.029 A 
ATOM     53  N   UNL A   1      46.043  28.835  28.280  1.00  0.00    -0.354 N 
ATOM     54  N   UNL A   1      43.204  29.379  28.795  1.00  0.00    -0.248 NA
ATOM     55  C   UNL A   1      41.512  30.820  29.511  1.00  0.00     0.031 C 
ATOM     56  C   UNL A   1      47.496  30.496  28.543  1.00  0.00     0.029 A 
ATOM     57  C   UNL A   1      46.153  30.168  28.638  1.00  0.00     0.049 A 
ATOM     58  H   UNL A   1      45.203  28.323  28.259  1.00  0.00     0.167 HD
ATOM     59  C   UNL A   1      43.757  30.617  29.094  1.00  0.00     0.074 A 
ATOM     60  C   UNL A   1      42.665  31.474  29.507  1.00  0.00     0.031 C 
ATOM     61  C   UNL A   1      45.052  31.009  29.032  1.00  0.00     0.037 A 
BRANCH  48  62
ATOM     62  C   UNL A   1      48.962  26.556  27.292  1.00  0.00     0.057 A 
ATOM     63  C   UNL A   1      49.531  26.627  26.014  1.00  0.00     0.134 A 
ATOM     64  C   UNL A   1      49.774  26.103  28.339  1.00  0.00     0.134 A 
ATOM     65  F   UNL A   1      48.801  27.039  24.966  1.00  0.00    -0.206 F 
ATOM     66  C   UNL A   1      50.851  26.238  25.781  1.00  0.00     0.040 A 
ATOM     67  C   UNL A   1      51.103  25.734  28.122  1.00  0.00     0.040 A 
ATOM     68  F   UNL A   1      49.292  26.014  29.586  1.00  0.00    -0.206 F 
ATOM     69  C   UNL A   1      51.643  25.796  26.839  1.00  0.00     0.006 A 
ENDBRANCH  48  62
BRANCH  49  70
ATOM     70  C   UNL A   1      39.418  28.812  29.150  1.00  0.00     0.057 A 
ATOM     71  C   UNL A   1      38.571  29.336  28.166  1.00  0.00     0.134 A 
ATOM     72  C   UNL A   1      38.885  28.626  30.429  1.00  0.00     0.134 A 
ATOM     73  F   UNL A   1      39.032  29.553  26.926  1.00  0.00    -0.206 F 
ATOM     74  C   UNL A   1      37.249  29.679  28.448  1.00  0.00     0.040 A 
ATOM     75  C   UNL A   1      37.558  28.945  30.721  1.00  0.00     0.040 A 
ATOM     76  F   UNL A   1      39.645  28.122  31.413  1.00  0.00    -0.206 F 
ATOM     77  C   UNL A   1      36.737  29.480  29.728  1.00  0.00     0.006 A 
ENDBRANCH  49  70
BRANCH  61  78
ATOM     78  C   UNL A   1      45.355  32.435  29.380  1.00  0.00     0.057 A 
ATOM     79  C   UNL A   1      45.291  33.456  28.424  1.00  0.00     0.134 A 
ATOM     80  C   UNL A   1      45.663  32.795  30.698  1.00  0.00     0.134 A 
ATOM     81  F   UNL A   1      45.014  33.172  27.143  1.00  0.00    -0.206 F 
ATOM     82  C   UNL A   1      45.537  34.786  28.766  1.00  0.00     0.040 A 
ATOM     83  C   UNL A   1      45.890  34.124  31.055  1.00  0.00     0.040 A 
ATOM     84  F   UNL A   1      45.732  31.863  31.660  1.00  0.00    -0.206 F 
ATOM     85  C   UNL A   1      45.829  35.124  30.086  1.00  0.00     0.006 A 
ENDBRANCH  61  78
ENDBRANCH  35  36
ENDBRANCH  27  30
ENDBRANCH  25  26
ENDBRANCH  24  25
ENDBRANCH  23  24
ENDBRANCH   1  23
TORSDOF 16
ENDMDL
MODEL 2
REMARK VINA RESULT:     -10.8      0.566      6.226
REMARK SMILES CC[N@@H+](C[C@@H]1CCCO1)[C@@H](C)c1ccc(C(=O)NCCCCNC(=O)c2ccc(-c3c4nc(c(-c5c(F)cccc5F)c5ccc([nH]5)c(-c5c(F)cccc5F)c5nc(c(-c6c(F)cccc6F)c6ccc3[nH]6)C=C5)C=C4)cc2)o1
REMARK SMILES IDX 19 1 18 2 16 3 17 4 15 6 12 7 13 8 80 9 14 10 10 11 11 12
REMARK SMILES IDX 3 13 2 15 1 16 4 17 5 18 6 19 9 20 7 21 8 22 20 23 21 24
REMARK SMILES IDX 22 25 23 26 24 27 25 29 26 30 27 31 79 32 28 33 78 34 29 35
REMARK SMILES IDX 30 36 31 37 72 38 32 39 77 40 71 41 73 42 33 43 76 44 70 45
REMARK SMILES IDX 69 46 34 48 60 49 43 50 59 51 44 52 47 53 58 54 74 55 45 56
REMARK SMILES IDX 46 57 57 59 75 60 48 61 35 62 36 63 41 64 37 65 38 66 40 67
REMARK SMILES IDX 42 68 39 69 61 70 62 71 67 72 63 73 64 74 66 75 68 76 65 77
REMARK SMILES IDX 49 78 50 79 55 80 51 81 52 82 54 83 56 84 53 85
REMARK H PARENT 18 5 3 14 23 28 73 47 47 58
REMARK Flexibility Score: inf
ROOT
ATOM      1  C   UNL A   1      35.944  21.530  25.492  1.00  0.00     0.116 C 
ENDROOT
BRANCH   1   2
ATOM      2  N   UNL A   1      35.227  20.302  25.239  1.00  0.00    -0.349 N 
ATOM      3  C   UNL A   1      33.965  20.112  24.726  1.00  0.00     0.287 C 
ATOM      4  O   UNL A   1      33.621  18.939  24.563  1.00  0.00    -0.266 OA
ATOM      5  H   UNL A   1      35.713  19.478  25.469  1.00  0.00     0.163 HD
BRANCH   3   6
ATOM      6  C   UNL A   1      33.131  21.241  24.362  1.00  0.00     0.191 A 
ATOM      7  C   UNL A   1      32.008  23.076  24.890  1.00  0.00     0.161 A 
ATOM      8  C   UNL A   1      31.745  22.835  23.560  1.00  0.00     0.053 A 
ATOM      9  O   UNL A   1      32.876  22.140  25.362  1.00  0.00    -0.450 OA
ATOM     10  C   UNL A   1      32.482  21.674  23.217  1.00  0.00     0.057 A 
BRANCH   7  11
ATOM     11  C   UNL A   1      31.557  24.132  25.854  1.00  0.00     0.248 C 
ATOM     12  C   UNL A   1      30.303  23.672  26.611  1.00  0.00     0.084 C 
BRANCH  11  13
ATOM     13  N   UNL A   1      31.525  25.482  25.233  1.00  0.00    -0.324 N 
ATOM     14  H   UNL A   1      31.565  25.257  24.240  1.00  0.00     0.348 HD
BRANCH  13  15
ATOM     15  C   UNL A   1      30.279  26.254  25.327  1.00  0.00     0.259 C 
ATOM     16  C   UNL A   1      29.410  26.296  24.075  1.00  0.00     0.071 C 
ENDBRANCH  13  15
BRANCH  13  17
ATOM     17  C   UNL A   1      32.706  26.296  25.606  1.00  0.00     0.295 C 
BRANCH  17  18
ATOM     18  C   UNL A   1      33.571  26.895  24.477  1.00  0.00     0.173 C 
ATOM     19  C   UNL A   1      33.446  28.392  24.250  1.00  0.00     0.040 C 
ATOM     20  O   UNL A   1      33.218  26.304  23.210  1.00  0.00    -0.372 OA
ATOM     21  C   UNL A   1      34.033  28.511  22.863  1.00  0.00     0.031 C 
ATOM     22  C   UNL A   1      33.522  27.257  22.180  1.00  0.00     0.161 C 
ENDBRANCH  17  18
ENDBRANCH  13  17
ENDBRANCH  11  13
ENDBRANCH   7  11
ENDBRANCH   3   6
ENDBRANCH   1   2
BRANCH   1  23
ATOM     23  C   UNL A   1      37.287  21.531  24.766  1.00  0.00     0.023 C 
BRANCH  23  24
ATOM     24  C   UNL A   1      38.109  20.257  24.977  1.00  0.00     0.023 C 
BRANCH  24  25
ATOM     25  C   UNL A   1      39.336  20.427  25.863  1.00  0.00     0.116 C 
BRANCH  25  26
ATOM     26  N   UNL A   1      40.206  19.261  25.873  1.00  0.00    -0.352 N 
ATOM     27  C   UNL A   1      41.558  19.214  26.115  1.00  0.00     0.251 C 
ATOM     28  H   UNL A   1      39.772  18.398  25.683  1.00  0.00     0.163 HD
ATOM     29  O   UNL A   1      42.183  18.170  25.996  1.00  0.00    -0.269 OA
BRANCH  27  30
ATOM     30  C   UNL A   1      42.251  20.464  26.478  1.00  0.00     0.039 A 
ATOM     31  C   UNL A   1      42.819  21.239  25.464  1.00  0.00     0.014 A 
ATOM     32  C   UNL A   1      42.272  20.897  27.807  1.00  0.00     0.014 A 
ATOM     33  C   UNL A   1      43.344  22.493  25.774  1.00  0.00     0.010 A 
ATOM     34  C   UNL A   1      42.741  22.171  28.102  1.00  0.00     0.010 A 
ATOM     35  C   UNL A   1      43.272  22.983  27.088  1.00  0.00    -0.014 A 
BRANCH  35  36
ATOM     36  C   UNL A   1      43.733  24.349  27.430  1.00  0.00     0.031 A 
ATOM     37  C   UNL A   1      42.736  25.392  27.848  1.00  0.00     0.074 A 
ATOM     38  C   UNL A   1      45.031  24.673  27.274  1.00  0.00     0.049 A 
ATOM     39  N   UNL A   1      42.917  26.669  28.063  1.00  0.00    -0.248 NA
ATOM     40  C   UNL A   1      41.345  24.941  28.016  1.00  0.00     0.031 C 
ATOM     41  C   UNL A   1      46.086  23.760  26.832  1.00  0.00     0.029 A 
ATOM     42  N   UNL A   1      45.680  25.869  27.452  1.00  0.00    -0.354 N 
ATOM     43  C   UNL A   1      41.662  27.178  28.368  1.00  0.00     0.074 A 
ATOM     44  C   UNL A   1      40.723  26.083  28.269  1.00  0.00     0.031 C 
ATOM     45  C   UNL A   1      47.252  24.425  26.784  1.00  0.00     0.029 A 
ATOM     46  C   UNL A   1      47.020  25.818  27.156  1.00  0.00     0.049 A 
ATOM     47  H   UNL A   1      45.227  26.687  27.761  1.00  0.00     0.167 HD
ATOM     48  C   UNL A   1      41.328  28.443  28.717  1.00  0.00     0.037 A 
ATOM     49  C   UNL A   1      47.953  26.787  27.172  1.00  0.00     0.037 A 
ATOM     50  C   UNL A   1      42.270  29.523  28.847  1.00  0.00     0.049 A 
ATOM     51  C   UNL A   1      47.557  28.182  27.570  1.00  0.00     0.074 A 
ATOM     52  C   UNL A   1      42.039  30.824  29.256  1.00  0.00     0.029 A 
ATOM     53  N   UNL A   1      43.625  29.422  28.572  1.00  0.00    -0.354 N 
ATOM     54  N   UNL A   1      46.377  28.639  27.911  1.00  0.00    -0.248 NA
ATOM     55  C   UNL A   1      48.622  29.195  27.588  1.00  0.00     0.031 C 
ATOM     56  C   UNL A   1      43.251  31.520  29.200  1.00  0.00     0.029 A 
ATOM     57  C   UNL A   1      44.242  30.642  28.790  1.00  0.00     0.049 A 
ATOM     58  H   UNL A   1      44.082  28.604  28.267  1.00  0.00     0.167 HD
ATOM     59  C   UNL A   1      46.561  29.983  28.209  1.00  0.00     0.074 A 
ATOM     60  C   UNL A   1      47.968  30.265  28.016  1.00  0.00     0.031 C 
ATOM     61  C   UNL A   1      45.647  30.900  28.607  1.00  0.00     0.037 A 
BRANCH  48  62
ATOM     62  C   UNL A   1      39.880  28.723  28.988  1.00  0.00     0.057 A 
ATOM     63  C   UNL A   1      39.015  29.165  27.978  1.00  0.00     0.134 A 
ATOM     64  C   UNL A   1      39.339  28.524  30.264  1.00  0.00     0.134 A 
ATOM     65  F   UNL A   1      39.475  29.388  26.738  1.00  0.00    -0.206 F 
ATOM     66  C   UNL A   1      37.668  29.423  28.234  1.00  0.00     0.040 A 
ATOM     67  C   UNL A   1      37.987  28.756  30.526  1.00  0.00     0.040 A 
ATOM     68  F   UNL A   1      40.112  28.099  31.273  1.00  0.00    -0.206 F 
ATOM     69  C   UNL A   1      37.149  29.212  29.510  1.00  0.00     0.006 A 
ENDBRANCH  48  62
BRANCH  49  70
ATOM     70  C   UNL A   1      49.359  26.472  26.820  1.00  0.00     0.057 A 
ATOM     71  C   UNL A   1      50.248  25.982  27.784  1.00  0.00     0.134 A 
ATOM     72  C   UNL A   1      49.849  26.655  25.523  1.00  0.00     0.134 A 
ATOM     73  F   UNL A   1      49.840  25.804  29.048  1.00  0.00    -0.206 F 
ATOM     74  C   UNL A   1      51.580  25.703  27.474  1.00  0.00     0.040 A 
ATOM     75  C   UNL A   1      51.173  26.360  25.194  1.00  0.00     0.040 A 
ATOM     76  F   UNL A   1      49.044  27.116  24.553  1.00  0.00    -0.206 F 
ATOM     77  C   UNL A   1      52.045  25.888  26.174  1.00  0.00     0.006 A 
ENDBRANCH  49  70
BRANCH  61  78
ATOM     78  C   UNL A   1      46.144  32.283  28.898  1.00  0.00     0.057 A 
ATOM     79  C   UNL A   1      46.171  33.280  27.914  1.00  0.00     0.134 A 
ATOM     80  C   UNL A   1      46.552  32.634  30.191  1.00  0.00     0.134 A 
ATOM     81  F   UNL A   1      45.805  33.000  26.655  1.00  0.00    -0.206 F 
ATOM     82  C   UNL A   1      46.599  34.575  28.205  1.00  0.00     0.040 A 
ATOM     83  C   UNL A   1      46.962  33.932  30.498  1.00  0.00     0.040 A 
ATOM     84  F   UNL A   1      46.542  31.726  31.178  1.00  0.00    -0.206 F 
ATOM     85  C   UNL A   1      46.989  34.906  29.501  1.00  0.00     0.006 A 
ENDBRANCH  61  78
ENDBRANCH  35  36
ENDBRANCH  27  30
ENDBRANCH  25  26
ENDBRANCH  24  25
ENDBRANCH  23  24
ENDBRANCH   1  23
TORSDOF 16
ENDMDL
MODEL 3
REMARK VINA RESULT:     -10.8      1.556      2.211
REMARK SMILES CC[N@@H+](C[C@@H]1CCCO1)[C@@H](C)c1ccc(C(=O)NCCCCNC(=O)c2ccc(-c3c4nc(c(-c5c(F)cccc5F)c5ccc([nH]5)c(-c5c(F)cccc5F)c5nc(c(-c6c(F)cccc6F)c6ccc3[nH]6)C=C5)C=C4)cc2)o1
REMARK SMILES IDX 19 1 18 2 16 3 17 4 15 6 12 7 13 8 80 9 14 10 10 11 11 12
REMARK SMILES IDX 3 13 2 15 1 16 4 17 5 18 6 19 9 20 7 21 8 22 20 23 21 24
REMARK SMILES IDX 22 25 23 26 24 27 25 29 26 30 27 31 79 32 28 33 78 34 29 35
REMARK SMILES IDX 30 36 31 37 72 38 32 39 77 40 71 41 73 42 33 43 76 44 70 45
REMARK SMILES IDX 69 46 34 48 60 49 43 50 59 51 44 52 47 53 58 54 74 55 45 56
REMARK SMILES IDX 46 57 57 59 75 60 48 61 35 62 36 63 41 64 37 65 38 66 40 67
REMARK SMILES IDX 42 68 39 69 61 70 62 71 67 72 63 73 64 74 66 75 68 76 65 77
REMARK SMILES IDX 49 78 50 79 55 80 51 81 52 82 54 83 56 84 53 85
REMARK H PARENT 18 5 3 14 23 28 73 47 47 58
REMARK Flexibility Score: inf
ROOT
ATOM      1  C   UNL A   1      35.799  21.795  25.409  1.00  0.00     0.116 C 
ENDROOT
BRANCH   1   2
ATOM      2  N   UNL A   1      34.857  20.702  25.468  1.00  0.00    -0.349 N 
ATOM      3  C   UNL A   1      33.517  20.714  25.779  1.00  0.00     0.287 C 
ATOM      4  O   UNL A   1      32.935  19.630  25.696  1.00  0.00    -0.266 OA
ATOM      5  H   UNL A   1      35.228  19.816  25.254  1.00  0.00     0.163 HD
BRANCH   3   6
ATOM      6  C   UNL A   1      32.846  21.950  26.133  1.00  0.00     0.191 A 
ATOM      7  C   UNL A   1      31.709  23.769  25.581  1.00  0.00     0.161 A 
ATOM      8  C   UNL A   1      31.978  23.879  26.926  1.00  0.00     0.053 A 
ATOM      9  O   UNL A   1      32.195  22.588  25.111  1.00  0.00    -0.450 OA
ATOM     10  C   UNL A   1      32.686  22.705  27.283  1.00  0.00     0.057 A 
BRANCH   7  11
ATOM     11  C   UNL A   1      30.999  24.650  24.596  1.00  0.00     0.248 C 
ATOM     12  C   UNL A   1      30.544  23.838  23.375  1.00  0.00     0.084 C 
BRANCH  11  13
ATOM     13  N   UNL A   1      31.738  25.914  24.341  1.00  0.00    -0.324 N 
ATOM     14  H   UNL A   1      32.623  25.740  24.816  1.00  0.00     0.348 HD
BRANCH  13  15
ATOM     15  C   UNL A   1      32.174  26.192  22.966  1.00  0.00     0.259 C 
ATOM     16  C   UNL A   1      33.665  26.439  22.763  1.00  0.00     0.071 C 
ENDBRANCH  13  15
BRANCH  13  17
ATOM     17  C   UNL A   1      31.067  27.086  24.952  1.00  0.00     0.295 C 
BRANCH  17  18
ATOM     18  C   UNL A   1      31.945  28.215  25.531  1.00  0.00     0.173 C 
ATOM     19  C   UNL A   1      32.069  28.268  27.044  1.00  0.00     0.040 C 
ATOM     20  O   UNL A   1      31.410  29.503  25.164  1.00  0.00    -0.372 OA
ATOM     21  C   UNL A   1      32.574  29.679  27.231  1.00  0.00     0.031 C 
ATOM     22  C   UNL A   1      31.808  30.447  26.172  1.00  0.00     0.161 C 
ENDBRANCH  17  18
ENDBRANCH  13  17
ENDBRANCH  11  13
ENDBRANCH   7  11
ENDBRANCH   3   6
ENDBRANCH   1   2
BRANCH   1  23
ATOM     23  C   UNL A   1      36.988  21.436  24.521  1.00  0.00     0.023 C 
BRANCH  23  24
ATOM     24  C   UNL A   1      37.774  20.212  24.998  1.00  0.00     0.023 C 
BRANCH  24  25
ATOM     25  C   UNL A   1      39.006  20.531  25.835  1.00  0.00     0.116 C 
BRANCH  25  26
ATOM     26  N   UNL A   1      40.006  19.474  25.814  1.00  0.00    -0.352 N 
ATOM     27  C   UNL A   1      41.341  19.564  26.131  1.00  0.00     0.251 C 
ATOM     28  H   UNL A   1      39.687  18.584  25.538  1.00  0.00     0.163 HD
ATOM     29  O   UNL A   1      42.091  18.611  25.975  1.00  0.00    -0.269 OA
BRANCH  27  30
ATOM     30  C   UNL A   1      41.862  20.854  26.622  1.00  0.00     0.039 A 
ATOM     31  C   UNL A   1      42.378  21.767  25.699  1.00  0.00     0.014 A 
ATOM     32  C   UNL A   1      41.770  21.180  27.977  1.00  0.00     0.014 A 
ATOM     33  C   UNL A   1      42.734  23.045  26.128  1.00  0.00     0.010 A 
ATOM     34  C   UNL A   1      42.068  22.472  28.390  1.00  0.00     0.010 A 
ATOM     35  C   UNL A   1      42.544  23.418  27.469  1.00  0.00    -0.014 A 
BRANCH  35  36
ATOM     36  C   UNL A   1      42.822  24.797  27.934  1.00  0.00     0.031 A 
ATOM     37  C   UNL A   1      44.221  25.189  28.313  1.00  0.00     0.074 A 
ATOM     38  C   UNL A   1      41.804  25.662  28.102  1.00  0.00     0.049 A 
ATOM     39  N   UNL A   1      44.649  26.297  28.861  1.00  0.00    -0.248 NA
ATOM     40  C   UNL A   1      45.273  24.188  28.072  1.00  0.00     0.031 C 
ATOM     41  C   UNL A   1      40.396  25.384  27.811  1.00  0.00     0.029 A 
ATOM     42  N   UNL A   1      41.795  26.949  28.581  1.00  0.00    -0.354 N 
ATOM     43  C   UNL A   1      46.012  26.118  29.052  1.00  0.00     0.074 A 
ATOM     44  C   UNL A   1      46.333  24.781  28.600  1.00  0.00     0.031 C 
ATOM     45  C   UNL A   1      39.663  26.470  28.105  1.00  0.00     0.029 A 
ATOM     46  C   UNL A   1      40.541  27.506  28.639  1.00  0.00     0.049 A 
ATOM     47  H   UNL A   1      42.611  27.426  28.856  1.00  0.00     0.167 HD
ATOM     48  C   UNL A   1      46.918  26.997  29.541  1.00  0.00     0.037 A 
ATOM     49  C   UNL A   1      40.145  28.713  29.084  1.00  0.00     0.037 A 
ATOM     50  C   UNL A   1      46.601  28.337  29.958  1.00  0.00     0.049 A 
ATOM     51  C   UNL A   1      41.171  29.673  29.617  1.00  0.00     0.074 A 
ATOM     52  C   UNL A   1      47.458  29.325  30.409  1.00  0.00     0.029 A 
ATOM     53  N   UNL A   1      45.324  28.877  29.969  1.00  0.00    -0.354 N 
ATOM     54  N   UNL A   1      42.467  29.513  29.740  1.00  0.00    -0.248 NA
ATOM     55  C   UNL A   1      40.682  30.983  30.072  1.00  0.00     0.031 C 
ATOM     56  C   UNL A   1      46.694  30.455  30.723  1.00  0.00     0.029 A 
ATOM     57  C   UNL A   1      45.368  30.181  30.432  1.00  0.00     0.049 A 
ATOM     58  H   UNL A   1      44.507  28.403  29.689  1.00  0.00     0.167 HD
ATOM     59  C   UNL A   1      42.950  30.707  30.259  1.00  0.00     0.074 A 
ATOM     60  C   UNL A   1      41.810  31.585  30.421  1.00  0.00     0.031 C 
ATOM     61  C   UNL A   1      44.224  31.045  30.573  1.00  0.00     0.037 A 
BRANCH  48  62
ATOM     62  C   UNL A   1      48.340  26.534  29.648  1.00  0.00     0.057 A 
ATOM     63  C   UNL A   1      48.817  25.879  30.791  1.00  0.00     0.134 A 
ATOM     64  C   UNL A   1      49.235  26.721  28.587  1.00  0.00     0.134 A 
ATOM     65  F   UNL A   1      48.013  25.683  31.847  1.00  0.00    -0.206 F 
ATOM     66  C   UNL A   1      50.141  25.449  30.885  1.00  0.00     0.040 A 
ATOM     67  C   UNL A   1      50.555  26.273  28.660  1.00  0.00     0.040 A 
ATOM     68  F   UNL A   1      48.841  27.338  27.464  1.00  0.00    -0.206 F 
ATOM     69  C   UNL A   1      51.012  25.640  29.814  1.00  0.00     0.006 A 
ENDBRANCH  48  62
BRANCH  49  70
ATOM     70  C   UNL A   1      38.712  29.092  29.028  1.00  0.00     0.057 A 
ATOM     71  C   UNL A   1      38.137  29.550  27.837  1.00  0.00     0.134 A 
ATOM     72  C   UNL A   1      37.887  29.012  30.155  1.00  0.00     0.134 A 
ATOM     73  F   UNL A   1      38.883  29.665  26.729  1.00  0.00    -0.206 F 
ATOM     74  C   UNL A   1      36.796  29.933  27.773  1.00  0.00     0.040 A 
ATOM     75  C   UNL A   1      36.540  29.371  30.100  1.00  0.00     0.040 A 
ATOM     76  F   UNL A   1      38.378  28.574  31.324  1.00  0.00    -0.206 F 
ATOM     77  C   UNL A   1      35.992  29.840  28.907  1.00  0.00     0.006 A 
ENDBRANCH  49  70
BRANCH  61  78
ATOM     78  C   UNL A   1      44.459  32.433  31.085  1.00  0.00     0.057 A 
ATOM     79  C   UNL A   1      44.643  33.517  30.217  1.00  0.00     0.134 A 
ATOM     80  C   UNL A   1      44.449  32.695  32.460  1.00  0.00     0.134 A 
ATOM     81  F   UNL A   1      44.675  33.327  28.890  1.00  0.00    -0.206 F 
ATOM     82  C   UNL A   1      44.822  34.813  30.702  1.00  0.00     0.040 A 
ATOM     83  C   UNL A   1      44.606  33.990  32.956  1.00  0.00     0.040 A 
ATOM     84  F   UNL A   1      44.270  31.700  33.341  1.00  0.00    -0.206 F 
ATOM     85  C   UNL A   1      44.796  35.053  32.075  1.00  0.00     0.006 A 
ENDBRANCH  61  78
ENDBRANCH  35  36
ENDBRANCH  27  30
ENDBRANCH  25  26
ENDBRANCH  24  25
ENDBRANCH  23  24
ENDBRANCH   1  23
TORSDOF 16
ENDMDL
