MODEL 1
REMARK VINA RESULT:     -13.8      0.000      0.000
REMARK SMILES Cc1ccc(S(=O)(=O)n2cc(C(=O)C(=O)N[C@@H](Cc3c[nH]c4ccccc34)C(=O)NCC(=O)NCCCCNC(=O)c3ccc(-c4c5nc(c(-c6c(F)cccc6F)c6ccc([nH]6)c(-c6c(F)cccc6F)c6nc(c(-c7c(F)cccc7F)c7ccc4[nH]7)C=C6)C=C5)cc3)c3ccccc32)cc1
REMARK SMILES IDX 32 1 33 2 34 3 31 5 30 6 28 7 29 8 17 10 16 11 14 12 15 13
REMARK SMILES IDX 12 15 13 16 11 17 9 18 10 19 101 20 96 21 100 22 97 23 99 24
REMARK SMILES IDX 98 25 6 26 7 27 8 28 5 29 1 30 2 31 3 32 103 33 4 34 102 35
REMARK SMILES IDX 18 36 19 37 20 38 27 39 21 40 22 41 26 42 23 44 25 45 24 46
REMARK SMILES IDX 35 47 36 48 37 49 38 50 39 51 40 52 41 54 42 55 43 56 95 57
REMARK SMILES IDX 44 58 94 59 45 60 46 61 47 62 88 63 48 64 93 65 87 66 89 67
REMARK SMILES IDX 49 68 92 69 86 70 85 71 50 73 76 74 59 75 75 76 60 77 63 78
REMARK SMILES IDX 74 79 90 80 61 81 62 82 73 84 91 85 64 86 51 87 52 88 57 89
REMARK SMILES IDX 53 90 54 91 56 92 58 93 55 94 77 95 78 96 83 97 79 98 80 99
REMARK SMILES IDX 82 100 84 101 81 102 65 103 66 104 71 105 67 106 68 107
REMARK SMILES IDX 70 108 72 109 69 110
REMARK H PARENT 34 4 30 9 16 14 21 43 39 53 89 72 63 83
REMARK Flexibility Score: inf
ROOT
ATOM      1  C   UNL A   1      38.700  24.354  26.686  1.00  0.00     0.239 C 
ATOM      2  O   UNL A   1      38.734  25.534  27.038  1.00  0.00    -0.273 OA
ATOM      3  N   UNL A   1      39.727  23.529  27.051  1.00  0.00    -0.355 N 
ATOM      4  H   UNL A   1      40.451  23.935  27.579  1.00  0.00     0.163 HD
ENDROOT
BRANCH   1   5
ATOM      5  C   UNL A   1      37.454  23.729  26.054  1.00  0.00     0.216 C 
BRANCH   5   6
ATOM      6  N   UNL A   1      37.427  23.443  24.632  1.00  0.00    -0.345 N 
ATOM      7  C   UNL A   1      36.470  22.877  23.841  1.00  0.00     0.243 C 
ATOM      8  O   UNL A   1      36.636  23.055  22.627  1.00  0.00    -0.273 OA
ATOM      9  H   UNL A   1      38.246  23.706  24.151  1.00  0.00     0.164 HD
BRANCH   7  10
ATOM     10  C   UNL A   1      35.216  22.066  24.336  1.00  0.00     0.176 C 
BRANCH  10  11
ATOM     11  N   UNL A   1      33.989  22.169  23.500  1.00  0.00    -0.337 N 
ATOM     12  C   UNL A   1      32.749  22.788  23.716  1.00  0.00     0.293 C 
ATOM     13  O   UNL A   1      31.884  22.693  22.846  1.00  0.00    -0.265 OA
ATOM     14  H   UNL A   1      34.062  21.715  22.629  1.00  0.00     0.164 HD
BRANCH  12  15
ATOM     15  C   UNL A   1      32.464  23.640  24.978  1.00  0.00     0.252 C 
ATOM     16  O   UNL A   1      31.977  23.016  25.921  1.00  0.00    -0.283 OA
BRANCH  15  17
ATOM     17  C   UNL A   1      32.696  25.116  25.085  1.00  0.00     0.054 A 
ATOM     18  N   UNL A   1      33.073  27.284  25.823  1.00  0.00    -0.240 N 
ATOM     19  C   UNL A   1      32.609  26.000  26.167  1.00  0.00     0.117 A 
ATOM     20  C   UNL A   1      33.470  27.161  24.468  1.00  0.00     0.065 A 
ATOM     21  C   UNL A   1      32.916  25.978  23.974  1.00  0.00     0.012 A 
ATOM     22  C   UNL A   1      34.076  28.084  23.592  1.00  0.00     0.028 A 
ATOM     23  C   UNL A   1      32.739  25.848  22.581  1.00  0.00     0.011 A 
ATOM     24  C   UNL A   1      33.827  27.969  22.228  1.00  0.00     0.002 A 
ATOM     25  C   UNL A   1      33.118  26.888  21.731  1.00  0.00     0.001 A 
BRANCH  18  26
ATOM     26  S   UNL A   1      32.393  28.937  26.154  1.00  0.00     0.268 S 
ATOM     27  O   UNL A   1      33.595  29.694  26.460  1.00  0.00    -0.201 OA
ATOM     28  O   UNL A   1      31.448  28.572  27.206  1.00  0.00    -0.201 OA
BRANCH  26  29
ATOM     29  C   UNL A   1      31.325  30.131  25.344  1.00  0.00     0.088 A 
ATOM     30  C   UNL A   1      28.195  32.295  23.159  1.00  0.00     0.044 C 
ATOM     31  C   UNL A   1      29.276  31.564  23.903  1.00  0.00    -0.051 A 
ATOM     32  C   UNL A   1      29.635  30.279  23.525  1.00  0.00     0.005 A 
ATOM     33  C   UNL A   1      29.946  32.127  24.988  1.00  0.00     0.005 A 
ATOM     34  C   UNL A   1      30.618  29.581  24.243  1.00  0.00     0.022 A 
ATOM     35  C   UNL A   1      30.973  31.420  25.667  1.00  0.00     0.022 A 
ENDBRANCH  26  29
ENDBRANCH  18  26
ENDBRANCH  15  17
ENDBRANCH  12  15
ENDBRANCH  10  11
BRANCH  10  36
ATOM     36  C   UNL A   1      35.516  20.618  24.845  1.00  0.00     0.072 C 
BRANCH  36  37
ATOM     37  C   UNL A   1      34.379  19.714  25.260  1.00  0.00    -0.020 A 
ATOM     38  C   UNL A   1      33.512  19.958  26.316  1.00  0.00     0.087 A 
ATOM     39  C   UNL A   1      33.988  18.438  24.715  1.00  0.00     0.003 A 
ATOM     40  N   UNL A   1      32.723  18.853  26.505  1.00  0.00    -0.361 N 
ATOM     41  C   UNL A   1      33.078  17.869  25.612  1.00  0.00     0.046 A 
ATOM     42  C   UNL A   1      34.425  17.648  23.631  1.00  0.00     0.010 A 
ATOM     43  H   UNL A   1      32.011  18.774  27.179  1.00  0.00     0.166 HD
ATOM     44  C   UNL A   1      32.690  16.525  25.557  1.00  0.00     0.026 A 
ATOM     45  C   UNL A   1      34.064  16.296  23.572  1.00  0.00     0.001 A 
ATOM     46  C   UNL A   1      33.232  15.737  24.538  1.00  0.00     0.002 A 
ENDBRANCH  36  37
ENDBRANCH  10  36
ENDBRANCH   7  10
ENDBRANCH   5   6
ENDBRANCH   1   5
BRANCH   3  47
ATOM     47  C   UNL A   1      39.860  22.125  26.743  1.00  0.00     0.116 C 
BRANCH  47  48
ATOM     48  C   UNL A   1      40.756  21.405  27.748  1.00  0.00     0.023 C 
BRANCH  48  49
ATOM     49  C   UNL A   1      42.145  21.080  27.203  1.00  0.00     0.023 C 
BRANCH  49  50
ATOM     50  C   UNL A   1      42.507  21.900  25.981  1.00  0.00     0.116 C 
BRANCH  50  51
ATOM     51  N   UNL A   1      43.361  21.233  25.028  1.00  0.00    -0.352 N 
ATOM     52  C   UNL A   1      44.598  21.618  24.516  1.00  0.00     0.251 C 
ATOM     53  H   UNL A   1      43.017  20.376  24.688  1.00  0.00     0.163 HD
ATOM     54  O   UNL A   1      45.057  21.009  23.589  1.00  0.00    -0.269 OA
BRANCH  52  55
ATOM     55  C   UNL A   1      45.438  22.642  25.231  1.00  0.00     0.039 A 
ATOM     56  C   UNL A   1      45.513  22.507  26.622  1.00  0.00     0.014 A 
ATOM     57  C   UNL A   1      45.793  23.856  24.666  1.00  0.00     0.014 A 
ATOM     58  C   UNL A   1      45.560  23.650  27.411  1.00  0.00     0.010 A 
ATOM     59  C   UNL A   1      45.657  24.995  25.419  1.00  0.00     0.010 A 
ATOM     60  C   UNL A   1      45.433  24.879  26.784  1.00  0.00    -0.014 A 
BRANCH  60  61
ATOM     61  C   UNL A   1      45.143  26.126  27.458  1.00  0.00     0.031 A 
ATOM     62  C   UNL A   1      43.814  26.711  27.273  1.00  0.00     0.074 A 
ATOM     63  C   UNL A   1      46.038  26.607  28.347  1.00  0.00     0.049 A 
ATOM     64  N   UNL A   1      43.487  27.913  27.584  1.00  0.00    -0.248 NA
ATOM     65  C   UNL A   1      42.737  25.956  26.641  1.00  0.00     0.031 C 
ATOM     66  C   UNL A   1      45.869  27.668  29.338  1.00  0.00     0.029 A 
ATOM     67  N   UNL A   1      47.428  26.458  28.249  1.00  0.00    -0.354 N 
ATOM     68  C   UNL A   1      42.111  27.972  27.536  1.00  0.00     0.074 A 
ATOM     69  C   UNL A   1      41.719  26.801  26.797  1.00  0.00     0.031 C 
ATOM     70  C   UNL A   1      47.045  28.309  29.479  1.00  0.00     0.029 A 
ATOM     71  C   UNL A   1      47.901  27.778  28.431  1.00  0.00     0.049 A 
ATOM     72  H   UNL A   1      47.947  25.637  28.093  1.00  0.00     0.167 HD
ATOM     73  C   UNL A   1      41.487  28.901  28.312  1.00  0.00     0.037 A 
ATOM     74  C   UNL A   1      48.346  28.508  27.361  1.00  0.00     0.037 A 
ATOM     75  C   UNL A   1      42.461  29.870  28.816  1.00  0.00     0.049 A 
ATOM     76  C   UNL A   1      47.785  29.878  27.274  1.00  0.00     0.074 A 
ATOM     77  C   UNL A   1      43.122  30.001  30.027  1.00  0.00     0.029 A 
ATOM     78  N   UNL A   1      43.133  30.679  27.907  1.00  0.00    -0.354 N 
ATOM     79  N   UNL A   1      46.538  30.142  27.522  1.00  0.00    -0.248 NA
ATOM     80  C   UNL A   1      48.590  31.058  26.980  1.00  0.00     0.031 C 
ATOM     81  C   UNL A   1      44.249  30.838  29.819  1.00  0.00     0.029 A 
ATOM     82  C   UNL A   1      44.252  31.231  28.491  1.00  0.00     0.049 A 
ATOM     83  H   UNL A   1      42.849  30.836  26.978  1.00  0.00     0.167 HD
ATOM     84  C   UNL A   1      46.364  31.497  27.460  1.00  0.00     0.074 A 
ATOM     85  C   UNL A   1      47.668  32.027  27.110  1.00  0.00     0.031 C 
ATOM     86  C   UNL A   1      45.154  32.064  27.715  1.00  0.00     0.037 A 
BRANCH  73  87
ATOM     87  C   UNL A   1      40.087  28.755  28.879  1.00  0.00     0.057 A 
ATOM     88  C   UNL A   1      38.974  29.158  28.111  1.00  0.00     0.134 A 
ATOM     89  C   UNL A   1      39.752  28.338  30.180  1.00  0.00     0.134 A 
ATOM     90  F   UNL A   1      39.094  29.518  26.827  1.00  0.00    -0.206 F 
ATOM     91  C   UNL A   1      37.670  29.226  28.621  1.00  0.00     0.040 A 
ATOM     92  C   UNL A   1      38.455  28.415  30.710  1.00  0.00     0.040 A 
ATOM     93  F   UNL A   1      40.639  27.799  31.016  1.00  0.00    -0.206 F 
ATOM     94  C   UNL A   1      37.408  28.874  29.934  1.00  0.00     0.006 A 
ENDBRANCH  73  87
BRANCH  74  95
ATOM     95  C   UNL A   1      48.747  27.668  26.210  1.00  0.00     0.057 A 
ATOM     96  C   UNL A   1      47.904  27.778  25.106  1.00  0.00     0.134 A 
ATOM     97  C   UNL A   1      49.943  26.998  26.009  1.00  0.00     0.134 A 
ATOM     98  F   UNL A   1      46.626  28.051  25.397  1.00  0.00    -0.206 F 
ATOM     99  C   UNL A   1      48.269  27.418  23.806  1.00  0.00     0.040 A 
ATOM    100  C   UNL A   1      50.297  26.528  24.731  1.00  0.00     0.040 A 
ATOM    101  F   UNL A   1      50.813  26.828  27.012  1.00  0.00    -0.206 F 
ATOM    102  C   UNL A   1      49.487  26.788  23.618  1.00  0.00     0.006 A 
ENDBRANCH  74  95
BRANCH  86 103
ATOM    103  C   UNL A   1      44.725  33.445  27.305  1.00  0.00     0.057 A 
ATOM    104  C   UNL A   1      44.036  33.734  26.118  1.00  0.00     0.134 A 
ATOM    105  C   UNL A   1      44.826  34.518  28.217  1.00  0.00     0.134 A 
ATOM    106  F   UNL A   1      43.769  32.790  25.206  1.00  0.00    -0.206 F 
ATOM    107  C   UNL A   1      43.518  35.005  25.840  1.00  0.00     0.040 A 
ATOM    108  C   UNL A   1      44.263  35.773  27.976  1.00  0.00     0.040 A 
ATOM    109  F   UNL A   1      45.439  34.384  29.403  1.00  0.00    -0.206 F 
ATOM    110  C   UNL A   1      43.614  36.023  26.778  1.00  0.00     0.006 A 
ENDBRANCH  86 103
ENDBRANCH  60  61
ENDBRANCH  52  55
ENDBRANCH  50  51
ENDBRANCH  49  50
ENDBRANCH  48  49
ENDBRANCH  47  48
ENDBRANCH   3  47
TORSDOF 20
ENDMDL
MODEL 2
REMARK VINA RESULT:     -13.3      1.478      2.007
REMARK SMILES Cc1ccc(S(=O)(=O)n2cc(C(=O)C(=O)N[C@@H](Cc3c[nH]c4ccccc34)C(=O)NCC(=O)NCCCCNC(=O)c3ccc(-c4c5nc(c(-c6c(F)cccc6F)c6ccc([nH]6)c(-c6c(F)cccc6F)c6nc(c(-c7c(F)cccc7F)c7ccc4[nH]7)C=C6)C=C5)cc3)c3ccccc32)cc1
REMARK SMILES IDX 32 1 33 2 34 3 31 5 30 6 28 7 29 8 17 10 16 11 14 12 15 13
REMARK SMILES IDX 12 15 13 16 11 17 9 18 10 19 101 20 96 21 100 22 97 23 99 24
REMARK SMILES IDX 98 25 6 26 7 27 8 28 5 29 1 30 2 31 3 32 103 33 4 34 102 35
REMARK SMILES IDX 18 36 19 37 20 38 27 39 21 40 22 41 26 42 23 44 25 45 24 46
REMARK SMILES IDX 35 47 36 48 37 49 38 50 39 51 40 52 41 54 42 55 43 56 95 57
REMARK SMILES IDX 44 58 94 59 45 60 46 61 47 62 88 63 48 64 93 65 87 66 89 67
REMARK SMILES IDX 49 68 92 69 86 70 85 71 50 73 76 74 59 75 75 76 60 77 63 78
REMARK SMILES IDX 74 79 90 80 61 81 62 82 73 84 91 85 64 86 51 87 52 88 57 89
REMARK SMILES IDX 53 90 54 91 56 92 58 93 55 94 77 95 78 96 83 97 79 98 80 99
REMARK SMILES IDX 82 100 84 101 81 102 65 103 66 104 71 105 67 106 68 107
REMARK SMILES IDX 70 108 72 109 69 110
REMARK H PARENT 34 4 30 9 16 14 21 43 39 53 89 72 63 83
REMARK Flexibility Score: inf
ROOT
ATOM      1  C   UNL A   1      39.866  21.711  26.400  1.00  0.00     0.239 C 
ATOM      2  O   UNL A   1      40.178  22.789  26.907  1.00  0.00    -0.273 OA
ATOM      3  N   UNL A   1      40.678  20.630  26.600  1.00  0.00    -0.355 N 
ATOM      4  H   UNL A   1      41.484  20.780  27.144  1.00  0.00     0.163 HD
ENDROOT
BRANCH   1   5
ATOM      5  C   UNL A   1      38.500  21.485  25.748  1.00  0.00     0.216 C 
BRANCH   5   6
ATOM      6  N   UNL A   1      37.625  22.612  25.484  1.00  0.00    -0.345 N 
ATOM      7  C   UNL A   1      36.276  22.762  25.622  1.00  0.00     0.243 C 
ATOM      8  O   UNL A   1      35.884  23.937  25.602  1.00  0.00    -0.273 OA
ATOM      9  H   UNL A   1      38.088  23.413  25.146  1.00  0.00     0.164 HD
BRANCH   7  10
ATOM     10  C   UNL A   1      35.228  21.604  25.815  1.00  0.00     0.176 C 
BRANCH  10  11
ATOM     11  N   UNL A   1      34.407  21.655  27.056  1.00  0.00    -0.337 N 
ATOM     12  C   UNL A   1      33.173  22.256  27.347  1.00  0.00     0.293 C 
ATOM     13  O   UNL A   1      32.727  22.160  28.490  1.00  0.00    -0.265 OA
ATOM     14  H   UNL A   1      34.808  21.176  27.818  1.00  0.00     0.164 HD
BRANCH  12  15
ATOM     15  C   UNL A   1      32.330  22.970  26.262  1.00  0.00     0.252 C 
ATOM     16  O   UNL A   1      31.457  22.271  25.745  1.00  0.00    -0.283 OA
BRANCH  15  17
ATOM     17  C   UNL A   1      32.543  24.379  25.802  1.00  0.00     0.054 A 
ATOM     18  N   UNL A   1      32.961  26.658  25.660  1.00  0.00    -0.240 N 
ATOM     19  C   UNL A   1      32.568  25.595  26.495  1.00  0.00     0.117 A 
ATOM     20  C   UNL A   1      33.196  26.046  24.403  1.00  0.00     0.065 A 
ATOM     21  C   UNL A   1      32.611  24.778  24.438  1.00  0.00     0.012 A 
ATOM     22  C   UNL A   1      33.674  26.576  23.188  1.00  0.00     0.028 A 
ATOM     23  C   UNL A   1      32.272  24.159  23.216  1.00  0.00     0.011 A 
ATOM     24  C   UNL A   1      33.266  25.984  21.997  1.00  0.00     0.002 A 
ATOM     25  C   UNL A   1      32.525  24.815  22.010  1.00  0.00     0.001 A 
BRANCH  18  26
ATOM     26  S   UNL A   1      32.292  28.335  25.451  1.00  0.00     0.268 S 
ATOM     27  O   UNL A   1      33.503  29.112  25.248  1.00  0.00    -0.201 OA
ATOM     28  O   UNL A   1      31.544  28.423  26.702  1.00  0.00    -0.201 OA
BRANCH  26  29
ATOM     29  C   UNL A   1      31.068  29.171  24.438  1.00  0.00     0.088 A 
ATOM     30  C   UNL A   1      27.665  30.371  21.943  1.00  0.00     0.044 C 
ATOM     31  C   UNL A   1      28.837  29.970  22.790  1.00  0.00    -0.051 A 
ATOM     32  C   UNL A   1      29.366  28.692  22.689  1.00  0.00     0.005 A 
ATOM     33  C   UNL A   1      29.430  30.841  23.704  1.00  0.00     0.005 A 
ATOM     34  C   UNL A   1      30.437  28.305  23.507  1.00  0.00     0.022 A 
ATOM     35  C   UNL A   1      30.547  30.442  24.485  1.00  0.00     0.022 A 
ENDBRANCH  26  29
ENDBRANCH  18  26
ENDBRANCH  15  17
ENDBRANCH  12  15
ENDBRANCH  10  11
BRANCH  10  36
ATOM     36  C   UNL A   1      34.416  21.218  24.535  1.00  0.00     0.072 C 
BRANCH  36  37
ATOM     37  C   UNL A   1      33.768  19.858  24.435  1.00  0.00    -0.020 A 
ATOM     38  C   UNL A   1      32.413  19.634  24.233  1.00  0.00     0.087 A 
ATOM     39  C   UNL A   1      34.369  18.554  24.567  1.00  0.00     0.003 A 
ATOM     40  N   UNL A   1      32.162  18.293  24.366  1.00  0.00    -0.361 N 
ATOM     41  C   UNL A   1      33.325  17.630  24.685  1.00  0.00     0.046 A 
ATOM     42  C   UNL A   1      35.686  18.084  24.746  1.00  0.00     0.010 A 
ATOM     43  H   UNL A   1      31.282  17.867  24.251  1.00  0.00     0.166 HD
ATOM     44  C   UNL A   1      33.519  16.307  25.099  1.00  0.00     0.026 A 
ATOM     45  C   UNL A   1      35.898  16.769  25.180  1.00  0.00     0.001 A 
ATOM     46  C   UNL A   1      34.826  15.904  25.381  1.00  0.00     0.002 A 
ENDBRANCH  36  37
ENDBRANCH  10  36
ENDBRANCH   7  10
ENDBRANCH   5   6
ENDBRANCH   1   5
BRANCH   3  47
ATOM     47  C   UNL A   1      40.476  19.293  26.098  1.00  0.00     0.116 C 
BRANCH  47  48
ATOM     48  C   UNL A   1      41.799  18.558  25.888  1.00  0.00     0.023 C 
BRANCH  48  49
ATOM     49  C   UNL A   1      43.026  19.419  26.177  1.00  0.00     0.023 C 
BRANCH  49  50
ATOM     50  C   UNL A   1      43.957  19.540  24.987  1.00  0.00     0.116 C 
BRANCH  50  51
ATOM     51  N   UNL A   1      45.214  20.195  25.257  1.00  0.00    -0.352 N 
ATOM     52  C   UNL A   1      45.515  21.554  25.331  1.00  0.00     0.251 C 
ATOM     53  H   UNL A   1      45.974  19.591  25.414  1.00  0.00     0.163 HD
ATOM     54  O   UNL A   1      46.665  21.891  25.383  1.00  0.00    -0.269 OA
BRANCH  52  55
ATOM     55  C   UNL A   1      44.424  22.569  25.546  1.00  0.00     0.039 A 
ATOM     56  C   UNL A   1      44.508  23.730  24.769  1.00  0.00     0.014 A 
ATOM     57  C   UNL A   1      43.619  22.586  26.673  1.00  0.00     0.014 A 
ATOM     58  C   UNL A   1      44.120  24.943  25.324  1.00  0.00     0.010 A 
ATOM     59  C   UNL A   1      43.400  23.784  27.305  1.00  0.00     0.010 A 
ATOM     60  C   UNL A   1      43.755  24.962  26.660  1.00  0.00    -0.014 A 
BRANCH  60  61
ATOM     61  C   UNL A   1      43.634  26.154  27.470  1.00  0.00     0.031 A 
ATOM     62  C   UNL A   1      42.407  26.942  27.351  1.00  0.00     0.074 A 
ATOM     63  C   UNL A   1      44.573  26.398  28.411  1.00  0.00     0.049 A 
ATOM     64  N   UNL A   1      42.250  28.136  27.796  1.00  0.00    -0.248 NA
ATOM     65  C   UNL A   1      41.245  26.427  26.636  1.00  0.00     0.031 C 
ATOM     66  C   UNL A   1      44.540  27.355  29.515  1.00  0.00     0.029 A 
ATOM     67  N   UNL A   1      45.928  26.062  28.299  1.00  0.00    -0.354 N 
ATOM     68  C   UNL A   1      40.898  28.398  27.752  1.00  0.00     0.074 A 
ATOM     69  C   UNL A   1      40.355  27.386  26.885  1.00  0.00     0.031 C 
ATOM     70  C   UNL A   1      45.793  27.799  29.730  1.00  0.00     0.029 A 
ATOM     71  C   UNL A   1      46.583  27.271  28.630  1.00  0.00     0.049 A 
ATOM     72  H   UNL A   1      46.328  25.197  28.052  1.00  0.00     0.167 HD
ATOM     73  C   UNL A   1      40.399  29.316  28.627  1.00  0.00     0.037 A 
ATOM     74  C   UNL A   1      47.147  28.044  27.650  1.00  0.00     0.037 A 
ATOM     75  C   UNL A   1      41.493  30.071  29.239  1.00  0.00     0.049 A 
ATOM     76  C   UNL A   1      46.791  29.481  27.718  1.00  0.00     0.074 A 
ATOM     77  C   UNL A   1      42.144  29.969  30.458  1.00  0.00     0.029 A 
ATOM     78  N   UNL A   1      42.291  30.871  28.429  1.00  0.00    -0.354 N 
ATOM     79  N   UNL A   1      45.590  29.893  27.992  1.00  0.00    -0.248 NA
ATOM     80  C   UNL A   1      47.761  30.558  27.561  1.00  0.00     0.031 C 
ATOM     81  C   UNL A   1      43.383  30.652  30.349  1.00  0.00     0.029 A 
ATOM     82  C   UNL A   1      43.466  31.186  29.075  1.00  0.00     0.049 A 
ATOM     83  H   UNL A   1      42.050  31.170  27.524  1.00  0.00     0.167 HD
ATOM     84  C   UNL A   1      45.613  31.257  28.084  1.00  0.00     0.074 A 
ATOM     85  C   UNL A   1      46.986  31.630  27.799  1.00  0.00     0.031 C 
ATOM     86  C   UNL A   1      44.492  31.961  28.399  1.00  0.00     0.037 A 
BRANCH  73  87
ATOM     87  C   UNL A   1      38.983  29.311  29.172  1.00  0.00     0.057 A 
ATOM     88  C   UNL A   1      37.919  29.758  28.360  1.00  0.00     0.134 A 
ATOM     89  C   UNL A   1      38.594  28.992  30.485  1.00  0.00     0.134 A 
ATOM     90  F   UNL A   1      38.089  30.036  27.061  1.00  0.00    -0.206 F 
ATOM     91  C   UNL A   1      36.616  29.955  28.838  1.00  0.00     0.040 A 
ATOM     92  C   UNL A   1      37.299  29.200  30.982  1.00  0.00     0.040 A 
ATOM     93  F   UNL A   1      39.421  28.431  31.367  1.00  0.00    -0.206 F 
ATOM     94  C   UNL A   1      36.304  29.697  30.161  1.00  0.00     0.006 A 
ENDBRANCH  73  87
BRANCH  74  95
ATOM     95  C   UNL A   1      47.444  27.288  26.412  1.00  0.00     0.057 A 
ATOM     96  C   UNL A   1      46.671  27.667  25.316  1.00  0.00     0.134 A 
ATOM     97  C   UNL A   1      48.520  26.455  26.150  1.00  0.00     0.134 A 
ATOM     98  F   UNL A   1      45.447  28.116  25.619  1.00  0.00    -0.206 F 
ATOM     99  C   UNL A   1      47.017  27.406  23.988  1.00  0.00     0.040 A 
ATOM    100  C   UNL A   1      48.836  26.085  24.830  1.00  0.00     0.040 A 
ATOM    101  F   UNL A   1      49.313  26.024  27.138  1.00  0.00    -0.206 F 
ATOM    102  C   UNL A   1      48.121  26.606  23.744  1.00  0.00     0.006 A 
ENDBRANCH  74  95
BRANCH  86 103
ATOM    103  C   UNL A   1      44.274  33.427  28.148  1.00  0.00     0.057 A 
ATOM    104  C   UNL A   1      44.377  34.418  29.136  1.00  0.00     0.134 A 
ATOM    105  C   UNL A   1      44.147  33.909  26.826  1.00  0.00     0.134 A 
ATOM    106  F   UNL A   1      44.608  34.115  30.420  1.00  0.00    -0.206 F 
ATOM    107  C   UNL A   1      44.320  35.784  28.838  1.00  0.00     0.040 A 
ATOM    108  C   UNL A   1      44.147  35.269  26.512  1.00  0.00     0.040 A 
ATOM    109  F   UNL A   1      44.060  33.079  25.775  1.00  0.00    -0.206 F 
ATOM    110  C   UNL A   1      44.224  36.214  27.522  1.00  0.00     0.006 A 
ENDBRANCH  86 103
ENDBRANCH  60  61
ENDBRANCH  52  55
ENDBRANCH  50  51
ENDBRANCH  49  50
ENDBRANCH  48  49
ENDBRANCH  47  48
ENDBRANCH   3  47
TORSDOF 20
ENDMDL
MODEL 3
REMARK VINA RESULT:     -12.5      2.091      3.095
REMARK SMILES Cc1ccc(S(=O)(=O)n2cc(C(=O)C(=O)N[C@@H](Cc3c[nH]c4ccccc34)C(=O)NCC(=O)NCCCCNC(=O)c3ccc(-c4c5nc(c(-c6c(F)cccc6F)c6ccc([nH]6)c(-c6c(F)cccc6F)c6nc(c(-c7c(F)cccc7F)c7ccc4[nH]7)C=C6)C=C5)cc3)c3ccccc32)cc1
REMARK SMILES IDX 32 1 33 2 34 3 31 5 30 6 28 7 29 8 17 10 16 11 14 12 15 13
REMARK SMILES IDX 12 15 13 16 11 17 9 18 10 19 101 20 96 21 100 22 97 23 99 24
REMARK SMILES IDX 98 25 6 26 7 27 8 28 5 29 1 30 2 31 3 32 103 33 4 34 102 35
REMARK SMILES IDX 18 36 19 37 20 38 27 39 21 40 22 41 26 42 23 44 25 45 24 46
REMARK SMILES IDX 35 47 36 48 37 49 38 50 39 51 40 52 41 54 42 55 43 56 95 57
REMARK SMILES IDX 44 58 94 59 45 60 46 61 47 62 88 63 48 64 93 65 87 66 89 67
REMARK SMILES IDX 49 68 92 69 86 70 85 71 50 73 76 74 59 75 75 76 60 77 63 78
REMARK SMILES IDX 74 79 90 80 61 81 62 82 73 84 91 85 64 86 51 87 52 88 57 89
REMARK SMILES IDX 53 90 54 91 56 92 58 93 55 94 77 95 78 96 83 97 79 98 80 99
REMARK SMILES IDX 82 100 84 101 81 102 65 103 66 104 71 105 67 106 68 107
REMARK SMILES IDX 70 108 72 109 69 110
REMARK H PARENT 34 4 30 9 16 14 21 43 39 53 89 72 63 83
REMARK Flexibility Score: inf
ROOT
ATOM      1  C   UNL A   1      36.194  23.046  25.338  1.00  0.00     0.239 C 
ATOM      2  O   UNL A   1      35.530  23.859  25.982  1.00  0.00    -0.273 OA
ATOM      3  N   UNL A   1      37.317  22.514  25.907  1.00  0.00    -0.355 N 
ATOM      4  H   UNL A   1      37.536  22.821  26.816  1.00  0.00     0.163 HD
ENDROOT
BRANCH   1   5
ATOM      5  C   UNL A   1      35.692  22.446  24.022  1.00  0.00     0.216 C 
BRANCH   5   6
ATOM      6  N   UNL A   1      34.400  22.840  23.491  1.00  0.00    -0.345 N 
ATOM      7  C   UNL A   1      33.130  22.533  23.881  1.00  0.00     0.243 C 
ATOM      8  O   UNL A   1      32.254  23.271  23.409  1.00  0.00    -0.273 OA
ATOM      9  H   UNL A   1      34.450  23.437  22.708  1.00  0.00     0.164 HD
BRANCH   7  10
ATOM     10  C   UNL A   1      32.713  21.373  24.859  1.00  0.00     0.176 C 
BRANCH  10  11
ATOM     11  N   UNL A   1      31.590  21.665  25.791  1.00  0.00    -0.337 N 
ATOM     12  C   UNL A   1      31.234  22.818  26.507  1.00  0.00     0.293 C 
ATOM     13  O   UNL A   1      30.248  22.773  27.242  1.00  0.00    -0.265 OA
ATOM     14  H   UNL A   1      30.982  20.903  25.934  1.00  0.00     0.164 HD
BRANCH  12  15
ATOM     15  C   UNL A   1      31.999  24.155  26.347  1.00  0.00     0.252 C 
ATOM     16  O   UNL A   1      33.133  24.160  26.826  1.00  0.00    -0.283 OA
BRANCH  15  17
ATOM     17  C   UNL A   1      31.439  25.391  25.713  1.00  0.00     0.054 A 
ATOM     18  N   UNL A   1      30.068  27.098  24.942  1.00  0.00    -0.240 N 
ATOM     19  C   UNL A   1      30.130  25.764  25.386  1.00  0.00     0.117 A 
ATOM     20  C   UNL A   1      31.408  27.554  25.017  1.00  0.00     0.065 A 
ATOM     21  C   UNL A   1      32.228  26.429  25.142  1.00  0.00     0.012 A 
ATOM     22  C   UNL A   1      31.972  28.821  24.770  1.00  0.00     0.028 A 
ATOM     23  C   UNL A   1      33.581  26.536  24.760  1.00  0.00     0.011 A 
ATOM     24  C   UNL A   1      33.290  28.889  24.328  1.00  0.00     0.002 A 
ATOM     25  C   UNL A   1      34.072  27.749  24.272  1.00  0.00     0.001 A 
BRANCH  18  26
ATOM     26  S   UNL A   1      29.201  27.859  23.537  1.00  0.00     0.268 S 
ATOM     27  O   UNL A   1      27.929  27.155  23.561  1.00  0.00    -0.201 OA
ATOM     28  O   UNL A   1      30.192  27.582  22.501  1.00  0.00    -0.201 OA
BRANCH  26  29
ATOM     29  C   UNL A   1      28.773  29.504  22.959  1.00  0.00     0.088 A 
ATOM     30  C   UNL A   1      27.707  33.111  20.700  1.00  0.00     0.044 C 
ATOM     31  C   UNL A   1      28.079  31.885  21.483  1.00  0.00    -0.051 A 
ATOM     32  C   UNL A   1      28.891  30.915  20.914  1.00  0.00     0.005 A 
ATOM     33  C   UNL A   1      27.628  31.663  22.783  1.00  0.00     0.005 A 
ATOM     34  C   UNL A   1      29.208  29.751  21.630  1.00  0.00     0.022 A 
ATOM     35  C   UNL A   1      28.004  30.502  23.507  1.00  0.00     0.022 A 
ENDBRANCH  26  29
ENDBRANCH  18  26
ENDBRANCH  15  17
ENDBRANCH  12  15
ENDBRANCH  10  11
BRANCH  10  36
ATOM     36  C   UNL A   1      32.647  19.949  24.215  1.00  0.00     0.072 C 
BRANCH  36  37
ATOM     37  C   UNL A   1      33.618  18.878  24.652  1.00  0.00    -0.020 A 
ATOM     38  C   UNL A   1      35.000  19.005  24.643  1.00  0.00     0.087 A 
ATOM     39  C   UNL A   1      33.346  17.536  25.105  1.00  0.00     0.003 A 
ATOM     40  N   UNL A   1      35.557  17.787  24.939  1.00  0.00    -0.361 N 
ATOM     41  C   UNL A   1      34.565  16.850  25.110  1.00  0.00     0.046 A 
ATOM     42  C   UNL A   1      32.174  16.798  25.368  1.00  0.00     0.010 A 
ATOM     43  H   UNL A   1      36.522  17.610  25.017  1.00  0.00     0.166 HD
ATOM     44  C   UNL A   1      34.657  15.458  25.231  1.00  0.00     0.026 A 
ATOM     45  C   UNL A   1      32.245  15.403  25.471  1.00  0.00     0.001 A 
ATOM     46  C   UNL A   1      33.467  14.742  25.374  1.00  0.00     0.002 A 
ENDBRANCH  36  37
ENDBRANCH  10  36
ENDBRANCH   7  10
ENDBRANCH   5   6
ENDBRANCH   1   5
BRANCH   3  47
ATOM     47  C   UNL A   1      38.212  21.549  25.317  1.00  0.00     0.116 C 
BRANCH  47  48
ATOM     48  C   UNL A   1      39.163  20.949  26.350  1.00  0.00     0.023 C 
BRANCH  48  49
ATOM     49  C   UNL A   1      40.152  19.946  25.759  1.00  0.00     0.023 C 
BRANCH  49  50
ATOM     50  C   UNL A   1      41.238  19.541  26.735  1.00  0.00     0.116 C 
BRANCH  50  51
ATOM     51  N   UNL A   1      42.545  20.083  26.456  1.00  0.00    -0.352 N 
ATOM     52  C   UNL A   1      42.948  21.409  26.304  1.00  0.00     0.251 C 
ATOM     53  H   UNL A   1      43.262  19.416  26.357  1.00  0.00     0.163 HD
ATOM     54  O   UNL A   1      44.050  21.636  25.888  1.00  0.00    -0.269 OA
BRANCH  52  55
ATOM     55  C   UNL A   1      42.100  22.532  26.838  1.00  0.00     0.039 A 
ATOM     56  C   UNL A   1      41.915  23.620  25.978  1.00  0.00     0.014 A 
ATOM     57  C   UNL A   1      41.838  22.705  28.188  1.00  0.00     0.014 A 
ATOM     58  C   UNL A   1      41.857  24.902  26.513  1.00  0.00     0.010 A 
ATOM     59  C   UNL A   1      41.964  23.961  28.724  1.00  0.00     0.010 A 
ATOM     60  C   UNL A   1      42.081  25.051  27.873  1.00  0.00    -0.014 A 
BRANCH  60  61
ATOM     61  C   UNL A   1      42.371  26.306  28.532  1.00  0.00     0.031 A 
ATOM     62  C   UNL A   1      41.339  27.343  28.514  1.00  0.00     0.074 A 
ATOM     63  C   UNL A   1      43.499  26.408  29.267  1.00  0.00     0.049 A 
ATOM     64  N   UNL A   1      41.525  28.576  28.821  1.00  0.00    -0.248 NA
ATOM     65  C   UNL A   1      39.980  27.050  28.069  1.00  0.00     0.031 C 
ATOM     66  C   UNL A   1      43.878  27.439  30.231  1.00  0.00     0.029 A 
ATOM     67  N   UNL A   1      44.706  25.757  28.981  1.00  0.00    -0.354 N 
ATOM     68  C   UNL A   1      40.276  29.139  28.965  1.00  0.00     0.074 A 
ATOM     69  C   UNL A   1      39.378  28.208  28.334  1.00  0.00     0.031 C 
ATOM     70  C   UNL A   1      45.214  27.598  30.180  1.00  0.00     0.029 A 
ATOM     71  C   UNL A   1      45.653  26.806  29.043  1.00  0.00     0.049 A 
ATOM     72  H   UNL A   1      44.859  24.805  28.785  1.00  0.00     0.167 HD
ATOM     73  C   UNL A   1      40.157  30.221  29.785  1.00  0.00     0.037 A 
ATOM     74  C   UNL A   1      46.175  27.337  27.894  1.00  0.00     0.037 A 
ATOM     75  C   UNL A   1      41.481  30.753  30.108  1.00  0.00     0.049 A 
ATOM     76  C   UNL A   1      46.151  28.818  27.834  1.00  0.00     0.074 A 
ATOM     77  C   UNL A   1      42.312  30.611  31.209  1.00  0.00     0.029 A 
ATOM     78  N   UNL A   1      42.264  31.271  29.084  1.00  0.00    -0.354 N 
ATOM     79  N   UNL A   1      45.139  29.520  28.245  1.00  0.00    -0.248 NA
ATOM     80  C   UNL A   1      47.282  29.622  27.385  1.00  0.00     0.031 C 
ATOM     81  C   UNL A   1      43.625  30.975  30.812  1.00  0.00     0.029 A 
ATOM     82  C   UNL A   1      43.580  31.361  29.484  1.00  0.00     0.049 A 
ATOM     83  H   UNL A   1      41.927  31.537  28.199  1.00  0.00     0.167 HD
ATOM     84  C   UNL A   1      45.468  30.844  28.156  1.00  0.00     0.074 A 
ATOM     85  C   UNL A   1      46.811  30.861  27.606  1.00  0.00     0.031 C 
ATOM     86  C   UNL A   1      44.602  31.814  28.556  1.00  0.00     0.037 A 
BRANCH  73  87
ATOM     87  C   UNL A   1      38.900  30.593  30.548  1.00  0.00     0.057 A 
ATOM     88  C   UNL A   1      38.351  29.686  31.479  1.00  0.00     0.134 A 
ATOM     89  C   UNL A   1      38.120  31.749  30.362  1.00  0.00     0.134 A 
ATOM     90  F   UNL A   1      38.991  28.566  31.837  1.00  0.00    -0.206 F 
ATOM     91  C   UNL A   1      37.103  29.871  32.092  1.00  0.00     0.040 A 
ATOM     92  C   UNL A   1      36.864  31.941  30.954  1.00  0.00     0.040 A 
ATOM     93  F   UNL A   1      38.527  32.783  29.626  1.00  0.00    -0.206 F 
ATOM     94  C   UNL A   1      36.342  30.993  31.814  1.00  0.00     0.006 A 
ENDBRANCH  73  87
BRANCH  74  95
ATOM     95  C   UNL A   1      46.067  26.427  26.731  1.00  0.00     0.057 A 
ATOM     96  C   UNL A   1      47.019  25.409  26.717  1.00  0.00     0.134 A 
ATOM     97  C   UNL A   1      45.031  26.315  25.819  1.00  0.00     0.134 A 
ATOM     98  F   UNL A   1      48.187  25.721  27.291  1.00  0.00    -0.206 F 
ATOM     99  C   UNL A   1      46.889  24.229  25.980  1.00  0.00     0.040 A 
ATOM    100  C   UNL A   1      44.927  25.188  24.985  1.00  0.00     0.040 A 
ATOM    101  F   UNL A   1      44.076  27.251  25.745  1.00  0.00    -0.206 F 
ATOM    102  C   UNL A   1      45.822  24.117  25.104  1.00  0.00     0.006 A 
ENDBRANCH  74  95
BRANCH  86 103
ATOM    103  C   UNL A   1      44.657  33.262  28.158  1.00  0.00     0.057 A 
ATOM    104  C   UNL A   1      44.175  33.761  26.939  1.00  0.00     0.134 A 
ATOM    105  C   UNL A   1      45.027  34.244  29.104  1.00  0.00     0.134 A 
ATOM    106  F   UNL A   1      43.689  32.955  25.986  1.00  0.00    -0.206 F 
ATOM    107  C   UNL A   1      44.102  35.132  26.664  1.00  0.00     0.040 A 
ATOM    108  C   UNL A   1      44.904  35.613  28.861  1.00  0.00     0.040 A 
ATOM    109  F   UNL A   1      45.485  33.917  30.321  1.00  0.00    -0.206 F 
ATOM    110  C   UNL A   1      44.449  36.062  27.633  1.00  0.00     0.006 A 
ENDBRANCH  86 103
ENDBRANCH  60  61
ENDBRANCH  52  55
ENDBRANCH  50  51
ENDBRANCH  49  50
ENDBRANCH  48  49
ENDBRANCH  47  48
ENDBRANCH   3  47
TORSDOF 20
ENDMDL
