MODEL 1
REMARK VINA RESULT:     -11.6      0.000      0.000
REMARK SMILES Nc1cccc(CC(=O)N2CC(C(=O)NCCCCNC(=O)c3ccc(-c4c5nc(c(-c6c(F)cccc6F)c6ccc([nH]6)c(-c6c(F)cccc6F)c6nc(c(-c7c(F)cccc7F)c7ccc4[nH]7)C=C6)C=C5)cc3)C2)c1
REMARK SMILES IDX 17 1 16 2 15 3 13 4 14 5 12 7 8 8 9 9 10 10 11 11 77 12 7 13
REMARK SMILES IDX 6 14 2 15 3 16 78 17 4 18 5 19 1 20 18 23 19 24 20 25 21 26
REMARK SMILES IDX 22 28 23 29 24 30 76 31 25 32 75 33 26 34 27 35 28 36 69 37
REMARK SMILES IDX 29 38 74 39 68 40 70 41 30 42 73 43 67 44 66 45 31 47 57 48
REMARK SMILES IDX 40 49 56 50 41 51 44 52 55 53 71 54 42 55 43 56 54 58 72 59
REMARK SMILES IDX 45 60 32 61 33 62 38 63 34 64 35 65 37 66 39 67 36 68 58 69
REMARK SMILES IDX 59 70 64 71 60 72 61 73 63 74 65 75 62 76 46 77 47 78 52 79
REMARK SMILES IDX 48 80 49 81 51 82 53 83 50 84
REMARK H PARENT 15 6 1 21 1 22 20 27 70 46 44 57
REMARK Flexibility Score: inf
ROOT
ATOM      1  C   UNL A   1      31.685  30.552  25.940  1.00  0.00     0.023 C 
ENDROOT
BRANCH   1   2
ATOM      2  C   UNL A   1      32.326  29.538  26.887  1.00  0.00     0.116 C 
BRANCH   2   3
ATOM      3  N   UNL A   1      31.480  28.376  27.069  1.00  0.00    -0.356 N 
ATOM      4  C   UNL A   1      31.540  27.118  26.525  1.00  0.00     0.226 C 
ATOM      5  O   UNL A   1      30.629  26.348  26.867  1.00  0.00    -0.275 OA
ATOM      6  H   UNL A   1      30.730  28.514  27.691  1.00  0.00     0.163 HD
BRANCH   4   7
ATOM      7  C   UNL A   1      32.656  26.674  25.579  1.00  0.00     0.117 C 
ATOM      8  C   UNL A   1      33.543  25.202  22.650  1.00  0.00     0.227 C 
ATOM      9  O   UNL A   1      33.801  25.962  21.710  1.00  0.00    -0.275 OA
ATOM     10  N   UNL A   1      33.042  25.698  23.815  1.00  0.00    -0.341 N 
ATOM     11  C   UNL A   1      32.595  27.052  24.098  1.00  0.00     0.134 C 
ATOM     12  C   UNL A   1      32.853  25.211  25.164  1.00  0.00     0.134 C 
BRANCH   8  13
ATOM     13  C   UNL A   1      33.625  23.702  22.435  1.00  0.00     0.135 C 
BRANCH  13  14
ATOM     14  C   UNL A   1      34.570  22.893  23.283  1.00  0.00    -0.037 A 
ATOM     15  C   UNL A   1      34.918  21.102  24.910  1.00  0.00     0.032 A 
ATOM     16  C   UNL A   1      36.290  21.351  24.859  1.00  0.00     0.025 A 
ATOM     17  C   UNL A   1      34.067  21.899  24.141  1.00  0.00     0.029 A 
ATOM     18  C   UNL A   1      36.809  22.325  24.001  1.00  0.00     0.002 A 
ATOM     19  C   UNL A   1      35.953  23.089  23.208  1.00  0.00     0.004 A 
BRANCH  15  20
ATOM     20  N   UNL A   1      34.397  20.184  25.808  1.00  0.00    -0.399 N 
ATOM     21  H   UNL A   1      34.064  19.315  25.487  1.00  0.00     0.156 HD
ATOM     22  H   UNL A   1      34.360  20.401  26.768  1.00  0.00     0.156 HD
ENDBRANCH  15  20
ENDBRANCH  13  14
ENDBRANCH   8  13
ENDBRANCH   4   7
ENDBRANCH   2   3
ENDBRANCH   1   2
BRANCH   1  23
ATOM     23  C   UNL A   1      31.451  31.936  26.552  1.00  0.00     0.023 C 
BRANCH  23  24
ATOM     24  C   UNL A   1      32.659  32.553  27.249  1.00  0.00     0.116 C 
BRANCH  24  25
ATOM     25  N   UNL A   1      32.438  33.934  27.652  1.00  0.00    -0.352 N 
ATOM     26  C   UNL A   1      33.152  34.703  28.539  1.00  0.00     0.251 C 
ATOM     27  H   UNL A   1      31.669  34.380  27.229  1.00  0.00     0.163 HD
ATOM     28  O   UNL A   1      32.738  35.812  28.865  1.00  0.00    -0.269 OA
BRANCH  26  29
ATOM     29  C   UNL A   1      34.400  34.176  29.129  1.00  0.00     0.039 A 
ATOM     30  C   UNL A   1      34.332  33.461  30.327  1.00  0.00     0.014 A 
ATOM     31  C   UNL A   1      35.631  34.369  28.494  1.00  0.00     0.014 A 
ATOM     32  C   UNL A   1      35.486  32.875  30.849  1.00  0.00     0.010 A 
ATOM     33  C   UNL A   1      36.765  33.721  28.974  1.00  0.00     0.010 A 
ATOM     34  C   UNL A   1      36.704  32.965  30.156  1.00  0.00    -0.014 A 
BRANCH  34  35
ATOM     35  C   UNL A   1      37.922  32.269  30.645  1.00  0.00     0.031 A 
ATOM     36  C   UNL A   1      38.730  32.858  31.768  1.00  0.00     0.074 A 
ATOM     37  C   UNL A   1      38.336  31.141  30.035  1.00  0.00     0.049 A 
ATOM     38  N   UNL A   1      39.857  32.437  32.286  1.00  0.00    -0.248 NA
ATOM     39  C   UNL A   1      38.219  34.098  32.373  1.00  0.00     0.031 C 
ATOM     40  C   UNL A   1      37.666  30.493  28.907  1.00  0.00     0.029 A 
ATOM     41  N   UNL A   1      39.428  30.344  30.274  1.00  0.00    -0.354 N 
ATOM     42  C   UNL A   1      40.191  33.360  33.267  1.00  0.00     0.074 A 
ATOM     43  C   UNL A   1      39.181  34.396  33.233  1.00  0.00     0.031 C 
ATOM     44  C   UNL A   1      38.345  29.384  28.569  1.00  0.00     0.029 A 
ATOM     45  C   UNL A   1      39.520  29.266  29.426  1.00  0.00     0.049 A 
ATOM     46  H   UNL A   1      40.083  30.526  30.986  1.00  0.00     0.167 HD
ATOM     47  C   UNL A   1      41.229  33.336  34.136  1.00  0.00     0.037 A 
ATOM     48  C   UNL A   1      40.452  28.298  29.343  1.00  0.00     0.037 A 
ATOM     49  C   UNL A   1      42.224  32.296  34.179  1.00  0.00     0.049 A 
ATOM     50  C   UNL A   1      41.610  28.309  30.302  1.00  0.00     0.074 A 
ATOM     51  C   UNL A   1      43.289  32.158  35.052  1.00  0.00     0.029 A 
ATOM     52  N   UNL A   1      42.279  31.219  33.308  1.00  0.00    -0.354 N 
ATOM     53  N   UNL A   1      41.877  29.154  31.268  1.00  0.00    -0.248 NA
ATOM     54  C   UNL A   1      42.596  27.227  30.161  1.00  0.00     0.031 C 
ATOM     55  C   UNL A   1      44.016  31.023  34.679  1.00  0.00     0.029 A 
ATOM     56  C   UNL A   1      43.373  30.424  33.608  1.00  0.00     0.049 A 
ATOM     57  H   UNL A   1      41.636  31.046  32.583  1.00  0.00     0.167 HD
ATOM     58  C   UNL A   1      43.040  28.689  31.869  1.00  0.00     0.074 A 
ATOM     59  C   UNL A   1      43.419  27.480  31.169  1.00  0.00     0.031 C 
ATOM     60  C   UNL A   1      43.731  29.216  32.910  1.00  0.00     0.037 A 
BRANCH  47  61
ATOM     61  C   UNL A   1      41.336  34.468  35.117  1.00  0.00     0.057 A 
ATOM     62  C   UNL A   1      40.691  34.429  36.362  1.00  0.00     0.134 A 
ATOM     63  C   UNL A   1      42.120  35.593  34.833  1.00  0.00     0.134 A 
ATOM     64  F   UNL A   1      39.916  33.386  36.694  1.00  0.00    -0.206 F 
ATOM     65  C   UNL A   1      40.798  35.481  37.273  1.00  0.00     0.040 A 
ATOM     66  C   UNL A   1      42.258  36.638  35.749  1.00  0.00     0.040 A 
ATOM     67  F   UNL A   1      42.771  35.693  33.664  1.00  0.00    -0.206 F 
ATOM     68  C   UNL A   1      41.590  36.587  36.969  1.00  0.00     0.006 A 
ENDBRANCH  47  61
BRANCH  48  69
ATOM     69  C   UNL A   1      40.323  27.221  28.328  1.00  0.00     0.057 A 
ATOM     70  C   UNL A   1      40.944  27.329  27.078  1.00  0.00     0.134 A 
ATOM     71  C   UNL A   1      39.561  26.072  28.571  1.00  0.00     0.134 A 
ATOM     72  F   UNL A   1      41.672  28.415  26.778  1.00  0.00    -0.206 F 
ATOM     73  C   UNL A   1      40.792  26.347  26.097  1.00  0.00     0.040 A 
ATOM     74  C   UNL A   1      39.423  25.068  27.609  1.00  0.00     0.040 A 
ATOM     75  F   UNL A   1      38.947  25.902  29.751  1.00  0.00    -0.206 F 
ATOM     76  C   UNL A   1      40.032  25.210  26.364  1.00  0.00     0.006 A 
ENDBRANCH  48  69
BRANCH  60  77
ATOM     77  C   UNL A   1      44.941  28.464  33.383  1.00  0.00     0.057 A 
ATOM     78  C   UNL A   1      44.853  27.439  34.335  1.00  0.00     0.134 A 
ATOM     79  C   UNL A   1      46.206  28.745  32.851  1.00  0.00     0.134 A 
ATOM     80  F   UNL A   1      43.674  27.129  34.894  1.00  0.00    -0.206 F 
ATOM     81  C   UNL A   1      45.984  26.738  34.757  1.00  0.00     0.040 A 
ATOM     82  C   UNL A   1      47.339  28.031  33.243  1.00  0.00     0.040 A 
ATOM     83  F   UNL A   1      46.360  29.707  31.930  1.00  0.00    -0.206 F 
ATOM     84  C   UNL A   1      47.230  27.028  34.205  1.00  0.00     0.006 A 
ENDBRANCH  60  77
ENDBRANCH  34  35
ENDBRANCH  26  29
ENDBRANCH  24  25
ENDBRANCH  23  24
ENDBRANCH   1  23
TORSDOF 14
ENDMDL
MODEL 2
REMARK VINA RESULT:     -11.6      2.403      3.947
REMARK SMILES Nc1cccc(CC(=O)N2CC(C(=O)NCCCCNC(=O)c3ccc(-c4c5nc(c(-c6c(F)cccc6F)c6ccc([nH]6)c(-c6c(F)cccc6F)c6nc(c(-c7c(F)cccc7F)c7ccc4[nH]7)C=C6)C=C5)cc3)C2)c1
REMARK SMILES IDX 17 1 16 2 15 3 13 4 14 5 12 7 8 8 9 9 10 10 11 11 77 12 7 13
REMARK SMILES IDX 6 14 2 15 3 16 78 17 4 18 5 19 1 20 18 23 19 24 20 25 21 26
REMARK SMILES IDX 22 28 23 29 24 30 76 31 25 32 75 33 26 34 27 35 28 36 69 37
REMARK SMILES IDX 29 38 74 39 68 40 70 41 30 42 73 43 67 44 66 45 31 47 57 48
REMARK SMILES IDX 40 49 56 50 41 51 44 52 55 53 71 54 42 55 43 56 54 58 72 59
REMARK SMILES IDX 45 60 32 61 33 62 38 63 34 64 35 65 37 66 39 67 36 68 58 69
REMARK SMILES IDX 59 70 64 71 60 72 61 73 63 74 65 75 62 76 46 77 47 78 52 79
REMARK SMILES IDX 48 80 49 81 51 82 53 83 50 84
REMARK H PARENT 15 6 1 21 1 22 20 27 70 46 44 57
REMARK Flexibility Score: inf
ROOT
ATOM      1  C   UNL A   1      31.559  30.905  26.133  1.00  0.00     0.023 C 
ENDROOT
BRANCH   1   2
ATOM      2  C   UNL A   1      31.779  29.885  27.250  1.00  0.00     0.116 C 
BRANCH   2   3
ATOM      3  N   UNL A   1      33.190  29.691  27.517  1.00  0.00    -0.356 N 
ATOM      4  C   UNL A   1      34.103  28.822  26.975  1.00  0.00     0.226 C 
ATOM      5  O   UNL A   1      35.246  28.888  27.454  1.00  0.00    -0.275 OA
ATOM      6  H   UNL A   1      33.557  30.287  28.210  1.00  0.00     0.163 HD
BRANCH   4   7
ATOM      7  C   UNL A   1      33.757  27.850  25.848  1.00  0.00     0.117 C 
ATOM      8  C   UNL A   1      32.122  27.279  22.927  1.00  0.00     0.227 C 
ATOM      9  O   UNL A   1      32.794  27.374  21.894  1.00  0.00    -0.275 OA
ATOM     10  N   UNL A   1      32.658  27.629  24.128  1.00  0.00    -0.341 N 
ATOM     11  C   UNL A   1      33.932  28.279  24.391  1.00  0.00     0.134 C 
ATOM     12  C   UNL A   1      32.315  27.444  25.522  1.00  0.00     0.134 C 
BRANCH   8  13
ATOM     13  C   UNL A   1      30.647  26.936  22.823  1.00  0.00     0.135 C 
BRANCH  13  14
ATOM     14  C   UNL A   1      29.638  28.054  22.805  1.00  0.00    -0.037 A 
ATOM     15  C   UNL A   1      29.108  30.392  22.328  1.00  0.00     0.032 A 
ATOM     16  C   UNL A   1      27.793  30.154  22.732  1.00  0.00     0.025 A 
ATOM     17  C   UNL A   1      30.026  29.342  22.397  1.00  0.00     0.029 A 
ATOM     18  C   UNL A   1      27.387  28.877  23.126  1.00  0.00     0.002 A 
ATOM     19  C   UNL A   1      28.303  27.827  23.154  1.00  0.00     0.004 A 
BRANCH  15  20
ATOM     20  N   UNL A   1      29.528  31.672  22.001  1.00  0.00    -0.399 N 
ATOM     21  H   UNL A   1      29.752  32.314  22.715  1.00  0.00     0.156 HD
ATOM     22  H   UNL A   1      29.603  31.940  21.058  1.00  0.00     0.156 HD
ENDBRANCH  15  20
ENDBRANCH  13  14
ENDBRANCH   8  13
ENDBRANCH   4   7
ENDBRANCH   2   3
ENDBRANCH   1   2
BRANCH   1  23
ATOM     23  C   UNL A   1      31.403  32.351  26.612  1.00  0.00     0.023 C 
BRANCH  23  24
ATOM     24  C   UNL A   1      32.645  32.963  27.251  1.00  0.00     0.116 C 
BRANCH  24  25
ATOM     25  N   UNL A   1      32.432  34.327  27.713  1.00  0.00    -0.352 N 
ATOM     26  C   UNL A   1      33.070  35.009  28.721  1.00  0.00     0.251 C 
ATOM     27  H   UNL A   1      31.734  34.831  27.237  1.00  0.00     0.163 HD
ATOM     28  O   UNL A   1      32.665  36.115  29.068  1.00  0.00    -0.269 OA
BRANCH  26  29
ATOM     29  C   UNL A   1      34.222  34.394  29.411  1.00  0.00     0.039 A 
ATOM     30  C   UNL A   1      33.993  33.633  30.561  1.00  0.00     0.014 A 
ATOM     31  C   UNL A   1      35.521  34.548  28.918  1.00  0.00     0.014 A 
ATOM     32  C   UNL A   1      35.056  32.966  31.171  1.00  0.00     0.010 A 
ATOM     33  C   UNL A   1      36.565  33.822  29.482  1.00  0.00     0.010 A 
ATOM     34  C   UNL A   1      36.344  33.021  30.614  1.00  0.00    -0.014 A 
BRANCH  34  35
ATOM     35  C   UNL A   1      37.467  32.242  31.193  1.00  0.00     0.031 A 
ATOM     36  C   UNL A   1      37.992  32.575  32.562  1.00  0.00     0.074 A 
ATOM     37  C   UNL A   1      38.059  31.278  30.460  1.00  0.00     0.049 A 
ATOM     38  N   UNL A   1      39.007  32.056  33.208  1.00  0.00    -0.248 NA
ATOM     39  C   UNL A   1      37.301  33.648  33.294  1.00  0.00     0.031 C 
ATOM     40  C   UNL A   1      37.674  30.889  29.102  1.00  0.00     0.029 A 
ATOM     41  N   UNL A   1      39.118  30.454  30.753  1.00  0.00    -0.354 N 
ATOM     42  C   UNL A   1      39.079  32.744  34.412  1.00  0.00     0.074 A 
ATOM     43  C   UNL A   1      38.046  33.756  34.384  1.00  0.00     0.031 C 
ATOM     44  C   UNL A   1      38.466  29.886  28.690  1.00  0.00     0.029 A 
ATOM     45  C   UNL A   1      39.441  29.590  29.734  1.00  0.00     0.049 A 
ATOM     46  H   UNL A   1      39.599  30.480  31.610  1.00  0.00     0.167 HD
ATOM     47  C   UNL A   1      39.913  32.536  35.459  1.00  0.00     0.037 A 
ATOM     48  C   UNL A   1      40.420  28.669  29.648  1.00  0.00     0.037 A 
ATOM     49  C   UNL A   1      40.931  31.518  35.492  1.00  0.00     0.049 A 
ATOM     50  C   UNL A   1      41.351  28.476  30.814  1.00  0.00     0.074 A 
ATOM     51  C   UNL A   1      41.796  31.197  36.523  1.00  0.00     0.029 A 
ATOM     52  N   UNL A   1      41.223  30.659  34.444  1.00  0.00    -0.354 N 
ATOM     53  N   UNL A   1      41.366  29.090  31.972  1.00  0.00    -0.248 NA
ATOM     54  C   UNL A   1      42.400  27.458  30.660  1.00  0.00     0.031 C 
ATOM     55  C   UNL A   1      42.644  30.177  36.082  1.00  0.00     0.029 A 
ATOM     56  C   UNL A   1      42.271  29.823  34.795  1.00  0.00     0.049 A 
ATOM     57  H   UNL A   1      40.756  30.645  33.577  1.00  0.00     0.167 HD
ATOM     58  C   UNL A   1      42.400  28.511  32.696  1.00  0.00     0.074 A 
ATOM     59  C   UNL A   1      42.980  27.487  31.852  1.00  0.00     0.031 C 
ATOM     60  C   UNL A   1      42.831  28.800  33.949  1.00  0.00     0.037 A 
BRANCH  47  61
ATOM     61  C   UNL A   1      39.753  33.425  36.658  1.00  0.00     0.057 A 
ATOM     62  C   UNL A   1      40.453  34.633  36.779  1.00  0.00     0.134 A 
ATOM     63  C   UNL A   1      38.865  33.089  37.688  1.00  0.00     0.134 A 
ATOM     64  F   UNL A   1      41.329  35.010  35.835  1.00  0.00    -0.206 F 
ATOM     65  C   UNL A   1      40.298  35.460  37.893  1.00  0.00     0.040 A 
ATOM     66  C   UNL A   1      38.679  33.922  38.793  1.00  0.00     0.040 A 
ATOM     67  F   UNL A   1      38.157  31.951  37.634  1.00  0.00    -0.206 F 
ATOM     68  C   UNL A   1      39.402  35.107  38.901  1.00  0.00     0.006 A 
ENDBRANCH  47  61
BRANCH  48  69
ATOM     69  C   UNL A   1      40.563  27.841  28.424  1.00  0.00     0.057 A 
ATOM     70  C   UNL A   1      39.946  26.588  28.324  1.00  0.00     0.134 A 
ATOM     71  C   UNL A   1      41.333  28.267  27.335  1.00  0.00     0.134 A 
ATOM     72  F   UNL A   1      39.210  26.115  29.341  1.00  0.00    -0.206 F 
ATOM     73  C   UNL A   1      40.111  25.778  27.199  1.00  0.00     0.040 A 
ATOM     74  C   UNL A   1      41.483  27.480  26.192  1.00  0.00     0.040 A 
ATOM     75  F   UNL A   1      41.943  29.461  27.363  1.00  0.00    -0.206 F 
ATOM     76  C   UNL A   1      40.879  26.226  26.126  1.00  0.00     0.006 A 
ENDBRANCH  48  69
BRANCH  60  77
ATOM     77  C   UNL A   1      43.953  27.970  34.500  1.00  0.00     0.057 A 
ATOM     78  C   UNL A   1      45.293  28.368  34.392  1.00  0.00     0.134 A 
ATOM     79  C   UNL A   1      43.687  26.775  35.179  1.00  0.00     0.134 A 
ATOM     80  F   UNL A   1      45.618  29.496  33.742  1.00  0.00    -0.206 F 
ATOM     81  C   UNL A   1      46.327  27.594  34.920  1.00  0.00     0.040 A 
ATOM     82  C   UNL A   1      44.710  26.008  35.737  1.00  0.00     0.040 A 
ATOM     83  F   UNL A   1      42.427  26.341  35.326  1.00  0.00    -0.206 F 
ATOM     84  C   UNL A   1      46.037  26.414  35.602  1.00  0.00     0.006 A 
ENDBRANCH  60  77
ENDBRANCH  34  35
ENDBRANCH  26  29
ENDBRANCH  24  25
ENDBRANCH  23  24
ENDBRANCH   1  23
TORSDOF 14
ENDMDL
MODEL 3
REMARK VINA RESULT:     -11.4      4.323      9.780
REMARK SMILES Nc1cccc(CC(=O)N2CC(C(=O)NCCCCNC(=O)c3ccc(-c4c5nc(c(-c6c(F)cccc6F)c6ccc([nH]6)c(-c6c(F)cccc6F)c6nc(c(-c7c(F)cccc7F)c7ccc4[nH]7)C=C6)C=C5)cc3)C2)c1
REMARK SMILES IDX 17 1 16 2 15 3 13 4 14 5 12 7 8 8 9 9 10 10 11 11 77 12 7 13
REMARK SMILES IDX 6 14 2 15 3 16 78 17 4 18 5 19 1 20 18 23 19 24 20 25 21 26
REMARK SMILES IDX 22 28 23 29 24 30 76 31 25 32 75 33 26 34 27 35 28 36 69 37
REMARK SMILES IDX 29 38 74 39 68 40 70 41 30 42 73 43 67 44 66 45 31 47 57 48
REMARK SMILES IDX 40 49 56 50 41 51 44 52 55 53 71 54 42 55 43 56 54 58 72 59
REMARK SMILES IDX 45 60 32 61 33 62 38 63 34 64 35 65 37 66 39 67 36 68 58 69
REMARK SMILES IDX 59 70 64 71 60 72 61 73 63 74 65 75 62 76 46 77 47 78 52 79
REMARK SMILES IDX 48 80 49 81 51 82 53 83 50 84
REMARK H PARENT 15 6 1 21 1 22 20 27 70 46 44 57
REMARK Flexibility Score: inf
ROOT
ATOM      1  C   UNL A   1      37.074  20.676  24.978  1.00  0.00     0.023 C 
ENDROOT
BRANCH   1   2
ATOM      2  C   UNL A   1      37.037  22.193  24.798  1.00  0.00     0.116 C 
BRANCH   2   3
ATOM      3  N   UNL A   1      36.253  22.568  23.640  1.00  0.00    -0.356 N 
ATOM      4  C   UNL A   1      35.098  23.300  23.527  1.00  0.00     0.226 C 
ATOM      5  O   UNL A   1      34.654  23.417  22.374  1.00  0.00    -0.275 OA
ATOM      6  H   UNL A   1      36.611  22.240  22.783  1.00  0.00     0.163 HD
BRANCH   4   7
ATOM      7  C   UNL A   1      34.405  23.949  24.725  1.00  0.00     0.117 C 
ATOM      8  C   UNL A   1      31.523  24.549  26.418  1.00  0.00     0.227 C 
ATOM      9  O   UNL A   1      31.290  23.813  27.383  1.00  0.00    -0.275 OA
ATOM     10  N   UNL A   1      32.579  24.292  25.598  1.00  0.00    -0.341 N 
ATOM     11  C   UNL A   1      33.449  23.127  25.590  1.00  0.00     0.134 C 
ATOM     12  C   UNL A   1      33.304  25.005  24.569  1.00  0.00     0.134 C 
BRANCH   8  13
ATOM     13  C   UNL A   1      30.526  25.634  26.055  1.00  0.00     0.135 C 
BRANCH  13  14
ATOM     14  C   UNL A   1      31.004  27.057  25.941  1.00  0.00    -0.037 A 
ATOM     15  C   UNL A   1      31.235  29.091  24.605  1.00  0.00     0.032 A 
ATOM     16  C   UNL A   1      31.856  29.709  25.691  1.00  0.00     0.025 A 
ATOM     17  C   UNL A   1      30.841  27.758  24.733  1.00  0.00     0.029 A 
ATOM     18  C   UNL A   1      32.014  29.033  26.904  1.00  0.00     0.002 A 
ATOM     19  C   UNL A   1      31.582  27.714  27.033  1.00  0.00     0.004 A 
BRANCH  15  20
ATOM     20  N   UNL A   1      31.139  29.737  23.382  1.00  0.00    -0.399 N 
ATOM     21  H   UNL A   1      31.954  30.042  22.921  1.00  0.00     0.156 HD
ATOM     22  H   UNL A   1      30.256  29.892  22.975  1.00  0.00     0.156 HD
ENDBRANCH  15  20
ENDBRANCH  13  14
ENDBRANCH   8  13
ENDBRANCH   4   7
ENDBRANCH   2   3
ENDBRANCH   1   2
BRANCH   1  23
ATOM     23  C   UNL A   1      38.462  20.048  24.820  1.00  0.00     0.023 C 
BRANCH  23  24
ATOM     24  C   UNL A   1      39.250  19.873  26.114  1.00  0.00     0.116 C 
BRANCH  24  25
ATOM     25  N   UNL A   1      40.331  18.907  25.993  1.00  0.00    -0.352 N 
ATOM     26  C   UNL A   1      41.688  19.111  26.072  1.00  0.00     0.251 C 
ATOM     27  H   UNL A   1      40.052  17.977  25.833  1.00  0.00     0.163 HD
ATOM     28  O   UNL A   1      42.465  18.197  25.808  1.00  0.00    -0.269 OA
BRANCH  26  29
ATOM     29  C   UNL A   1      42.211  20.442  26.440  1.00  0.00     0.039 A 
ATOM     30  C   UNL A   1      42.639  21.304  25.427  1.00  0.00     0.014 A 
ATOM     31  C   UNL A   1      42.260  20.850  27.777  1.00  0.00     0.014 A 
ATOM     32  C   UNL A   1      43.047  22.599  25.748  1.00  0.00     0.010 A 
ATOM     33  C   UNL A   1      42.593  22.165  28.087  1.00  0.00     0.010 A 
ATOM     34  C   UNL A   1      42.988  23.055  27.075  1.00  0.00    -0.014 A 
BRANCH  34  35
ATOM     35  C   UNL A   1      43.326  24.458  27.424  1.00  0.00     0.031 A 
ATOM     36  C   UNL A   1      44.759  24.911  27.435  1.00  0.00     0.074 A 
ATOM     37  C   UNL A   1      42.347  25.308  27.793  1.00  0.00     0.049 A 
ATOM     38  N   UNL A   1      45.258  26.073  27.778  1.00  0.00    -0.248 NA
ATOM     39  C   UNL A   1      45.770  23.921  27.031  1.00  0.00     0.031 C 
ATOM     40  C   UNL A   1      40.922  24.980  27.866  1.00  0.00     0.029 A 
ATOM     41  N   UNL A   1      42.404  26.623  28.186  1.00  0.00    -0.354 N 
ATOM     42  C   UNL A   1      46.634  25.950  27.640  1.00  0.00     0.074 A 
ATOM     43  C   UNL A   1      46.897  24.585  27.240  1.00  0.00     0.031 C 
ATOM     44  C   UNL A   1      40.238  26.070  28.253  1.00  0.00     0.029 A 
ATOM     45  C   UNL A   1      41.178  27.160  28.496  1.00  0.00     0.049 A 
ATOM     46  H   UNL A   1      43.244  27.133  28.240  1.00  0.00     0.167 HD
ATOM     47  C   UNL A   1      47.590  26.894  27.804  1.00  0.00     0.037 A 
ATOM     48  C   UNL A   1      40.848  28.389  28.936  1.00  0.00     0.037 A 
ATOM     49  C   UNL A   1      47.325  28.256  28.187  1.00  0.00     0.049 A 
ATOM     50  C   UNL A   1      41.933  29.411  29.138  1.00  0.00     0.074 A 
ATOM     51  C   UNL A   1      48.221  29.300  28.336  1.00  0.00     0.029 A 
ATOM     52  N   UNL A   1      46.069  28.762  28.486  1.00  0.00    -0.354 N 
ATOM     53  N   UNL A   1      43.224  29.299  28.940  1.00  0.00    -0.248 NA
ATOM     54  C   UNL A   1      41.512  30.735  29.621  1.00  0.00     0.031 C 
ATOM     55  C   UNL A   1      47.515  30.425  28.772  1.00  0.00     0.029 A 
ATOM     56  C   UNL A   1      46.170  30.098  28.841  1.00  0.00     0.049 A 
ATOM     57  H   UNL A   1      45.230  28.249  28.452  1.00  0.00     0.167 HD
ATOM     58  C   UNL A   1      43.764  30.543  29.242  1.00  0.00     0.074 A 
ATOM     59  C   UNL A   1      42.660  31.398  29.622  1.00  0.00     0.031 C 
ATOM     60  C   UNL A   1      45.060  30.941  29.206  1.00  0.00     0.037 A 
BRANCH  47  61
ATOM     61  C   UNL A   1      49.015  26.485  27.564  1.00  0.00     0.057 A 
ATOM     62  C   UNL A   1      49.829  26.006  28.600  1.00  0.00     0.134 A 
ATOM     63  C   UNL A   1      49.570  26.535  26.280  1.00  0.00     0.134 A 
ATOM     64  F   UNL A   1      49.364  25.942  29.857  1.00  0.00    -0.206 F 
ATOM     65  C   UNL A   1      51.152  25.621  28.372  1.00  0.00     0.040 A 
ATOM     66  C   UNL A   1      50.882  26.125  26.034  1.00  0.00     0.040 A 
ATOM     67  F   UNL A   1      48.845  26.976  25.241  1.00  0.00    -0.206 F 
ATOM     68  C   UNL A   1      51.678  25.674  27.083  1.00  0.00     0.006 A 
ENDBRANCH  47  61
BRANCH  48  69
ATOM     69  C   UNL A   1      39.428  28.734  29.198  1.00  0.00     0.057 A 
ATOM     70  C   UNL A   1      38.623  29.289  28.195  1.00  0.00     0.134 A 
ATOM     71  C   UNL A   1      38.846  28.541  30.457  1.00  0.00     0.134 A 
ATOM     72  F   UNL A   1      39.128  29.516  26.974  1.00  0.00    -0.206 F 
ATOM     73  C   UNL A   1      37.301  29.663  28.441  1.00  0.00     0.040 A 
ATOM     74  C   UNL A   1      37.516  28.884  30.708  1.00  0.00     0.040 A 
ATOM     75  F   UNL A   1      39.559  28.005  31.458  1.00  0.00    -0.206 F 
ATOM     76  C   UNL A   1      36.742  29.456  29.701  1.00  0.00     0.006 A 
ENDBRANCH  48  69
BRANCH  60  77
ATOM     77  C   UNL A   1      45.349  32.375  29.543  1.00  0.00     0.057 A 
ATOM     78  C   UNL A   1      45.679  32.779  30.843  1.00  0.00     0.134 A 
ATOM     79  C   UNL A   1      45.332  33.358  28.545  1.00  0.00     0.134 A 
ATOM     80  F   UNL A   1      45.700  31.891  31.848  1.00  0.00    -0.206 F 
ATOM     81  C   UNL A   1      45.958  34.114  31.142  1.00  0.00     0.040 A 
ATOM     82  C   UNL A   1      45.639  34.689  28.826  1.00  0.00     0.040 A 
ATOM     83  F   UNL A   1      45.033  33.037  27.278  1.00  0.00    -0.206 F 
ATOM     84  C   UNL A   1      45.947  35.072  30.130  1.00  0.00     0.006 A 
ENDBRANCH  60  77
ENDBRANCH  34  35
ENDBRANCH  26  29
ENDBRANCH  24  25
ENDBRANCH  23  24
ENDBRANCH   1  23
TORSDOF 14
ENDMDL
