MODEL 1
REMARK VINA RESULT:     -12.6      0.000      0.000
REMARK SMILES O=C(NCCCCNC(=O)c1cccc(CSc2nc(-c3ccccc3)n[nH]2)c1)c1ccc(-c2c3nc(c(-c4c(F)cccc4F)c4ccc([nH]4)c(-c4c(F)cccc4F)c4nc(c(-c5c(F)cccc5F)c5ccc2[nH]5)C=C4)C=C3)cc1
REMARK SMILES IDX 6 1 5 2 4 3 3 4 1 5 2 6 30 8 31 9 83 10 32 11 82 12 33 13
REMARK SMILES IDX 34 14 35 15 76 16 36 17 81 18 75 19 77 20 37 21 80 22 74 23
REMARK SMILES IDX 73 24 38 26 64 27 47 28 63 29 48 30 51 31 62 32 78 33 49 34
REMARK SMILES IDX 50 35 61 37 79 38 52 39 39 40 40 41 45 42 41 43 42 44 44 45
REMARK SMILES IDX 46 46 43 47 65 48 66 49 71 50 67 51 68 52 70 53 72 54 69 55
REMARK SMILES IDX 53 56 54 57 59 58 55 59 56 60 58 61 60 62 57 63 7 64 8 65
REMARK SMILES IDX 9 66 10 68 11 69 12 70 29 71 13 72 15 73 14 74 16 75 17 76
REMARK SMILES IDX 18 77 19 78 28 79 20 80 27 81 21 83 22 84 26 85 23 86 25 87
REMARK SMILES IDX 24 88
REMARK H PARENT 3 7 77 25 51 36 8 67 28 82
REMARK Flexibility Score: inf
ROOT
ATOM      1  C   UNL A   1      31.542  30.850  25.919  1.00  0.00     0.023 C 
ENDROOT
BRANCH   1   2
ATOM      2  C   UNL A   1      31.371  32.115  26.756  1.00  0.00     0.023 C 
BRANCH   2   3
ATOM      3  C   UNL A   1      32.666  32.803  27.162  1.00  0.00     0.116 C 
BRANCH   3   4
ATOM      4  N   UNL A   1      32.466  34.168  27.625  1.00  0.00    -0.352 N 
ATOM      5  O   UNL A   1      32.717  35.957  28.977  1.00  0.00    -0.269 OA
ATOM      6  C   UNL A   1      33.111  34.848  28.631  1.00  0.00     0.251 C 
ATOM      7  H   UNL A   1      31.770  34.676  27.150  1.00  0.00     0.163 HD
BRANCH   6   8
ATOM      8  C   UNL A   1      34.262  34.223  29.317  1.00  0.00     0.039 A 
ATOM      9  C   UNL A   1      35.568  34.533  28.934  1.00  0.00     0.014 A 
ATOM     10  C   UNL A   1      34.028  33.307  30.345  1.00  0.00     0.014 A 
ATOM     11  C   UNL A   1      36.630  33.814  29.467  1.00  0.00     0.010 A 
ATOM     12  C   UNL A   1      35.107  32.650  30.946  1.00  0.00     0.010 A 
ATOM     13  C   UNL A   1      36.414  32.874  30.488  1.00  0.00    -0.014 A 
BRANCH  13  14
ATOM     14  C   UNL A   1      37.580  32.190  31.101  1.00  0.00     0.031 A 
ATOM     15  C   UNL A   1      38.046  32.530  32.488  1.00  0.00     0.074 A 
ATOM     16  C   UNL A   1      38.201  31.227  30.395  1.00  0.00     0.049 A 
ATOM     17  N   UNL A   1      39.034  32.010  33.175  1.00  0.00    -0.248 NA
ATOM     18  C   UNL A   1      37.321  33.594  33.196  1.00  0.00     0.031 C 
ATOM     19  C   UNL A   1      37.844  30.817  29.035  1.00  0.00     0.029 A 
ATOM     20  N   UNL A   1      39.248  30.405  30.725  1.00  0.00    -0.354 N 
ATOM     21  C   UNL A   1      39.060  32.693  34.384  1.00  0.00     0.074 A 
ATOM     22  C   UNL A   1      38.006  33.684  34.328  1.00  0.00     0.031 C 
ATOM     23  C   UNL A   1      38.622  29.791  28.666  1.00  0.00     0.029 A 
ATOM     24  C   UNL A   1      39.574  29.512  29.734  1.00  0.00     0.049 A 
ATOM     25  H   UNL A   1      39.719  30.451  31.588  1.00  0.00     0.167 HD
ATOM     26  C   UNL A   1      39.884  32.503  35.443  1.00  0.00     0.037 A 
ATOM     27  C   UNL A   1      40.544  28.582  29.680  1.00  0.00     0.037 A 
ATOM     28  C   UNL A   1      40.923  31.506  35.496  1.00  0.00     0.049 A 
ATOM     29  C   UNL A   1      41.459  28.415  30.855  1.00  0.00     0.074 A 
ATOM     30  C   UNL A   1      41.783  31.210  36.540  1.00  0.00     0.029 A 
ATOM     31  N   UNL A   1      41.250  30.647  34.457  1.00  0.00    -0.354 N 
ATOM     32  N   UNL A   1      41.450  29.045  32.005  1.00  0.00    -0.248 NA
ATOM     33  C   UNL A   1      42.524  27.412  30.723  1.00  0.00     0.031 C 
ATOM     34  C   UNL A   1      42.660  30.205  36.115  1.00  0.00     0.029 A 
ATOM     35  C   UNL A   1      42.316  29.840  34.824  1.00  0.00     0.049 A 
ATOM     36  H   UNL A   1      40.792  30.615  33.586  1.00  0.00     0.167 HD
ATOM     37  C   UNL A   1      42.497  28.507  32.740  1.00  0.00     0.074 A 
ATOM     38  C   UNL A   1      43.106  27.484  31.912  1.00  0.00     0.031 C 
ATOM     39  C   UNL A   1      42.916  28.833  33.987  1.00  0.00     0.037 A 
BRANCH  26  40
ATOM     40  C   UNL A   1      39.709  33.409  36.629  1.00  0.00     0.057 A 
ATOM     41  C   UNL A   1      40.416  34.611  36.757  1.00  0.00     0.134 A 
ATOM     42  C   UNL A   1      38.792  33.090  37.640  1.00  0.00     0.134 A 
ATOM     43  F   UNL A   1      41.316  34.973  35.830  1.00  0.00    -0.206 F 
ATOM     44  C   UNL A   1      40.236  35.453  37.857  1.00  0.00     0.040 A 
ATOM     45  C   UNL A   1      38.586  33.934  38.733  1.00  0.00     0.040 A 
ATOM     46  F   UNL A   1      38.075  31.958  37.578  1.00  0.00    -0.206 F 
ATOM     47  C   UNL A   1      39.314  35.117  38.847  1.00  0.00     0.006 A 
ENDBRANCH  26  40
BRANCH  27  48
ATOM     48  C   UNL A   1      40.688  27.745  28.465  1.00  0.00     0.057 A 
ATOM     49  C   UNL A   1      40.011  26.527  28.342  1.00  0.00     0.134 A 
ATOM     50  C   UNL A   1      41.482  28.156  27.387  1.00  0.00     0.134 A 
ATOM     51  F   UNL A   1      39.249  26.074  29.348  1.00  0.00    -0.206 F 
ATOM     52  C   UNL A   1      40.124  25.743  27.193  1.00  0.00     0.040 A 
ATOM     53  C   UNL A   1      41.583  27.396  26.222  1.00  0.00     0.040 A 
ATOM     54  F   UNL A   1      42.147  29.320  27.442  1.00  0.00    -0.206 F 
ATOM     55  C   UNL A   1      40.906  26.183  26.125  1.00  0.00     0.006 A 
ENDBRANCH  27  48
BRANCH  39  56
ATOM     56  C   UNL A   1      44.078  28.058  34.535  1.00  0.00     0.057 A 
ATOM     57  C   UNL A   1      43.898  26.877  35.264  1.00  0.00     0.134 A 
ATOM     58  C   UNL A   1      45.391  28.491  34.315  1.00  0.00     0.134 A 
ATOM     59  F   UNL A   1      42.665  26.418  35.524  1.00  0.00    -0.206 F 
ATOM     60  C   UNL A   1      44.985  26.164  35.775  1.00  0.00     0.040 A 
ATOM     61  C   UNL A   1      46.486  27.774  34.798  1.00  0.00     0.040 A 
ATOM     62  F   UNL A   1      45.631  29.613  33.619  1.00  0.00    -0.206 F 
ATOM     63  C   UNL A   1      46.284  26.610  35.537  1.00  0.00     0.006 A 
ENDBRANCH  39  56
ENDBRANCH  13  14
ENDBRANCH   6   8
ENDBRANCH   3   4
ENDBRANCH   2   3
ENDBRANCH   1   2
BRANCH   1  64
ATOM     64  C   UNL A   1      32.851  30.100  26.142  1.00  0.00     0.116 C 
BRANCH  64  65
ATOM     65  N   UNL A   1      33.478  29.686  24.897  1.00  0.00    -0.352 N 
ATOM     66  C   UNL A   1      33.283  28.537  24.169  1.00  0.00     0.251 C 
ATOM     67  H   UNL A   1      34.133  30.318  24.523  1.00  0.00     0.163 HD
ATOM     68  O   UNL A   1      34.027  28.266  23.234  1.00  0.00    -0.269 OA
BRANCH  66  69
ATOM     69  C   UNL A   1      32.178  27.625  24.527  1.00  0.00     0.040 A 
ATOM     70  C   UNL A   1      30.952  27.757  23.877  1.00  0.00     0.014 A 
ATOM     71  C   UNL A   1      32.357  26.640  25.507  1.00  0.00     0.018 A 
ATOM     72  C   UNL A   1      29.923  26.862  24.168  1.00  0.00     0.001 A 
ATOM     73  C   UNL A   1      31.336  25.725  25.796  1.00  0.00    -0.037 A 
ATOM     74  C   UNL A   1      30.118  25.847  25.110  1.00  0.00     0.004 A 
BRANCH  73  75
ATOM     75  C   UNL A   1      31.570  24.616  26.791  1.00  0.00     0.113 C 
BRANCH  75  76
ATOM     76  S   UNL A   1      30.648  23.092  26.478  1.00  0.00    -0.082 SA
BRANCH  76  77
ATOM     77  C   UNL A   1      31.667  22.191  25.425  1.00  0.00     0.184 A 
ATOM     78  N   UNL A   1      31.777  20.887  25.385  1.00  0.00    -0.201 NA
ATOM     79  N   UNL A   1      32.450  22.740  24.462  1.00  0.00    -0.254 N 
ATOM     80  C   UNL A   1      32.739  20.683  24.419  1.00  0.00     0.182 A 
ATOM     81  N   UNL A   1      33.186  21.809  23.838  1.00  0.00    -0.153 NA
ATOM     82  H   UNL A   1      32.475  23.701  24.250  1.00  0.00     0.192 HD
BRANCH  80  83
ATOM     83  C   UNL A   1      33.193  19.352  24.055  1.00  0.00     0.021 A 
ATOM     84  C   UNL A   1      34.351  18.809  24.625  1.00  0.00     0.012 A 
ATOM     85  C   UNL A   1      32.469  18.599  23.122  1.00  0.00     0.012 A 
ATOM     86  C   UNL A   1      34.779  17.529  24.266  1.00  0.00     0.001 A 
ATOM     87  C   UNL A   1      32.908  17.328  22.750  1.00  0.00     0.001 A 
ATOM     88  C   UNL A   1      34.060  16.793  23.324  1.00  0.00     0.000 A 
ENDBRANCH  80  83
ENDBRANCH  76  77
ENDBRANCH  75  76
ENDBRANCH  73  75
ENDBRANCH  66  69
ENDBRANCH  64  65
ENDBRANCH   1  64
TORSDOF 15
ENDMDL
MODEL 2
REMARK VINA RESULT:     -12.6      2.773      8.335
REMARK SMILES O=C(NCCCCNC(=O)c1cccc(CSc2nc(-c3ccccc3)n[nH]2)c1)c1ccc(-c2c3nc(c(-c4c(F)cccc4F)c4ccc([nH]4)c(-c4c(F)cccc4F)c4nc(c(-c5c(F)cccc5F)c5ccc2[nH]5)C=C4)C=C3)cc1
REMARK SMILES IDX 6 1 5 2 4 3 3 4 1 5 2 6 30 8 31 9 83 10 32 11 82 12 33 13
REMARK SMILES IDX 34 14 35 15 76 16 36 17 81 18 75 19 77 20 37 21 80 22 74 23
REMARK SMILES IDX 73 24 38 26 64 27 47 28 63 29 48 30 51 31 62 32 78 33 49 34
REMARK SMILES IDX 50 35 61 37 79 38 52 39 39 40 40 41 45 42 41 43 42 44 44 45
REMARK SMILES IDX 46 46 43 47 65 48 66 49 71 50 67 51 68 52 70 53 72 54 69 55
REMARK SMILES IDX 53 56 54 57 59 58 55 59 56 60 58 61 60 62 57 63 7 64 8 65
REMARK SMILES IDX 9 66 10 68 11 69 12 70 29 71 13 72 15 73 14 74 16 75 17 76
REMARK SMILES IDX 18 77 19 78 28 79 20 80 27 81 21 83 22 84 26 85 23 86 25 87
REMARK SMILES IDX 24 88
REMARK H PARENT 3 7 77 25 51 36 8 67 28 82
REMARK Flexibility Score: inf
ROOT
ATOM      1  C   UNL A   1      37.671  21.879  25.250  1.00  0.00     0.023 C 
ENDROOT
BRANCH   1   2
ATOM      2  C   UNL A   1      37.415  23.374  25.417  1.00  0.00     0.023 C 
BRANCH   2   3
ATOM      3  C   UNL A   1      38.339  24.082  26.398  1.00  0.00     0.116 C 
BRANCH   3   4
ATOM      4  N   UNL A   1      39.746  23.958  26.048  1.00  0.00    -0.352 N 
ATOM      5  O   UNL A   1      41.917  24.564  25.936  1.00  0.00    -0.269 OA
ATOM      6  C   UNL A   1      40.811  24.734  26.440  1.00  0.00     0.251 C 
ATOM      7  H   UNL A   1      39.966  23.212  25.444  1.00  0.00     0.163 HD
BRANCH   6   8
ATOM      8  C   UNL A   1      40.612  25.795  27.450  1.00  0.00     0.039 A 
ATOM      9  C   UNL A   1      41.347  26.981  27.385  1.00  0.00     0.014 A 
ATOM     10  C   UNL A   1      39.690  25.593  28.479  1.00  0.00     0.014 A 
ATOM     11  C   UNL A   1      41.275  27.892  28.431  1.00  0.00     0.010 A 
ATOM     12  C   UNL A   1      39.552  26.555  29.484  1.00  0.00     0.010 A 
ATOM     13  C   UNL A   1      40.368  27.697  29.486  1.00  0.00    -0.014 A 
BRANCH  13  14
ATOM     14  C   UNL A   1      40.250  28.734  30.541  1.00  0.00     0.031 A 
ATOM     15  C   UNL A   1      39.215  29.820  30.458  1.00  0.00     0.074 A 
ATOM     16  C   UNL A   1      41.078  28.668  31.600  1.00  0.00     0.049 A 
ATOM     17  N   UNL A   1      38.968  30.788  31.306  1.00  0.00    -0.248 NA
ATOM     18  C   UNL A   1      38.350  29.831  29.270  1.00  0.00     0.031 C 
ATOM     19  C   UNL A   1      42.129  27.665  31.785  1.00  0.00     0.029 A 
ATOM     20  N   UNL A   1      41.156  29.442  32.729  1.00  0.00    -0.354 N 
ATOM     21  C   UNL A   1      37.935  31.531  30.748  1.00  0.00     0.074 A 
ATOM     22  C   UNL A   1      37.618  30.917  29.475  1.00  0.00     0.031 C 
ATOM     23  C   UNL A   1      42.712  27.854  32.976  1.00  0.00     0.029 A 
ATOM     24  C   UNL A   1      42.123  29.027  33.610  1.00  0.00     0.049 A 
ATOM     25  H   UNL A   1      40.576  30.220  32.891  1.00  0.00     0.167 HD
ATOM     26  C   UNL A   1      37.307  32.619  31.257  1.00  0.00     0.037 A 
ATOM     27  C   UNL A   1      42.508  29.541  34.792  1.00  0.00     0.037 A 
ATOM     28  C   UNL A   1      37.620  33.216  32.531  1.00  0.00     0.049 A 
ATOM     29  C   UNL A   1      41.815  30.762  35.316  1.00  0.00     0.074 A 
ATOM     30  C   UNL A   1      37.012  34.295  33.150  1.00  0.00     0.029 A 
ATOM     31  N   UNL A   1      38.634  32.791  33.376  1.00  0.00    -0.354 N 
ATOM     32  N   UNL A   1      40.818  31.433  34.793  1.00  0.00    -0.248 NA
ATOM     33  C   UNL A   1      42.306  31.302  36.590  1.00  0.00     0.031 C 
ATOM     34  C   UNL A   1      37.689  34.551  34.348  1.00  0.00     0.029 A 
ATOM     35  C   UNL A   1      38.687  33.602  34.499  1.00  0.00     0.049 A 
ATOM     36  H   UNL A   1      39.228  32.025  33.205  1.00  0.00     0.167 HD
ATOM     37  C   UNL A   1      40.550  32.467  35.680  1.00  0.00     0.074 A 
ATOM     38  C   UNL A   1      41.479  32.320  36.784  1.00  0.00     0.031 C 
ATOM     39  C   UNL A   1      39.621  33.449  35.586  1.00  0.00     0.037 A 
BRANCH  26  40
ATOM     40  C   UNL A   1      36.227  33.249  30.423  1.00  0.00     0.057 A 
ATOM     41  C   UNL A   1      36.519  34.041  29.305  1.00  0.00     0.134 A 
ATOM     42  C   UNL A   1      34.876  33.031  30.724  1.00  0.00     0.134 A 
ATOM     43  F   UNL A   1      37.791  34.298  28.967  1.00  0.00    -0.206 F 
ATOM     44  C   UNL A   1      35.507  34.612  28.529  1.00  0.00     0.040 A 
ATOM     45  C   UNL A   1      33.855  33.576  29.942  1.00  0.00     0.040 A 
ATOM     46  F   UNL A   1      34.525  32.276  31.776  1.00  0.00    -0.206 F 
ATOM     47  C   UNL A   1      34.170  34.375  28.845  1.00  0.00     0.006 A 
ENDBRANCH  26  40
BRANCH  27  48
ATOM     48  C   UNL A   1      43.606  28.893  35.548  1.00  0.00     0.057 A 
ATOM     49  C   UNL A   1      43.343  27.899  36.496  1.00  0.00     0.134 A 
ATOM     50  C   UNL A   1      44.946  29.232  35.321  1.00  0.00     0.134 A 
ATOM     51  F   UNL A   1      42.079  27.544  36.768  1.00  0.00    -0.206 F 
ATOM     52  C   UNL A   1      44.372  27.269  37.197  1.00  0.00     0.040 A 
ATOM     53  C   UNL A   1      45.986  28.592  35.995  1.00  0.00     0.040 A 
ATOM     54  F   UNL A   1      45.263  30.171  34.417  1.00  0.00    -0.206 F 
ATOM     55  C   UNL A   1      45.699  27.610  36.939  1.00  0.00     0.006 A 
ENDBRANCH  27  48
BRANCH  39  56
ATOM     56  C   UNL A   1      39.553  34.428  36.721  1.00  0.00     0.057 A 
ATOM     57  C   UNL A   1      40.194  35.671  36.659  1.00  0.00     0.134 A 
ATOM     58  C   UNL A   1      38.824  34.130  37.878  1.00  0.00     0.134 A 
ATOM     59  F   UNL A   1      40.922  36.010  35.585  1.00  0.00    -0.206 F 
ATOM     60  C   UNL A   1      40.130  36.576  37.721  1.00  0.00     0.040 A 
ATOM     61  C   UNL A   1      38.732  35.036  38.935  1.00  0.00     0.040 A 
ATOM     62  F   UNL A   1      38.183  32.957  37.996  1.00  0.00    -0.206 F 
ATOM     63  C   UNL A   1      39.392  36.261  38.860  1.00  0.00     0.006 A 
ENDBRANCH  39  56
ENDBRANCH  13  14
ENDBRANCH   6   8
ENDBRANCH   3   4
ENDBRANCH   2   3
ENDBRANCH   1   2
BRANCH   1  64
ATOM     64  C   UNL A   1      36.419  21.011  25.193  1.00  0.00     0.116 C 
BRANCH  64  65
ATOM     65  N   UNL A   1      35.555  21.198  26.347  1.00  0.00    -0.352 N 
ATOM     66  C   UNL A   1      34.249  21.622  26.392  1.00  0.00     0.251 C 
ATOM     67  H   UNL A   1      35.962  20.989  27.219  1.00  0.00     0.163 HD
ATOM     68  O   UNL A   1      33.725  21.895  27.466  1.00  0.00    -0.269 OA
BRANCH  66  69
ATOM     69  C   UNL A   1      33.482  21.759  25.136  1.00  0.00     0.040 A 
ATOM     70  C   UNL A   1      33.071  20.609  24.465  1.00  0.00     0.014 A 
ATOM     71  C   UNL A   1      33.173  23.026  24.627  1.00  0.00     0.018 A 
ATOM     72  C   UNL A   1      32.298  20.729  23.311  1.00  0.00     0.001 A 
ATOM     73  C   UNL A   1      32.382  23.159  23.478  1.00  0.00    -0.037 A 
ATOM     74  C   UNL A   1      31.945  21.994  22.829  1.00  0.00     0.004 A 
BRANCH  73  75
ATOM     75  C   UNL A   1      31.982  24.528  22.986  1.00  0.00     0.113 C 
BRANCH  75  76
ATOM     76  S   UNL A   1      30.470  25.199  23.716  1.00  0.00    -0.082 SA
BRANCH  76  77
ATOM     77  C   UNL A   1      31.023  26.136  25.049  1.00  0.00     0.184 A 
ATOM     78  N   UNL A   1      31.813  27.178  24.986  1.00  0.00    -0.201 NA
ATOM     79  N   UNL A   1      30.655  25.926  26.338  1.00  0.00    -0.254 N 
ATOM     80  C   UNL A   1      31.981  27.524  26.309  1.00  0.00     0.182 A 
ATOM     81  N   UNL A   1      31.289  26.761  27.173  1.00  0.00    -0.153 NA
ATOM     82  H   UNL A   1      30.004  25.244  26.624  1.00  0.00     0.192 HD
BRANCH  80  83
ATOM     83  C   UNL A   1      32.817  28.642  26.711  1.00  0.00     0.021 A 
ATOM     84  C   UNL A   1      34.191  28.470  26.923  1.00  0.00     0.012 A 
ATOM     85  C   UNL A   1      32.247  29.909  26.892  1.00  0.00     0.012 A 
ATOM     86  C   UNL A   1      34.984  29.552  27.311  1.00  0.00     0.001 A 
ATOM     87  C   UNL A   1      33.037  30.985  27.298  1.00  0.00     0.001 A 
ATOM     88  C   UNL A   1      34.404  30.807  27.504  1.00  0.00     0.000 A 
ENDBRANCH  80  83
ENDBRANCH  76  77
ENDBRANCH  75  76
ENDBRANCH  73  75
ENDBRANCH  66  69
ENDBRANCH  64  65
ENDBRANCH   1  64
TORSDOF 15
ENDMDL
MODEL 3
REMARK VINA RESULT:     -12.4      5.143      9.806
REMARK SMILES O=C(NCCCCNC(=O)c1cccc(CSc2nc(-c3ccccc3)n[nH]2)c1)c1ccc(-c2c3nc(c(-c4c(F)cccc4F)c4ccc([nH]4)c(-c4c(F)cccc4F)c4nc(c(-c5c(F)cccc5F)c5ccc2[nH]5)C=C4)C=C3)cc1
REMARK SMILES IDX 6 1 5 2 4 3 3 4 1 5 2 6 30 8 31 9 83 10 32 11 82 12 33 13
REMARK SMILES IDX 34 14 35 15 76 16 36 17 81 18 75 19 77 20 37 21 80 22 74 23
REMARK SMILES IDX 73 24 38 26 64 27 47 28 63 29 48 30 51 31 62 32 78 33 49 34
REMARK SMILES IDX 50 35 61 37 79 38 52 39 39 40 40 41 45 42 41 43 42 44 44 45
REMARK SMILES IDX 46 46 43 47 65 48 66 49 71 50 67 51 68 52 70 53 72 54 69 55
REMARK SMILES IDX 53 56 54 57 59 58 55 59 56 60 58 61 60 62 57 63 7 64 8 65
REMARK SMILES IDX 9 66 10 68 11 69 12 70 29 71 13 72 15 73 14 74 16 75 17 76
REMARK SMILES IDX 18 77 19 78 28 79 20 80 27 81 21 83 22 84 26 85 23 86 25 87
REMARK SMILES IDX 24 88
REMARK H PARENT 3 7 77 25 51 36 8 67 28 82
REMARK Flexibility Score: inf
ROOT
ATOM      1  C   UNL A   1      36.705  20.323  24.952  1.00  0.00     0.023 C 
ENDROOT
BRANCH   1   2
ATOM      2  C   UNL A   1      37.960  19.460  24.847  1.00  0.00     0.023 C 
BRANCH   2   3
ATOM      3  C   UNL A   1      39.110  19.879  25.752  1.00  0.00     0.116 C 
BRANCH   3   4
ATOM      4  N   UNL A   1      40.177  18.892  25.812  1.00  0.00    -0.352 N 
ATOM      5  O   UNL A   1      42.301  18.136  25.919  1.00  0.00    -0.269 OA
ATOM      6  C   UNL A   1      41.520  19.076  26.038  1.00  0.00     0.251 C 
ATOM      7  H   UNL A   1      39.896  17.959  25.670  1.00  0.00     0.163 HD
BRANCH   6   8
ATOM      8  C   UNL A   1      42.026  20.418  26.395  1.00  0.00     0.039 A 
ATOM      9  C   UNL A   1      42.145  20.797  27.734  1.00  0.00     0.014 A 
ATOM     10  C   UNL A   1      42.370  21.311  25.377  1.00  0.00     0.014 A 
ATOM     11  C   UNL A   1      42.456  22.113  28.051  1.00  0.00     0.010 A 
ATOM     12  C   UNL A   1      42.773  22.610  25.702  1.00  0.00     0.010 A 
ATOM     13  C   UNL A   1      42.786  23.031  27.040  1.00  0.00    -0.014 A 
BRANCH  13  14
ATOM     14  C   UNL A   1      43.203  24.405  27.418  1.00  0.00     0.031 A 
ATOM     15  C   UNL A   1      44.641  24.835  27.340  1.00  0.00     0.074 A 
ATOM     16  C   UNL A   1      42.256  25.278  27.809  1.00  0.00     0.049 A 
ATOM     17  N   UNL A   1      45.166  26.004  27.614  1.00  0.00    -0.248 NA
ATOM     18  C   UNL A   1      45.619  23.826  26.909  1.00  0.00     0.031 C 
ATOM     19  C   UNL A   1      40.829  24.971  27.932  1.00  0.00     0.029 A 
ATOM     20  N   UNL A   1      42.342  26.601  28.154  1.00  0.00    -0.354 N 
ATOM     21  C   UNL A   1      46.532  25.867  27.406  1.00  0.00     0.074 A 
ATOM     22  C   UNL A   1      46.760  24.494  27.008  1.00  0.00     0.031 C 
ATOM     23  C   UNL A   1      40.168  26.084  28.277  1.00  0.00     0.029 A 
ATOM     24  C   UNL A   1      41.129  27.166  28.462  1.00  0.00     0.049 A 
ATOM     25  H   UNL A   1      43.191  27.098  28.180  1.00  0.00     0.167 HD
ATOM     26  C   UNL A   1      47.504  26.805  27.529  1.00  0.00     0.037 A 
ATOM     27  C   UNL A   1      40.821  28.411  28.864  1.00  0.00     0.037 A 
ATOM     28  C   UNL A   1      47.267  28.174  27.913  1.00  0.00     0.049 A 
ATOM     29  C   UNL A   1      41.919  29.419  29.020  1.00  0.00     0.074 A 
ATOM     30  C   UNL A   1      48.180  29.209  28.027  1.00  0.00     0.029 A 
ATOM     31  N   UNL A   1      46.029  28.697  28.256  1.00  0.00    -0.354 N 
ATOM     32  N   UNL A   1      43.202  29.284  28.787  1.00  0.00    -0.248 NA
ATOM     33  C   UNL A   1      41.528  30.750  29.502  1.00  0.00     0.031 C 
ATOM     34  C   UNL A   1      47.502  30.344  28.483  1.00  0.00     0.029 A 
ATOM     35  C   UNL A   1      46.158  30.032  28.607  1.00  0.00     0.049 A 
ATOM     36  H   UNL A   1      45.182  28.195  28.250  1.00  0.00     0.167 HD
ATOM     37  C   UNL A   1      43.771  30.516  29.079  1.00  0.00     0.074 A 
ATOM     38  C   UNL A   1      42.689  31.390  29.488  1.00  0.00     0.031 C 
ATOM     39  C   UNL A   1      45.073  30.887  29.017  1.00  0.00     0.037 A 
BRANCH  26  40
ATOM     40  C   UNL A   1      48.919  26.377  27.264  1.00  0.00     0.057 A 
ATOM     41  C   UNL A   1      49.483  26.424  25.983  1.00  0.00     0.134 A 
ATOM     42  C   UNL A   1      49.740  25.945  28.314  1.00  0.00     0.134 A 
ATOM     43  F   UNL A   1      48.749  26.819  24.932  1.00  0.00    -0.206 F 
ATOM     44  C   UNL A   1      50.805  26.036  25.751  1.00  0.00     0.040 A 
ATOM     45  C   UNL A   1      51.071  25.577  28.099  1.00  0.00     0.040 A 
ATOM     46  F   UNL A   1      49.268  25.883  29.568  1.00  0.00    -0.206 F 
ATOM     47  C   UNL A   1      51.604  25.616  26.813  1.00  0.00     0.006 A 
ENDBRANCH  26  40
BRANCH  27  48
ATOM     48  C   UNL A   1      39.407  28.761  29.145  1.00  0.00     0.057 A 
ATOM     49  C   UNL A   1      38.865  28.604  30.425  1.00  0.00     0.134 A 
ATOM     50  C   UNL A   1      38.575  29.287  28.149  1.00  0.00     0.134 A 
ATOM     51  F   UNL A   1      39.609  28.092  31.416  1.00  0.00    -0.206 F 
ATOM     52  C   UNL A   1      37.542  28.952  30.703  1.00  0.00     0.040 A 
ATOM     53  C   UNL A   1      37.260  29.663  28.419  1.00  0.00     0.040 A 
ATOM     54  F   UNL A   1      39.042  29.470  26.904  1.00  0.00    -0.206 F 
ATOM     55  C   UNL A   1      36.739  29.491  29.699  1.00  0.00     0.006 A 
ENDBRANCH  27  48
BRANCH  39  56
ATOM     56  C   UNL A   1      45.391  32.307  29.382  1.00  0.00     0.057 A 
ATOM     57  C   UNL A   1      45.754  32.670  30.684  1.00  0.00     0.134 A 
ATOM     58  C   UNL A   1      45.350  33.318  28.415  1.00  0.00     0.134 A 
ATOM     59  F   UNL A   1      45.795  31.751  31.660  1.00  0.00    -0.206 F 
ATOM     60  C   UNL A   1      46.044  33.995  31.017  1.00  0.00     0.040 A 
ATOM     61  C   UNL A   1      45.662  34.641  28.729  1.00  0.00     0.040 A 
ATOM     62  F   UNL A   1      45.014  33.035  27.147  1.00  0.00    -0.206 F 
ATOM     63  C   UNL A   1      46.005  34.983  30.036  1.00  0.00     0.006 A 
ENDBRANCH  39  56
ENDBRANCH  13  14
ENDBRANCH   6   8
ENDBRANCH   3   4
ENDBRANCH   2   3
ENDBRANCH   1   2
BRANCH   1  64
ATOM     64  C   UNL A   1      36.790  21.676  24.254  1.00  0.00     0.116 C 
BRANCH  64  65
ATOM     65  N   UNL A   1      37.469  22.679  25.058  1.00  0.00    -0.352 N 
ATOM     66  C   UNL A   1      36.932  23.639  25.880  1.00  0.00     0.251 C 
ATOM     67  H   UNL A   1      38.453  22.667  25.006  1.00  0.00     0.163 HD
ATOM     68  O   UNL A   1      37.644  24.520  26.347  1.00  0.00    -0.269 OA
BRANCH  66  69
ATOM     69  C   UNL A   1      35.488  23.609  26.191  1.00  0.00     0.040 A 
ATOM     70  C   UNL A   1      35.016  22.697  27.133  1.00  0.00     0.014 A 
ATOM     71  C   UNL A   1      34.604  24.484  25.547  1.00  0.00     0.018 A 
ATOM     72  C   UNL A   1      33.664  22.703  27.473  1.00  0.00     0.001 A 
ATOM     73  C   UNL A   1      33.247  24.510  25.893  1.00  0.00    -0.037 A 
ATOM     74  C   UNL A   1      32.789  23.611  26.868  1.00  0.00     0.004 A 
BRANCH  73  75
ATOM     75  C   UNL A   1      32.320  25.515  25.255  1.00  0.00     0.113 C 
BRANCH  75  76
ATOM     76  S   UNL A   1      30.928  24.809  24.340  1.00  0.00    -0.082 SA
BRANCH  76  77
ATOM     77  C   UNL A   1      31.562  23.362  23.658  1.00  0.00     0.184 A 
ATOM     78  N   UNL A   1      31.617  22.192  24.241  1.00  0.00    -0.201 NA
ATOM     79  N   UNL A   1      32.042  23.258  22.392  1.00  0.00    -0.254 N 
ATOM     80  C   UNL A   1      32.242  21.401  23.301  1.00  0.00     0.182 A 
ATOM     81  N   UNL A   1      32.531  22.034  22.151  1.00  0.00    -0.153 NA
ATOM     82  H   UNL A   1      32.032  23.991  21.734  1.00  0.00     0.192 HD
BRANCH  80  83
ATOM     83  C   UNL A   1      32.529  19.998  23.545  1.00  0.00     0.021 A 
ATOM     84  C   UNL A   1      33.054  19.576  24.772  1.00  0.00     0.012 A 
ATOM     85  C   UNL A   1      32.280  19.052  22.542  1.00  0.00     0.012 A 
ATOM     86  C   UNL A   1      33.327  18.224  24.993  1.00  0.00     0.001 A 
ATOM     87  C   UNL A   1      32.570  17.704  22.757  1.00  0.00     0.001 A 
ATOM     88  C   UNL A   1      33.091  17.292  23.983  1.00  0.00     0.000 A 
ENDBRANCH  80  83
ENDBRANCH  76  77
ENDBRANCH  75  76
ENDBRANCH  73  75
ENDBRANCH  66  69
ENDBRANCH  64  65
ENDBRANCH   1  64
TORSDOF 15
ENDMDL
