MODEL 1
REMARK VINA RESULT:     -11.3      0.000      0.000
REMARK SMILES CN(CC(C)(C)O)C(=O)N[C@H]1CC[C@H](C(=O)NCCCCNC(=O)c2ccc(-c3c4nc(c(-c5c(F)cccc5F)c5ccc([nH]5)c(-c5c(F)cccc5F)c5nc(c(-c6c(F)cccc6F)c6ccc3[nH]6)C=C5)C=C4)cc2)C1
REMARK SMILES IDX 18 1 17 2 15 3 16 4 14 6 11 7 12 8 79 9 13 10 10 11 8 12
REMARK SMILES IDX 9 13 2 15 1 16 3 17 4 18 5 19 6 20 7 21 19 23 20 24 21 25
REMARK SMILES IDX 22 26 23 27 24 29 25 30 26 31 78 32 27 33 77 34 28 35 29 36
REMARK SMILES IDX 30 37 71 38 31 39 76 40 70 41 72 42 32 43 75 44 69 45 68 46
REMARK SMILES IDX 33 48 59 49 42 50 58 51 43 52 46 53 57 54 73 55 44 56 45 57
REMARK SMILES IDX 56 59 74 60 47 61 34 62 35 63 40 64 36 65 37 66 39 67 41 68
REMARK SMILES IDX 38 69 60 70 61 71 66 72 62 73 63 74 65 75 67 76 64 77 48 78
REMARK SMILES IDX 49 79 54 80 50 81 51 82 53 83 55 84 52 85
REMARK H PARENT 17 5 10 14 7 22 22 28 72 47 46 58
REMARK Flexibility Score: inf
ROOT
ATOM      1  C   UNL A   1      33.165  30.112  26.587  1.00  0.00     0.116 C 
ENDROOT
BRANCH   1   2
ATOM      2  N   UNL A   1      33.689  29.291  25.508  1.00  0.00    -0.356 N 
ATOM      3  C   UNL A   1      33.286  28.090  25.010  1.00  0.00     0.223 C 
ATOM      4  O   UNL A   1      33.992  27.568  24.146  1.00  0.00    -0.275 OA
ATOM      5  H   UNL A   1      34.477  29.672  25.058  1.00  0.00     0.163 HD
BRANCH   3   6
ATOM      6  C   UNL A   1      31.955  27.466  25.401  1.00  0.00     0.080 C 
ATOM      7  C   UNL A   1      31.046  25.210  25.023  1.00  0.00     0.084 C 
ATOM      8  C   UNL A   1      30.202  26.210  24.225  1.00  0.00     0.026 C 
ATOM      9  C   UNL A   1      32.178  25.993  25.661  1.00  0.00     0.038 C 
ATOM     10  C   UNL A   1      30.817  27.595  24.404  1.00  0.00     0.015 C 
BRANCH   7  11
ATOM     11  N   UNL A   1      30.264  24.461  25.982  1.00  0.00    -0.335 N 
ATOM     12  C   UNL A   1      30.467  23.330  26.684  1.00  0.00     0.317 C 
ATOM     13  O   UNL A   1      29.640  23.119  27.578  1.00  0.00    -0.249 OA
ATOM     14  H   UNL A   1      29.385  24.869  26.161  1.00  0.00     0.165 HD
BRANCH  12  15
ATOM     15  N   UNL A   1      31.546  22.510  26.494  1.00  0.00    -0.325 N 
ATOM     16  C   UNL A   1      32.584  22.639  27.512  1.00  0.00     0.148 C 
BRANCH  15  17
ATOM     17  C   UNL A   1      31.846  21.554  25.415  1.00  0.00     0.155 C 
BRANCH  17  18
ATOM     18  C   UNL A   1      33.084  21.735  24.491  1.00  0.00     0.077 C 
ATOM     19  C   UNL A   1      34.202  20.695  24.574  1.00  0.00     0.043 C 
ATOM     20  C   UNL A   1      32.555  21.779  23.041  1.00  0.00     0.043 C 
BRANCH  18  21
ATOM     21  O   UNL A   1      33.647  23.024  24.781  1.00  0.00    -0.389 OA
ATOM     22  H   UNL A   1      33.803  23.501  23.951  1.00  0.00     0.211 HD
ENDBRANCH  18  21
ENDBRANCH  17  18
ENDBRANCH  15  17
ENDBRANCH  12  15
ENDBRANCH   7  11
ENDBRANCH   3   6
ENDBRANCH   1   2
BRANCH   1  23
ATOM     23  C   UNL A   1      31.796  30.677  26.223  1.00  0.00     0.023 C 
BRANCH  23  24
ATOM     24  C   UNL A   1      31.499  32.032  26.864  1.00  0.00     0.023 C 
BRANCH  24  25
ATOM     25  C   UNL A   1      32.731  32.795  27.336  1.00  0.00     0.116 C 
BRANCH  25  26
ATOM     26  N   UNL A   1      32.445  34.192  27.617  1.00  0.00    -0.352 N 
ATOM     27  C   UNL A   1      33.016  35.024  28.553  1.00  0.00     0.251 C 
ATOM     28  H   UNL A   1      31.745  34.602  27.060  1.00  0.00     0.163 HD
ATOM     29  O   UNL A   1      32.534  36.124  28.777  1.00  0.00    -0.269 OA
BRANCH  27  30
ATOM     30  C   UNL A   1      34.202  34.560  29.307  1.00  0.00     0.039 A 
ATOM     31  C   UNL A   1      34.022  34.021  30.582  1.00  0.00     0.014 A 
ATOM     32  C   UNL A   1      35.479  34.635  28.746  1.00  0.00     0.014 A 
ATOM     33  C   UNL A   1      35.118  33.487  31.264  1.00  0.00     0.010 A 
ATOM     34  C   UNL A   1      36.552  34.029  29.389  1.00  0.00     0.010 A 
ATOM     35  C   UNL A   1      36.384  33.449  30.656  1.00  0.00    -0.014 A 
BRANCH  35  36
ATOM     36  C   UNL A   1      37.542  32.799  31.325  1.00  0.00     0.031 A 
ATOM     37  C   UNL A   1      38.200  31.599  30.700  1.00  0.00     0.074 A 
ATOM     38  C   UNL A   1      37.957  33.249  32.526  1.00  0.00     0.049 A 
ATOM     39  N   UNL A   1      39.176  30.859  31.160  1.00  0.00    -0.248 NA
ATOM     40  C   UNL A   1      37.676  31.154  29.398  1.00  0.00     0.031 C 
ATOM     41  C   UNL A   1      37.371  34.373  33.262  1.00  0.00     0.029 A 
ATOM     42  N   UNL A   1      38.964  32.808  33.349  1.00  0.00    -0.354 N 
ATOM     43  C   UNL A   1      39.367  29.854  30.220  1.00  0.00     0.074 A 
ATOM     44  C   UNL A   1      38.377  30.050  29.184  1.00  0.00     0.031 C 
ATOM     45  C   UNL A   1      38.043  34.547  34.411  1.00  0.00     0.029 A 
ATOM     46  C   UNL A   1      39.078  33.524  34.517  1.00  0.00     0.049 A 
ATOM     47  H   UNL A   1      39.549  32.049  33.123  1.00  0.00     0.167 HD
ATOM     48  C   UNL A   1      40.295  28.869  30.213  1.00  0.00     0.037 A 
ATOM     49  C   UNL A   1      39.913  33.364  35.562  1.00  0.00     0.037 A 
ATOM     50  C   UNL A   1      41.302  28.700  31.227  1.00  0.00     0.049 A 
ATOM     51  C   UNL A   1      40.928  32.253  35.526  1.00  0.00     0.074 A 
ATOM     52  C   UNL A   1      42.341  27.784  31.261  1.00  0.00     0.029 A 
ATOM     53  N   UNL A   1      41.395  29.455  32.385  1.00  0.00    -0.354 N 
ATOM     54  N   UNL A   1      41.157  31.370  34.583  1.00  0.00    -0.248 NA
ATOM     55  C   UNL A   1      41.806  32.119  36.698  1.00  0.00     0.031 C 
ATOM     56  C   UNL A   1      43.025  27.946  32.469  1.00  0.00     0.029 A 
ATOM     57  C   UNL A   1      42.452  29.002  33.157  1.00  0.00     0.049 A 
ATOM     58  H   UNL A   1      40.798  30.201  32.623  1.00  0.00     0.167 HD
ATOM     59  C   UNL A   1      42.227  30.605  35.032  1.00  0.00     0.074 A 
ATOM     60  C   UNL A   1      42.611  31.136  36.322  1.00  0.00     0.031 C 
ATOM     61  C   UNL A   1      42.836  29.554  34.430  1.00  0.00     0.037 A 
BRANCH  48  62
ATOM     62  C   UNL A   1      40.274  27.889  29.076  1.00  0.00     0.057 A 
ATOM     63  C   UNL A   1      39.501  26.721  29.117  1.00  0.00     0.134 A 
ATOM     64  C   UNL A   1      40.975  28.158  27.894  1.00  0.00     0.134 A 
ATOM     65  F   UNL A   1      38.813  26.398  30.222  1.00  0.00    -0.206 F 
ATOM     66  C   UNL A   1      39.438  25.851  28.028  1.00  0.00     0.040 A 
ATOM     67  C   UNL A   1      40.898  27.310  26.789  1.00  0.00     0.040 A 
ATOM     68  F   UNL A   1      41.730  29.263  27.787  1.00  0.00    -0.206 F 
ATOM     69  C   UNL A   1      40.129  26.150  26.855  1.00  0.00     0.006 A 
ENDBRANCH  48  62
BRANCH  49  70
ATOM     70  C   UNL A   1      39.841  34.273  36.736  1.00  0.00     0.057 A 
ATOM     71  C   UNL A   1      39.056  33.952  37.852  1.00  0.00     0.134 A 
ATOM     72  C   UNL A   1      40.506  35.505  36.753  1.00  0.00     0.134 A 
ATOM     73  F   UNL A   1      38.379  32.795  37.890  1.00  0.00    -0.206 F 
ATOM     74  C   UNL A   1      38.901  34.838  38.919  1.00  0.00     0.040 A 
ATOM     75  C   UNL A   1      40.387  36.388  37.828  1.00  0.00     0.040 A 
ATOM     76  F   UNL A   1      41.281  35.871  35.721  1.00  0.00    -0.206 F 
ATOM     77  C   UNL A   1      39.570  36.061  38.909  1.00  0.00     0.006 A 
ENDBRANCH  49  70
BRANCH  61  78
ATOM     78  C   UNL A   1      44.016  28.945  35.132  1.00  0.00     0.057 A 
ATOM     79  C   UNL A   1      45.325  29.391  34.911  1.00  0.00     0.134 A 
ATOM     80  C   UNL A   1      43.831  27.924  36.073  1.00  0.00     0.134 A 
ATOM     81  F   UNL A   1      45.573  30.359  34.014  1.00  0.00    -0.206 F 
ATOM     82  C   UNL A   1      46.411  28.825  35.581  1.00  0.00     0.040 A 
ATOM     83  C   UNL A   1      44.905  27.372  36.772  1.00  0.00     0.040 A 
ATOM     84  F   UNL A   1      42.602  27.458  36.340  1.00  0.00    -0.206 F 
ATOM     85  C   UNL A   1      46.201  27.816  36.520  1.00  0.00     0.006 A 
ENDBRANCH  61  78
ENDBRANCH  35  36
ENDBRANCH  27  30
ENDBRANCH  25  26
ENDBRANCH  24  25
ENDBRANCH  23  24
ENDBRANCH   1  23
TORSDOF 16
ENDMDL
MODEL 2
REMARK VINA RESULT:     -11.2      5.600     11.726
REMARK SMILES CN(CC(C)(C)O)C(=O)N[C@H]1CC[C@H](C(=O)NCCCCNC(=O)c2ccc(-c3c4nc(c(-c5c(F)cccc5F)c5ccc([nH]5)c(-c5c(F)cccc5F)c5nc(c(-c6c(F)cccc6F)c6ccc3[nH]6)C=C5)C=C4)cc2)C1
REMARK SMILES IDX 18 1 17 2 15 3 16 4 14 6 11 7 12 8 79 9 13 10 10 11 8 12
REMARK SMILES IDX 9 13 2 15 1 16 3 17 4 18 5 19 6 20 7 21 19 23 20 24 21 25
REMARK SMILES IDX 22 26 23 27 24 29 25 30 26 31 78 32 27 33 77 34 28 35 29 36
REMARK SMILES IDX 30 37 71 38 31 39 76 40 70 41 72 42 32 43 75 44 69 45 68 46
REMARK SMILES IDX 33 48 59 49 42 50 58 51 43 52 46 53 57 54 73 55 44 56 45 57
REMARK SMILES IDX 56 59 74 60 47 61 34 62 35 63 40 64 36 65 37 66 39 67 41 68
REMARK SMILES IDX 38 69 60 70 61 71 66 72 62 73 63 74 65 75 67 76 64 77 48 78
REMARK SMILES IDX 49 79 54 80 50 81 51 82 53 83 55 84 52 85
REMARK H PARENT 17 5 10 14 7 22 22 28 72 47 46 58
REMARK Flexibility Score: inf
ROOT
ATOM      1  C   UNL A   1      45.047  21.882  24.290  1.00  0.00     0.116 C 
ENDROOT
BRANCH   1   2
ATOM      2  N   UNL A   1      46.136  22.702  23.785  1.00  0.00    -0.356 N 
ATOM      3  C   UNL A   1      46.630  23.901  24.199  1.00  0.00     0.223 C 
ATOM      4  O   UNL A   1      47.506  24.424  23.509  1.00  0.00    -0.275 OA
ATOM      5  H   UNL A   1      46.597  22.323  23.003  1.00  0.00     0.163 HD
BRANCH   3   6
ATOM      6  C   UNL A   1      46.220  24.521  25.527  1.00  0.00     0.080 C 
ATOM      7  C   UNL A   1      46.118  26.870  26.259  1.00  0.00     0.084 C 
ATOM      8  C   UNL A   1      47.208  26.158  27.070  1.00  0.00     0.026 C 
ATOM      9  C   UNL A   1      45.591  25.868  25.249  1.00  0.00     0.038 C 
ATOM     10  C   UNL A   1      47.316  24.725  26.558  1.00  0.00     0.015 C 
BRANCH   7  11
ATOM     11  N   UNL A   1      45.081  27.432  27.094  1.00  0.00    -0.335 N 
ATOM     12  C   UNL A   1      44.812  28.668  27.559  1.00  0.00     0.317 C 
ATOM     13  O   UNL A   1      43.698  28.796  28.076  1.00  0.00    -0.249 OA
ATOM     14  H   UNL A   1      44.423  26.762  27.391  1.00  0.00     0.165 HD
BRANCH  12  15
ATOM     15  N   UNL A   1      45.661  29.730  27.404  1.00  0.00    -0.325 N 
ATOM     16  C   UNL A   1      46.785  29.741  28.334  1.00  0.00     0.148 C 
BRANCH  15  17
ATOM     17  C   UNL A   1      45.603  30.879  26.484  1.00  0.00     0.155 C 
BRANCH  17  18
ATOM     18  C   UNL A   1      44.979  32.235  26.918  1.00  0.00     0.077 C 
ATOM     19  C   UNL A   1      45.891  33.269  27.580  1.00  0.00     0.043 C 
ATOM     20  C   UNL A   1      44.355  32.864  25.653  1.00  0.00     0.043 C 
BRANCH  18  21
ATOM     21  O   UNL A   1      43.904  31.940  27.823  1.00  0.00    -0.389 OA
ATOM     22  H   UNL A   1      43.559  32.767  28.195  1.00  0.00     0.211 HD
ENDBRANCH  18  21
ENDBRANCH  17  18
ENDBRANCH  15  17
ENDBRANCH  12  15
ENDBRANCH   7  11
ENDBRANCH   3   6
ENDBRANCH   1   2
BRANCH   1  23
ATOM     23  C   UNL A   1      45.580  20.592  24.904  1.00  0.00     0.023 C 
BRANCH  23  24
ATOM     24  C   UNL A   1      44.701  19.372  24.630  1.00  0.00     0.023 C 
BRANCH  24  25
ATOM     25  C   UNL A   1      43.887  18.894  25.826  1.00  0.00     0.116 C 
BRANCH  25  26
ATOM     26  N   UNL A   1      42.461  18.859  25.549  1.00  0.00    -0.352 N 
ATOM     27  C   UNL A   1      41.476  19.732  25.951  1.00  0.00     0.251 C 
ATOM     28  H   UNL A   1      42.155  18.104  24.997  1.00  0.00     0.163 HD
ATOM     29  O   UNL A   1      40.299  19.458  25.777  1.00  0.00    -0.269 OA
BRANCH  27  30
ATOM     30  C   UNL A   1      41.858  20.995  26.622  1.00  0.00     0.039 A 
ATOM     31  C   UNL A   1      42.179  22.105  25.840  1.00  0.00     0.014 A 
ATOM     32  C   UNL A   1      41.872  21.085  28.017  1.00  0.00     0.014 A 
ATOM     33  C   UNL A   1      42.443  23.329  26.458  1.00  0.00     0.010 A 
ATOM     34  C   UNL A   1      42.052  22.323  28.625  1.00  0.00     0.010 A 
ATOM     35  C   UNL A   1      42.340  23.458  27.853  1.00  0.00    -0.014 A 
BRANCH  35  36
ATOM     36  C   UNL A   1      42.523  24.773  28.522  1.00  0.00     0.031 A 
ATOM     37  C   UNL A   1      43.813  25.088  29.229  1.00  0.00     0.074 A 
ATOM     38  C   UNL A   1      41.504  25.656  28.548  1.00  0.00     0.049 A 
ATOM     39  N   UNL A   1      44.137  26.151  29.922  1.00  0.00    -0.248 NA
ATOM     40  C   UNL A   1      44.870  24.065  29.174  1.00  0.00     0.031 C 
ATOM     41  C   UNL A   1      40.186  25.450  27.943  1.00  0.00     0.029 A 
ATOM     42  N   UNL A   1      41.413  26.902  29.118  1.00  0.00    -0.354 N 
ATOM     43  C   UNL A   1      45.419  25.915  30.401  1.00  0.00     0.074 A 
ATOM     44  C   UNL A   1      45.800  24.591  29.959  1.00  0.00     0.031 C 
ATOM     45  C   UNL A   1      39.429  26.540  28.152  1.00  0.00     0.029 A 
ATOM     46  C   UNL A   1      40.188  27.503  28.942  1.00  0.00     0.049 A 
ATOM     47  H   UNL A   1      42.154  27.325  29.608  1.00  0.00     0.167 HD
ATOM     48  C   UNL A   1      46.214  26.735  31.127  1.00  0.00     0.037 A 
ATOM     49  C   UNL A   1      39.726  28.690  29.380  1.00  0.00     0.037 A 
ATOM     50  C   UNL A   1      45.847  28.066  31.533  1.00  0.00     0.049 A 
ATOM     51  C   UNL A   1      40.634  29.575  30.193  1.00  0.00     0.074 A 
ATOM     52  C   UNL A   1      46.618  29.005  32.196  1.00  0.00     0.029 A 
ATOM     53  N   UNL A   1      44.605  28.644  31.321  1.00  0.00    -0.354 N 
ATOM     54  N   UNL A   1      41.878  29.375  30.556  1.00  0.00    -0.248 NA
ATOM     55  C   UNL A   1      40.073  30.853  30.654  1.00  0.00     0.031 C 
ATOM     56  C   UNL A   1      45.824  30.129  32.439  1.00  0.00     0.029 A 
ATOM     57  C   UNL A   1      44.579  29.914  31.873  1.00  0.00     0.049 A 
ATOM     58  H   UNL A   1      43.855  28.215  30.850  1.00  0.00     0.167 HD
ATOM     59  C   UNL A   1      42.258  30.517  31.251  1.00  0.00     0.074 A 
ATOM     60  C   UNL A   1      41.120  31.410  31.246  1.00  0.00     0.031 C 
ATOM     61  C   UNL A   1      43.445  30.801  31.842  1.00  0.00     0.037 A 
BRANCH  48  62
ATOM     62  C   UNL A   1      47.565  26.226  31.537  1.00  0.00     0.057 A 
ATOM     63  C   UNL A   1      47.750  25.461  32.697  1.00  0.00     0.134 A 
ATOM     64  C   UNL A   1      48.682  26.437  30.718  1.00  0.00     0.134 A 
ATOM     65  F   UNL A   1      46.725  25.231  33.531  1.00  0.00    -0.206 F 
ATOM     66  C   UNL A   1      48.999  24.939  33.034  1.00  0.00     0.040 A 
ATOM     67  C   UNL A   1      49.929  25.895  31.030  1.00  0.00     0.040 A 
ATOM     68  F   UNL A   1      48.573  27.155  29.590  1.00  0.00    -0.206 F 
ATOM     69  C   UNL A   1      50.092  25.146  32.193  1.00  0.00     0.006 A 
ENDBRANCH  48  62
BRANCH  49  70
ATOM     70  C   UNL A   1      38.341  29.128  29.064  1.00  0.00     0.057 A 
ATOM     71  C   UNL A   1      38.013  29.632  27.798  1.00  0.00     0.134 A 
ATOM     72  C   UNL A   1      37.327  29.109  30.029  1.00  0.00     0.134 A 
ATOM     73  F   UNL A   1      38.945  29.695  26.835  1.00  0.00    -0.206 F 
ATOM     74  C   UNL A   1      36.743  30.136  27.517  1.00  0.00     0.040 A 
ATOM     75  C   UNL A   1      36.042  29.580  29.752  1.00  0.00     0.040 A 
ATOM     76  F   UNL A   1      37.571  28.631  31.259  1.00  0.00    -0.206 F 
ATOM     77  C   UNL A   1      35.752  30.109  28.496  1.00  0.00     0.006 A 
ENDBRANCH  49  70
BRANCH  61  78
ATOM     78  C   UNL A   1      43.591  32.151  32.484  1.00  0.00     0.057 A 
ATOM     79  C   UNL A   1      43.193  32.394  33.804  1.00  0.00     0.134 A 
ATOM     80  C   UNL A   1      44.178  33.210  31.780  1.00  0.00     0.134 A 
ATOM     81  F   UNL A   1      42.613  31.425  34.530  1.00  0.00    -0.206 F 
ATOM     82  C   UNL A   1      43.347  33.650  34.392  1.00  0.00     0.040 A 
ATOM     83  C   UNL A   1      44.366  34.462  32.368  1.00  0.00     0.040 A 
ATOM     84  F   UNL A   1      44.592  33.042  30.515  1.00  0.00    -0.206 F 
ATOM     85  C   UNL A   1      43.943  34.687  33.675  1.00  0.00     0.006 A 
ENDBRANCH  61  78
ENDBRANCH  35  36
ENDBRANCH  27  30
ENDBRANCH  25  26
ENDBRANCH  24  25
ENDBRANCH  23  24
ENDBRANCH   1  23
TORSDOF 16
ENDMDL
MODEL 3
REMARK VINA RESULT:     -11.2      2.154      6.975
REMARK SMILES CN(CC(C)(C)O)C(=O)N[C@H]1CC[C@H](C(=O)NCCCCNC(=O)c2ccc(-c3c4nc(c(-c5c(F)cccc5F)c5ccc([nH]5)c(-c5c(F)cccc5F)c5nc(c(-c6c(F)cccc6F)c6ccc3[nH]6)C=C5)C=C4)cc2)C1
REMARK SMILES IDX 18 1 17 2 15 3 16 4 14 6 11 7 12 8 79 9 13 10 10 11 8 12
REMARK SMILES IDX 9 13 2 15 1 16 3 17 4 18 5 19 6 20 7 21 19 23 20 24 21 25
REMARK SMILES IDX 22 26 23 27 24 29 25 30 26 31 78 32 27 33 77 34 28 35 29 36
REMARK SMILES IDX 30 37 71 38 31 39 76 40 70 41 72 42 32 43 75 44 69 45 68 46
REMARK SMILES IDX 33 48 59 49 42 50 58 51 43 52 46 53 57 54 73 55 44 56 45 57
REMARK SMILES IDX 56 59 74 60 47 61 34 62 35 63 40 64 36 65 37 66 39 67 41 68
REMARK SMILES IDX 38 69 60 70 61 71 66 72 62 73 63 74 65 75 67 76 64 77 48 78
REMARK SMILES IDX 49 79 54 80 50 81 51 82 53 83 55 84 52 85
REMARK H PARENT 17 5 10 14 7 22 22 28 72 47 46 58
REMARK Flexibility Score: inf
ROOT
ATOM      1  C   UNL A   1      34.395  32.286  29.147  1.00  0.00     0.116 C 
ENDROOT
BRANCH   1   2
ATOM      2  N   UNL A   1      35.209  31.398  28.334  1.00  0.00    -0.356 N 
ATOM      3  C   UNL A   1      34.896  30.270  27.639  1.00  0.00     0.223 C 
ATOM      4  O   UNL A   1      35.823  29.650  27.115  1.00  0.00    -0.275 OA
ATOM      5  H   UNL A   1      36.156  31.660  28.276  1.00  0.00     0.163 HD
BRANCH   3   6
ATOM      6  C   UNL A   1      33.453  29.849  27.403  1.00  0.00     0.080 C 
ATOM      7  C   UNL A   1      32.406  28.615  25.548  1.00  0.00     0.084 C 
ATOM      8  C   UNL A   1      31.857  30.047  25.546  1.00  0.00     0.026 C 
ATOM      9  C   UNL A   1      33.458  28.544  26.639  1.00  0.00     0.038 C 
ATOM     10  C   UNL A   1      32.567  30.825  26.649  1.00  0.00     0.015 C 
BRANCH   7  11
ATOM     11  N   UNL A   1      31.366  27.621  25.698  1.00  0.00    -0.335 N 
ATOM     12  C   UNL A   1      30.680  26.840  24.842  1.00  0.00     0.317 C 
ATOM     13  O   UNL A   1      30.011  25.949  25.375  1.00  0.00    -0.249 OA
ATOM     14  H   UNL A   1      31.098  27.485  26.636  1.00  0.00     0.165 HD
BRANCH  12  15
ATOM     15  N   UNL A   1      30.770  26.955  23.481  1.00  0.00    -0.325 N 
ATOM     16  C   UNL A   1      29.918  27.992  22.909  1.00  0.00     0.148 C 
BRANCH  15  17
ATOM     17  C   UNL A   1      31.552  26.181  22.502  1.00  0.00     0.155 C 
BRANCH  17  18
ATOM     18  C   UNL A   1      33.036  26.526  22.193  1.00  0.00     0.077 C 
ATOM     19  C   UNL A   1      33.493  27.974  22.378  1.00  0.00     0.043 C 
ATOM     20  C   UNL A   1      33.901  25.616  23.093  1.00  0.00     0.043 C 
BRANCH  18  21
ATOM     21  O   UNL A   1      33.288  26.146  20.832  1.00  0.00    -0.389 OA
ATOM     22  H   UNL A   1      32.466  25.827  20.429  1.00  0.00     0.211 HD
ENDBRANCH  18  21
ENDBRANCH  17  18
ENDBRANCH  15  17
ENDBRANCH  12  15
ENDBRANCH   7  11
ENDBRANCH   3   6
ENDBRANCH   1   2
BRANCH   1  23
ATOM     23  C   UNL A   1      34.599  33.740  28.734  1.00  0.00     0.023 C 
BRANCH  23  24
ATOM     24  C   UNL A   1      33.327  34.585  28.807  1.00  0.00     0.023 C 
BRANCH  24  25
ATOM     25  C   UNL A   1      33.509  35.952  29.456  1.00  0.00     0.116 C 
BRANCH  25  26
ATOM     26  N   UNL A   1      32.532  36.205  30.501  1.00  0.00    -0.352 N 
ATOM     27  C   UNL A   1      32.520  35.765  31.805  1.00  0.00     0.251 C 
ATOM     28  H   UNL A   1      31.771  36.772  30.241  1.00  0.00     0.163 HD
ATOM     29  O   UNL A   1      31.531  35.927  32.502  1.00  0.00    -0.269 OA
BRANCH  27  30
ATOM     30  C   UNL A   1      33.709  35.068  32.345  1.00  0.00     0.039 A 
ATOM     31  C   UNL A   1      33.565  33.769  32.833  1.00  0.00     0.014 A 
ATOM     32  C   UNL A   1      34.961  35.687  32.343  1.00  0.00     0.014 A 
ATOM     33  C   UNL A   1      34.695  33.062  33.252  1.00  0.00     0.010 A 
ATOM     34  C   UNL A   1      36.093  34.953  32.680  1.00  0.00     0.010 A 
ATOM     35  C   UNL A   1      35.973  33.633  33.139  1.00  0.00    -0.014 A 
BRANCH  35  36
ATOM     36  C   UNL A   1      37.196  32.863  33.489  1.00  0.00     0.031 A 
ATOM     37  C   UNL A   1      37.940  33.166  34.761  1.00  0.00     0.074 A 
ATOM     38  C   UNL A   1      37.670  31.939  32.631  1.00  0.00     0.049 A 
ATOM     39  N   UNL A   1      39.058  32.649  35.207  1.00  0.00    -0.248 NA
ATOM     40  C   UNL A   1      37.371  34.204  35.637  1.00  0.00     0.031 C 
ATOM     41  C   UNL A   1      37.069  31.587  31.342  1.00  0.00     0.029 A 
ATOM     42  N   UNL A   1      38.779  31.132  32.706  1.00  0.00    -0.354 N 
ATOM     43  C   UNL A   1      39.334  33.311  36.396  1.00  0.00     0.074 A 
ATOM     44  C   UNL A   1      38.294  34.299  36.583  1.00  0.00     0.031 C 
ATOM     45  C   UNL A   1      37.799  30.621  30.762  1.00  0.00     0.029 A 
ATOM     46  C   UNL A   1      38.944  30.314  31.613  1.00  0.00     0.049 A 
ATOM     47  H   UNL A   1      39.398  31.139  33.471  1.00  0.00     0.167 HD
ATOM     48  C   UNL A   1      40.353  33.103  37.262  1.00  0.00     0.037 A 
ATOM     49  C   UNL A   1      39.916  29.427  31.324  1.00  0.00     0.037 A 
ATOM     50  C   UNL A   1      41.365  32.094  37.092  1.00  0.00     0.049 A 
ATOM     51  C   UNL A   1      41.040  29.225  32.306  1.00  0.00     0.074 A 
ATOM     52  C   UNL A   1      42.387  31.748  37.960  1.00  0.00     0.029 A 
ATOM     53  N   UNL A   1      41.488  31.276  35.981  1.00  0.00    -0.354 N 
ATOM     54  N   UNL A   1      41.233  29.793  33.472  1.00  0.00    -0.248 NA
ATOM     55  C   UNL A   1      42.078  28.254  31.933  1.00  0.00     0.031 C 
ATOM     56  C   UNL A   1      43.165  30.762  37.346  1.00  0.00     0.029 A 
ATOM     57  C   UNL A   1      42.591  30.450  36.126  1.00  0.00     0.049 A 
ATOM     58  H   UNL A   1      40.883  31.281  35.205  1.00  0.00     0.167 HD
ATOM     59  C   UNL A   1      42.390  29.219  33.985  1.00  0.00     0.074 A 
ATOM     60  C   UNL A   1      42.845  28.250  33.013  1.00  0.00     0.031 C 
ATOM     61  C   UNL A   1      43.020  29.474  35.158  1.00  0.00     0.037 A 
BRANCH  48  62
ATOM     62  C   UNL A   1      40.434  33.978  38.479  1.00  0.00     0.057 A 
ATOM     63  C   UNL A   1      41.171  35.170  38.488  1.00  0.00     0.134 A 
ATOM     64  C   UNL A   1      39.701  33.663  39.631  1.00  0.00     0.134 A 
ATOM     65  F   UNL A   1      41.904  35.526  37.423  1.00  0.00    -0.206 F 
ATOM     66  C   UNL A   1      41.186  36.008  39.604  1.00  0.00     0.040 A 
ATOM     67  C   UNL A   1      39.686  34.507  40.741  1.00  0.00     0.040 A 
ATOM     68  F   UNL A   1      38.969  32.540  39.685  1.00  0.00    -0.206 F 
ATOM     69  C   UNL A   1      40.433  35.683  40.731  1.00  0.00     0.006 A 
ENDBRANCH  48  62
BRANCH  49  70
ATOM     70  C   UNL A   1      39.883  28.652  30.055  1.00  0.00     0.057 A 
ATOM     71  C   UNL A   1      40.520  29.128  28.901  1.00  0.00     0.134 A 
ATOM     72  C   UNL A   1      39.172  27.452  29.947  1.00  0.00     0.134 A 
ATOM     73  F   UNL A   1      41.202  30.283  28.934  1.00  0.00    -0.206 F 
ATOM     74  C   UNL A   1      40.416  28.461  27.679  1.00  0.00     0.040 A 
ATOM     75  C   UNL A   1      39.087  26.757  28.739  1.00  0.00     0.040 A 
ATOM     76  F   UNL A   1      38.547  26.935  31.016  1.00  0.00    -0.206 F 
ATOM     77  C   UNL A   1      39.699  27.270  27.597  1.00  0.00     0.006 A 
ENDBRANCH  49  70
BRANCH  61  78
ATOM     78  C   UNL A   1      44.238  28.655  35.480  1.00  0.00     0.057 A 
ATOM     79  C   UNL A   1      44.165  27.482  36.241  1.00  0.00     0.134 A 
ATOM     80  C   UNL A   1      45.494  29.028  34.984  1.00  0.00     0.134 A 
ATOM     81  F   UNL A   1      42.995  27.075  36.756  1.00  0.00    -0.206 F 
ATOM     82  C   UNL A   1      45.304  26.724  36.521  1.00  0.00     0.040 A 
ATOM     83  C   UNL A   1      46.633  28.261  35.231  1.00  0.00     0.040 A 
ATOM     84  F   UNL A   1      45.631  30.135  34.239  1.00  0.00    -0.206 F 
ATOM     85  C   UNL A   1      46.541  27.109  36.009  1.00  0.00     0.006 A 
ENDBRANCH  61  78
ENDBRANCH  35  36
ENDBRANCH  27  30
ENDBRANCH  25  26
ENDBRANCH  24  25
ENDBRANCH  23  24
ENDBRANCH   1  23
TORSDOF 16
ENDMDL
