MODEL 1
REMARK VINA RESULT:     -11.2      0.000      0.000
REMARK SMILES C[NH2+][C@]1(C(=O)NCCCCNC(=O)c2ccc(-c3c4nc(c(-c5c(F)cccc5F)c5ccc([nH]5)c(-c5c(F)cccc5F)c5nc(c(-c6c(F)cccc6F)c6ccc3[nH]6)C=C5)C=C4)cc2)CCC[C@@H](Sc2nccn2C)C1
REMARK SMILES IDX 8 1 7 2 6 3 4 4 5 5 3 7 68 8 79 9 69 10 71 11 70 12 2 13
REMARK SMILES IDX 1 14 72 17 73 18 74 19 77 20 75 21 76 22 78 23 9 24 10 25
REMARK SMILES IDX 11 26 12 27 13 29 14 30 15 31 67 32 16 33 66 34 17 35 18 36
REMARK SMILES IDX 19 37 60 38 20 39 65 40 59 41 61 42 21 43 64 44 58 45 57 46
REMARK SMILES IDX 22 48 48 49 31 50 47 51 32 52 35 53 46 54 62 55 33 56 34 57
REMARK SMILES IDX 45 59 63 60 36 61 23 62 24 63 29 64 25 65 26 66 28 67 30 68
REMARK SMILES IDX 27 69 49 70 50 71 55 72 51 73 52 74 54 75 56 76 53 77 37 78
REMARK SMILES IDX 38 79 43 80 39 81 40 82 42 83 44 84 41 85
REMARK H PARENT 6 6 2 15 2 16 11 28 61 47 35 58
REMARK Flexibility Score: inf
ROOT
ATOM      1  C   UNL A   1      36.835  20.801  24.765  1.00  0.00     0.023 C 
ENDROOT
BRANCH   1   2
ATOM      2  C   UNL A   1      35.394  20.358  25.001  1.00  0.00     0.116 C 
BRANCH   2   3
ATOM      3  N   UNL A   1      34.824  20.919  26.217  1.00  0.00    -0.351 N 
ATOM      4  C   UNL A   1      33.890  21.902  26.404  1.00  0.00     0.281 C 
ATOM      5  O   UNL A   1      33.440  21.997  27.551  1.00  0.00    -0.268 OA
ATOM      6  H   UNL A   1      35.171  20.524  27.049  1.00  0.00     0.163 HD
BRANCH   4   7
ATOM      7  C   UNL A   1      33.409  22.819  25.224  1.00  0.00     0.176 C 
ATOM      8  C   UNL A   1      32.641  21.985  24.161  1.00  0.00     0.079 C 
ATOM      9  C   UNL A   1      32.555  23.967  25.849  1.00  0.00     0.094 C 
ATOM     10  C   UNL A   1      31.799  22.818  23.204  1.00  0.00     0.008 C 
ATOM     11  C   UNL A   1      31.601  24.669  24.878  1.00  0.00     0.061 C 
ATOM     12  C   UNL A   1      30.832  23.709  23.972  1.00  0.00     0.015 C 
BRANCH   7  13
ATOM     13  N   UNL A   1      34.552  23.524  24.549  1.00  0.00    -0.336 N 
ATOM     14  C   UNL A   1      35.336  24.437  25.377  1.00  0.00     0.331 C 
ATOM     15  H   UNL A   1      35.186  22.812  24.188  1.00  0.00     0.346 HD
ATOM     16  H   UNL A   1      34.121  24.110  23.834  1.00  0.00     0.346 HD
ENDBRANCH   7  13
BRANCH  11  17
ATOM     17  S   UNL A   1      30.462  25.829  25.733  1.00  0.00    -0.084 SA
BRANCH  17  18
ATOM     18  C   UNL A   1      31.023  27.395  25.242  1.00  0.00     0.167 A 
ATOM     19  N   UNL A   1      30.959  27.877  24.021  1.00  0.00    -0.231 NA
ATOM     20  N   UNL A   1      31.529  28.323  26.116  1.00  0.00    -0.329 N 
ATOM     21  C   UNL A   1      31.404  29.169  24.109  1.00  0.00     0.132 A 
ATOM     22  C   UNL A   1      31.783  29.464  25.395  1.00  0.00     0.108 A 
ATOM     23  C   UNL A   1      31.777  28.203  27.531  1.00  0.00     0.152 C 
ENDBRANCH  17  18
ENDBRANCH  11  17
ENDBRANCH   4   7
ENDBRANCH   2   3
ENDBRANCH   1   2
BRANCH   1  24
ATOM     24  C   UNL A   1      37.881  19.702  24.937  1.00  0.00     0.023 C 
BRANCH  24  25
ATOM     25  C   UNL A   1      39.108  20.092  25.753  1.00  0.00     0.116 C 
BRANCH  25  26
ATOM     26  N   UNL A   1      40.126  19.053  25.791  1.00  0.00    -0.352 N 
ATOM     27  C   UNL A   1      41.472  19.168  26.040  1.00  0.00     0.251 C 
ATOM     28  H   UNL A   1      39.806  18.139  25.612  1.00  0.00     0.163 HD
ATOM     29  O   UNL A   1      42.208  18.192  25.935  1.00  0.00    -0.269 OA
BRANCH  27  30
ATOM     30  C   UNL A   1      42.037  20.488  26.395  1.00  0.00     0.039 A 
ATOM     31  C   UNL A   1      42.504  21.318  25.374  1.00  0.00     0.014 A 
ATOM     32  C   UNL A   1      42.068  20.919  27.724  1.00  0.00     0.014 A 
ATOM     33  C   UNL A   1      42.929  22.613  25.676  1.00  0.00     0.010 A 
ATOM     34  C   UNL A   1      42.425  22.232  28.015  1.00  0.00     0.010 A 
ATOM     35  C   UNL A   1      42.853  23.094  26.994  1.00  0.00    -0.014 A 
BRANCH  35  36
ATOM     36  C   UNL A   1      43.209  24.497  27.323  1.00  0.00     0.031 A 
ATOM     37  C   UNL A   1      44.646  24.937  27.299  1.00  0.00     0.074 A 
ATOM     38  C   UNL A   1      42.248  25.355  27.715  1.00  0.00     0.049 A 
ATOM     39  N   UNL A   1      45.163  26.092  27.631  1.00  0.00    -0.248 NA
ATOM     40  C   UNL A   1      45.636  23.937  26.869  1.00  0.00     0.031 C 
ATOM     41  C   UNL A   1      40.822  25.040  27.828  1.00  0.00     0.029 A 
ATOM     42  N   UNL A   1      42.327  26.670  28.102  1.00  0.00    -0.354 N 
ATOM     43  C   UNL A   1      46.534  25.954  27.468  1.00  0.00     0.074 A 
ATOM     44  C   UNL A   1      46.775  24.588  27.054  1.00  0.00     0.031 C 
ATOM     45  C   UNL A   1      40.160  26.135  28.234  1.00  0.00     0.029 A 
ATOM     46  C   UNL A   1      41.115  27.218  28.444  1.00  0.00     0.049 A 
ATOM     47  H   UNL A   1      43.173  27.173  28.132  1.00  0.00     0.167 HD
ATOM     48  C   UNL A   1      47.505  26.884  27.626  1.00  0.00     0.037 A 
ATOM     49  C   UNL A   1      40.808  28.454  28.882  1.00  0.00     0.037 A 
ATOM     50  C   UNL A   1      47.263  28.250  28.010  1.00  0.00     0.049 A 
ATOM     51  C   UNL A   1      41.903  29.470  29.048  1.00  0.00     0.074 A 
ATOM     52  C   UNL A   1      48.175  29.283  28.140  1.00  0.00     0.029 A 
ATOM     53  N   UNL A   1      46.019  28.772  28.327  1.00  0.00    -0.354 N 
ATOM     54  N   UNL A   1      43.190  29.342  28.830  1.00  0.00    -0.248 NA
ATOM     55  C   UNL A   1      41.503  30.805  29.518  1.00  0.00     0.031 C 
ATOM     56  C   UNL A   1      47.486  30.424  28.568  1.00  0.00     0.029 A 
ATOM     57  C   UNL A   1      46.141  30.109  28.666  1.00  0.00     0.049 A 
ATOM     58  H   UNL A   1      45.174  28.268  28.312  1.00  0.00     0.167 HD
ATOM     59  C   UNL A   1      43.748  30.583  29.108  1.00  0.00     0.074 A 
ATOM     60  C   UNL A   1      42.660  31.453  29.500  1.00  0.00     0.031 C 
ATOM     61  C   UNL A   1      45.046  30.966  29.044  1.00  0.00     0.037 A 
BRANCH  48  62
ATOM     62  C   UNL A   1      48.920  26.455  27.375  1.00  0.00     0.057 A 
ATOM     63  C   UNL A   1      49.739  25.979  28.408  1.00  0.00     0.134 A 
ATOM     64  C   UNL A   1      49.461  26.488  26.084  1.00  0.00     0.134 A 
ATOM     65  F   UNL A   1      49.285  25.935  29.670  1.00  0.00    -0.206 F 
ATOM     66  C   UNL A   1      51.054  25.577  28.170  1.00  0.00     0.040 A 
ATOM     67  C   UNL A   1      50.767  26.063  25.830  1.00  0.00     0.040 A 
ATOM     68  F   UNL A   1      48.729  26.926  25.049  1.00  0.00    -0.206 F 
ATOM     69  C   UNL A   1      51.569  25.612  26.876  1.00  0.00     0.006 A 
ENDBRANCH  48  62
BRANCH  49  70
ATOM     70  C   UNL A   1      39.396  28.812  29.171  1.00  0.00     0.057 A 
ATOM     71  C   UNL A   1      38.583  29.374  28.180  1.00  0.00     0.134 A 
ATOM     72  C   UNL A   1      38.832  28.611  30.435  1.00  0.00     0.134 A 
ATOM     73  F   UNL A   1      39.074  29.608  26.954  1.00  0.00    -0.206 F 
ATOM     74  C   UNL A   1      37.262  29.742  28.443  1.00  0.00     0.040 A 
ATOM     75  C   UNL A   1      37.506  28.953  30.704  1.00  0.00     0.040 A 
ATOM     76  F   UNL A   1      39.560  28.070  31.423  1.00  0.00    -0.206 F 
ATOM     77  C   UNL A   1      36.719  29.527  29.708  1.00  0.00     0.006 A 
ENDBRANCH  49  70
BRANCH  61  78
ATOM     78  C   UNL A   1      45.355  32.396  29.370  1.00  0.00     0.057 A 
ATOM     79  C   UNL A   1      45.731  32.795  30.659  1.00  0.00     0.134 A 
ATOM     80  C   UNL A   1      45.316  33.378  28.372  1.00  0.00     0.134 A 
ATOM     81  F   UNL A   1      45.774  31.904  31.660  1.00  0.00    -0.206 F 
ATOM     82  C   UNL A   1      46.037  34.126  30.948  1.00  0.00     0.040 A 
ATOM     83  C   UNL A   1      45.643  34.707  28.645  1.00  0.00     0.040 A 
ATOM     84  F   UNL A   1      44.971  33.060  27.116  1.00  0.00    -0.206 F 
ATOM     85  C   UNL A   1      46.000  35.085  29.938  1.00  0.00     0.006 A 
ENDBRANCH  61  78
ENDBRANCH  35  36
ENDBRANCH  27  30
ENDBRANCH  25  26
ENDBRANCH  24  25
ENDBRANCH   1  24
TORSDOF 14
ENDMDL
MODEL 2
REMARK VINA RESULT:     -11.2      0.083      1.612
REMARK SMILES C[NH2+][C@]1(C(=O)NCCCCNC(=O)c2ccc(-c3c4nc(c(-c5c(F)cccc5F)c5ccc([nH]5)c(-c5c(F)cccc5F)c5nc(c(-c6c(F)cccc6F)c6ccc3[nH]6)C=C5)C=C4)cc2)CCC[C@@H](Sc2nccn2C)C1
REMARK SMILES IDX 8 1 7 2 6 3 4 4 5 5 3 7 68 8 79 9 69 10 71 11 70 12 2 13
REMARK SMILES IDX 1 14 72 17 73 18 74 19 77 20 75 21 76 22 78 23 9 24 10 25
REMARK SMILES IDX 11 26 12 27 13 29 14 30 15 31 67 32 16 33 66 34 17 35 18 36
REMARK SMILES IDX 19 37 60 38 20 39 65 40 59 41 61 42 21 43 64 44 58 45 57 46
REMARK SMILES IDX 22 48 48 49 31 50 47 51 32 52 35 53 46 54 62 55 33 56 34 57
REMARK SMILES IDX 45 59 63 60 36 61 23 62 24 63 29 64 25 65 26 66 28 67 30 68
REMARK SMILES IDX 27 69 49 70 50 71 55 72 51 73 52 74 54 75 56 76 53 77 37 78
REMARK SMILES IDX 38 79 43 80 39 81 40 82 42 83 44 84 41 85
REMARK H PARENT 6 6 2 15 2 16 11 28 61 47 35 58
REMARK Flexibility Score: inf
ROOT
ATOM      1  C   UNL A   1      36.821  20.842  24.776  1.00  0.00     0.023 C 
ENDROOT
BRANCH   1   2
ATOM      2  C   UNL A   1      35.368  20.435  25.002  1.00  0.00     0.116 C 
BRANCH   2   3
ATOM      3  N   UNL A   1      34.807  21.003  26.218  1.00  0.00    -0.351 N 
ATOM      4  C   UNL A   1      33.872  21.985  26.406  1.00  0.00     0.281 C 
ATOM      5  O   UNL A   1      33.429  22.087  27.555  1.00  0.00    -0.268 OA
ATOM      6  H   UNL A   1      35.160  20.614  27.051  1.00  0.00     0.163 HD
BRANCH   4   7
ATOM      7  C   UNL A   1      33.380  22.893  25.222  1.00  0.00     0.176 C 
ATOM      8  C   UNL A   1      32.608  22.050  24.171  1.00  0.00     0.079 C 
ATOM      9  C   UNL A   1      32.528  24.043  25.846  1.00  0.00     0.094 C 
ATOM     10  C   UNL A   1      31.757  22.875  23.214  1.00  0.00     0.008 C 
ATOM     11  C   UNL A   1      31.566  24.737  24.877  1.00  0.00     0.061 C 
ATOM     12  C   UNL A   1      30.793  23.768  23.983  1.00  0.00     0.015 C 
BRANCH   7  13
ATOM     13  N   UNL A   1      34.517  23.596  24.535  1.00  0.00    -0.336 N 
ATOM     14  C   UNL A   1      35.376  24.425  25.378  1.00  0.00     0.331 C 
ATOM     15  H   UNL A   1      35.104  22.885  24.100  1.00  0.00     0.346 HD
ATOM     16  H   UNL A   1      34.077  24.243  23.881  1.00  0.00     0.346 HD
ENDBRANCH   7  13
BRANCH  11  17
ATOM     17  S   UNL A   1      30.430  25.900  25.731  1.00  0.00    -0.084 SA
BRANCH  17  18
ATOM     18  C   UNL A   1      31.027  27.465  25.283  1.00  0.00     0.167 A 
ATOM     19  N   UNL A   1      30.982  27.976  24.073  1.00  0.00    -0.231 NA
ATOM     20  N   UNL A   1      31.544  28.361  26.182  1.00  0.00    -0.329 N 
ATOM     21  C   UNL A   1      31.453  29.257  24.195  1.00  0.00     0.132 A 
ATOM     22  C   UNL A   1      31.828  29.513  25.490  1.00  0.00     0.108 A 
ATOM     23  C   UNL A   1      31.778  28.203  27.595  1.00  0.00     0.152 C 
ENDBRANCH  17  18
ENDBRANCH  11  17
ENDBRANCH   4   7
ENDBRANCH   2   3
ENDBRANCH   1   2
BRANCH   1  24
ATOM     24  C   UNL A   1      37.843  19.730  25.001  1.00  0.00     0.023 C 
BRANCH  24  25
ATOM     25  C   UNL A   1      39.103  20.145  25.751  1.00  0.00     0.116 C 
BRANCH  25  26
ATOM     26  N   UNL A   1      40.109  19.095  25.809  1.00  0.00    -0.352 N 
ATOM     27  C   UNL A   1      41.454  19.197  26.066  1.00  0.00     0.251 C 
ATOM     28  H   UNL A   1      39.778  18.183  25.639  1.00  0.00     0.163 HD
ATOM     29  O   UNL A   1      42.179  18.211  25.978  1.00  0.00    -0.269 OA
BRANCH  27  30
ATOM     30  C   UNL A   1      42.032  20.515  26.408  1.00  0.00     0.039 A 
ATOM     31  C   UNL A   1      42.455  21.354  25.374  1.00  0.00     0.014 A 
ATOM     32  C   UNL A   1      42.119  20.934  27.737  1.00  0.00     0.014 A 
ATOM     33  C   UNL A   1      42.892  22.646  25.670  1.00  0.00     0.010 A 
ATOM     34  C   UNL A   1      42.486  22.245  28.024  1.00  0.00     0.010 A 
ATOM     35  C   UNL A   1      42.871  23.117  26.993  1.00  0.00    -0.014 A 
BRANCH  35  36
ATOM     36  C   UNL A   1      43.238  24.517  27.319  1.00  0.00     0.031 A 
ATOM     37  C   UNL A   1      44.678  24.950  27.276  1.00  0.00     0.074 A 
ATOM     38  C   UNL A   1      42.287  25.381  27.725  1.00  0.00     0.049 A 
ATOM     39  N   UNL A   1      45.205  26.101  27.603  1.00  0.00    -0.248 NA
ATOM     40  C   UNL A   1      45.657  23.944  26.833  1.00  0.00     0.031 C 
ATOM     41  C   UNL A   1      40.862  25.073  27.855  1.00  0.00     0.029 A 
ATOM     42  N   UNL A   1      42.379  26.695  28.111  1.00  0.00    -0.354 N 
ATOM     43  C   UNL A   1      46.574  25.956  27.421  1.00  0.00     0.074 A 
ATOM     44  C   UNL A   1      46.801  24.589  27.003  1.00  0.00     0.031 C 
ATOM     45  C   UNL A   1      40.212  26.172  28.271  1.00  0.00     0.029 A 
ATOM     46  C   UNL A   1      41.175  27.249  28.469  1.00  0.00     0.049 A 
ATOM     47  H   UNL A   1      43.229  27.192  28.131  1.00  0.00     0.167 HD
ATOM     48  C   UNL A   1      47.552  26.880  27.568  1.00  0.00     0.037 A 
ATOM     49  C   UNL A   1      40.881  28.487  28.913  1.00  0.00     0.037 A 
ATOM     50  C   UNL A   1      47.323  28.247  27.957  1.00  0.00     0.049 A 
ATOM     51  C   UNL A   1      41.984  29.496  29.066  1.00  0.00     0.074 A 
ATOM     52  C   UNL A   1      48.242  29.275  28.075  1.00  0.00     0.029 A 
ATOM     53  N   UNL A   1      46.086  28.775  28.290  1.00  0.00    -0.354 N 
ATOM     54  N   UNL A   1      43.267  29.361  28.831  1.00  0.00    -0.248 NA
ATOM     55  C   UNL A   1      41.598  30.832  29.542  1.00  0.00     0.031 C 
ATOM     56  C   UNL A   1      47.566  30.418  28.513  1.00  0.00     0.029 A 
ATOM     57  C   UNL A   1      46.219  30.112  28.628  1.00  0.00     0.049 A 
ATOM     58  H   UNL A   1      45.238  28.276  28.285  1.00  0.00     0.167 HD
ATOM     59  C   UNL A   1      43.835  30.598  29.102  1.00  0.00     0.074 A 
ATOM     60  C   UNL A   1      42.757  31.475  29.509  1.00  0.00     0.031 C 
ATOM     61  C   UNL A   1      45.134  30.974  29.022  1.00  0.00     0.037 A 
BRANCH  48  62
ATOM     62  C   UNL A   1      48.961  26.442  27.298  1.00  0.00     0.057 A 
ATOM     63  C   UNL A   1      49.522  26.518  26.016  1.00  0.00     0.134 A 
ATOM     64  C   UNL A   1      49.775  25.969  28.334  1.00  0.00     0.134 A 
ATOM     65  F   UNL A   1      48.790  26.950  24.978  1.00  0.00    -0.206 F 
ATOM     66  C   UNL A   1      50.835  26.113  25.770  1.00  0.00     0.040 A 
ATOM     67  C   UNL A   1      51.098  25.585  28.104  1.00  0.00     0.040 A 
ATOM     68  F   UNL A   1      49.303  25.876  29.586  1.00  0.00    -0.206 F 
ATOM     69  C   UNL A   1      51.629  25.651  26.817  1.00  0.00     0.006 A 
ENDBRANCH  48  62
BRANCH  49  70
ATOM     70  C   UNL A   1      39.475  28.852  29.220  1.00  0.00     0.057 A 
ATOM     71  C   UNL A   1      38.944  28.649  30.499  1.00  0.00     0.134 A 
ATOM     72  C   UNL A   1      38.631  29.401  28.249  1.00  0.00     0.134 A 
ATOM     73  F   UNL A   1      39.700  28.108  31.466  1.00  0.00    -0.206 F 
ATOM     74  C   UNL A   1      37.617  28.962  30.797  1.00  0.00     0.040 A 
ATOM     75  C   UNL A   1      37.309  29.740  28.539  1.00  0.00     0.040 A 
ATOM     76  F   UNL A   1      39.084  29.626  27.007  1.00  0.00    -0.206 F 
ATOM     77  C   UNL A   1      36.796  29.513  29.815  1.00  0.00     0.006 A 
ENDBRANCH  49  70
BRANCH  61  78
ATOM     78  C   UNL A   1      45.457  32.402  29.344  1.00  0.00     0.057 A 
ATOM     79  C   UNL A   1      45.396  33.410  28.374  1.00  0.00     0.134 A 
ATOM     80  C   UNL A   1      45.793  32.779  30.651  1.00  0.00     0.134 A 
ATOM     81  F   UNL A   1      45.093  33.111  27.102  1.00  0.00    -0.206 F 
ATOM     82  C   UNL A   1      45.679  34.741  28.688  1.00  0.00     0.040 A 
ATOM     83  C   UNL A   1      46.055  34.109  30.981  1.00  0.00     0.040 A 
ATOM     84  F   UNL A   1      45.861  31.862  31.628  1.00  0.00    -0.206 F 
ATOM     85  C   UNL A   1      46.002  35.094  29.996  1.00  0.00     0.006 A 
ENDBRANCH  61  78
ENDBRANCH  35  36
ENDBRANCH  27  30
ENDBRANCH  25  26
ENDBRANCH  24  25
ENDBRANCH   1  24
TORSDOF 14
ENDMDL
MODEL 3
REMARK VINA RESULT:     -11.2      5.488      9.434
REMARK SMILES C[NH2+][C@]1(C(=O)NCCCCNC(=O)c2ccc(-c3c4nc(c(-c5c(F)cccc5F)c5ccc([nH]5)c(-c5c(F)cccc5F)c5nc(c(-c6c(F)cccc6F)c6ccc3[nH]6)C=C5)C=C4)cc2)CCC[C@@H](Sc2nccn2C)C1
REMARK SMILES IDX 8 1 7 2 6 3 4 4 5 5 3 7 68 8 79 9 69 10 71 11 70 12 2 13
REMARK SMILES IDX 1 14 72 17 73 18 74 19 77 20 75 21 76 22 78 23 9 24 10 25
REMARK SMILES IDX 11 26 12 27 13 29 14 30 15 31 67 32 16 33 66 34 17 35 18 36
REMARK SMILES IDX 19 37 60 38 20 39 65 40 59 41 61 42 21 43 64 44 58 45 57 46
REMARK SMILES IDX 22 48 48 49 31 50 47 51 32 52 35 53 46 54 62 55 33 56 34 57
REMARK SMILES IDX 45 59 63 60 36 61 23 62 24 63 29 64 25 65 26 66 28 67 30 68
REMARK SMILES IDX 27 69 49 70 50 71 55 72 51 73 52 74 54 75 56 76 53 77 37 78
REMARK SMILES IDX 38 79 43 80 39 81 40 82 42 83 44 84 41 85
REMARK H PARENT 6 6 2 15 2 16 11 28 61 47 35 58
REMARK Flexibility Score: inf
ROOT
ATOM      1  C   UNL A   1      31.779  30.144  27.202  1.00  0.00     0.023 C 
ENDROOT
BRANCH   1   2
ATOM      2  C   UNL A   1      31.764  29.015  26.177  1.00  0.00     0.116 C 
BRANCH   2   3
ATOM      3  N   UNL A   1      32.745  29.201  25.118  1.00  0.00    -0.351 N 
ATOM      4  C   UNL A   1      32.735  28.821  23.803  1.00  0.00     0.281 C 
ATOM      5  O   UNL A   1      33.613  29.327  23.095  1.00  0.00    -0.268 OA
ATOM      6  H   UNL A   1      33.557  29.684  25.395  1.00  0.00     0.163 HD
BRANCH   4   7
ATOM      7  C   UNL A   1      31.654  27.832  23.238  1.00  0.00     0.176 C 
ATOM      8  C   UNL A   1      31.535  26.576  24.145  1.00  0.00     0.079 C 
ATOM      9  C   UNL A   1      30.320  28.632  23.106  1.00  0.00     0.094 C 
ATOM     10  C   UNL A   1      30.263  25.766  23.924  1.00  0.00     0.008 C 
ATOM     11  C   UNL A   1      29.051  27.775  23.051  1.00  0.00     0.061 C 
ATOM     12  C   UNL A   1      29.031  26.646  24.080  1.00  0.00     0.015 C 
BRANCH   7  13
ATOM     13  N   UNL A   1      31.968  27.387  21.837  1.00  0.00    -0.336 N 
ATOM     14  C   UNL A   1      32.895  26.266  21.701  1.00  0.00     0.331 C 
ATOM     15  H   UNL A   1      31.090  27.118  21.394  1.00  0.00     0.346 HD
ATOM     16  H   UNL A   1      32.438  28.180  21.402  1.00  0.00     0.346 HD
ENDBRANCH   7  13
BRANCH  11  17
ATOM     17  S   UNL A   1      27.521  28.785  23.145  1.00  0.00    -0.084 SA
BRANCH  17  18
ATOM     18  C   UNL A   1      27.868  30.156  22.141  1.00  0.00     0.167 A 
ATOM     19  N   UNL A   1      28.045  30.118  20.839  1.00  0.00    -0.231 NA
ATOM     20  N   UNL A   1      27.920  31.442  22.612  1.00  0.00    -0.329 N 
ATOM     21  C   UNL A   1      28.181  31.424  20.447  1.00  0.00     0.132 A 
ATOM     22  C   UNL A   1      28.127  32.263  21.531  1.00  0.00     0.108 A 
ATOM     23  C   UNL A   1      27.790  31.924  23.964  1.00  0.00     0.152 C 
ENDBRANCH  17  18
ENDBRANCH  11  17
ENDBRANCH   4   7
ENDBRANCH   2   3
ENDBRANCH   1   2
BRANCH   1  24
ATOM     24  C   UNL A   1      31.794  31.551  26.608  1.00  0.00     0.023 C 
BRANCH  24  25
ATOM     25  C   UNL A   1      32.969  32.424  27.031  1.00  0.00     0.116 C 
BRANCH  25  26
ATOM     26  N   UNL A   1      32.570  33.758  27.455  1.00  0.00    -0.352 N 
ATOM     27  C   UNL A   1      33.080  34.534  28.467  1.00  0.00     0.251 C 
ATOM     28  H   UNL A   1      31.829  34.160  26.945  1.00  0.00     0.163 HD
ATOM     29  O   UNL A   1      32.553  35.605  28.752  1.00  0.00    -0.269 OA
BRANCH  27  30
ATOM     30  C   UNL A   1      34.243  34.051  29.241  1.00  0.00     0.039 A 
ATOM     31  C   UNL A   1      34.025  33.187  30.317  1.00  0.00     0.014 A 
ATOM     32  C   UNL A   1      35.543  34.414  28.880  1.00  0.00     0.014 A 
ATOM     33  C   UNL A   1      35.116  32.626  30.984  1.00  0.00     0.010 A 
ATOM     34  C   UNL A   1      36.628  33.800  29.498  1.00  0.00     0.010 A 
ATOM     35  C   UNL A   1      36.425  32.895  30.553  1.00  0.00    -0.014 A 
BRANCH  35  36
ATOM     36  C   UNL A   1      37.595  32.235  31.184  1.00  0.00     0.031 A 
ATOM     37  C   UNL A   1      38.332  31.146  30.454  1.00  0.00     0.074 A 
ATOM     38  C   UNL A   1      37.951  32.564  32.440  1.00  0.00     0.049 A 
ATOM     39  N   UNL A   1      39.323  30.399  30.867  1.00  0.00    -0.248 NA
ATOM     40  C   UNL A   1      37.875  30.840  29.089  1.00  0.00     0.031 C 
ATOM     41  C   UNL A   1      37.289  33.570  33.274  1.00  0.00     0.029 A 
ATOM     42  N   UNL A   1      38.954  32.079  33.242  1.00  0.00    -0.354 N 
ATOM     43  C   UNL A   1      39.597  29.525  29.824  1.00  0.00     0.074 A 
ATOM     44  C   UNL A   1      38.637  29.801  28.778  1.00  0.00     0.031 C 
ATOM     45  C   UNL A   1      37.916  33.641  34.459  1.00  0.00     0.029 A 
ATOM     46  C   UNL A   1      39.000  32.665  34.483  1.00  0.00     0.049 A 
ATOM     47  H   UNL A   1      39.582  31.377  32.953  1.00  0.00     0.167 HD
ATOM     48  C   UNL A   1      40.573  28.591  29.735  1.00  0.00     0.037 A 
ATOM     49  C   UNL A   1      39.822  32.436  35.527  1.00  0.00     0.037 A 
ATOM     50  C   UNL A   1      41.546  28.335  30.764  1.00  0.00     0.049 A 
ATOM     51  C   UNL A   1      40.899  31.396  35.402  1.00  0.00     0.074 A 
ATOM     52  C   UNL A   1      42.611  27.451  30.744  1.00  0.00     0.029 A 
ATOM     53  N   UNL A   1      41.573  28.964  31.999  1.00  0.00    -0.354 N 
ATOM     54  N   UNL A   1      41.185  30.619  34.385  1.00  0.00    -0.248 NA
ATOM     55  C   UNL A   1      41.770  31.202  36.570  1.00  0.00     0.031 C 
ATOM     56  C   UNL A   1      43.262  27.521  31.980  1.00  0.00     0.029 A 
ATOM     57  C   UNL A   1      42.626  28.477  32.754  1.00  0.00     0.049 A 
ATOM     58  H   UNL A   1      40.938  29.656  32.294  1.00  0.00     0.167 HD
ATOM     59  C   UNL A   1      42.284  29.867  34.778  1.00  0.00     0.074 A 
ATOM     60  C   UNL A   1      42.620  30.287  36.123  1.00  0.00     0.031 C 
ATOM     61  C   UNL A   1      42.954  28.913  34.088  1.00  0.00     0.037 A 
BRANCH  48  62
ATOM     62  C   UNL A   1      40.640  27.781  28.474  1.00  0.00     0.057 A 
ATOM     63  C   UNL A   1      41.375  28.212  27.361  1.00  0.00     0.134 A 
ATOM     64  C   UNL A   1      39.989  26.545  28.381  1.00  0.00     0.134 A 
ATOM     65  F   UNL A   1      42.010  29.394  27.382  1.00  0.00    -0.206 F 
ATOM     66  C   UNL A   1      41.438  27.454  26.191  1.00  0.00     0.040 A 
ATOM     67  C   UNL A   1      40.067  25.766  27.224  1.00  0.00     0.040 A 
ATOM     68  F   UNL A   1      39.274  26.071  29.411  1.00  0.00    -0.206 F 
ATOM     69  C   UNL A   1      40.788  26.224  26.123  1.00  0.00     0.006 A 
ENDBRANCH  48  62
BRANCH  49  70
ATOM     70  C   UNL A   1      39.677  33.228  36.774  1.00  0.00     0.057 A 
ATOM     71  C   UNL A   1      38.777  32.836  37.772  1.00  0.00     0.134 A 
ATOM     72  C   UNL A   1      40.421  34.391  36.995  1.00  0.00     0.134 A 
ATOM     73  F   UNL A   1      38.021  31.740  37.607  1.00  0.00    -0.206 F 
ATOM     74  C   UNL A   1      38.608  33.584  38.938  1.00  0.00     0.040 A 
ATOM     75  C   UNL A   1      40.280  35.136  38.167  1.00  0.00     0.040 A 
ATOM     76  F   UNL A   1      41.305  34.814  36.079  1.00  0.00    -0.206 F 
ATOM     77  C   UNL A   1      39.365  34.736  39.140  1.00  0.00     0.006 A 
ENDBRANCH  49  70
BRANCH  61  78
ATOM     78  C   UNL A   1      44.139  28.286  34.758  1.00  0.00     0.057 A 
ATOM     79  C   UNL A   1      44.026  27.107  35.505  1.00  0.00     0.134 A 
ATOM     80  C   UNL A   1      45.415  28.848  34.621  1.00  0.00     0.134 A 
ATOM     81  F   UNL A   1      42.829  26.528  35.685  1.00  0.00    -0.206 F 
ATOM     82  C   UNL A   1      45.139  26.519  36.110  1.00  0.00     0.040 A 
ATOM     83  C   UNL A   1      46.537  28.256  35.201  1.00  0.00     0.040 A 
ATOM     84  F   UNL A   1      45.591  29.973  33.912  1.00  0.00    -0.206 F 
ATOM     85  C   UNL A   1      46.400  27.090  35.952  1.00  0.00     0.006 A 
ENDBRANCH  61  78
ENDBRANCH  35  36
ENDBRANCH  27  30
ENDBRANCH  25  26
ENDBRANCH  24  25
ENDBRANCH   1  24
TORSDOF 14
ENDMDL
