MODEL 1
REMARK VINA RESULT:     -11.6      0.000      0.000
REMARK SMILES C[C@@H](C(=O)NCCCCNC(=O)c1ccc(-c2c3nc(c(-c4c(F)cccc4F)c4ccc([nH]4)c(-c4c(F)cccc4F)c4nc(c(-c5c(F)cccc5F)c5ccc2[nH]5)C=C4)C=C3)cc1)c1ccc(Cc2ccoc2)cc1F
REMARK SMILES IDX 7 1 6 2 5 3 3 4 4 5 2 7 1 8 67 9 68 10 78 11 69 12 77 13
REMARK SMILES IDX 79 14 70 15 71 16 72 17 73 18 76 19 74 20 75 21 8 22 9 23
REMARK SMILES IDX 10 24 11 25 12 27 13 28 14 29 66 30 15 31 65 32 16 33 17 34
REMARK SMILES IDX 18 35 59 36 19 37 64 38 58 39 60 40 20 41 63 42 57 43 56 44
REMARK SMILES IDX 21 46 47 47 30 48 46 49 31 50 34 51 45 52 61 53 32 54 33 55
REMARK SMILES IDX 44 57 62 58 35 59 22 60 23 61 28 62 24 63 25 64 27 65 29 66
REMARK SMILES IDX 26 67 48 68 49 69 54 70 50 71 51 72 53 73 55 74 52 75 36 76
REMARK SMILES IDX 37 77 42 78 38 79 39 80 41 81 43 82 40 83
REMARK H PARENT 5 6 10 26 60 45 34 56
REMARK Flexibility Score: inf
ROOT
ATOM      1  C   UNL A   1      36.426  20.625  25.048  1.00  0.00     0.023 C 
ENDROOT
BRANCH   1   2
ATOM      2  C   UNL A   1      36.364  22.150  25.144  1.00  0.00     0.116 C 
BRANCH   2   3
ATOM      3  N   UNL A   1      35.831  22.610  26.411  1.00  0.00    -0.356 N 
ATOM      4  C   UNL A   1      34.541  22.858  26.797  1.00  0.00     0.227 C 
ATOM      5  O   UNL A   1      34.363  22.977  28.011  1.00  0.00    -0.274 OA
ATOM      6  H   UNL A   1      36.507  22.770  27.109  1.00  0.00     0.163 HD
BRANCH   4   7
ATOM      7  C   UNL A   1      33.406  22.875  25.756  1.00  0.00     0.108 C 
ATOM      8  C   UNL A   1      32.105  23.502  26.264  1.00  0.00     0.023 C 
BRANCH   7   9
ATOM      9  C   UNL A   1      33.039  21.516  25.168  1.00  0.00    -0.000 A 
ATOM     10  C   UNL A   1      33.013  20.392  26.009  1.00  0.00     0.008 A 
ATOM     11  C   UNL A   1      32.859  21.307  23.796  1.00  0.00     0.127 A 
ATOM     12  C   UNL A   1      32.788  19.112  25.492  1.00  0.00     0.004 A 
ATOM     13  C   UNL A   1      32.612  20.035  23.276  1.00  0.00     0.043 A 
ATOM     14  F   UNL A   1      32.979  22.325  22.932  1.00  0.00    -0.207 F 
ATOM     15  C   UNL A   1      32.579  18.917  24.118  1.00  0.00    -0.041 A 
BRANCH  15  16
ATOM     16  C   UNL A   1      32.320  17.537  23.567  1.00  0.00     0.074 C 
BRANCH  16  17
ATOM     17  C   UNL A   1      33.266  16.599  24.239  1.00  0.00    -0.005 A 
ATOM     18  C   UNL A   1      34.685  16.702  24.352  1.00  0.00     0.046 A 
ATOM     19  C   UNL A   1      32.934  15.466  24.957  1.00  0.00     0.198 A 
ATOM     20  C   UNL A   1      35.101  15.635  25.112  1.00  0.00     0.195 A 
ATOM     21  O   UNL A   1      34.039  14.879  25.485  1.00  0.00    -0.472 OA
ENDBRANCH  16  17
ENDBRANCH  15  16
ENDBRANCH   7   9
ENDBRANCH   4   7
ENDBRANCH   2   3
ENDBRANCH   1   2
BRANCH   1  22
ATOM     22  C   UNL A   1      37.805  20.040  24.741  1.00  0.00     0.023 C 
BRANCH  22  23
ATOM     23  C   UNL A   1      38.892  20.344  25.764  1.00  0.00     0.116 C 
BRANCH  23  24
ATOM     24  N   UNL A   1      39.969  19.367  25.757  1.00  0.00    -0.352 N 
ATOM     25  C   UNL A   1      41.295  19.533  26.079  1.00  0.00     0.251 C 
ATOM     26  H   UNL A   1      39.713  18.457  25.484  1.00  0.00     0.163 HD
ATOM     27  O   UNL A   1      42.092  18.618  25.899  1.00  0.00    -0.269 OA
BRANCH  25  28
ATOM     28  C   UNL A   1      41.768  20.830  26.610  1.00  0.00     0.039 A 
ATOM     29  C   UNL A   1      42.264  21.782  25.715  1.00  0.00     0.014 A 
ATOM     30  C   UNL A   1      41.711  21.113  27.978  1.00  0.00     0.014 A 
ATOM     31  C   UNL A   1      42.634  23.045  26.183  1.00  0.00     0.010 A 
ATOM     32  C   UNL A   1      42.013  22.395  28.431  1.00  0.00     0.010 A 
ATOM     33  C   UNL A   1      42.473  23.375  27.538  1.00  0.00    -0.014 A 
BRANCH  33  34
ATOM     34  C   UNL A   1      42.764  24.744  28.035  1.00  0.00     0.031 A 
ATOM     35  C   UNL A   1      44.161  25.125  28.437  1.00  0.00     0.074 A 
ATOM     36  C   UNL A   1      41.754  25.624  28.187  1.00  0.00     0.049 A 
ATOM     37  N   UNL A   1      44.595  26.247  28.956  1.00  0.00    -0.248 NA
ATOM     38  C   UNL A   1      45.205  24.105  28.255  1.00  0.00     0.031 C 
ATOM     39  C   UNL A   1      40.346  25.360  27.880  1.00  0.00     0.029 A 
ATOM     40  N   UNL A   1      41.754  26.916  28.652  1.00  0.00    -0.354 N 
ATOM     41  C   UNL A   1      45.954  26.061  29.174  1.00  0.00     0.074 A 
ATOM     42  C   UNL A   1      46.265  24.705  28.778  1.00  0.00     0.031 C 
ATOM     43  C   UNL A   1      39.625  26.461  28.145  1.00  0.00     0.029 A 
ATOM     44  C   UNL A   1      40.508  27.494  28.675  1.00  0.00     0.049 A 
ATOM     45  H   UNL A   1      42.570  27.385  28.940  1.00  0.00     0.167 HD
ATOM     46  C   UNL A   1      46.864  26.949  29.641  1.00  0.00     0.037 A 
ATOM     47  C   UNL A   1      40.118  28.715  29.089  1.00  0.00     0.037 A 
ATOM     48  C   UNL A   1      46.558  28.305  30.013  1.00  0.00     0.049 A 
ATOM     49  C   UNL A   1      41.150  29.677  29.611  1.00  0.00     0.074 A 
ATOM     50  C   UNL A   1      47.423  29.298  30.439  1.00  0.00     0.029 A 
ATOM     51  N   UNL A   1      45.287  28.859  30.005  1.00  0.00    -0.354 N 
ATOM     52  N   UNL A   1      42.443  29.512  29.743  1.00  0.00    -0.248 NA
ATOM     53  C   UNL A   1      40.667  30.999  30.036  1.00  0.00     0.031 C 
ATOM     54  C   UNL A   1      46.669  30.439  30.732  1.00  0.00     0.029 A 
ATOM     55  C   UNL A   1      45.342  30.172  30.440  1.00  0.00     0.049 A 
ATOM     56  H   UNL A   1      44.466  28.387  29.731  1.00  0.00     0.167 HD
ATOM     57  C   UNL A   1      42.932  30.715  30.236  1.00  0.00     0.074 A 
ATOM     58  C   UNL A   1      41.798  31.606  30.365  1.00  0.00     0.031 C 
ATOM     59  C   UNL A   1      44.206  31.051  30.552  1.00  0.00     0.037 A 
BRANCH  46  60
ATOM     60  C   UNL A   1      48.285  26.483  29.773  1.00  0.00     0.057 A 
ATOM     61  C   UNL A   1      49.224  26.681  28.751  1.00  0.00     0.134 A 
ATOM     62  C   UNL A   1      48.733  25.874  30.952  1.00  0.00     0.134 A 
ATOM     63  F   UNL A   1      48.858  27.248  27.592  1.00  0.00    -0.206 F 
ATOM     64  C   UNL A   1      50.552  26.273  28.890  1.00  0.00     0.040 A 
ATOM     65  C   UNL A   1      50.065  25.486  31.113  1.00  0.00     0.040 A 
ATOM     66  F   UNL A   1      47.889  25.660  31.972  1.00  0.00    -0.206 F 
ATOM     67  C   UNL A   1      50.977  25.681  30.078  1.00  0.00     0.006 A 
ENDBRANCH  46  60
BRANCH  47  68
ATOM     68  C   UNL A   1      38.689  29.108  29.015  1.00  0.00     0.057 A 
ATOM     69  C   UNL A   1      38.132  29.585  27.823  1.00  0.00     0.134 A 
ATOM     70  C   UNL A   1      37.850  29.036  30.134  1.00  0.00     0.134 A 
ATOM     71  F   UNL A   1      38.889  29.695  26.721  1.00  0.00    -0.206 F 
ATOM     72  C   UNL A   1      36.801  30.001  27.750  1.00  0.00     0.040 A 
ATOM     73  C   UNL A   1      36.511  29.424  30.070  1.00  0.00     0.040 A 
ATOM     74  F   UNL A   1      38.320  28.581  31.305  1.00  0.00    -0.206 F 
ATOM     75  C   UNL A   1      35.985  29.917  28.877  1.00  0.00     0.006 A 
ENDBRANCH  47  68
BRANCH  59  76
ATOM     76  C   UNL A   1      44.449  32.453  31.030  1.00  0.00     0.057 A 
ATOM     77  C   UNL A   1      44.435  32.785  32.391  1.00  0.00     0.134 A 
ATOM     78  C   UNL A   1      44.736  33.476  30.117  1.00  0.00     0.134 A 
ATOM     79  F   UNL A   1      44.153  31.854  33.316  1.00  0.00    -0.206 F 
ATOM     80  C   UNL A   1      44.676  34.089  32.825  1.00  0.00     0.040 A 
ATOM     81  C   UNL A   1      45.006  34.778  30.541  1.00  0.00     0.040 A 
ATOM     82  F   UNL A   1      44.773  33.223  28.801  1.00  0.00    -0.206 F 
ATOM     83  C   UNL A   1      44.970  35.088  31.900  1.00  0.00     0.006 A 
ENDBRANCH  59  76
ENDBRANCH  33  34
ENDBRANCH  25  28
ENDBRANCH  23  24
ENDBRANCH  22  23
ENDBRANCH   1  22
TORSDOF 14
ENDMDL
MODEL 2
REMARK VINA RESULT:     -11.6      5.725     10.495
REMARK SMILES C[C@@H](C(=O)NCCCCNC(=O)c1ccc(-c2c3nc(c(-c4c(F)cccc4F)c4ccc([nH]4)c(-c4c(F)cccc4F)c4nc(c(-c5c(F)cccc5F)c5ccc2[nH]5)C=C4)C=C3)cc1)c1ccc(Cc2ccoc2)cc1F
REMARK SMILES IDX 7 1 6 2 5 3 3 4 4 5 2 7 1 8 67 9 68 10 78 11 69 12 77 13
REMARK SMILES IDX 79 14 70 15 71 16 72 17 73 18 76 19 74 20 75 21 8 22 9 23
REMARK SMILES IDX 10 24 11 25 12 27 13 28 14 29 66 30 15 31 65 32 16 33 17 34
REMARK SMILES IDX 18 35 59 36 19 37 64 38 58 39 60 40 20 41 63 42 57 43 56 44
REMARK SMILES IDX 21 46 47 47 30 48 46 49 31 50 34 51 45 52 61 53 32 54 33 55
REMARK SMILES IDX 44 57 62 58 35 59 22 60 23 61 28 62 24 63 25 64 27 65 29 66
REMARK SMILES IDX 26 67 48 68 49 69 54 70 50 71 51 72 53 73 55 74 52 75 36 76
REMARK SMILES IDX 37 77 42 78 38 79 39 80 41 81 43 82 40 83
REMARK H PARENT 5 6 10 26 60 45 34 56
REMARK Flexibility Score: inf
ROOT
ATOM      1  C   UNL A   1      31.656  30.484  25.711  1.00  0.00     0.023 C 
ENDROOT
BRANCH   1   2
ATOM      2  C   UNL A   1      32.747  29.558  26.251  1.00  0.00     0.116 C 
BRANCH   2   3
ATOM      3  N   UNL A   1      33.779  29.276  25.273  1.00  0.00    -0.356 N 
ATOM      4  C   UNL A   1      33.787  28.413  24.211  1.00  0.00     0.227 C 
ATOM      5  O   UNL A   1      34.695  28.583  23.395  1.00  0.00    -0.274 OA
ATOM      6  H   UNL A   1      34.610  29.791  25.392  1.00  0.00     0.163 HD
BRANCH   4   7
ATOM      7  C   UNL A   1      32.656  27.382  24.036  1.00  0.00     0.108 C 
ATOM      8  C   UNL A   1      33.048  26.166  23.192  1.00  0.00     0.023 C 
BRANCH   7   9
ATOM      9  C   UNL A   1      31.360  27.928  23.445  1.00  0.00    -0.000 A 
ATOM     10  C   UNL A   1      31.424  28.953  22.487  1.00  0.00     0.008 A 
ATOM     11  C   UNL A   1      30.095  27.553  23.913  1.00  0.00     0.127 A 
ATOM     12  C   UNL A   1      30.260  29.556  22.001  1.00  0.00     0.004 A 
ATOM     13  C   UNL A   1      28.928  28.135  23.416  1.00  0.00     0.043 A 
ATOM     14  F   UNL A   1      29.976  26.657  24.904  1.00  0.00    -0.207 F 
ATOM     15  C   UNL A   1      28.995  29.152  22.455  1.00  0.00    -0.041 A 
BRANCH  15  16
ATOM     16  C   UNL A   1      27.741  29.794  21.916  1.00  0.00     0.074 C 
BRANCH  16  17
ATOM     17  C   UNL A   1      27.909  31.272  22.027  1.00  0.00    -0.005 A 
ATOM     18  C   UNL A   1      28.347  32.031  23.154  1.00  0.00     0.046 A 
ATOM     19  C   UNL A   1      27.736  32.201  21.018  1.00  0.00     0.198 A 
ATOM     20  C   UNL A   1      28.399  33.344  22.751  1.00  0.00     0.195 A 
ATOM     21  O   UNL A   1      28.030  33.454  21.451  1.00  0.00    -0.472 OA
ENDBRANCH  16  17
ENDBRANCH  15  16
ENDBRANCH   7   9
ENDBRANCH   4   7
ENDBRANCH   2   3
ENDBRANCH   1   2
BRANCH   1  22
ATOM     22  C   UNL A   1      31.439  31.775  26.500  1.00  0.00     0.023 C 
BRANCH  22  23
ATOM     23  C   UNL A   1      32.689  32.388  27.118  1.00  0.00     0.116 C 
BRANCH  23  24
ATOM     24  N   UNL A   1      32.506  33.775  27.516  1.00  0.00    -0.352 N 
ATOM     25  C   UNL A   1      33.178  34.502  28.469  1.00  0.00     0.251 C 
ATOM     26  H   UNL A   1      31.801  34.264  27.033  1.00  0.00     0.163 HD
ATOM     27  O   UNL A   1      32.806  35.636  28.755  1.00  0.00    -0.269 OA
BRANCH  25  28
ATOM     28  C   UNL A   1      34.330  33.903  29.176  1.00  0.00     0.039 A 
ATOM     29  C   UNL A   1      34.086  33.001  30.215  1.00  0.00     0.014 A 
ATOM     30  C   UNL A   1      35.643  34.215  28.811  1.00  0.00     0.014 A 
ATOM     31  C   UNL A   1      35.157  32.357  30.839  1.00  0.00     0.010 A 
ATOM     32  C   UNL A   1      36.704  33.519  29.384  1.00  0.00     0.010 A 
ATOM     33  C   UNL A   1      36.472  32.580  30.401  1.00  0.00    -0.014 A 
BRANCH  33  34
ATOM     34  C   UNL A   1      37.614  31.828  30.981  1.00  0.00     0.031 A 
ATOM     35  C   UNL A   1      38.115  32.154  32.360  1.00  0.00     0.074 A 
ATOM     36  C   UNL A   1      38.242  30.896  30.237  1.00  0.00     0.049 A 
ATOM     37  N   UNL A   1      39.138  31.655  33.007  1.00  0.00    -0.248 NA
ATOM     38  C   UNL A   1      37.386  33.194  33.103  1.00  0.00     0.031 C 
ATOM     39  C   UNL A   1      37.883  30.522  28.867  1.00  0.00     0.029 A 
ATOM     40  N   UNL A   1      39.324  30.100  30.525  1.00  0.00    -0.354 N 
ATOM     41  C   UNL A   1      39.183  32.328  34.221  1.00  0.00     0.074 A 
ATOM     42  C   UNL A   1      38.116  33.304  34.203  1.00  0.00     0.031 C 
ATOM     43  C   UNL A   1      38.716  29.558  28.443  1.00  0.00     0.029 A 
ATOM     44  C   UNL A   1      39.689  29.272  29.491  1.00  0.00     0.049 A 
ATOM     45  H   UNL A   1      39.793  30.121  31.390  1.00  0.00     0.167 HD
ATOM     46  C   UNL A   1      40.024  32.134  35.265  1.00  0.00     0.037 A 
ATOM     47  C   UNL A   1      40.702  28.389  29.395  1.00  0.00     0.037 A 
ATOM     48  C   UNL A   1      41.071  31.147  35.291  1.00  0.00     0.049 A 
ATOM     49  C   UNL A   1      41.625  28.201  30.568  1.00  0.00     0.074 A 
ATOM     50  C   UNL A   1      41.935  30.834  36.325  1.00  0.00     0.029 A 
ATOM     51  N   UNL A   1      41.398  30.314  34.231  1.00  0.00    -0.354 N 
ATOM     52  N   UNL A   1      41.610  28.793  31.736  1.00  0.00    -0.248 NA
ATOM     53  C   UNL A   1      42.704  27.215  30.409  1.00  0.00     0.031 C 
ATOM     54  C   UNL A   1      42.814  29.843  35.878  1.00  0.00     0.029 A 
ATOM     55  C   UNL A   1      42.465  29.503  34.581  1.00  0.00     0.049 A 
ATOM     56  H   UNL A   1      40.940  30.301  33.359  1.00  0.00     0.167 HD
ATOM     57  C   UNL A   1      42.654  28.232  32.461  1.00  0.00     0.074 A 
ATOM     58  C   UNL A   1      43.272  27.242  31.605  1.00  0.00     0.031 C 
ATOM     59  C   UNL A   1      43.062  28.512  33.722  1.00  0.00     0.037 A 
BRANCH  46  60
ATOM     60  C   UNL A   1      39.844  33.006  36.474  1.00  0.00     0.057 A 
ATOM     61  C   UNL A   1      40.593  34.177  36.657  1.00  0.00     0.134 A 
ATOM     62  C   UNL A   1      38.878  32.699  37.440  1.00  0.00     0.134 A 
ATOM     63  F   UNL A   1      41.541  34.522  35.775  1.00  0.00    -0.206 F 
ATOM     64  C   UNL A   1      40.400  35.000  37.768  1.00  0.00     0.040 A 
ATOM     65  C   UNL A   1      38.658  33.528  38.542  1.00  0.00     0.040 A 
ATOM     66  F   UNL A   1      38.122  31.597  37.323  1.00  0.00    -0.206 F 
ATOM     67  C   UNL A   1      39.424  34.680  38.710  1.00  0.00     0.006 A 
ENDBRANCH  46  60
BRANCH  47  68
ATOM     68  C   UNL A   1      40.892  27.603  28.151  1.00  0.00     0.057 A 
ATOM     69  C   UNL A   1      41.653  28.104  27.088  1.00  0.00     0.134 A 
ATOM     70  C   UNL A   1      40.303  26.344  27.983  1.00  0.00     0.134 A 
ATOM     71  F   UNL A   1      42.227  29.313  27.181  1.00  0.00    -0.206 F 
ATOM     72  C   UNL A   1      41.801  27.396  25.895  1.00  0.00     0.040 A 
ATOM     73  C   UNL A   1      40.464  25.612  26.805  1.00  0.00     0.040 A 
ATOM     74  F   UNL A   1      39.567  25.804  28.966  1.00  0.00    -0.206 F 
ATOM     75  C   UNL A   1      41.209  26.143  25.753  1.00  0.00     0.006 A 
ENDBRANCH  47  68
BRANCH  59  76
ATOM     76  C   UNL A   1      44.207  27.710  34.269  1.00  0.00     0.057 A 
ATOM     77  C   UNL A   1      45.532  28.154  34.180  1.00  0.00     0.134 A 
ATOM     78  C   UNL A   1      43.974  26.494  34.925  1.00  0.00     0.134 A 
ATOM     79  F   UNL A   1      45.824  29.303  33.552  1.00  0.00    -0.206 F 
ATOM     80  C   UNL A   1      46.588  27.405  34.704  1.00  0.00     0.040 A 
ATOM     81  C   UNL A   1      45.018  25.751  35.477  1.00  0.00     0.040 A 
ATOM     82  F   UNL A   1      42.727  26.017  35.052  1.00  0.00    -0.206 F 
ATOM     83  C   UNL A   1      46.331  26.204  35.362  1.00  0.00     0.006 A 
ENDBRANCH  59  76
ENDBRANCH  33  34
ENDBRANCH  25  28
ENDBRANCH  23  24
ENDBRANCH  22  23
ENDBRANCH   1  22
TORSDOF 14
ENDMDL
MODEL 3
REMARK VINA RESULT:     -11.6      5.649     10.452
REMARK SMILES C[C@@H](C(=O)NCCCCNC(=O)c1ccc(-c2c3nc(c(-c4c(F)cccc4F)c4ccc([nH]4)c(-c4c(F)cccc4F)c4nc(c(-c5c(F)cccc5F)c5ccc2[nH]5)C=C4)C=C3)cc1)c1ccc(Cc2ccoc2)cc1F
REMARK SMILES IDX 7 1 6 2 5 3 3 4 4 5 2 7 1 8 67 9 68 10 78 11 69 12 77 13
REMARK SMILES IDX 79 14 70 15 71 16 72 17 73 18 76 19 74 20 75 21 8 22 9 23
REMARK SMILES IDX 10 24 11 25 12 27 13 28 14 29 66 30 15 31 65 32 16 33 17 34
REMARK SMILES IDX 18 35 59 36 19 37 64 38 58 39 60 40 20 41 63 42 57 43 56 44
REMARK SMILES IDX 21 46 47 47 30 48 46 49 31 50 34 51 45 52 61 53 32 54 33 55
REMARK SMILES IDX 44 57 62 58 35 59 22 60 23 61 28 62 24 63 25 64 27 65 29 66
REMARK SMILES IDX 26 67 48 68 49 69 54 70 50 71 51 72 53 73 55 74 52 75 36 76
REMARK SMILES IDX 37 77 42 78 38 79 39 80 41 81 43 82 40 83
REMARK H PARENT 5 6 10 26 60 45 34 56
REMARK Flexibility Score: inf
ROOT
ATOM      1  C   UNL A   1      31.605  30.551  25.768  1.00  0.00     0.023 C 
ENDROOT
BRANCH   1   2
ATOM      2  C   UNL A   1      32.656  29.617  26.372  1.00  0.00     0.116 C 
BRANCH   2   3
ATOM      3  N   UNL A   1      33.732  29.313  25.450  1.00  0.00    -0.356 N 
ATOM      4  C   UNL A   1      33.792  28.421  24.413  1.00  0.00     0.227 C 
ATOM      5  O   UNL A   1      34.735  28.573  23.635  1.00  0.00    -0.274 OA
ATOM      6  H   UNL A   1      34.555  29.835  25.591  1.00  0.00     0.163 HD
BRANCH   4   7
ATOM      7  C   UNL A   1      32.673  27.380  24.214  1.00  0.00     0.108 C 
ATOM      8  C   UNL A   1      33.103  26.151  23.410  1.00  0.00     0.023 C 
BRANCH   7   9
ATOM      9  C   UNL A   1      31.398  27.908  23.565  1.00  0.00    -0.000 A 
ATOM     10  C   UNL A   1      31.491  28.934  22.610  1.00  0.00     0.008 A 
ATOM     11  C   UNL A   1      30.118  27.515  23.974  1.00  0.00     0.127 A 
ATOM     12  C   UNL A   1      30.342  29.520  22.070  1.00  0.00     0.004 A 
ATOM     13  C   UNL A   1      28.967  28.080  23.423  1.00  0.00     0.043 A 
ATOM     14  F   UNL A   1      29.966  26.617  24.959  1.00  0.00    -0.207 F 
ATOM     15  C   UNL A   1      29.064  29.097  22.466  1.00  0.00    -0.041 A 
BRANCH  15  16
ATOM     16  C   UNL A   1      27.827  29.721  21.869  1.00  0.00     0.074 C 
BRANCH  16  17
ATOM     17  C   UNL A   1      27.942  31.199  22.037  1.00  0.00    -0.005 A 
ATOM     18  C   UNL A   1      28.274  31.933  23.216  1.00  0.00     0.046 A 
ATOM     19  C   UNL A   1      27.816  32.155  21.047  1.00  0.00     0.198 A 
ATOM     20  C   UNL A   1      28.316  33.259  22.859  1.00  0.00     0.195 A 
ATOM     21  O   UNL A   1      28.040  33.401  21.539  1.00  0.00    -0.472 OA
ENDBRANCH  16  17
ENDBRANCH  15  16
ENDBRANCH   7   9
ENDBRANCH   4   7
ENDBRANCH   2   3
ENDBRANCH   1   2
BRANCH   1  22
ATOM     22  C   UNL A   1      31.386  31.866  26.516  1.00  0.00     0.023 C 
BRANCH  22  23
ATOM     23  C   UNL A   1      32.612  32.437  27.218  1.00  0.00     0.116 C 
BRANCH  23  24
ATOM     24  N   UNL A   1      32.451  33.831  27.600  1.00  0.00    -0.352 N 
ATOM     25  C   UNL A   1      33.154  34.564  28.526  1.00  0.00     0.251 C 
ATOM     26  H   UNL A   1      31.739  34.319  27.129  1.00  0.00     0.163 HD
ATOM     27  O   UNL A   1      32.799  35.705  28.806  1.00  0.00    -0.269 OA
BRANCH  25  28
ATOM     28  C   UNL A   1      34.318  33.965  29.212  1.00  0.00     0.039 A 
ATOM     29  C   UNL A   1      34.093  33.037  30.233  1.00  0.00     0.014 A 
ATOM     30  C   UNL A   1      35.624  34.302  28.845  1.00  0.00     0.014 A 
ATOM     31  C   UNL A   1      35.177  32.393  30.835  1.00  0.00     0.010 A 
ATOM     32  C   UNL A   1      36.699  33.607  29.395  1.00  0.00     0.010 A 
ATOM     33  C   UNL A   1      36.486  32.642  30.392  1.00  0.00    -0.014 A 
BRANCH  33  34
ATOM     34  C   UNL A   1      37.641  31.893  30.948  1.00  0.00     0.031 A 
ATOM     35  C   UNL A   1      38.180  32.229  32.310  1.00  0.00     0.074 A 
ATOM     36  C   UNL A   1      38.246  30.953  30.196  1.00  0.00     0.049 A 
ATOM     37  N   UNL A   1      39.219  31.733  32.934  1.00  0.00    -0.248 NA
ATOM     38  C   UNL A   1      37.474  33.278  33.063  1.00  0.00     0.031 C 
ATOM     39  C   UNL A   1      37.850  30.568  28.840  1.00  0.00     0.029 A 
ATOM     40  N   UNL A   1      39.334  30.157  30.461  1.00  0.00    -0.354 N 
ATOM     41  C   UNL A   1      39.299  32.417  34.140  1.00  0.00     0.074 A 
ATOM     42  C   UNL A   1      38.233  33.395  34.143  1.00  0.00     0.031 C 
ATOM     43  C   UNL A   1      38.669  29.598  28.401  1.00  0.00     0.029 A 
ATOM     44  C   UNL A   1      39.669  29.319  29.425  1.00  0.00     0.049 A 
ATOM     45  H   UNL A   1      39.826  30.184  31.313  1.00  0.00     0.167 HD
ATOM     46  C   UNL A   1      40.167  32.230  35.163  1.00  0.00     0.037 A 
ATOM     47  C   UNL A   1      40.677  28.433  29.310  1.00  0.00     0.037 A 
ATOM     48  C   UNL A   1      41.212  31.240  35.169  1.00  0.00     0.049 A 
ATOM     49  C   UNL A   1      41.631  28.252  30.458  1.00  0.00     0.074 A 
ATOM     50  C   UNL A   1      42.103  30.934  36.182  1.00  0.00     0.029 A 
ATOM     51  N   UNL A   1      41.508  30.397  34.108  1.00  0.00    -0.354 N 
ATOM     52  N   UNL A   1      41.649  28.855  31.621  1.00  0.00    -0.248 NA
ATOM     53  C   UNL A   1      42.703  27.262  30.278  1.00  0.00     0.031 C 
ATOM     54  C   UNL A   1      42.967  29.937  35.719  1.00  0.00     0.029 A 
ATOM     55  C   UNL A   1      42.582  29.587  34.435  1.00  0.00     0.049 A 
ATOM     56  H   UNL A   1      41.026  30.378  33.249  1.00  0.00     0.167 HD
ATOM     57  C   UNL A   1      42.711  28.297  32.323  1.00  0.00     0.074 A 
ATOM     58  C   UNL A   1      43.304  27.298  31.459  1.00  0.00     0.031 C 
ATOM     59  C   UNL A   1      43.154  28.587  33.570  1.00  0.00     0.037 A 
BRANCH  46  60
ATOM     60  C   UNL A   1      40.022  33.112  36.368  1.00  0.00     0.057 A 
ATOM     61  C   UNL A   1      40.774  34.285  36.519  1.00  0.00     0.134 A 
ATOM     62  C   UNL A   1      39.085  32.814  37.366  1.00  0.00     0.134 A 
ATOM     63  F   UNL A   1      41.696  34.624  35.606  1.00  0.00    -0.206 F 
ATOM     64  C   UNL A   1      40.614  35.118  37.628  1.00  0.00     0.040 A 
ATOM     65  C   UNL A   1      38.897  33.652  38.466  1.00  0.00     0.040 A 
ATOM     66  F   UNL A   1      38.327  31.710  37.281  1.00  0.00    -0.206 F 
ATOM     67  C   UNL A   1      39.666  34.807  38.600  1.00  0.00     0.006 A 
ENDBRANCH  46  60
BRANCH  47  68
ATOM     68  C   UNL A   1      40.831  27.635  28.067  1.00  0.00     0.057 A 
ATOM     69  C   UNL A   1      40.228  26.379  27.936  1.00  0.00     0.134 A 
ATOM     70  C   UNL A   1      41.598  28.097  26.991  1.00  0.00     0.134 A 
ATOM     71  F   UNL A   1      39.496  25.874  28.940  1.00  0.00    -0.206 F 
ATOM     72  C   UNL A   1      40.402  25.598  26.792  1.00  0.00     0.040 A 
ATOM     73  C   UNL A   1      41.760  27.339  25.830  1.00  0.00     0.040 A 
ATOM     74  F   UNL A   1      42.197  29.296  27.050  1.00  0.00    -0.206 F 
ATOM     75  C   UNL A   1      41.168  26.081  25.732  1.00  0.00     0.006 A 
ENDBRANCH  47  68
BRANCH  59  76
ATOM     76  C   UNL A   1      44.311  27.786  34.092  1.00  0.00     0.057 A 
ATOM     77  C   UNL A   1      44.131  26.559  34.741  1.00  0.00     0.134 A 
ATOM     78  C   UNL A   1      45.626  28.235  33.909  1.00  0.00     0.134 A 
ATOM     79  F   UNL A   1      42.896  26.080  34.960  1.00  0.00    -0.206 F 
ATOM     80  C   UNL A   1      45.215  25.816  35.210  1.00  0.00     0.040 A 
ATOM     81  C   UNL A   1      46.719  27.488  34.348  1.00  0.00     0.040 A 
ATOM     82  F   UNL A   1      45.868  29.398  33.287  1.00  0.00    -0.206 F 
ATOM     83  C   UNL A   1      46.515  26.276  35.007  1.00  0.00     0.006 A 
ENDBRANCH  59  76
ENDBRANCH  33  34
ENDBRANCH  25  28
ENDBRANCH  23  24
ENDBRANCH  22  23
ENDBRANCH   1  22
TORSDOF 14
ENDMDL
