MODEL 1
REMARK VINA RESULT:     -11.3      0.000      0.000
REMARK SMILES CCc1ccc(C(=O)NCCCCNC(=O)c2ccc(-c3c4nc(c(-c5c(F)cccc5F)c5ccc([nH]5)c(-c5c(F)cccc5F)c5nc(c(-c6c(F)cccc6F)c6ccc3[nH]6)C=C5)C=C4)cc2)cc1S(=O)(=O)C(CC)CC
REMARK SMILES IDX 11 1 10 2 9 3 7 4 8 5 6 7 3 8 4 9 72 10 5 11 71 12 2 13 1 14
REMARK SMILES IDX 73 15 74 16 75 17 76 18 77 19 78 20 79 21 80 22 12 23 13 24
REMARK SMILES IDX 14 25 15 26 16 28 17 29 18 30 70 31 19 32 69 33 20 34 21 35
REMARK SMILES IDX 22 36 63 37 23 38 68 39 62 40 64 41 24 42 67 43 61 44 60 45
REMARK SMILES IDX 25 47 51 48 34 49 50 50 35 51 38 52 49 53 65 54 36 55 37 56
REMARK SMILES IDX 48 58 66 59 39 60 26 61 27 62 32 63 28 64 29 65 31 66 33 67
REMARK SMILES IDX 30 68 52 69 53 70 58 71 54 72 55 73 57 74 59 75 56 76 40 77
REMARK SMILES IDX 41 78 46 79 42 80 43 81 45 82 47 83 44 84
REMARK H PARENT 9 6 14 27 64 46 38 57
REMARK Flexibility Score: inf
ROOT
ATOM      1  C   UNL A   1      36.728  19.925  24.878  1.00  0.00     0.023 C 
ENDROOT
BRANCH   1   2
ATOM      2  C   UNL A   1      35.459  20.627  25.373  1.00  0.00     0.116 C 
BRANCH   2   3
ATOM      3  N   UNL A   1      34.335  19.708  25.366  1.00  0.00    -0.352 N 
ATOM      4  C   UNL A   1      32.994  19.867  25.127  1.00  0.00     0.251 C 
ATOM      5  O   UNL A   1      32.285  18.864  25.234  1.00  0.00    -0.269 OA
ATOM      6  H   UNL A   1      34.588  18.780  25.575  1.00  0.00     0.163 HD
BRANCH   4   7
ATOM      7  C   UNL A   1      32.362  21.147  24.695  1.00  0.00     0.041 A 
ATOM      8  C   UNL A   1      31.303  23.623  23.720  1.00  0.00    -0.030 A 
ATOM      9  C   UNL A   1      31.746  22.593  22.854  1.00  0.00     0.006 A 
ATOM     10  C   UNL A   1      31.408  23.397  25.098  1.00  0.00     0.071 A 
ATOM     11  C   UNL A   1      32.283  21.394  23.328  1.00  0.00     0.014 A 
ATOM     12  C   UNL A   1      31.862  22.126  25.547  1.00  0.00     0.034 A 
BRANCH   8  13
ATOM     13  C   UNL A   1      30.755  24.829  23.012  1.00  0.00     0.033 C 
ATOM     14  C   UNL A   1      31.745  25.439  22.023  1.00  0.00     0.009 C 
ENDBRANCH   8  13
BRANCH  10  15
ATOM     15  S   UNL A   1      31.218  24.495  26.508  1.00  0.00     0.181 S 
ATOM     16  O   UNL A   1      29.800  24.826  26.503  1.00  0.00    -0.223 OA
ATOM     17  O   UNL A   1      31.724  23.706  27.623  1.00  0.00    -0.223 OA
BRANCH  15  18
ATOM     18  C   UNL A   1      32.079  26.034  26.567  1.00  0.00     0.113 C 
BRANCH  18  19
ATOM     19  C   UNL A   1      33.433  26.084  25.817  1.00  0.00     0.017 C 
ATOM     20  C   UNL A   1      33.684  27.139  24.752  1.00  0.00     0.005 C 
ENDBRANCH  18  19
BRANCH  18  21
ATOM     21  C   UNL A   1      31.222  27.309  26.559  1.00  0.00     0.017 C 
ATOM     22  C   UNL A   1      31.634  28.335  27.614  1.00  0.00     0.005 C 
ENDBRANCH  18  21
ENDBRANCH  15  18
ENDBRANCH  10  15
ENDBRANCH   4   7
ENDBRANCH   2   3
ENDBRANCH   1   2
BRANCH   1  23
ATOM     23  C   UNL A   1      37.955  20.842  24.811  1.00  0.00     0.023 C 
BRANCH  23  24
ATOM     24  C   UNL A   1      38.915  20.713  25.987  1.00  0.00     0.116 C 
BRANCH  24  25
ATOM     25  N   UNL A   1      39.861  19.617  25.839  1.00  0.00    -0.352 N 
ATOM     26  C   UNL A   1      41.216  19.633  26.065  1.00  0.00     0.251 C 
ATOM     27  H   UNL A   1      39.484  18.759  25.539  1.00  0.00     0.163 HD
ATOM     28  O   UNL A   1      41.913  18.660  25.797  1.00  0.00    -0.269 OA
BRANCH  26  29
ATOM     29  C   UNL A   1      41.834  20.864  26.596  1.00  0.00     0.039 A 
ATOM     30  C   UNL A   1      42.340  21.804  25.695  1.00  0.00     0.014 A 
ATOM     31  C   UNL A   1      41.855  21.110  27.970  1.00  0.00     0.014 A 
ATOM     32  C   UNL A   1      42.800  23.033  26.172  1.00  0.00     0.010 A 
ATOM     33  C   UNL A   1      42.258  22.356  28.438  1.00  0.00     0.010 A 
ATOM     34  C   UNL A   1      42.722  23.332  27.542  1.00  0.00    -0.014 A 
BRANCH  34  35
ATOM     35  C   UNL A   1      43.098  24.670  28.061  1.00  0.00     0.031 A 
ATOM     36  C   UNL A   1      42.041  25.706  28.304  1.00  0.00     0.074 A 
ATOM     37  C   UNL A   1      44.400  24.973  28.232  1.00  0.00     0.049 A 
ATOM     38  N   UNL A   1      42.177  26.961  28.651  1.00  0.00    -0.248 NA
ATOM     39  C   UNL A   1      40.644  25.285  28.106  1.00  0.00     0.031 C 
ATOM     40  C   UNL A   1      45.521  24.063  27.992  1.00  0.00     0.029 A 
ATOM     41  N   UNL A   1      45.000  26.140  28.633  1.00  0.00    -0.354 N 
ATOM     42  C   UNL A   1      40.891  27.480  28.701  1.00  0.00     0.074 A 
ATOM     43  C   UNL A   1      39.989  26.419  28.304  1.00  0.00     0.031 C 
ATOM     44  C   UNL A   1      46.671  24.701  28.264  1.00  0.00     0.029 A 
ATOM     45  C   UNL A   1      46.372  26.073  28.658  1.00  0.00     0.049 A 
ATOM     46  H   UNL A   1      44.495  26.949  28.880  1.00  0.00     0.167 HD
ATOM     47  C   UNL A   1      40.496  28.722  29.065  1.00  0.00     0.037 A 
ATOM     48  C   UNL A   1      47.285  27.017  28.951  1.00  0.00     0.037 A 
ATOM     49  C   UNL A   1      41.393  29.767  29.482  1.00  0.00     0.049 A 
ATOM     50  C   UNL A   1      46.821  28.397  29.328  1.00  0.00     0.074 A 
ATOM     51  C   UNL A   1      41.086  31.040  29.929  1.00  0.00     0.029 A 
ATOM     52  N   UNL A   1      42.776  29.659  29.501  1.00  0.00    -0.354 N 
ATOM     53  N   UNL A   1      45.598  28.857  29.431  1.00  0.00    -0.248 NA
ATOM     54  C   UNL A   1      47.864  29.390  29.625  1.00  0.00     0.031 C 
ATOM     55  C   UNL A   1      42.284  31.716  30.181  1.00  0.00     0.029 A 
ATOM     56  C   UNL A   1      43.336  30.850  29.929  1.00  0.00     0.049 A 
ATOM     57  H   UNL A   1      43.283  28.854  29.248  1.00  0.00     0.167 HD
ATOM     58  C   UNL A   1      45.722  30.182  29.827  1.00  0.00     0.074 A 
ATOM     59  C   UNL A   1      47.139  30.449  29.958  1.00  0.00     0.031 C 
ATOM     60  C   UNL A   1      44.749  31.096  30.060  1.00  0.00     0.037 A 
BRANCH  47  61
ATOM     61  C   UNL A   1      39.026  29.016  29.037  1.00  0.00     0.057 A 
ATOM     62  C   UNL A   1      38.233  28.913  30.187  1.00  0.00     0.134 A 
ATOM     63  C   UNL A   1      38.403  29.443  27.858  1.00  0.00     0.134 A 
ATOM     64  F   UNL A   1      38.767  28.498  31.346  1.00  0.00    -0.206 F 
ATOM     65  C   UNL A   1      36.868  29.201  30.161  1.00  0.00     0.040 A 
ATOM     66  C   UNL A   1      37.044  29.758  27.824  1.00  0.00     0.040 A 
ATOM     67  F   UNL A   1      39.106  29.569  26.722  1.00  0.00    -0.206 F 
ATOM     68  C   UNL A   1      36.270  29.632  28.977  1.00  0.00     0.006 A 
ENDBRANCH  47  61
BRANCH  48  69
ATOM     69  C   UNL A   1      48.733  26.693  28.911  1.00  0.00     0.057 A 
ATOM     70  C   UNL A   1      49.404  26.257  30.059  1.00  0.00     0.134 A 
ATOM     71  C   UNL A   1      49.481  26.822  27.735  1.00  0.00     0.134 A 
ATOM     72  F   UNL A   1      48.745  26.134  31.220  1.00  0.00    -0.206 F 
ATOM     73  C   UNL A   1      50.772  25.977  30.044  1.00  0.00     0.040 A 
ATOM     74  C   UNL A   1      50.844  26.523  27.700  1.00  0.00     0.040 A 
ATOM     75  F   UNL A   1      48.895  27.230  26.600  1.00  0.00    -0.206 F 
ATOM     76  C   UNL A   1      51.495  26.107  28.860  1.00  0.00     0.006 A 
ENDBRANCH  48  69
BRANCH  60  77
ATOM     77  C   UNL A   1      45.181  32.460  30.505  1.00  0.00     0.057 A 
ATOM     78  C   UNL A   1      45.395  32.760  31.856  1.00  0.00     0.134 A 
ATOM     79  C   UNL A   1      45.440  33.468  29.567  1.00  0.00     0.134 A 
ATOM     80  F   UNL A   1      45.151  31.842  32.803  1.00  0.00    -0.206 F 
ATOM     81  C   UNL A   1      45.836  34.021  32.261  1.00  0.00     0.040 A 
ATOM     82  C   UNL A   1      45.904  34.724  29.957  1.00  0.00     0.040 A 
ATOM     83  F   UNL A   1      45.262  33.242  28.257  1.00  0.00    -0.206 F 
ATOM     84  C   UNL A   1      46.101  35.004  31.308  1.00  0.00     0.006 A 
ENDBRANCH  60  77
ENDBRANCH  34  35
ENDBRANCH  26  29
ENDBRANCH  24  25
ENDBRANCH  23  24
ENDBRANCH   1  23
TORSDOF 16
ENDMDL
MODEL 2
REMARK VINA RESULT:     -11.3      2.767      7.413
REMARK SMILES CCc1ccc(C(=O)NCCCCNC(=O)c2ccc(-c3c4nc(c(-c5c(F)cccc5F)c5ccc([nH]5)c(-c5c(F)cccc5F)c5nc(c(-c6c(F)cccc6F)c6ccc3[nH]6)C=C5)C=C4)cc2)cc1S(=O)(=O)C(CC)CC
REMARK SMILES IDX 11 1 10 2 9 3 7 4 8 5 6 7 3 8 4 9 72 10 5 11 71 12 2 13 1 14
REMARK SMILES IDX 73 15 74 16 75 17 76 18 77 19 78 20 79 21 80 22 12 23 13 24
REMARK SMILES IDX 14 25 15 26 16 28 17 29 18 30 70 31 19 32 69 33 20 34 21 35
REMARK SMILES IDX 22 36 63 37 23 38 68 39 62 40 64 41 24 42 67 43 61 44 60 45
REMARK SMILES IDX 25 47 51 48 34 49 50 50 35 51 38 52 49 53 65 54 36 55 37 56
REMARK SMILES IDX 48 58 66 59 39 60 26 61 27 62 32 63 28 64 29 65 31 66 33 67
REMARK SMILES IDX 30 68 52 69 53 70 58 71 54 72 55 73 57 74 59 75 56 76 40 77
REMARK SMILES IDX 41 78 46 79 42 80 43 81 45 82 47 83 44 84
REMARK H PARENT 9 6 14 27 64 46 38 57
REMARK Flexibility Score: inf
ROOT
ATOM      1  C   UNL A   1      33.121  29.405  24.845  1.00  0.00     0.023 C 
ENDROOT
BRANCH   1   2
ATOM      2  C   UNL A   1      33.295  29.145  23.346  1.00  0.00     0.116 C 
BRANCH   2   3
ATOM      3  N   UNL A   1      32.006  29.143  22.678  1.00  0.00    -0.352 N 
ATOM      4  C   UNL A   1      31.019  28.200  22.545  1.00  0.00     0.251 C 
ATOM      5  O   UNL A   1      30.036  28.512  21.869  1.00  0.00    -0.269 OA
ATOM      6  H   UNL A   1      31.798  29.993  22.228  1.00  0.00     0.163 HD
BRANCH   4   7
ATOM      7  C   UNL A   1      31.037  26.864  23.208  1.00  0.00     0.041 A 
ATOM      8  C   UNL A   1      31.063  24.399  24.666  1.00  0.00    -0.030 A 
ATOM      9  C   UNL A   1      30.186  25.464  24.990  1.00  0.00     0.006 A 
ATOM     10  C   UNL A   1      31.944  24.593  23.595  1.00  0.00     0.071 A 
ATOM     11  C   UNL A   1      30.187  26.675  24.293  1.00  0.00     0.014 A 
ATOM     12  C   UNL A   1      31.848  25.795  22.842  1.00  0.00     0.034 A 
BRANCH   8  13
ATOM     13  C   UNL A   1      30.901  23.183  25.532  1.00  0.00     0.033 C 
ATOM     14  C   UNL A   1      31.607  23.313  26.878  1.00  0.00     0.009 C 
ENDBRANCH   8  13
BRANCH  10  15
ATOM     15  S   UNL A   1      33.361  23.643  23.026  1.00  0.00     0.181 S 
ATOM     16  O   UNL A   1      32.784  22.676  22.102  1.00  0.00    -0.223 OA
ATOM     17  O   UNL A   1      34.249  24.657  22.475  1.00  0.00    -0.223 OA
BRANCH  15  18
ATOM     18  C   UNL A   1      34.331  22.711  24.167  1.00  0.00     0.113 C 
BRANCH  18  19
ATOM     19  C   UNL A   1      34.968  23.512  25.330  1.00  0.00     0.017 C 
ATOM     20  C   UNL A   1      36.427  23.929  25.268  1.00  0.00     0.005 C 
ENDBRANCH  18  19
BRANCH  18  21
ATOM     21  C   UNL A   1      33.859  21.282  24.473  1.00  0.00     0.017 C 
ATOM     22  C   UNL A   1      34.976  20.353  24.949  1.00  0.00     0.005 C 
ENDBRANCH  18  21
ENDBRANCH  15  18
ENDBRANCH  10  15
ENDBRANCH   4   7
ENDBRANCH   2   3
ENDBRANCH   1   2
BRANCH   1  23
ATOM     23  C   UNL A   1      33.851  28.393  25.737  1.00  0.00     0.023 C 
BRANCH  23  24
ATOM     24  C   UNL A   1      33.655  28.602  27.234  1.00  0.00     0.116 C 
BRANCH  24  25
ATOM     25  N   UNL A   1      33.641  30.004  27.622  1.00  0.00    -0.352 N 
ATOM     26  C   UNL A   1      34.660  30.736  28.184  1.00  0.00     0.251 C 
ATOM     27  H   UNL A   1      32.799  30.488  27.463  1.00  0.00     0.163 HD
ATOM     28  O   UNL A   1      34.477  31.888  28.560  1.00  0.00    -0.269 OA
BRANCH  26  29
ATOM     29  C   UNL A   1      35.976  30.095  28.373  1.00  0.00     0.039 A 
ATOM     30  C   UNL A   1      36.897  30.129  27.324  1.00  0.00     0.014 A 
ATOM     31  C   UNL A   1      36.314  29.520  29.600  1.00  0.00     0.014 A 
ATOM     32  C   UNL A   1      38.193  29.653  27.532  1.00  0.00     0.010 A 
ATOM     33  C   UNL A   1      37.621  29.101  29.824  1.00  0.00     0.010 A 
ATOM     34  C   UNL A   1      38.574  29.175  28.796  1.00  0.00    -0.014 A 
BRANCH  34  35
ATOM     35  C   UNL A   1      39.973  28.769  29.076  1.00  0.00     0.031 A 
ATOM     36  C   UNL A   1      40.923  29.737  29.717  1.00  0.00     0.074 A 
ATOM     37  C   UNL A   1      40.405  27.557  28.676  1.00  0.00     0.049 A 
ATOM     38  N   UNL A   1      42.206  29.609  29.944  1.00  0.00    -0.248 NA
ATOM     39  C   UNL A   1      40.364  31.033  30.135  1.00  0.00     0.031 C 
ATOM     40  C   UNL A   1      39.585  26.544  28.008  1.00  0.00     0.029 A 
ATOM     41  N   UNL A   1      41.646  26.978  28.759  1.00  0.00    -0.354 N 
ATOM     42  C   UNL A   1      42.608  30.807  30.518  1.00  0.00     0.074 A 
ATOM     43  C   UNL A   1      41.445  31.668  30.563  1.00  0.00     0.031 C 
ATOM     44  C   UNL A   1      40.342  25.464  27.755  1.00  0.00     0.029 A 
ATOM     45  C   UNL A   1      41.706  25.722  28.205  1.00  0.00     0.049 A 
ATOM     46  H   UNL A   1      42.420  27.421  29.176  1.00  0.00     0.167 HD
ATOM     47  C   UNL A   1      43.831  31.150  30.984  1.00  0.00     0.037 A 
ATOM     48  C   UNL A   1      42.747  24.881  28.064  1.00  0.00     0.037 A 
ATOM     49  C   UNL A   1      44.979  30.283  30.960  1.00  0.00     0.049 A 
ATOM     50  C   UNL A   1      44.102  25.297  28.568  1.00  0.00     0.074 A 
ATOM     51  C   UNL A   1      46.247  30.517  31.464  1.00  0.00     0.029 A 
ATOM     52  N   UNL A   1      44.999  29.016  30.398  1.00  0.00    -0.354 N 
ATOM     53  N   UNL A   1      44.455  26.409  29.165  1.00  0.00    -0.248 NA
ATOM     54  C   UNL A   1      45.203  24.343  28.374  1.00  0.00     0.031 C 
ATOM     55  C   UNL A   1      47.045  29.406  31.172  1.00  0.00     0.029 A 
ATOM     56  C   UNL A   1      46.263  28.464  30.521  1.00  0.00     0.049 A 
ATOM     57  H   UNL A   1      44.228  28.574  29.974  1.00  0.00     0.167 HD
ATOM     58  C   UNL A   1      45.809  26.280  29.440  1.00  0.00     0.074 A 
ATOM     59  C   UNL A   1      46.212  24.976  28.955  1.00  0.00     0.031 C 
ATOM     60  C   UNL A   1      46.645  27.162  30.039  1.00  0.00     0.037 A 
BRANCH  47  61
ATOM     61  C   UNL A   1      43.988  32.522  31.571  1.00  0.00     0.057 A 
ATOM     62  C   UNL A   1      44.360  33.619  30.784  1.00  0.00     0.134 A 
ATOM     63  C   UNL A   1      43.728  32.756  32.926  1.00  0.00     0.134 A 
ATOM     64  F   UNL A   1      44.635  33.460  29.481  1.00  0.00    -0.206 F 
ATOM     65  C   UNL A   1      44.491  34.898  31.330  1.00  0.00     0.040 A 
ATOM     66  C   UNL A   1      43.832  34.032  33.479  1.00  0.00     0.040 A 
ATOM     67  F   UNL A   1      43.362  31.749  33.734  1.00  0.00    -0.206 F 
ATOM     68  C   UNL A   1      44.220  35.108  32.681  1.00  0.00     0.006 A 
ENDBRANCH  47  61
BRANCH  48  69
ATOM     69  C   UNL A   1      42.554  23.555  27.425  1.00  0.00     0.057 A 
ATOM     70  C   UNL A   1      42.282  22.419  28.196  1.00  0.00     0.134 A 
ATOM     71  C   UNL A   1      42.647  23.388  26.039  1.00  0.00     0.134 A 
ATOM     72  F   UNL A   1      42.201  22.513  29.531  1.00  0.00    -0.206 F 
ATOM     73  C   UNL A   1      42.127  21.160  27.613  1.00  0.00     0.040 A 
ATOM     74  C   UNL A   1      42.472  22.139  25.441  1.00  0.00     0.040 A 
ATOM     75  F   UNL A   1      42.900  24.439  25.245  1.00  0.00    -0.206 F 
ATOM     76  C   UNL A   1      42.219  21.019  26.230  1.00  0.00     0.006 A 
ENDBRANCH  48  69
BRANCH  60  77
ATOM     77  C   UNL A   1      48.070  26.739  30.227  1.00  0.00     0.057 A 
ATOM     78  C   UNL A   1      48.472  25.981  31.335  1.00  0.00     0.134 A 
ATOM     79  C   UNL A   1      49.039  27.045  29.263  1.00  0.00     0.134 A 
ATOM     80  F   UNL A   1      47.594  25.668  32.299  1.00  0.00    -0.206 F 
ATOM     81  C   UNL A   1      49.793  25.556  31.484  1.00  0.00     0.040 A 
ATOM     82  C   UNL A   1      50.356  26.605  29.389  1.00  0.00     0.040 A 
ATOM     83  F   UNL A   1      48.716  27.761  28.176  1.00  0.00    -0.206 F 
ATOM     84  C   UNL A   1      50.737  25.861  30.505  1.00  0.00     0.006 A 
ENDBRANCH  60  77
ENDBRANCH  34  35
ENDBRANCH  26  29
ENDBRANCH  24  25
ENDBRANCH  23  24
ENDBRANCH   1  23
TORSDOF 16
ENDMDL
MODEL 3
REMARK VINA RESULT:     -11.1      4.572      9.112
REMARK SMILES CCc1ccc(C(=O)NCCCCNC(=O)c2ccc(-c3c4nc(c(-c5c(F)cccc5F)c5ccc([nH]5)c(-c5c(F)cccc5F)c5nc(c(-c6c(F)cccc6F)c6ccc3[nH]6)C=C5)C=C4)cc2)cc1S(=O)(=O)C(CC)CC
REMARK SMILES IDX 11 1 10 2 9 3 7 4 8 5 6 7 3 8 4 9 72 10 5 11 71 12 2 13 1 14
REMARK SMILES IDX 73 15 74 16 75 17 76 18 77 19 78 20 79 21 80 22 12 23 13 24
REMARK SMILES IDX 14 25 15 26 16 28 17 29 18 30 70 31 19 32 69 33 20 34 21 35
REMARK SMILES IDX 22 36 63 37 23 38 68 39 62 40 64 41 24 42 67 43 61 44 60 45
REMARK SMILES IDX 25 47 51 48 34 49 50 50 35 51 38 52 49 53 65 54 36 55 37 56
REMARK SMILES IDX 48 58 66 59 39 60 26 61 27 62 32 63 28 64 29 65 31 66 33 67
REMARK SMILES IDX 30 68 52 69 53 70 58 71 54 72 55 73 57 74 59 75 56 76 40 77
REMARK SMILES IDX 41 78 46 79 42 80 43 81 45 82 47 83 44 84
REMARK H PARENT 9 6 14 27 64 46 38 57
REMARK Flexibility Score: inf
ROOT
ATOM      1  C   UNL A   1      31.796  30.173  26.617  1.00  0.00     0.023 C 
ENDROOT
BRANCH   1   2
ATOM      2  C   UNL A   1      32.210  29.825  25.184  1.00  0.00     0.116 C 
BRANCH   2   3
ATOM      3  N   UNL A   1      31.109  30.057  24.267  1.00  0.00    -0.352 N 
ATOM      4  C   UNL A   1      30.383  29.234  23.444  1.00  0.00     0.251 C 
ATOM      5  O   UNL A   1      29.512  29.764  22.751  1.00  0.00    -0.269 OA
ATOM      6  H   UNL A   1      30.826  30.999  24.226  1.00  0.00     0.163 HD
BRANCH   4   7
ATOM      7  C   UNL A   1      30.541  27.752  23.385  1.00  0.00     0.041 A 
ATOM      8  C   UNL A   1      30.772  24.898  23.469  1.00  0.00    -0.030 A 
ATOM      9  C   UNL A   1      29.634  25.583  23.963  1.00  0.00     0.006 A 
ATOM     10  C   UNL A   1      31.809  25.673  22.936  1.00  0.00     0.071 A 
ATOM     11  C   UNL A   1      29.529  26.976  23.943  1.00  0.00     0.014 A 
ATOM     12  C   UNL A   1      31.627  27.080  22.835  1.00  0.00     0.034 A 
BRANCH   8  13
ATOM     13  C   UNL A   1      30.686  23.403  23.580  1.00  0.00     0.033 C 
ATOM     14  C   UNL A   1      31.062  22.887  24.966  1.00  0.00     0.009 C 
ENDBRANCH   8  13
BRANCH  10  15
ATOM     15  S   UNL A   1      33.490  25.253  22.455  1.00  0.00     0.181 S 
ATOM     16  O   UNL A   1      33.316  24.209  21.455  1.00  0.00    -0.223 OA
ATOM     17  O   UNL A   1      34.044  26.525  22.015  1.00  0.00    -0.223 OA
BRANCH  15  18
ATOM     18  C   UNL A   1      34.626  24.609  23.641  1.00  0.00     0.113 C 
BRANCH  18  19
ATOM     19  C   UNL A   1      34.340  24.968  25.121  1.00  0.00     0.017 C 
ATOM     20  C   UNL A   1      33.915  26.375  25.502  1.00  0.00     0.005 C 
ENDBRANCH  18  19
BRANCH  18  21
ATOM     21  C   UNL A   1      35.213  23.218  23.356  1.00  0.00     0.017 C 
ATOM     22  C   UNL A   1      34.428  22.075  23.999  1.00  0.00     0.005 C 
ENDBRANCH  18  21
ENDBRANCH  15  18
ENDBRANCH  10  15
ENDBRANCH   4   7
ENDBRANCH   2   3
ENDBRANCH   1   2
BRANCH   1  23
ATOM     23  C   UNL A   1      31.516  31.664  26.835  1.00  0.00     0.023 C 
BRANCH  23  24
ATOM     24  C   UNL A   1      32.740  32.499  27.193  1.00  0.00     0.116 C 
BRANCH  24  25
ATOM     25  N   UNL A   1      32.418  33.877  27.531  1.00  0.00    -0.352 N 
ATOM     26  C   UNL A   1      33.057  34.699  28.428  1.00  0.00     0.251 C 
ATOM     27  H   UNL A   1      31.647  34.268  27.059  1.00  0.00     0.163 HD
ATOM     28  O   UNL A   1      32.612  35.811  28.693  1.00  0.00    -0.269 OA
BRANCH  26  29
ATOM     29  C   UNL A   1      34.270  34.205  29.107  1.00  0.00     0.039 A 
ATOM     30  C   UNL A   1      34.131  33.522  30.317  1.00  0.00     0.014 A 
ATOM     31  C   UNL A   1      35.526  34.364  28.518  1.00  0.00     0.014 A 
ATOM     32  C   UNL A   1      35.250  32.927  30.903  1.00  0.00     0.010 A 
ATOM     33  C   UNL A   1      36.628  33.722  29.071  1.00  0.00     0.010 A 
ATOM     34  C   UNL A   1      36.498  32.988  30.261  1.00  0.00    -0.014 A 
BRANCH  34  35
ATOM     35  C   UNL A   1      37.678  32.270  30.802  1.00  0.00     0.031 A 
ATOM     36  C   UNL A   1      38.395  32.804  32.007  1.00  0.00     0.074 A 
ATOM     37  C   UNL A   1      38.149  31.186  30.156  1.00  0.00     0.049 A 
ATOM     38  N   UNL A   1      39.502  32.383  32.564  1.00  0.00    -0.248 NA
ATOM     39  C   UNL A   1      37.803  33.983  32.660  1.00  0.00     0.031 C 
ATOM     40  C   UNL A   1      37.561  30.596  28.951  1.00  0.00     0.029 A 
ATOM     41  N   UNL A   1      39.242  30.397  30.412  1.00  0.00    -0.354 N 
ATOM     42  C   UNL A   1      39.745  33.250  33.620  1.00  0.00     0.074 A 
ATOM     43  C   UNL A   1      38.697  34.248  33.601  1.00  0.00     0.031 C 
ATOM     44  C   UNL A   1      38.292  29.531  28.583  1.00  0.00     0.029 A 
ATOM     45  C   UNL A   1      39.418  29.387  29.498  1.00  0.00     0.049 A 
ATOM     46  H   UNL A   1      39.842  30.541  31.179  1.00  0.00     0.167 HD
ATOM     47  C   UNL A   1      40.741  33.205  34.536  1.00  0.00     0.037 A 
ATOM     48  C   UNL A   1      40.389  28.459  29.402  1.00  0.00     0.037 A 
ATOM     49  C   UNL A   1      41.767  32.198  34.567  1.00  0.00     0.049 A 
ATOM     50  C   UNL A   1      41.498  28.447  30.418  1.00  0.00     0.074 A 
ATOM     51  C   UNL A   1      42.784  32.031  35.491  1.00  0.00     0.029 A 
ATOM     52  N   UNL A   1      41.909  31.186  33.628  1.00  0.00    -0.354 N 
ATOM     53  N   UNL A   1      41.682  29.236  31.448  1.00  0.00    -0.248 NA
ATOM     54  C   UNL A   1      42.536  27.419  30.253  1.00  0.00     0.031 C 
ATOM     55  C   UNL A   1      43.565  30.942  35.090  1.00  0.00     0.029 A 
ATOM     56  C   UNL A   1      43.010  30.406  33.938  1.00  0.00     0.049 A 
ATOM     57  H   UNL A   1      41.314  31.045  32.857  1.00  0.00     0.167 HD
ATOM     58  C   UNL A   1      42.839  28.786  32.069  1.00  0.00     0.074 A 
ATOM     59  C   UNL A   1      43.308  27.648  31.307  1.00  0.00     0.031 C 
ATOM     60  C   UNL A   1      43.459  29.273  33.171  1.00  0.00     0.037 A 
BRANCH  47  61
ATOM     61  C   UNL A   1      40.762  34.274  35.588  1.00  0.00     0.057 A 
ATOM     62  C   UNL A   1      41.436  35.487  35.390  1.00  0.00     0.134 A 
ATOM     63  C   UNL A   1      40.071  34.107  36.793  1.00  0.00     0.134 A 
ATOM     64  F   UNL A   1      42.126  35.705  34.262  1.00  0.00    -0.206 F 
ATOM     65  C   UNL A   1      41.441  36.486  36.365  1.00  0.00     0.040 A 
ATOM     66  C   UNL A   1      40.048  35.107  37.766  1.00  0.00     0.040 A 
ATOM     67  F   UNL A   1      39.400  32.972  37.043  1.00  0.00    -0.206 F 
ATOM     68  C   UNL A   1      40.739  36.300  37.556  1.00  0.00     0.006 A 
ENDBRANCH  47  61
BRANCH  48  69
ATOM     69  C   UNL A   1      40.355  27.456  28.309  1.00  0.00     0.057 A 
ATOM     70  C   UNL A   1      39.659  26.251  28.461  1.00  0.00     0.134 A 
ATOM     71  C   UNL A   1      41.024  27.667  27.098  1.00  0.00     0.134 A 
ATOM     72  F   UNL A   1      39.016  25.982  29.606  1.00  0.00    -0.206 F 
ATOM     73  C   UNL A   1      39.643  25.284  27.453  1.00  0.00     0.040 A 
ATOM     74  C   UNL A   1      40.997  26.719  26.074  1.00  0.00     0.040 A 
ATOM     75  F   UNL A   1      41.704  28.804  26.889  1.00  0.00    -0.206 F 
ATOM     76  C   UNL A   1      40.311  25.520  26.254  1.00  0.00     0.006 A 
ENDBRANCH  48  69
BRANCH  60  77
ATOM     77  C   UNL A   1      44.695  28.563  33.634  1.00  0.00     0.057 A 
ATOM     78  C   UNL A   1      45.973  28.974  33.233  1.00  0.00     0.134 A 
ATOM     79  C   UNL A   1      44.609  27.493  34.533  1.00  0.00     0.134 A 
ATOM     80  F   UNL A   1      46.120  29.984  32.362  1.00  0.00    -0.206 F 
ATOM     81  C   UNL A   1      47.122  28.334  33.698  1.00  0.00     0.040 A 
ATOM     82  C   UNL A   1      45.752  26.861  35.024  1.00  0.00     0.040 A 
ATOM     83  F   UNL A   1      43.416  27.056  34.961  1.00  0.00    -0.206 F 
ATOM     84  C   UNL A   1      47.013  27.280  34.604  1.00  0.00     0.006 A 
ENDBRANCH  60  77
ENDBRANCH  34  35
ENDBRANCH  26  29
ENDBRANCH  24  25
ENDBRANCH  23  24
ENDBRANCH   1  23
TORSDOF 16
ENDMDL
