MODEL 1
REMARK VINA RESULT:     -11.6      0.000      0.000
REMARK SMILES C#Cc1ccc2c(c1)C=C(C(=O)NCCCCNC(=O)c1ccc(-c3c4nc(c(-c5c(F)cccc5F)c5ccc([nH]5)c(-c5c(F)cccc5F)c5nc(c(-c6c(F)cccc6F)c6ccc3[nH]6)C=C5)C=C4)cc1)[C@@H](C(F)(F)F)O2
REMARK SMILES IDX 16 1 15 2 14 3 13 4 11 5 12 6 10 8 3 9 4 10 8 11 5 12 7 13
REMARK SMILES IDX 6 14 9 15 80 16 75 17 2 18 1 19 76 20 77 21 78 22 79 23
REMARK SMILES IDX 17 24 18 25 19 26 20 28 21 29 22 30 74 31 23 32 73 33 24 34
REMARK SMILES IDX 25 35 26 36 67 37 27 38 72 39 66 40 68 41 28 42 71 43 65 44
REMARK SMILES IDX 64 45 29 47 55 48 38 49 54 50 39 51 42 52 53 53 69 54 40 55
REMARK SMILES IDX 41 56 52 58 70 59 43 60 30 61 31 62 36 63 32 64 33 65 35 66
REMARK SMILES IDX 37 67 34 68 56 69 57 70 62 71 58 72 59 73 61 74 63 75 60 76
REMARK SMILES IDX 44 77 45 78 50 79 46 80 47 81 49 82 51 83 48 84
REMARK H PARENT 13 7 18 27 68 46 42 57
REMARK Flexibility Score: inf
ROOT
ATOM      1  C   UNL A   1      32.303  30.867  26.841  1.00  0.00     0.023 C 
ENDROOT
BRANCH   1   2
ATOM      2  C   UNL A   1      32.972  29.756  26.045  1.00  0.00     0.023 C 
BRANCH   2   3
ATOM      3  C   UNL A   1      33.274  28.521  26.884  1.00  0.00     0.116 C 
BRANCH   3   4
ATOM      4  N   UNL A   1      32.188  27.555  26.853  1.00  0.00    -0.352 N 
ATOM      5  C   UNL A   1      31.974  26.327  26.320  1.00  0.00     0.251 C 
ATOM      6  O   UNL A   1      30.885  25.812  26.584  1.00  0.00    -0.270 OA
ATOM      7  H   UNL A   1      31.401  27.877  27.349  1.00  0.00     0.163 HD
BRANCH   5   8
ATOM      8  C   UNL A   1      32.952  25.597  25.457  1.00  0.00     0.067 C 
ATOM      9  C   UNL A   1      36.914  22.856  25.054  1.00  0.00     0.025 A 
ATOM     10  C   UNL A   1      36.653  22.680  23.693  1.00  0.00     0.021 A 
ATOM     11  C   UNL A   1      36.048  23.615  25.851  1.00  0.00     0.029 A 
ATOM     12  C   UNL A   1      35.527  23.264  23.125  1.00  0.00     0.048 A 
ATOM     13  C   UNL A   1      34.915  24.204  25.281  1.00  0.00     0.018 A 
ATOM     14  C   UNL A   1      34.674  24.026  23.918  1.00  0.00     0.128 A 
ATOM     15  C   UNL A   1      33.952  24.951  26.085  1.00  0.00     0.025 C 
ATOM     16  O   UNL A   1      33.587  24.534  23.278  1.00  0.00    -0.475 OA
ATOM     17  C   UNL A   1      32.864  25.583  23.959  1.00  0.00     0.314 C 
BRANCH   9  18
ATOM     18  C   UNL A   1      38.071  22.239  25.623  1.00  0.00    -0.070 C 
ATOM     19  C   UNL A   1      39.021  21.701  26.126  1.00  0.00     0.010 C 
ENDBRANCH   9  18
BRANCH  17  20
ATOM     20  C   UNL A   1      33.245  26.942  23.338  1.00  0.00     0.429 C 
ATOM     21  F   UNL A   1      32.203  27.808  23.427  1.00  0.00    -0.167 F 
ATOM     22  F   UNL A   1      34.285  27.537  23.968  1.00  0.00    -0.167 F 
ATOM     23  F   UNL A   1      33.583  26.843  22.034  1.00  0.00    -0.167 F 
ENDBRANCH  17  20
ENDBRANCH   5   8
ENDBRANCH   3   4
ENDBRANCH   2   3
ENDBRANCH   1   2
BRANCH   1  24
ATOM     24  C   UNL A   1      33.269  31.875  27.446  1.00  0.00     0.116 C 
BRANCH  24  25
ATOM     25  N   UNL A   1      32.702  33.209  27.627  1.00  0.00    -0.352 N 
ATOM     26  C   UNL A   1      33.152  34.207  28.465  1.00  0.00     0.251 C 
ATOM     27  H   UNL A   1      31.907  33.420  27.087  1.00  0.00     0.163 HD
ATOM     28  O   UNL A   1      32.528  35.249  28.611  1.00  0.00    -0.269 OA
BRANCH  26  29
ATOM     29  C   UNL A   1      34.390  33.950  29.225  1.00  0.00     0.039 A 
ATOM     30  C   UNL A   1      35.613  34.318  28.665  1.00  0.00     0.014 A 
ATOM     31  C   UNL A   1      34.334  33.182  30.387  1.00  0.00     0.014 A 
ATOM     32  C   UNL A   1      36.770  33.714  29.130  1.00  0.00     0.010 A 
ATOM     33  C   UNL A   1      35.521  32.688  30.934  1.00  0.00     0.010 A 
ATOM     34  C   UNL A   1      36.741  32.894  30.272  1.00  0.00    -0.014 A 
BRANCH  34  35
ATOM     35  C   UNL A   1      38.007  32.269  30.739  1.00  0.00     0.031 A 
ATOM     36  C   UNL A   1      38.781  32.837  31.899  1.00  0.00     0.074 A 
ATOM     37  C   UNL A   1      38.426  31.137  30.142  1.00  0.00     0.049 A 
ATOM     38  N   UNL A   1      39.897  32.408  32.436  1.00  0.00    -0.248 NA
ATOM     39  C   UNL A   1      38.241  34.047  32.540  1.00  0.00     0.031 C 
ATOM     40  C   UNL A   1      37.752  30.474  29.021  1.00  0.00     0.029 A 
ATOM     41  N   UNL A   1      39.498  30.326  30.408  1.00  0.00    -0.354 N 
ATOM     42  C   UNL A   1      40.200  33.298  33.460  1.00  0.00     0.074 A 
ATOM     43  C   UNL A   1      39.172  34.317  33.443  1.00  0.00     0.031 C 
ATOM     44  C   UNL A   1      38.390  29.332  28.737  1.00  0.00     0.029 A 
ATOM     45  C   UNL A   1      39.568  29.228  29.588  1.00  0.00     0.049 A 
ATOM     46  H   UNL A   1      40.154  30.514  31.117  1.00  0.00     0.167 HD
ATOM     47  C   UNL A   1      41.231  33.263  34.339  1.00  0.00     0.037 A 
ATOM     48  C   UNL A   1      40.496  28.259  29.502  1.00  0.00     0.037 A 
ATOM     49  C   UNL A   1      42.256  32.249  34.347  1.00  0.00     0.049 A 
ATOM     50  C   UNL A   1      41.678  28.302  30.425  1.00  0.00     0.074 A 
ATOM     51  C   UNL A   1      43.337  32.120  35.202  1.00  0.00     0.029 A 
ATOM     52  N   UNL A   1      42.334  31.195  33.448  1.00  0.00    -0.354 N 
ATOM     53  N   UNL A   1      41.941  29.140  31.397  1.00  0.00    -0.248 NA
ATOM     54  C   UNL A   1      42.697  27.264  30.231  1.00  0.00     0.031 C 
ATOM     55  C   UNL A   1      44.108  31.032  34.775  1.00  0.00     0.029 A 
ATOM     56  C   UNL A   1      43.465  30.433  33.704  1.00  0.00     0.049 A 
ATOM     57  H   UNL A   1      41.682  31.014  32.732  1.00  0.00     0.167 HD
ATOM     58  C   UNL A   1      43.141  28.714  31.949  1.00  0.00     0.074 A 
ATOM     59  C   UNL A   1      43.539  27.528  31.219  1.00  0.00     0.031 C 
ATOM     60  C   UNL A   1      43.853  29.257  32.969  1.00  0.00     0.037 A 
BRANCH  47  61
ATOM     61  C   UNL A   1      41.324  34.379  35.346  1.00  0.00     0.057 A 
ATOM     62  C   UNL A   1      40.691  34.270  36.593  1.00  0.00     0.134 A 
ATOM     63  C   UNL A   1      42.017  35.567  35.081  1.00  0.00     0.134 A 
ATOM     64  F   UNL A   1      39.996  33.167  36.911  1.00  0.00    -0.206 F 
ATOM     65  C   UNL A   1      40.752  35.297  37.537  1.00  0.00     0.040 A 
ATOM     66  C   UNL A   1      42.114  36.586  36.031  1.00  0.00     0.040 A 
ATOM     67  F   UNL A   1      42.651  35.739  33.910  1.00  0.00    -0.206 F 
ATOM     68  C   UNL A   1      41.476  36.454  37.263  1.00  0.00     0.006 A 
ENDBRANCH  47  61
BRANCH  48  69
ATOM     69  C   UNL A   1      40.364  27.187  28.483  1.00  0.00     0.057 A 
ATOM     70  C   UNL A   1      39.550  26.068  28.701  1.00  0.00     0.134 A 
ATOM     71  C   UNL A   1      41.021  27.275  27.250  1.00  0.00     0.134 A 
ATOM     72  F   UNL A   1      38.902  25.916  29.866  1.00  0.00    -0.206 F 
ATOM     73  C   UNL A   1      39.394  25.077  27.733  1.00  0.00     0.040 A 
ATOM     74  C   UNL A   1      40.844  26.309  26.258  1.00  0.00     0.040 A 
ATOM     75  F   UNL A   1      41.804  28.328  26.976  1.00  0.00    -0.206 F 
ATOM     76  C   UNL A   1      40.030  25.204  26.500  1.00  0.00     0.006 A 
ENDBRANCH  48  69
BRANCH  60  77
ATOM     77  C   UNL A   1      45.110  28.541  33.378  1.00  0.00     0.057 A 
ATOM     78  C   UNL A   1      46.342  28.890  32.811  1.00  0.00     0.134 A 
ATOM     79  C   UNL A   1      45.106  27.510  34.328  1.00  0.00     0.134 A 
ATOM     80  F   UNL A   1      46.419  29.860  31.888  1.00  0.00    -0.206 F 
ATOM     81  C   UNL A   1      47.525  28.244  33.175  1.00  0.00     0.040 A 
ATOM     82  C   UNL A   1      46.287  26.884  34.729  1.00  0.00     0.040 A 
ATOM     83  F   UNL A   1      43.962  27.136  34.921  1.00  0.00    -0.206 F 
ATOM     84  C   UNL A   1      47.501  27.247  34.148  1.00  0.00     0.006 A 
ENDBRANCH  60  77
ENDBRANCH  34  35
ENDBRANCH  26  29
ENDBRANCH  24  25
ENDBRANCH   1  24
TORSDOF 13
ENDMDL
MODEL 2
REMARK VINA RESULT:     -11.6      0.271      6.360
REMARK SMILES C#Cc1ccc2c(c1)C=C(C(=O)NCCCCNC(=O)c1ccc(-c3c4nc(c(-c5c(F)cccc5F)c5ccc([nH]5)c(-c5c(F)cccc5F)c5nc(c(-c6c(F)cccc6F)c6ccc3[nH]6)C=C5)C=C4)cc1)[C@@H](C(F)(F)F)O2
REMARK SMILES IDX 16 1 15 2 14 3 13 4 11 5 12 6 10 8 3 9 4 10 8 11 5 12 7 13
REMARK SMILES IDX 6 14 9 15 80 16 75 17 2 18 1 19 76 20 77 21 78 22 79 23
REMARK SMILES IDX 17 24 18 25 19 26 20 28 21 29 22 30 74 31 23 32 73 33 24 34
REMARK SMILES IDX 25 35 26 36 67 37 27 38 72 39 66 40 68 41 28 42 71 43 65 44
REMARK SMILES IDX 64 45 29 47 55 48 38 49 54 50 39 51 42 52 53 53 69 54 40 55
REMARK SMILES IDX 41 56 52 58 70 59 43 60 30 61 31 62 36 63 32 64 33 65 35 66
REMARK SMILES IDX 37 67 34 68 56 69 57 70 62 71 58 72 59 73 61 74 63 75 60 76
REMARK SMILES IDX 44 77 45 78 50 79 46 80 47 81 49 82 51 83 48 84
REMARK H PARENT 13 7 18 27 68 46 42 57
REMARK Flexibility Score: inf
ROOT
ATOM      1  C   UNL A   1      32.327  30.842  26.819  1.00  0.00     0.023 C 
ENDROOT
BRANCH   1   2
ATOM      2  C   UNL A   1      33.053  29.813  25.964  1.00  0.00     0.023 C 
BRANCH   2   3
ATOM      3  C   UNL A   1      33.453  28.568  26.743  1.00  0.00     0.116 C 
BRANCH   3   4
ATOM      4  N   UNL A   1      32.374  27.596  26.821  1.00  0.00    -0.352 N 
ATOM      5  C   UNL A   1      32.137  26.344  26.358  1.00  0.00     0.251 C 
ATOM      6  O   UNL A   1      31.070  25.837  26.710  1.00  0.00    -0.270 OA
ATOM      7  H   UNL A   1      31.617  27.937  27.349  1.00  0.00     0.163 HD
BRANCH   5   8
ATOM      8  C   UNL A   1      33.066  25.580  25.471  1.00  0.00     0.067 C 
ATOM      9  C   UNL A   1      36.963  22.764  24.963  1.00  0.00     0.025 A 
ATOM     10  C   UNL A   1      36.642  22.565  23.618  1.00  0.00     0.021 A 
ATOM     11  C   UNL A   1      36.143  23.554  25.779  1.00  0.00     0.029 A 
ATOM     12  C   UNL A   1      35.504  23.156  23.085  1.00  0.00     0.048 A 
ATOM     13  C   UNL A   1      34.997  24.150  25.244  1.00  0.00     0.018 A 
ATOM     14  C   UNL A   1      34.697  23.949  23.895  1.00  0.00     0.128 A 
ATOM     15  C   UNL A   1      34.080  24.931  26.070  1.00  0.00     0.025 C 
ATOM     16  O   UNL A   1      33.593  24.463  23.291  1.00  0.00    -0.475 OA
ATOM     17  C   UNL A   1      32.916  25.538  23.979  1.00  0.00     0.314 C 
BRANCH   9  18
ATOM     18  C   UNL A   1      38.132  22.139  25.497  1.00  0.00    -0.070 C 
ATOM     19  C   UNL A   1      39.093  21.586  25.961  1.00  0.00     0.010 C 
ENDBRANCH   9  18
BRANCH  17  20
ATOM     20  C   UNL A   1      33.293  26.876  23.314  1.00  0.00     0.429 C 
ATOM     21  F   UNL A   1      34.356  27.433  23.949  1.00  0.00    -0.167 F 
ATOM     22  F   UNL A   1      33.659  26.738  22.017  1.00  0.00    -0.167 F 
ATOM     23  F   UNL A   1      32.284  27.775  23.341  1.00  0.00    -0.167 F 
ENDBRANCH  17  20
ENDBRANCH   5   8
ENDBRANCH   3   4
ENDBRANCH   2   3
ENDBRANCH   1   2
BRANCH   1  24
ATOM     24  C   UNL A   1      33.245  31.806  27.556  1.00  0.00     0.116 C 
BRANCH  24  25
ATOM     25  N   UNL A   1      32.707  33.158  27.687  1.00  0.00    -0.352 N 
ATOM     26  C   UNL A   1      33.192  34.184  28.471  1.00  0.00     0.251 C 
ATOM     27  H   UNL A   1      31.905  33.360  27.154  1.00  0.00     0.163 HD
ATOM     28  O   UNL A   1      32.591  35.243  28.581  1.00  0.00    -0.269 OA
BRANCH  26  29
ATOM     29  C   UNL A   1      34.440  33.937  29.218  1.00  0.00     0.039 A 
ATOM     30  C   UNL A   1      35.659  34.244  28.614  1.00  0.00     0.014 A 
ATOM     31  C   UNL A   1      34.391  33.233  30.421  1.00  0.00     0.014 A 
ATOM     32  C   UNL A   1      36.811  33.637  29.087  1.00  0.00     0.010 A 
ATOM     33  C   UNL A   1      35.577  32.740  30.969  1.00  0.00     0.010 A 
ATOM     34  C   UNL A   1      36.788  32.879  30.272  1.00  0.00    -0.014 A 
BRANCH  34  35
ATOM     35  C   UNL A   1      38.048  32.249  30.746  1.00  0.00     0.031 A 
ATOM     36  C   UNL A   1      38.586  30.994  30.110  1.00  0.00     0.074 A 
ATOM     37  C   UNL A   1      38.744  32.858  31.724  1.00  0.00     0.049 A 
ATOM     38  N   UNL A   1      39.674  30.323  30.400  1.00  0.00    -0.248 NA
ATOM     39  C   UNL A   1      37.801  30.408  29.011  1.00  0.00     0.031 C 
ATOM     40  C   UNL A   1      38.341  34.091  32.406  1.00  0.00     0.029 A 
ATOM     41  N   UNL A   1      39.948  32.543  32.298  1.00  0.00    -0.354 N 
ATOM     42  C   UNL A   1      39.697  29.234  29.536  1.00  0.00     0.074 A 
ATOM     43  C   UNL A   1      38.491  29.309  28.739  1.00  0.00     0.031 C 
ATOM     44  C   UNL A   1      39.305  34.460  33.259  1.00  0.00     0.029 A 
ATOM     45  C   UNL A   1      40.349  33.443  33.254  1.00  0.00     0.049 A 
ATOM     46  H   UNL A   1      40.474  31.749  32.048  1.00  0.00     0.167 HD
ATOM     47  C   UNL A   1      40.640  28.268  29.411  1.00  0.00     0.037 A 
ATOM     48  C   UNL A   1      41.420  33.436  34.066  1.00  0.00     0.037 A 
ATOM     49  C   UNL A   1      41.836  28.195  30.213  1.00  0.00     0.049 A 
ATOM     50  C   UNL A   1      42.397  32.301  33.971  1.00  0.00     0.074 A 
ATOM     51  C   UNL A   1      42.858  27.262  30.157  1.00  0.00     0.029 A 
ATOM     52  N   UNL A   1      42.167  29.083  31.226  1.00  0.00    -0.354 N 
ATOM     53  N   UNL A   1      42.413  31.289  33.138  1.00  0.00    -0.248 NA
ATOM     54  C   UNL A   1      43.502  32.307  34.936  1.00  0.00     0.031 C 
ATOM     55  C   UNL A   1      43.767  27.544  31.183  1.00  0.00     0.029 A 
ATOM     56  C   UNL A   1      43.356  28.699  31.827  1.00  0.00     0.049 A 
ATOM     57  H   UNL A   1      41.634  29.872  31.482  1.00  0.00     0.167 HD
ATOM     58  C   UNL A   1      43.544  30.552  33.462  1.00  0.00     0.074 A 
ATOM     59  C   UNL A   1      44.200  31.250  34.548  1.00  0.00     0.031 C 
ATOM     60  C   UNL A   1      43.999  29.399  32.911  1.00  0.00     0.037 A 
BRANCH  47  61
ATOM     61  C   UNL A   1      40.398  27.188  28.392  1.00  0.00     0.057 A 
ATOM     62  C   UNL A   1      41.010  27.244  27.131  1.00  0.00     0.134 A 
ATOM     63  C   UNL A   1      39.545  26.104  28.641  1.00  0.00     0.134 A 
ATOM     64  F   UNL A   1      41.826  28.261  26.815  1.00  0.00    -0.206 F 
ATOM     65  C   UNL A   1      40.789  26.261  26.165  1.00  0.00     0.040 A 
ATOM     66  C   UNL A   1      39.345  25.096  27.695  1.00  0.00     0.040 A 
ATOM     67  F   UNL A   1      38.929  25.982  29.828  1.00  0.00    -0.206 F 
ATOM     68  C   UNL A   1      39.965  25.176  26.450  1.00  0.00     0.006 A 
ENDBRANCH  47  61
BRANCH  48  69
ATOM     69  C   UNL A   1      41.608  34.521  35.064  1.00  0.00     0.057 A 
ATOM     70  C   UNL A   1      42.329  35.681  34.754  1.00  0.00     0.134 A 
ATOM     71  C   UNL A   1      41.037  34.437  36.339  1.00  0.00     0.134 A 
ATOM     72  F   UNL A   1      42.912  35.819  33.554  1.00  0.00    -0.206 F 
ATOM     73  C   UNL A   1      42.477  36.717  35.675  1.00  0.00     0.040 A 
ATOM     74  C   UNL A   1      41.145  35.483  37.256  1.00  0.00     0.040 A 
ATOM     75  F   UNL A   1      40.324  33.358  36.690  1.00  0.00    -0.206 F 
ATOM     76  C   UNL A   1      41.870  36.627  36.926  1.00  0.00     0.006 A 
ENDBRANCH  48  69
BRANCH  60  77
ATOM     77  C   UNL A   1      45.291  28.851  33.448  1.00  0.00     0.057 A 
ATOM     78  C   UNL A   1      45.288  27.930  34.504  1.00  0.00     0.134 A 
ATOM     79  C   UNL A   1      46.536  29.229  32.927  1.00  0.00     0.134 A 
ATOM     80  F   UNL A   1      44.132  27.532  35.058  1.00  0.00    -0.206 F 
ATOM     81  C   UNL A   1      46.472  27.403  35.020  1.00  0.00     0.040 A 
ATOM     82  C   UNL A   1      47.726  28.680  33.409  1.00  0.00     0.040 A 
ATOM     83  F   UNL A   1      46.612  30.096  31.906  1.00  0.00    -0.206 F 
ATOM     84  C   UNL A   1      47.696  27.767  34.462  1.00  0.00     0.006 A 
ENDBRANCH  60  77
ENDBRANCH  34  35
ENDBRANCH  26  29
ENDBRANCH  24  25
ENDBRANCH   1  24
TORSDOF 13
ENDMDL
MODEL 3
REMARK VINA RESULT:     -11.5      3.503      5.749
REMARK SMILES C#Cc1ccc2c(c1)C=C(C(=O)NCCCCNC(=O)c1ccc(-c3c4nc(c(-c5c(F)cccc5F)c5ccc([nH]5)c(-c5c(F)cccc5F)c5nc(c(-c6c(F)cccc6F)c6ccc3[nH]6)C=C5)C=C4)cc1)[C@@H](C(F)(F)F)O2
REMARK SMILES IDX 16 1 15 2 14 3 13 4 11 5 12 6 10 8 3 9 4 10 8 11 5 12 7 13
REMARK SMILES IDX 6 14 9 15 80 16 75 17 2 18 1 19 76 20 77 21 78 22 79 23
REMARK SMILES IDX 17 24 18 25 19 26 20 28 21 29 22 30 74 31 23 32 73 33 24 34
REMARK SMILES IDX 25 35 26 36 67 37 27 38 72 39 66 40 68 41 28 42 71 43 65 44
REMARK SMILES IDX 64 45 29 47 55 48 38 49 54 50 39 51 42 52 53 53 69 54 40 55
REMARK SMILES IDX 41 56 52 58 70 59 43 60 30 61 31 62 36 63 32 64 33 65 35 66
REMARK SMILES IDX 37 67 34 68 56 69 57 70 62 71 58 72 59 73 61 74 63 75 60 76
REMARK SMILES IDX 44 77 45 78 50 79 46 80 47 81 49 82 51 83 48 84
REMARK H PARENT 13 7 18 27 68 46 42 57
REMARK Flexibility Score: inf
ROOT
ATOM      1  C   UNL A   1      33.278  29.153  25.820  1.00  0.00     0.023 C 
ENDROOT
BRANCH   1   2
ATOM      2  C   UNL A   1      33.985  28.200  24.868  1.00  0.00     0.023 C 
BRANCH   2   3
ATOM      3  C   UNL A   1      33.876  26.742  25.295  1.00  0.00     0.116 C 
BRANCH   3   4
ATOM      4  N   UNL A   1      33.585  25.860  24.176  1.00  0.00    -0.352 N 
ATOM      5  C   UNL A   1      32.541  25.637  23.340  1.00  0.00     0.251 C 
ATOM      6  O   UNL A   1      32.733  24.798  22.457  1.00  0.00    -0.270 OA
ATOM      7  H   UNL A   1      34.346  25.270  23.972  1.00  0.00     0.163 HD
BRANCH   5   8
ATOM      8  C   UNL A   1      31.219  26.327  23.435  1.00  0.00     0.067 C 
ATOM      9  C   UNL A   1      28.405  30.104  22.346  1.00  0.00     0.025 A 
ATOM     10  C   UNL A   1      27.298  29.429  22.868  1.00  0.00     0.021 A 
ATOM     11  C   UNL A   1      29.666  29.497  22.336  1.00  0.00     0.029 A 
ATOM     12  C   UNL A   1      27.451  28.148  23.383  1.00  0.00     0.048 A 
ATOM     13  C   UNL A   1      29.823  28.207  22.854  1.00  0.00     0.018 A 
ATOM     14  C   UNL A   1      28.709  27.552  23.381  1.00  0.00     0.128 A 
ATOM     15  C   UNL A   1      31.106  27.512  22.808  1.00  0.00     0.025 C 
ATOM     16  O   UNL A   1      28.753  26.288  23.881  1.00  0.00    -0.475 OA
ATOM     17  C   UNL A   1      30.060  25.761  24.202  1.00  0.00     0.314 C 
BRANCH   9  18
ATOM     18  C   UNL A   1      28.226  31.417  21.811  1.00  0.00    -0.070 C 
ATOM     19  C   UNL A   1      28.112  32.520  21.347  1.00  0.00     0.010 C 
ENDBRANCH   9  18
BRANCH  17  20
ATOM     20  C   UNL A   1      30.273  25.840  25.727  1.00  0.00     0.429 C 
ATOM     21  F   UNL A   1      29.114  25.567  26.378  1.00  0.00    -0.167 F 
ATOM     22  F   UNL A   1      31.180  24.943  26.181  1.00  0.00    -0.167 F 
ATOM     23  F   UNL A   1      30.692  27.059  26.133  1.00  0.00    -0.167 F 
ENDBRANCH  17  20
ENDBRANCH   5   8
ENDBRANCH   3   4
ENDBRANCH   2   3
ENDBRANCH   1   2
BRANCH   1  24
ATOM     24  C   UNL A   1      33.747  29.061  27.264  1.00  0.00     0.116 C 
BRANCH  24  25
ATOM     25  N   UNL A   1      33.821  30.349  27.950  1.00  0.00    -0.352 N 
ATOM     26  C   UNL A   1      34.900  30.882  28.623  1.00  0.00     0.251 C 
ATOM     27  H   UNL A   1      33.006  30.900  27.929  1.00  0.00     0.163 HD
ATOM     28  O   UNL A   1      34.808  31.927  29.253  1.00  0.00    -0.269 OA
BRANCH  26  29
ATOM     29  C   UNL A   1      36.161  30.117  28.603  1.00  0.00     0.039 A 
ATOM     30  C   UNL A   1      36.589  29.493  29.774  1.00  0.00     0.014 A 
ATOM     31  C   UNL A   1      36.988  30.188  27.482  1.00  0.00     0.014 A 
ATOM     32  C   UNL A   1      37.927  29.159  29.903  1.00  0.00     0.010 A 
ATOM     33  C   UNL A   1      38.300  29.720  27.575  1.00  0.00     0.010 A 
ATOM     34  C   UNL A   1      38.801  29.264  28.805  1.00  0.00    -0.014 A 
BRANCH  34  35
ATOM     35  C   UNL A   1      40.229  28.890  28.986  1.00  0.00     0.031 A 
ATOM     36  C   UNL A   1      41.202  29.814  29.669  1.00  0.00     0.074 A 
ATOM     37  C   UNL A   1      40.632  27.671  28.580  1.00  0.00     0.049 A 
ATOM     38  N   UNL A   1      42.478  29.635  29.913  1.00  0.00    -0.248 NA
ATOM     39  C   UNL A   1      40.684  31.110  30.135  1.00  0.00     0.031 C 
ATOM     40  C   UNL A   1      39.780  26.675  27.923  1.00  0.00     0.029 A 
ATOM     41  N   UNL A   1      41.848  27.049  28.680  1.00  0.00    -0.354 N 
ATOM     42  C   UNL A   1      42.916  30.794  30.543  1.00  0.00     0.074 A 
ATOM     43  C   UNL A   1      41.780  31.689  30.605  1.00  0.00     0.031 C 
ATOM     44  C   UNL A   1      40.480  25.549  27.737  1.00  0.00     0.029 A 
ATOM     45  C   UNL A   1      41.853  25.774  28.171  1.00  0.00     0.049 A 
ATOM     46  H   UNL A   1      42.641  27.474  29.079  1.00  0.00     0.167 HD
ATOM     47  C   UNL A   1      44.147  31.082  31.033  1.00  0.00     0.037 A 
ATOM     48  C   UNL A   1      42.857  24.891  28.033  1.00  0.00     0.037 A 
ATOM     49  C   UNL A   1      45.277  30.188  30.961  1.00  0.00     0.049 A 
ATOM     50  C   UNL A   1      44.231  25.276  28.497  1.00  0.00     0.074 A 
ATOM     51  C   UNL A   1      46.563  30.383  31.436  1.00  0.00     0.029 A 
ATOM     52  N   UNL A   1      45.260  28.935  30.366  1.00  0.00    -0.354 N 
ATOM     53  N   UNL A   1      44.625  26.369  29.104  1.00  0.00    -0.248 NA
ATOM     54  C   UNL A   1      45.302  24.304  28.248  1.00  0.00     0.031 C 
ATOM     55  C   UNL A   1      47.340  29.280  31.064  1.00  0.00     0.029 A 
ATOM     56  C   UNL A   1      46.521  28.361  30.428  1.00  0.00     0.049 A 
ATOM     57  H   UNL A   1      44.468  28.515  29.958  1.00  0.00     0.167 HD
ATOM     58  C   UNL A   1      45.984  26.204  29.335  1.00  0.00     0.074 A 
ATOM     59  C   UNL A   1      46.337  24.894  28.826  1.00  0.00     0.031 C 
ATOM     60  C   UNL A   1      46.863  27.059  29.915  1.00  0.00     0.037 A 
BRANCH  47  61
ATOM     61  C   UNL A   1      44.347  32.437  31.658  1.00  0.00     0.057 A 
ATOM     62  C   UNL A   1      44.719  33.537  30.873  1.00  0.00     0.134 A 
ATOM     63  C   UNL A   1      44.196  32.653  33.034  1.00  0.00     0.134 A 
ATOM     64  F   UNL A   1      44.897  33.403  29.550  1.00  0.00    -0.206 F 
ATOM     65  C   UNL A   1      44.924  34.800  31.432  1.00  0.00     0.040 A 
ATOM     66  C   UNL A   1      44.364  33.919  33.599  1.00  0.00     0.040 A 
ATOM     67  F   UNL A   1      43.838  31.646  33.846  1.00  0.00    -0.206 F 
ATOM     68  C   UNL A   1      44.734  34.997  32.797  1.00  0.00     0.006 A 
ENDBRANCH  47  61
BRANCH  48  69
ATOM     69  C   UNL A   1      42.610  23.571  27.398  1.00  0.00     0.057 A 
ATOM     70  C   UNL A   1      42.745  23.389  26.016  1.00  0.00     0.134 A 
ATOM     71  C   UNL A   1      42.268  22.452  28.166  1.00  0.00     0.134 A 
ATOM     72  F   UNL A   1      43.059  24.423  25.222  1.00  0.00    -0.206 F 
ATOM     73  C   UNL A   1      42.550  22.144  25.420  1.00  0.00     0.040 A 
ATOM     74  C   UNL A   1      42.107  21.193  27.587  1.00  0.00     0.040 A 
ATOM     75  F   UNL A   1      42.136  22.560  29.495  1.00  0.00    -0.206 F 
ATOM     76  C   UNL A   1      42.244  21.037  26.209  1.00  0.00     0.006 A 
ENDBRANCH  48  69
BRANCH  60  77
ATOM     77  C   UNL A   1      48.279  26.581  30.067  1.00  0.00     0.057 A 
ATOM     78  C   UNL A   1      49.235  26.869  29.084  1.00  0.00     0.134 A 
ATOM     79  C   UNL A   1      48.701  25.838  31.178  1.00  0.00     0.134 A 
ATOM     80  F   UNL A   1      48.899  27.566  27.988  1.00  0.00    -0.206 F 
ATOM     81  C   UNL A   1      50.558  26.440  29.201  1.00  0.00     0.040 A 
ATOM     82  C   UNL A   1      50.030  25.437  31.326  1.00  0.00     0.040 A 
ATOM     83  F   UNL A   1      47.841  25.540  32.163  1.00  0.00    -0.206 F 
ATOM     84  C   UNL A   1      50.962  25.734  30.332  1.00  0.00     0.006 A 
ENDBRANCH  60  77
ENDBRANCH  34  35
ENDBRANCH  26  29
ENDBRANCH  24  25
ENDBRANCH   1  24
TORSDOF 13
ENDMDL
