MODEL 1
REMARK VINA RESULT:     -13.2      0.000      0.000
REMARK SMILES O=C(NCCCCNC(=O)[C@H]1[C@H]2CC[C@H](C2)[C@@H]1C(=O)N[C@H]1CCCc2ccccc21)c1ccc(-c2c3nc(c(-c4c(F)cccc4F)c4ccc([nH]4)c(-c4c(F)cccc4F)c4nc(c(-c5c(F)cccc5F)c5ccc2[nH]5)C=C4)C=C3)cc1
REMARK SMILES IDX 5 1 4 2 3 3 1 4 2 5 31 7 32 8 84 9 33 10 83 11 34 12 35 13
REMARK SMILES IDX 36 14 77 15 37 16 82 17 76 18 78 19 38 20 81 21 75 22 74 23
REMARK SMILES IDX 39 25 65 26 48 27 64 28 49 29 52 30 63 31 79 32 50 33 51 34
REMARK SMILES IDX 62 36 80 37 53 38 40 39 41 40 46 41 42 42 43 43 45 44 47 45
REMARK SMILES IDX 44 46 66 47 67 48 72 49 68 50 69 51 71 52 73 53 70 54 54 55
REMARK SMILES IDX 55 56 60 57 56 58 57 59 59 60 61 61 58 62 6 63 7 64 8 65
REMARK SMILES IDX 9 66 10 68 11 69 12 70 17 71 13 72 16 73 15 74 14 75 18 76
REMARK SMILES IDX 19 77 20 78 21 80 22 81 30 82 23 83 25 84 29 85 24 86 26 87
REMARK SMILES IDX 28 88 27 89
REMARK H PARENT 3 6 78 24 52 35 8 67 20 79
REMARK Flexibility Score: inf
ROOT
ATOM      1  C   UNL A   1      37.804  20.813  25.025  1.00  0.00     0.023 C 
ENDROOT
BRANCH   1   2
ATOM      2  C   UNL A   1      38.997  20.830  25.955  1.00  0.00     0.116 C 
BRANCH   2   3
ATOM      3  N   UNL A   1      39.929  19.731  25.741  1.00  0.00    -0.352 N 
ATOM      4  O   UNL A   1      42.005  18.803  25.695  1.00  0.00    -0.269 OA
ATOM      5  C   UNL A   1      41.288  19.746  25.974  1.00  0.00     0.251 C 
ATOM      6  H   UNL A   1      39.549  18.892  25.395  1.00  0.00     0.163 HD
BRANCH   5   7
ATOM      7  C   UNL A   1      41.850  20.986  26.542  1.00  0.00     0.039 A 
ATOM      8  C   UNL A   1      41.805  21.177  27.923  1.00  0.00     0.014 A 
ATOM      9  C   UNL A   1      42.259  22.008  25.684  1.00  0.00     0.014 A 
ATOM     10  C   UNL A   1      42.004  22.447  28.434  1.00  0.00     0.010 A 
ATOM     11  C   UNL A   1      42.573  23.260  26.217  1.00  0.00     0.010 A 
ATOM     12  C   UNL A   1      42.414  23.497  27.591  1.00  0.00    -0.014 A 
BRANCH  12  13
ATOM     13  C   UNL A   1      42.748  24.803  28.207  1.00  0.00     0.031 A 
ATOM     14  C   UNL A   1      44.157  25.172  28.568  1.00  0.00     0.074 A 
ATOM     15  C   UNL A   1      41.743  25.683  28.378  1.00  0.00     0.049 A 
ATOM     16  N   UNL A   1      44.602  26.287  29.093  1.00  0.00    -0.248 NA
ATOM     17  C   UNL A   1      45.203  24.168  28.322  1.00  0.00     0.031 C 
ATOM     18  C   UNL A   1      40.333  25.417  28.071  1.00  0.00     0.029 A 
ATOM     19  N   UNL A   1      41.746  26.980  28.813  1.00  0.00    -0.354 N 
ATOM     20  C   UNL A   1      45.970  26.112  29.260  1.00  0.00     0.074 A 
ATOM     21  C   UNL A   1      46.282  24.776  28.796  1.00  0.00     0.031 C 
ATOM     22  C   UNL A   1      39.623  26.536  28.257  1.00  0.00     0.029 A 
ATOM     23  C   UNL A   1      40.507  27.571  28.774  1.00  0.00     0.049 A 
ATOM     24  H   UNL A   1      42.557  27.445  29.122  1.00  0.00     0.167 HD
ATOM     25  C   UNL A   1      46.875  26.990  29.755  1.00  0.00     0.037 A 
ATOM     26  C   UNL A   1      40.117  28.805  29.134  1.00  0.00     0.037 A 
ATOM     27  C   UNL A   1      46.550  28.323  30.200  1.00  0.00     0.049 A 
ATOM     28  C   UNL A   1      41.144  29.755  29.667  1.00  0.00     0.074 A 
ATOM     29  C   UNL A   1      47.393  29.289  30.723  1.00  0.00     0.029 A 
ATOM     30  N   UNL A   1      45.280  28.880  30.166  1.00  0.00    -0.354 N 
ATOM     31  N   UNL A   1      42.431  29.568  29.832  1.00  0.00    -0.248 NA
ATOM     32  C   UNL A   1      40.665  31.081  30.072  1.00  0.00     0.031 C 
ATOM     33  C   UNL A   1      46.627  30.419  31.031  1.00  0.00     0.029 A 
ATOM     34  C   UNL A   1      45.314  30.172  30.664  1.00  0.00     0.049 A 
ATOM     35  H   UNL A   1      44.471  28.423  29.837  1.00  0.00     0.167 HD
ATOM     36  C   UNL A   1      42.918  30.751  30.366  1.00  0.00     0.074 A 
ATOM     37  C   UNL A   1      41.792  31.661  30.460  1.00  0.00     0.031 C 
ATOM     38  C   UNL A   1      44.179  31.053  30.756  1.00  0.00     0.037 A 
BRANCH  25  39
ATOM     39  C   UNL A   1      48.304  26.540  29.855  1.00  0.00     0.057 A 
ATOM     40  C   UNL A   1      49.244  26.839  28.862  1.00  0.00     0.134 A 
ATOM     41  C   UNL A   1      48.758  25.851  30.987  1.00  0.00     0.134 A 
ATOM     42  F   UNL A   1      48.873  27.486  27.747  1.00  0.00    -0.206 F 
ATOM     43  C   UNL A   1      50.583  26.460  28.985  1.00  0.00     0.040 A 
ATOM     44  C   UNL A   1      50.098  25.484  31.132  1.00  0.00     0.040 A 
ATOM     45  F   UNL A   1      47.912  25.538  31.980  1.00  0.00    -0.206 F 
ATOM     46  C   UNL A   1      51.015  25.786  30.127  1.00  0.00     0.006 A 
ENDBRANCH  25  39
BRANCH  26  47
ATOM     47  C   UNL A   1      38.690  29.185  29.017  1.00  0.00     0.057 A 
ATOM     48  C   UNL A   1      38.146  29.603  27.798  1.00  0.00     0.134 A 
ATOM     49  C   UNL A   1      37.827  29.107  30.118  1.00  0.00     0.134 A 
ATOM     50  F   UNL A   1      38.926  29.711  26.712  1.00  0.00    -0.206 F 
ATOM     51  C   UNL A   1      36.797  29.941  27.680  1.00  0.00     0.040 A 
ATOM     52  C   UNL A   1      36.471  29.411  30.007  1.00  0.00     0.040 A 
ATOM     53  F   UNL A   1      38.286  28.698  31.310  1.00  0.00    -0.206 F 
ATOM     54  C   UNL A   1      35.954  29.836  28.786  1.00  0.00     0.006 A 
ENDBRANCH  26  47
BRANCH  38  55
ATOM     55  C   UNL A   1      44.391  32.429  31.311  1.00  0.00     0.057 A 
ATOM     56  C   UNL A   1      44.267  32.693  32.681  1.00  0.00     0.134 A 
ATOM     57  C   UNL A   1      44.716  33.497  30.468  1.00  0.00     0.134 A 
ATOM     58  F   UNL A   1      43.938  31.713  33.536  1.00  0.00    -0.206 F 
ATOM     59  C   UNL A   1      44.429  33.982  33.190  1.00  0.00     0.040 A 
ATOM     60  C   UNL A   1      44.904  34.786  30.967  1.00  0.00     0.040 A 
ATOM     61  F   UNL A   1      44.853  33.306  29.146  1.00  0.00    -0.206 F 
ATOM     62  C   UNL A   1      44.751  35.033  32.331  1.00  0.00     0.006 A 
ENDBRANCH  38  55
ENDBRANCH  12  13
ENDBRANCH   5   7
ENDBRANCH   2   3
ENDBRANCH   1   2
BRANCH   1  63
ATOM     63  C   UNL A   1      37.328  22.196  24.608  1.00  0.00     0.023 C 
BRANCH  63  64
ATOM     64  C   UNL A   1      36.654  23.001  25.720  1.00  0.00     0.116 C 
BRANCH  64  65
ATOM     65  N   UNL A   1      35.765  22.167  26.488  1.00  0.00    -0.356 N 
ATOM     66  C   UNL A   1      34.424  22.228  26.667  1.00  0.00     0.224 C 
ATOM     67  H   UNL A   1      36.207  21.425  26.961  1.00  0.00     0.163 HD
ATOM     68  O   UNL A   1      33.970  21.446  27.510  1.00  0.00    -0.275 OA
BRANCH  66  69
ATOM     69  C   UNL A   1      33.476  23.073  25.806  1.00  0.00     0.094 C 
ATOM     70  C   UNL A   1      33.862  22.885  24.305  1.00  0.00     0.002 C 
ATOM     71  C   UNL A   1      31.948  22.892  25.759  1.00  0.00     0.094 C 
ATOM     72  C   UNL A   1      33.541  21.452  23.833  1.00  0.00     0.005 C 
ATOM     73  C   UNL A   1      32.770  23.678  23.604  1.00  0.00     0.009 C 
ATOM     74  C   UNL A   1      31.637  22.875  24.242  1.00  0.00     0.002 C 
ATOM     75  C   UNL A   1      32.004  21.458  23.733  1.00  0.00     0.005 C 
BRANCH  71  76
ATOM     76  C   UNL A   1      31.027  23.740  26.661  1.00  0.00     0.224 C 
ATOM     77  O   UNL A   1      30.437  23.165  27.590  1.00  0.00    -0.275 OA
ATOM     78  N   UNL A   1      30.793  25.068  26.591  1.00  0.00    -0.349 N 
ATOM     79  H   UNL A   1      30.433  25.459  27.421  1.00  0.00     0.164 HD
BRANCH  78  80
ATOM     80  C   UNL A   1      30.975  26.020  25.522  1.00  0.00     0.112 C 
ATOM     81  C   UNL A   1      29.754  26.087  24.599  1.00  0.00     0.030 C 
ATOM     82  C   UNL A   1      31.348  27.425  25.941  1.00  0.00    -0.022 A 
ATOM     83  C   UNL A   1      30.150  26.847  23.332  1.00  0.00     0.007 C 
ATOM     84  C   UNL A   1      31.437  28.407  24.936  1.00  0.00    -0.043 A 
ATOM     85  C   UNL A   1      31.716  27.769  27.248  1.00  0.00     0.006 A 
ATOM     86  C   UNL A   1      30.705  28.247  23.621  1.00  0.00     0.036 C 
ATOM     87  C   UNL A   1      32.105  29.610  25.203  1.00  0.00     0.004 A 
ATOM     88  C   UNL A   1      32.378  28.969  27.507  1.00  0.00     0.000 A 
ATOM     89  C   UNL A   1      32.616  29.868  26.473  1.00  0.00     0.000 A 
ENDBRANCH  78  80
ENDBRANCH  71  76
ENDBRANCH  66  69
ENDBRANCH  64  65
ENDBRANCH  63  64
ENDBRANCH   1  63
TORSDOF 13
ENDMDL
MODEL 2
REMARK VINA RESULT:     -13.2      0.256      6.070
REMARK SMILES O=C(NCCCCNC(=O)[C@H]1[C@H]2CC[C@H](C2)[C@@H]1C(=O)N[C@H]1CCCc2ccccc21)c1ccc(-c2c3nc(c(-c4c(F)cccc4F)c4ccc([nH]4)c(-c4c(F)cccc4F)c4nc(c(-c5c(F)cccc5F)c5ccc2[nH]5)C=C4)C=C3)cc1
REMARK SMILES IDX 5 1 4 2 3 3 1 4 2 5 31 7 32 8 84 9 33 10 83 11 34 12 35 13
REMARK SMILES IDX 36 14 77 15 37 16 82 17 76 18 78 19 38 20 81 21 75 22 74 23
REMARK SMILES IDX 39 25 65 26 48 27 64 28 49 29 52 30 63 31 79 32 50 33 51 34
REMARK SMILES IDX 62 36 80 37 53 38 40 39 41 40 46 41 42 42 43 43 45 44 47 45
REMARK SMILES IDX 44 46 66 47 67 48 72 49 68 50 69 51 71 52 73 53 70 54 54 55
REMARK SMILES IDX 55 56 60 57 56 58 57 59 59 60 61 61 58 62 6 63 7 64 8 65
REMARK SMILES IDX 9 66 10 68 11 69 12 70 17 71 13 72 16 73 15 74 14 75 18 76
REMARK SMILES IDX 19 77 20 78 21 80 22 81 30 82 23 83 25 84 29 85 24 86 26 87
REMARK SMILES IDX 28 88 27 89
REMARK H PARENT 3 6 78 24 52 35 8 67 20 79
REMARK Flexibility Score: inf
ROOT
ATOM      1  C   UNL A   1      37.795  20.660  24.993  1.00  0.00     0.023 C 
ENDROOT
BRANCH   1   2
ATOM      2  C   UNL A   1      38.904  20.651  26.021  1.00  0.00     0.116 C 
BRANCH   2   3
ATOM      3  N   UNL A   1      39.849  19.554  25.861  1.00  0.00    -0.352 N 
ATOM      4  O   UNL A   1      41.937  18.651  25.849  1.00  0.00    -0.269 OA
ATOM      5  C   UNL A   1      41.210  19.599  26.081  1.00  0.00     0.251 C 
ATOM      6  H   UNL A   1      39.478  18.692  25.565  1.00  0.00     0.163 HD
BRANCH   5   7
ATOM      7  C   UNL A   1      41.760  20.876  26.574  1.00  0.00     0.039 A 
ATOM      8  C   UNL A   1      41.710  21.149  27.941  1.00  0.00     0.014 A 
ATOM      9  C   UNL A   1      42.161  21.848  25.657  1.00  0.00     0.014 A 
ATOM     10  C   UNL A   1      41.897  22.449  28.376  1.00  0.00     0.010 A 
ATOM     11  C   UNL A   1      42.463  23.133  26.115  1.00  0.00     0.010 A 
ATOM     12  C   UNL A   1      42.299  23.450  27.472  1.00  0.00    -0.014 A 
BRANCH  12  13
ATOM     13  C   UNL A   1      42.619  24.794  28.009  1.00  0.00     0.031 A 
ATOM     14  C   UNL A   1      41.555  25.824  28.254  1.00  0.00     0.074 A 
ATOM     15  C   UNL A   1      43.902  25.044  28.332  1.00  0.00     0.049 A 
ATOM     16  N   UNL A   1      41.683  27.033  28.740  1.00  0.00    -0.248 NA
ATOM     17  C   UNL A   1      40.172  25.463  27.904  1.00  0.00     0.031 C 
ATOM     18  C   UNL A   1      45.017  24.114  28.122  1.00  0.00     0.029 A 
ATOM     19  N   UNL A   1      44.485  26.126  28.933  1.00  0.00    -0.354 N 
ATOM     20  C   UNL A   1      40.408  27.586  28.733  1.00  0.00     0.074 A 
ATOM     21  C   UNL A   1      39.520  26.585  28.180  1.00  0.00     0.031 C 
ATOM     22  C   UNL A   1      46.131  24.633  28.650  1.00  0.00     0.029 A 
ATOM     23  C   UNL A   1      45.829  25.963  29.161  1.00  0.00     0.049 A 
ATOM     24  H   UNL A   1      43.990  26.941  29.179  1.00  0.00     0.167 HD
ATOM     25  C   UNL A   1      40.023  28.814  29.154  1.00  0.00     0.037 A 
ATOM     26  C   UNL A   1      46.730  26.800  29.703  1.00  0.00     0.037 A 
ATOM     27  C   UNL A   1      40.918  29.796  29.717  1.00  0.00     0.049 A 
ATOM     28  C   UNL A   1      46.270  28.146  30.167  1.00  0.00     0.074 A 
ATOM     29  C   UNL A   1      40.628  31.072  30.168  1.00  0.00     0.029 A 
ATOM     30  N   UNL A   1      42.278  29.604  29.912  1.00  0.00    -0.354 N 
ATOM     31  N   UNL A   1      45.063  28.658  30.140  1.00  0.00    -0.248 NA
ATOM     32  C   UNL A   1      47.294  29.035  30.727  1.00  0.00     0.031 C 
ATOM     33  C   UNL A   1      41.818  31.661  30.610  1.00  0.00     0.029 A 
ATOM     34  C   UNL A   1      42.842  30.739  30.471  1.00  0.00     0.049 A 
ATOM     35  H   UNL A   1      42.771  28.781  29.686  1.00  0.00     0.167 HD
ATOM     36  C   UNL A   1      45.181  29.932  30.675  1.00  0.00     0.074 A 
ATOM     37  C   UNL A   1      46.572  30.098  31.052  1.00  0.00     0.031 C 
ATOM     38  C   UNL A   1      44.230  30.883  30.827  1.00  0.00     0.037 A 
BRANCH  25  39
ATOM     39  C   UNL A   1      38.573  29.179  29.013  1.00  0.00     0.057 A 
ATOM     40  C   UNL A   1      37.690  29.129  30.098  1.00  0.00     0.134 A 
ATOM     41  C   UNL A   1      38.068  29.643  27.792  1.00  0.00     0.134 A 
ATOM     42  F   UNL A   1      38.106  28.684  31.294  1.00  0.00    -0.206 F 
ATOM     43  C   UNL A   1      36.354  29.517  29.972  1.00  0.00     0.040 A 
ATOM     44  C   UNL A   1      36.740  30.053  27.657  1.00  0.00     0.040 A 
ATOM     45  F   UNL A   1      38.861  29.722  26.712  1.00  0.00    -0.206 F 
ATOM     46  C   UNL A   1      35.877  29.987  28.749  1.00  0.00     0.006 A 
ENDBRANCH  25  39
BRANCH  26  47
ATOM     47  C   UNL A   1      48.148  26.383  29.807  1.00  0.00     0.057 A 
ATOM     48  C   UNL A   1      49.059  26.636  28.776  1.00  0.00     0.134 A 
ATOM     49  C   UNL A   1      48.634  25.750  30.958  1.00  0.00     0.134 A 
ATOM     50  F   UNL A   1      48.650  27.228  27.644  1.00  0.00    -0.206 F 
ATOM     51  C   UNL A   1      50.399  26.265  28.881  1.00  0.00     0.040 A 
ATOM     52  C   UNL A   1      49.977  25.401  31.089  1.00  0.00     0.040 A 
ATOM     53  F   UNL A   1      47.813  25.494  31.987  1.00  0.00    -0.206 F 
ATOM     54  C   UNL A   1      50.864  25.653  30.045  1.00  0.00     0.006 A 
ENDBRANCH  26  47
BRANCH  38  55
ATOM     55  C   UNL A   1      44.676  32.178  31.435  1.00  0.00     0.057 A 
ATOM     56  C   UNL A   1      44.646  32.387  32.819  1.00  0.00     0.134 A 
ATOM     57  C   UNL A   1      45.132  33.226  30.627  1.00  0.00     0.134 A 
ATOM     58  F   UNL A   1      44.201  31.426  33.643  1.00  0.00    -0.206 F 
ATOM     59  C   UNL A   1      45.028  33.607  33.379  1.00  0.00     0.040 A 
ATOM     60  C   UNL A   1      45.539  34.442  31.176  1.00  0.00     0.040 A 
ATOM     61  F   UNL A   1      45.188  33.086  29.294  1.00  0.00    -0.206 F 
ATOM     62  C   UNL A   1      45.478  34.638  32.556  1.00  0.00     0.006 A 
ENDBRANCH  38  55
ENDBRANCH  12  13
ENDBRANCH   5   7
ENDBRANCH   2   3
ENDBRANCH   1   2
BRANCH   1  63
ATOM     63  C   UNL A   1      37.314  22.053  24.616  1.00  0.00     0.023 C 
BRANCH  63  64
ATOM     64  C   UNL A   1      36.626  22.818  25.747  1.00  0.00     0.116 C 
BRANCH  64  65
ATOM     65  N   UNL A   1      35.701  21.966  26.450  1.00  0.00    -0.356 N 
ATOM     66  C   UNL A   1      34.359  22.056  26.613  1.00  0.00     0.224 C 
ATOM     67  H   UNL A   1      36.114  21.185  26.886  1.00  0.00     0.163 HD
ATOM     68  O   UNL A   1      33.870  21.239  27.402  1.00  0.00    -0.275 OA
BRANCH  66  69
ATOM     69  C   UNL A   1      33.450  22.977  25.790  1.00  0.00     0.094 C 
ATOM     70  C   UNL A   1      33.836  22.845  24.283  1.00  0.00     0.002 C 
ATOM     71  C   UNL A   1      31.916  22.859  25.730  1.00  0.00     0.094 C 
ATOM     72  C   UNL A   1      33.461  21.450  23.743  1.00  0.00     0.005 C 
ATOM     73  C   UNL A   1      32.780  23.713  23.617  1.00  0.00     0.009 C 
ATOM     74  C   UNL A   1      31.612  22.926  24.213  1.00  0.00     0.002 C 
ATOM     75  C   UNL A   1      31.927  21.521  23.638  1.00  0.00     0.005 C 
BRANCH  71  76
ATOM     76  C   UNL A   1      31.024  23.699  26.668  1.00  0.00     0.224 C 
ATOM     77  O   UNL A   1      30.469  23.117  27.613  1.00  0.00    -0.275 OA
ATOM     78  N   UNL A   1      30.784  25.026  26.614  1.00  0.00    -0.349 N 
ATOM     79  H   UNL A   1      30.452  25.411  27.457  1.00  0.00     0.164 HD
BRANCH  78  80
ATOM     80  C   UNL A   1      30.926  25.985  25.544  1.00  0.00     0.112 C 
ATOM     81  C   UNL A   1      29.672  26.055  24.666  1.00  0.00     0.030 C 
ATOM     82  C   UNL A   1      31.312  27.388  25.957  1.00  0.00    -0.022 A 
ATOM     83  C   UNL A   1      30.021  26.823  23.390  1.00  0.00     0.007 C 
ATOM     84  C   UNL A   1      31.363  28.376  24.956  1.00  0.00    -0.043 A 
ATOM     85  C   UNL A   1      31.725  27.725  27.253  1.00  0.00     0.006 A 
ATOM     86  C   UNL A   1      30.584  28.222  23.668  1.00  0.00     0.036 C 
ATOM     87  C   UNL A   1      32.038  29.579  25.206  1.00  0.00     0.004 A 
ATOM     88  C   UNL A   1      32.394  28.925  27.495  1.00  0.00     0.000 A 
ATOM     89  C   UNL A   1      32.593  29.830  26.459  1.00  0.00     0.000 A 
ENDBRANCH  78  80
ENDBRANCH  71  76
ENDBRANCH  66  69
ENDBRANCH  64  65
ENDBRANCH  63  64
ENDBRANCH   1  63
TORSDOF 13
ENDMDL
MODEL 3
REMARK VINA RESULT:     -12.8      3.339      8.582
REMARK SMILES O=C(NCCCCNC(=O)[C@H]1[C@H]2CC[C@H](C2)[C@@H]1C(=O)N[C@H]1CCCc2ccccc21)c1ccc(-c2c3nc(c(-c4c(F)cccc4F)c4ccc([nH]4)c(-c4c(F)cccc4F)c4nc(c(-c5c(F)cccc5F)c5ccc2[nH]5)C=C4)C=C3)cc1
REMARK SMILES IDX 5 1 4 2 3 3 1 4 2 5 31 7 32 8 84 9 33 10 83 11 34 12 35 13
REMARK SMILES IDX 36 14 77 15 37 16 82 17 76 18 78 19 38 20 81 21 75 22 74 23
REMARK SMILES IDX 39 25 65 26 48 27 64 28 49 29 52 30 63 31 79 32 50 33 51 34
REMARK SMILES IDX 62 36 80 37 53 38 40 39 41 40 46 41 42 42 43 43 45 44 47 45
REMARK SMILES IDX 44 46 66 47 67 48 72 49 68 50 69 51 71 52 73 53 70 54 54 55
REMARK SMILES IDX 55 56 60 57 56 58 57 59 59 60 61 61 58 62 6 63 7 64 8 65
REMARK SMILES IDX 9 66 10 68 11 69 12 70 17 71 13 72 16 73 15 74 14 75 18 76
REMARK SMILES IDX 19 77 20 78 21 80 22 81 30 82 23 83 25 84 29 85 24 86 26 87
REMARK SMILES IDX 28 88 27 89
REMARK H PARENT 3 6 78 24 52 35 8 67 20 79
REMARK Flexibility Score: inf
ROOT
ATOM      1  C   UNL A   1      32.015  31.099  26.772  1.00  0.00     0.023 C 
ENDROOT
BRANCH   1   2
ATOM      2  C   UNL A   1      33.082  32.082  27.197  1.00  0.00     0.116 C 
BRANCH   2   3
ATOM      3  N   UNL A   1      32.561  33.383  27.596  1.00  0.00    -0.352 N 
ATOM      4  O   UNL A   1      32.605  35.310  28.805  1.00  0.00    -0.269 OA
ATOM      5  C   UNL A   1      33.149  34.274  28.469  1.00  0.00     0.251 C 
ATOM      6  H   UNL A   1      31.702  33.654  27.201  1.00  0.00     0.163 HD
BRANCH   5   7
ATOM      7  C   UNL A   1      34.463  33.892  29.022  1.00  0.00     0.039 A 
ATOM      8  C   UNL A   1      35.615  34.208  28.302  1.00  0.00     0.014 A 
ATOM      9  C   UNL A   1      34.519  33.083  30.157  1.00  0.00     0.014 A 
ATOM     10  C   UNL A   1      36.803  33.573  28.619  1.00  0.00     0.010 A 
ATOM     11  C   UNL A   1      35.744  32.536  30.543  1.00  0.00     0.010 A 
ATOM     12  C   UNL A   1      36.887  32.749  29.757  1.00  0.00    -0.014 A 
BRANCH  12  13
ATOM     13  C   UNL A   1      38.213  32.202  30.132  1.00  0.00     0.031 A 
ATOM     14  C   UNL A   1      39.097  32.886  31.132  1.00  0.00     0.074 A 
ATOM     15  C   UNL A   1      38.575  31.026  29.586  1.00  0.00     0.049 A 
ATOM     16  N   UNL A   1      40.273  32.513  31.574  1.00  0.00    -0.248 NA
ATOM     17  C   UNL A   1      38.616  34.151  31.707  1.00  0.00     0.031 C 
ATOM     18  C   UNL A   1      37.791  30.284  28.592  1.00  0.00     0.029 A 
ATOM     19  N   UNL A   1      39.665  30.229  29.807  1.00  0.00    -0.354 N 
ATOM     20  C   UNL A   1      40.681  33.504  32.458  1.00  0.00     0.074 A 
ATOM     21  C   UNL A   1      39.635  34.505  32.479  1.00  0.00     0.031 C 
ATOM     22  C   UNL A   1      38.387  29.112  28.345  1.00  0.00     0.029 A 
ATOM     23  C   UNL A   1      39.633  29.054  29.096  1.00  0.00     0.049 A 
ATOM     24  H   UNL A   1      40.399  30.472  30.416  1.00  0.00     0.167 HD
ATOM     25  C   UNL A   1      41.824  33.564  33.182  1.00  0.00     0.037 A 
ATOM     26  C   UNL A   1      40.519  28.046  29.037  1.00  0.00     0.037 A 
ATOM     27  C   UNL A   1      42.852  32.552  33.161  1.00  0.00     0.049 A 
ATOM     28  C   UNL A   1      41.767  28.139  29.858  1.00  0.00     0.074 A 
ATOM     29  C   UNL A   1      44.050  32.521  33.853  1.00  0.00     0.029 A 
ATOM     30  N   UNL A   1      42.795  31.385  32.412  1.00  0.00    -0.354 N 
ATOM     31  N   UNL A   1      42.145  29.090  30.677  1.00  0.00    -0.248 NA
ATOM     32  C   UNL A   1      42.717  27.027  29.740  1.00  0.00     0.031 C 
ATOM     33  C   UNL A   1      44.730  31.350  33.501  1.00  0.00     0.029 A 
ATOM     34  C   UNL A   1      43.939  30.632  32.620  1.00  0.00     0.049 A 
ATOM     35  H   UNL A   1      42.051  31.130  31.819  1.00  0.00     0.167 HD
ATOM     36  C   UNL A   1      43.378  28.695  31.171  1.00  0.00     0.074 A 
ATOM     37  C   UNL A   1      43.666  27.400  30.586  1.00  0.00     0.031 C 
ATOM     38  C   UNL A   1      44.206  29.351  32.019  1.00  0.00     0.037 A 
BRANCH  25  39
ATOM     39  C   UNL A   1      42.038  34.770  34.052  1.00  0.00     0.057 A 
ATOM     40  C   UNL A   1      41.679  34.777  35.406  1.00  0.00     0.134 A 
ATOM     41  C   UNL A   1      42.665  35.915  33.545  1.00  0.00     0.134 A 
ATOM     42  F   UNL A   1      41.066  33.716  35.952  1.00  0.00    -0.206 F 
ATOM     43  C   UNL A   1      41.927  35.884  36.221  1.00  0.00     0.040 A 
ATOM     44  C   UNL A   1      42.936  37.020  34.355  1.00  0.00     0.040 A 
ATOM     45  F   UNL A   1      43.041  35.974  32.259  1.00  0.00    -0.206 F 
ATOM     46  C   UNL A   1      42.563  37.008  35.698  1.00  0.00     0.006 A 
ENDBRANCH  25  39
BRANCH  26  47
ATOM     47  C   UNL A   1      40.253  26.887  28.153  1.00  0.00     0.057 A 
ATOM     48  C   UNL A   1      40.819  26.800  26.877  1.00  0.00     0.134 A 
ATOM     49  C   UNL A   1      39.451  25.820  28.579  1.00  0.00     0.134 A 
ATOM     50  F   UNL A   1      41.586  27.796  26.409  1.00  0.00    -0.206 F 
ATOM     51  C   UNL A   1      40.588  25.699  26.051  1.00  0.00     0.040 A 
ATOM     52  C   UNL A   1      39.236  24.701  27.777  1.00  0.00     0.040 A 
ATOM     53  F   UNL A   1      38.892  25.839  29.798  1.00  0.00    -0.206 F 
ATOM     54  C   UNL A   1      39.801  24.641  26.505  1.00  0.00     0.006 A 
ENDBRANCH  26  47
BRANCH  38  55
ATOM     55  C   UNL A   1      45.491  28.661  32.360  1.00  0.00     0.057 A 
ATOM     56  C   UNL A   1      45.584  27.780  33.445  1.00  0.00     0.134 A 
ATOM     57  C   UNL A   1      46.645  28.884  31.601  1.00  0.00     0.134 A 
ATOM     58  F   UNL A   1      44.516  27.540  34.221  1.00  0.00    -0.206 F 
ATOM     59  C   UNL A   1      46.792  27.167  33.782  1.00  0.00     0.040 A 
ATOM     60  C   UNL A   1      47.852  28.260  31.914  1.00  0.00     0.040 A 
ATOM     61  F   UNL A   1      46.619  29.715  30.547  1.00  0.00    -0.206 F 
ATOM     62  C   UNL A   1      47.930  27.405  33.013  1.00  0.00     0.006 A 
ENDBRANCH  38  55
ENDBRANCH  12  13
ENDBRANCH   5   7
ENDBRANCH   2   3
ENDBRANCH   1   2
BRANCH   1  63
ATOM     63  C   UNL A   1      32.280  29.669  27.220  1.00  0.00     0.023 C 
BRANCH  63  64
ATOM     64  C   UNL A   1      33.475  28.999  26.540  1.00  0.00     0.116 C 
BRANCH  64  65
ATOM     65  N   UNL A   1      33.559  29.390  25.155  1.00  0.00    -0.356 N 
ATOM     66  C   UNL A   1      33.345  28.684  24.019  1.00  0.00     0.224 C 
ATOM     67  H   UNL A   1      33.815  30.329  25.010  1.00  0.00     0.163 HD
ATOM     68  O   UNL A   1      33.644  29.270  22.972  1.00  0.00    -0.275 OA
BRANCH  66  69
ATOM     69  C   UNL A   1      32.642  27.321  23.970  1.00  0.00     0.094 C 
ATOM     70  C   UNL A   1      31.333  27.402  24.816  1.00  0.00     0.002 C 
ATOM     71  C   UNL A   1      32.137  26.648  22.680  1.00  0.00     0.094 C 
ATOM     72  C   UNL A   1      30.300  28.326  24.139  1.00  0.00     0.005 C 
ATOM     73  C   UNL A   1      30.716  26.035  24.563  1.00  0.00     0.009 C 
ATOM     74  C   UNL A   1      30.697  26.214  23.045  1.00  0.00     0.002 C 
ATOM     75  C   UNL A   1      29.815  27.485  22.945  1.00  0.00     0.005 C 
BRANCH  71  76
ATOM     76  C   UNL A   1      33.016  25.625  21.930  1.00  0.00     0.224 C 
ATOM     77  O   UNL A   1      33.208  25.806  20.717  1.00  0.00    -0.275 OA
ATOM     78  N   UNL A   1      33.647  24.545  22.438  1.00  0.00    -0.349 N 
ATOM     79  H   UNL A   1      34.387  24.210  21.880  1.00  0.00     0.164 HD
BRANCH  78  80
ATOM     80  C   UNL A   1      33.436  23.792  23.651  1.00  0.00     0.112 C 
ATOM     81  C   UNL A   1      32.189  22.906  23.566  1.00  0.00     0.030 C 
ATOM     82  C   UNL A   1      34.602  22.949  24.120  1.00  0.00    -0.022 A 
ATOM     83  C   UNL A   1      31.852  22.413  24.975  1.00  0.00     0.007 C 
ATOM     84  C   UNL A   1      34.403  22.122  25.243  1.00  0.00    -0.043 A 
ATOM     85  C   UNL A   1      35.887  23.035  23.569  1.00  0.00     0.006 A 
ATOM     86  C   UNL A   1      33.016  21.672  25.644  1.00  0.00     0.036 C 
ATOM     87  C   UNL A   1      35.514  21.602  25.922  1.00  0.00     0.004 A 
ATOM     88  C   UNL A   1      36.987  22.512  24.249  1.00  0.00     0.000 A 
ATOM     89  C   UNL A   1      36.804  21.838  25.451  1.00  0.00     0.000 A 
ENDBRANCH  78  80
ENDBRANCH  71  76
ENDBRANCH  66  69
ENDBRANCH  64  65
ENDBRANCH  63  64
ENDBRANCH   1  63
TORSDOF 13
ENDMDL
