MODEL 1
REMARK VINA RESULT:     -11.4      0.000      0.000
REMARK SMILES [NH3+][C@]1(C(=O)NCCCCNC(=O)c2ccc(-c3c4nc(c(-c5c(F)cccc5F)c5ccc([nH]5)c(-c5c(F)cccc5F)c5nc(c(-c6c(F)cccc6F)c6ccc3[nH]6)C=C5)C=C4)cc2)CC[C@@H](Sc2ccc(Cl)c(Cl)c2)C1
REMARK SMILES IDX 7 1 6 2 5 3 3 4 4 5 2 7 67 8 79 9 68 10 69 11 1 12 70 16
REMARK SMILES IDX 71 17 72 18 78 19 73 20 76 21 74 22 77 23 75 24 8 25 9 26
REMARK SMILES IDX 10 27 11 28 12 30 13 31 14 32 66 33 15 34 65 35 16 36 17 37
REMARK SMILES IDX 18 38 59 39 19 40 64 41 58 42 60 43 20 44 63 45 57 46 56 47
REMARK SMILES IDX 21 49 47 50 30 51 46 52 31 53 34 54 45 55 61 56 32 57 33 58
REMARK SMILES IDX 44 60 62 61 35 62 22 63 23 64 28 65 24 66 25 67 27 68 29 69
REMARK SMILES IDX 26 70 48 71 49 72 54 73 50 74 51 75 53 76 55 77 52 78 36 79
REMARK SMILES IDX 37 80 42 81 38 82 39 83 41 84 43 85 40 86
REMARK H PARENT 5 6 1 13 1 14 1 15 10 29 60 48 34 59
REMARK Flexibility Score: inf
ROOT
ATOM      1  C   UNL A   1      36.577  20.275  25.001  1.00  0.00     0.023 C 
ENDROOT
BRANCH   1   2
ATOM      2  C   UNL A   1      36.381  21.761  25.305  1.00  0.00     0.116 C 
BRANCH   2   3
ATOM      3  N   UNL A   1      35.463  22.012  26.400  1.00  0.00    -0.351 N 
ATOM      4  C   UNL A   1      34.126  21.921  26.581  1.00  0.00     0.281 C 
ATOM      5  O   UNL A   1      33.754  22.172  27.741  1.00  0.00    -0.268 OA
ATOM      6  H   UNL A   1      35.927  22.325  27.210  1.00  0.00     0.163 HD
BRANCH   4   7
ATOM      7  C   UNL A   1      33.023  21.535  25.527  1.00  0.00     0.175 C 
ATOM      8  C   UNL A   1      31.819  22.506  25.677  1.00  0.00     0.080 C 
ATOM      9  C   UNL A   1      33.292  21.467  24.021  1.00  0.00     0.094 C 
ATOM     10  C   UNL A   1      31.404  22.946  24.275  1.00  0.00     0.022 C 
ATOM     11  C   UNL A   1      32.596  22.673  23.376  1.00  0.00     0.058 C 
BRANCH   7  12
ATOM     12  N   UNL A   1      32.554  20.179  25.939  1.00  0.00    -0.345 N 
ATOM     13  H   UNL A   1      31.561  20.084  25.730  1.00  0.00     0.345 HD
ATOM     14  H   UNL A   1      32.703  20.057  26.941  1.00  0.00     0.345 HD
ATOM     15  H   UNL A   1      33.078  19.467  25.429  1.00  0.00     0.345 HD
ENDBRANCH   7  12
BRANCH  11  16
ATOM     16  S   UNL A   1      33.685  24.062  22.848  1.00  0.00    -0.122 SA
BRANCH  16  17
ATOM     17  C   UNL A   1      33.388  25.475  23.898  1.00  0.00     0.009 A 
ATOM     18  C   UNL A   1      33.991  25.506  25.160  1.00  0.00     0.017 A 
ATOM     19  C   UNL A   1      32.397  26.415  23.633  1.00  0.00     0.037 A 
ATOM     20  C   UNL A   1      33.594  26.444  26.125  1.00  0.00     0.023 A 
ATOM     21  C   UNL A   1      31.974  27.342  24.593  1.00  0.00     0.060 A 
ATOM     22  C   UNL A   1      32.573  27.354  25.849  1.00  0.00     0.059 A 
ATOM     23  Cl  UNL A   1      30.643  28.364  24.177  1.00  0.00    -0.083 Cl
ATOM     24  Cl  UNL A   1      32.061  28.419  27.106  1.00  0.00    -0.083 Cl
ENDBRANCH  16  17
ENDBRANCH  11  16
ENDBRANCH   4   7
ENDBRANCH   2   3
ENDBRANCH   1   2
BRANCH   1  25
ATOM     25  C   UNL A   1      37.999  19.849  24.674  1.00  0.00     0.023 C 
BRANCH  25  26
ATOM     26  C   UNL A   1      39.005  20.228  25.743  1.00  0.00     0.116 C 
BRANCH  26  27
ATOM     27  N   UNL A   1      40.098  19.264  25.847  1.00  0.00    -0.352 N 
ATOM     28  C   UNL A   1      41.427  19.470  26.126  1.00  0.00     0.251 C 
ATOM     29  H   UNL A   1      39.844  18.325  25.694  1.00  0.00     0.163 HD
ATOM     30  O   UNL A   1      42.242  18.577  25.974  1.00  0.00    -0.269 OA
BRANCH  28  31
ATOM     31  C   UNL A   1      41.856  20.801  26.600  1.00  0.00     0.039 A 
ATOM     32  C   UNL A   1      42.323  21.743  25.681  1.00  0.00     0.014 A 
ATOM     33  C   UNL A   1      41.756  21.122  27.955  1.00  0.00     0.014 A 
ATOM     34  C   UNL A   1      42.618  23.036  26.118  1.00  0.00     0.010 A 
ATOM     35  C   UNL A   1      41.931  22.433  28.363  1.00  0.00     0.010 A 
ATOM     36  C   UNL A   1      42.384  23.399  27.453  1.00  0.00    -0.014 A 
BRANCH  36  37
ATOM     37  C   UNL A   1      42.642  24.773  27.950  1.00  0.00     0.031 A 
ATOM     38  C   UNL A   1      44.037  25.159  28.359  1.00  0.00     0.074 A 
ATOM     39  C   UNL A   1      41.617  25.629  28.120  1.00  0.00     0.049 A 
ATOM     40  N   UNL A   1      44.459  26.256  28.933  1.00  0.00    -0.248 NA
ATOM     41  C   UNL A   1      45.095  24.157  28.138  1.00  0.00     0.031 C 
ATOM     42  C   UNL A   1      40.210  25.343  27.829  1.00  0.00     0.029 A 
ATOM     43  N   UNL A   1      41.600  26.915  28.597  1.00  0.00    -0.354 N 
ATOM     44  C   UNL A   1      45.812  26.057  29.176  1.00  0.00     0.074 A 
ATOM     45  C   UNL A   1      46.129  24.714  28.747  1.00  0.00     0.031 C 
ATOM     46  C   UNL A   1      39.473  26.431  28.103  1.00  0.00     0.029 A 
ATOM     47  C   UNL A   1      40.347  27.477  28.626  1.00  0.00     0.049 A 
ATOM     48  H   UNL A   1      42.410  27.391  28.891  1.00  0.00     0.167 HD
ATOM     49  C   UNL A   1      46.717  26.926  29.681  1.00  0.00     0.037 A 
ATOM     50  C   UNL A   1      39.951  28.698  29.031  1.00  0.00     0.037 A 
ATOM     51  C   UNL A   1      46.407  28.282  30.042  1.00  0.00     0.049 A 
ATOM     52  C   UNL A   1      40.985  29.664  29.541  1.00  0.00     0.074 A 
ATOM     53  C   UNL A   1      47.263  29.278  30.474  1.00  0.00     0.029 A 
ATOM     54  N   UNL A   1      45.133  28.833  30.002  1.00  0.00    -0.354 N 
ATOM     55  N   UNL A   1      42.276  29.490  29.690  1.00  0.00    -0.248 NA
ATOM     56  C   UNL A   1      40.508  30.998  29.931  1.00  0.00     0.031 C 
ATOM     57  C   UNL A   1      46.502  30.423  30.729  1.00  0.00     0.029 A 
ATOM     58  C   UNL A   1      45.180  30.152  30.415  1.00  0.00     0.049 A 
ATOM     59  H   UNL A   1      44.320  28.356  29.721  1.00  0.00     0.167 HD
ATOM     60  C   UNL A   1      42.770  30.698  30.163  1.00  0.00     0.074 A 
ATOM     61  C   UNL A   1      41.642  31.601  30.262  1.00  0.00     0.031 C 
ATOM     62  C   UNL A   1      44.043  31.033  30.490  1.00  0.00     0.037 A 
BRANCH  49  63
ATOM     63  C   UNL A   1      48.127  26.439  29.850  1.00  0.00     0.057 A 
ATOM     64  C   UNL A   1      48.572  25.856  31.044  1.00  0.00     0.134 A 
ATOM     65  C   UNL A   1      49.048  26.539  28.801  1.00  0.00     0.134 A 
ATOM     66  F   UNL A   1      47.745  25.745  32.096  1.00  0.00    -0.206 F 
ATOM     67  C   UNL A   1      49.888  25.418  31.199  1.00  0.00     0.040 A 
ATOM     68  C   UNL A   1      50.359  26.078  28.932  1.00  0.00     0.040 A 
ATOM     69  F   UNL A   1      48.690  27.084  27.628  1.00  0.00    -0.206 F 
ATOM     70  C   UNL A   1      50.784  25.523  30.138  1.00  0.00     0.006 A 
ENDBRANCH  49  63
BRANCH  50  71
ATOM     71  C   UNL A   1      38.522  29.090  28.937  1.00  0.00     0.057 A 
ATOM     72  C   UNL A   1      37.987  29.578  27.739  1.00  0.00     0.134 A 
ATOM     73  C   UNL A   1      37.661  29.000  30.036  1.00  0.00     0.134 A 
ATOM     74  F   UNL A   1      38.766  29.704  26.655  1.00  0.00    -0.206 F 
ATOM     75  C   UNL A   1      36.655  29.983  27.642  1.00  0.00     0.040 A 
ATOM     76  C   UNL A   1      36.320  29.378  29.948  1.00  0.00     0.040 A 
ATOM     77  F   UNL A   1      38.109  28.531  31.210  1.00  0.00    -0.206 F 
ATOM     78  C   UNL A   1      35.816  29.879  28.749  1.00  0.00     0.006 A 
ENDBRANCH  50  71
BRANCH  62  79
ATOM     79  C   UNL A   1      44.284  32.440  30.945  1.00  0.00     0.057 A 
ATOM     80  C   UNL A   1      44.538  33.476  30.037  1.00  0.00     0.134 A 
ATOM     81  C   UNL A   1      44.211  32.770  32.304  1.00  0.00     0.134 A 
ATOM     82  F   UNL A   1      44.631  33.220  28.724  1.00  0.00    -0.206 F 
ATOM     83  C   UNL A   1      44.734  34.788  30.469  1.00  0.00     0.040 A 
ATOM     84  C   UNL A   1      44.379  34.082  32.745  1.00  0.00     0.040 A 
ATOM     85  F   UNL A   1      43.960  31.825  33.222  1.00  0.00    -0.206 F 
ATOM     86  C   UNL A   1      44.647  35.096  31.825  1.00  0.00     0.006 A 
ENDBRANCH  62  79
ENDBRANCH  36  37
ENDBRANCH  28  31
ENDBRANCH  26  27
ENDBRANCH  25  26
ENDBRANCH   1  25
TORSDOF 14
ENDMDL
MODEL 2
REMARK VINA RESULT:     -11.4      4.921      9.062
REMARK SMILES [NH3+][C@]1(C(=O)NCCCCNC(=O)c2ccc(-c3c4nc(c(-c5c(F)cccc5F)c5ccc([nH]5)c(-c5c(F)cccc5F)c5nc(c(-c6c(F)cccc6F)c6ccc3[nH]6)C=C5)C=C4)cc2)CC[C@@H](Sc2ccc(Cl)c(Cl)c2)C1
REMARK SMILES IDX 7 1 6 2 5 3 3 4 4 5 2 7 67 8 79 9 68 10 69 11 1 12 70 16
REMARK SMILES IDX 71 17 72 18 78 19 73 20 76 21 74 22 77 23 75 24 8 25 9 26
REMARK SMILES IDX 10 27 11 28 12 30 13 31 14 32 66 33 15 34 65 35 16 36 17 37
REMARK SMILES IDX 18 38 59 39 19 40 64 41 58 42 60 43 20 44 63 45 57 46 56 47
REMARK SMILES IDX 21 49 47 50 30 51 46 52 31 53 34 54 45 55 61 56 32 57 33 58
REMARK SMILES IDX 44 60 62 61 35 62 22 63 23 64 28 65 24 66 25 67 27 68 29 69
REMARK SMILES IDX 26 70 48 71 49 72 54 73 50 74 51 75 53 76 55 77 52 78 36 79
REMARK SMILES IDX 37 80 42 81 38 82 39 83 41 84 43 85 40 86
REMARK H PARENT 5 6 1 13 1 14 1 15 10 29 60 48 34 59
REMARK Flexibility Score: inf
ROOT
ATOM      1  C   UNL A   1      31.200  30.824  25.630  1.00  0.00     0.023 C 
ENDROOT
BRANCH   1   2
ATOM      2  C   UNL A   1      32.350  29.879  25.980  1.00  0.00     0.116 C 
BRANCH   2   3
ATOM      3  N   UNL A   1      33.194  29.550  24.846  1.00  0.00    -0.351 N 
ATOM      4  C   UNL A   1      33.010  28.960  23.644  1.00  0.00     0.281 C 
ATOM      5  O   UNL A   1      34.026  28.946  22.926  1.00  0.00    -0.268 OA
ATOM      6  H   UNL A   1      34.129  29.824  24.986  1.00  0.00     0.163 HD
BRANCH   4   7
ATOM      7  C   UNL A   1      31.696  28.317  23.062  1.00  0.00     0.175 C 
ATOM      8  C   UNL A   1      32.055  26.977  22.363  1.00  0.00     0.080 C 
ATOM      9  C   UNL A   1      30.470  27.999  23.921  1.00  0.00     0.094 C 
ATOM     10  C   UNL A   1      31.027  25.938  22.800  1.00  0.00     0.022 C 
ATOM     11  C   UNL A   1      30.400  26.473  24.074  1.00  0.00     0.058 C 
BRANCH   7  12
ATOM     12  N   UNL A   1      31.241  29.265  22.002  1.00  0.00    -0.345 N 
ATOM     13  H   UNL A   1      30.936  30.137  22.433  1.00  0.00     0.345 HD
ATOM     14  H   UNL A   1      30.463  28.851  21.487  1.00  0.00     0.345 HD
ATOM     15  H   UNL A   1      32.011  29.454  21.360  1.00  0.00     0.345 HD
ENDBRANCH   7  12
BRANCH  11  16
ATOM     16  S   UNL A   1      30.911  25.789  25.707  1.00  0.00    -0.122 SA
BRANCH  16  17
ATOM     17  C   UNL A   1      32.399  24.824  25.501  1.00  0.00     0.009 A 
ATOM     18  C   UNL A   1      33.621  25.498  25.397  1.00  0.00     0.017 A 
ATOM     19  C   UNL A   1      32.380  23.470  25.186  1.00  0.00     0.037 A 
ATOM     20  C   UNL A   1      34.779  24.827  24.974  1.00  0.00     0.023 A 
ATOM     21  C   UNL A   1      33.521  22.792  24.741  1.00  0.00     0.060 A 
ATOM     22  C   UNL A   1      34.728  23.476  24.630  1.00  0.00     0.059 A 
ATOM     23  Cl  UNL A   1      33.328  21.144  24.257  1.00  0.00    -0.083 Cl
ATOM     24  Cl  UNL A   1      36.160  22.729  24.024  1.00  0.00    -0.083 Cl
ENDBRANCH  16  17
ENDBRANCH  11  16
ENDBRANCH   4   7
ENDBRANCH   2   3
ENDBRANCH   1   2
BRANCH   1  25
ATOM     25  C   UNL A   1      31.094  32.079  26.482  1.00  0.00     0.023 C 
BRANCH  25  26
ATOM     26  C   UNL A   1      32.439  32.658  26.877  1.00  0.00     0.116 C 
BRANCH  26  27
ATOM     27  N   UNL A   1      32.324  34.001  27.440  1.00  0.00    -0.352 N 
ATOM     28  C   UNL A   1      33.023  34.584  28.469  1.00  0.00     0.251 C 
ATOM     29  H   UNL A   1      31.643  34.574  27.019  1.00  0.00     0.163 HD
ATOM     30  O   UNL A   1      32.661  35.646  28.945  1.00  0.00    -0.269 OA
BRANCH  28  31
ATOM     31  C   UNL A   1      34.214  33.893  29.000  1.00  0.00     0.039 A 
ATOM     32  C   UNL A   1      35.485  34.420  28.754  1.00  0.00     0.014 A 
ATOM     33  C   UNL A   1      34.062  32.743  29.776  1.00  0.00     0.014 A 
ATOM     34  C   UNL A   1      36.597  33.828  29.355  1.00  0.00     0.010 A 
ATOM     35  C   UNL A   1      35.149  32.233  30.466  1.00  0.00     0.010 A 
ATOM     36  C   UNL A   1      36.431  32.756  30.247  1.00  0.00    -0.014 A 
BRANCH  36  37
ATOM     37  C   UNL A   1      37.581  32.127  30.940  1.00  0.00     0.031 A 
ATOM     38  C   UNL A   1      38.363  31.049  30.240  1.00  0.00     0.074 A 
ATOM     39  C   UNL A   1      37.856  32.453  32.217  1.00  0.00     0.049 A 
ATOM     40  N   UNL A   1      39.316  30.283  30.704  1.00  0.00    -0.248 NA
ATOM     41  C   UNL A   1      37.988  30.757  28.845  1.00  0.00     0.031 C 
ATOM     42  C   UNL A   1      37.122  33.430  33.024  1.00  0.00     0.029 A 
ATOM     43  N   UNL A   1      38.824  31.983  33.067  1.00  0.00    -0.354 N 
ATOM     44  C   UNL A   1      39.623  29.400  29.675  1.00  0.00     0.074 A 
ATOM     45  C   UNL A   1      38.713  29.679  28.588  1.00  0.00     0.031 C 
ATOM     46  C   UNL A   1      37.686  33.510  34.240  1.00  0.00     0.029 A 
ATOM     47  C   UNL A   1      38.794  32.563  34.313  1.00  0.00     0.049 A 
ATOM     48  H   UNL A   1      39.480  31.295  32.810  1.00  0.00     0.167 HD
ATOM     49  C   UNL A   1      40.596  28.462  29.629  1.00  0.00     0.037 A 
ATOM     50  C   UNL A   1      39.573  32.350  35.389  1.00  0.00     0.037 A 
ATOM     51  C   UNL A   1      41.539  28.237  30.690  1.00  0.00     0.049 A 
ATOM     52  C   UNL A   1      40.681  31.337  35.295  1.00  0.00     0.074 A 
ATOM     53  C   UNL A   1      42.624  27.379  30.713  1.00  0.00     0.029 A 
ATOM     54  N   UNL A   1      41.511  28.886  31.916  1.00  0.00    -0.354 N 
ATOM     55  N   UNL A   1      41.011  30.565  34.288  1.00  0.00    -0.248 NA
ATOM     56  C   UNL A   1      41.530  31.172  36.483  1.00  0.00     0.031 C 
ATOM     57  C   UNL A   1      43.233  27.484  31.967  1.00  0.00     0.029 A 
ATOM     58  C   UNL A   1      42.552  28.437  32.708  1.00  0.00     0.049 A 
ATOM     59  H   UNL A   1      40.849  29.565  32.181  1.00  0.00     0.167 HD
ATOM     60  C   UNL A   1      42.121  29.844  34.709  1.00  0.00     0.074 A 
ATOM     61  C   UNL A   1      42.416  30.282  36.058  1.00  0.00     0.031 C 
ATOM     62  C   UNL A   1      42.832  28.901  34.043  1.00  0.00     0.037 A 
BRANCH  49  63
ATOM     63  C   UNL A   1      40.698  27.628  28.384  1.00  0.00     0.057 A 
ATOM     64  C   UNL A   1      41.468  28.029  27.285  1.00  0.00     0.134 A 
ATOM     65  C   UNL A   1      40.032  26.401  28.291  1.00  0.00     0.134 A 
ATOM     66  F   UNL A   1      42.119  29.202  27.302  1.00  0.00    -0.206 F 
ATOM     67  C   UNL A   1      41.548  27.255  26.126  1.00  0.00     0.040 A 
ATOM     68  C   UNL A   1      40.127  25.603  27.149  1.00  0.00     0.040 A 
ATOM     69  F   UNL A   1      39.278  25.954  29.308  1.00  0.00    -0.206 F 
ATOM     70  C   UNL A   1      40.880  26.034  26.059  1.00  0.00     0.006 A 
ENDBRANCH  49  63
BRANCH  50  71
ATOM     71  C   UNL A   1      39.360  33.133  36.633  1.00  0.00     0.057 A 
ATOM     72  C   UNL A   1      40.049  34.331  36.856  1.00  0.00     0.134 A 
ATOM     73  C   UNL A   1      38.478  32.702  37.630  1.00  0.00     0.134 A 
ATOM     74  F   UNL A   1      40.920  34.787  35.944  1.00  0.00    -0.206 F 
ATOM     75  C   UNL A   1      39.886  35.062  38.034  1.00  0.00     0.040 A 
ATOM     76  C   UNL A   1      38.286  33.436  38.803  1.00  0.00     0.040 A 
ATOM     77  F   UNL A   1      37.780  31.568  37.474  1.00  0.00    -0.206 F 
ATOM     78  C   UNL A   1      38.999  34.615  39.010  1.00  0.00     0.006 A 
ENDBRANCH  50  71
BRANCH  62  79
ATOM     79  C   UNL A   1      44.016  28.314  34.748  1.00  0.00     0.057 A 
ATOM     80  C   UNL A   1      43.912  27.150  35.520  1.00  0.00     0.134 A 
ATOM     81  C   UNL A   1      45.284  28.892  34.611  1.00  0.00     0.134 A 
ATOM     82  F   UNL A   1      42.723  26.556  35.698  1.00  0.00    -0.206 F 
ATOM     83  C   UNL A   1      45.027  26.594  36.150  1.00  0.00     0.040 A 
ATOM     84  C   UNL A   1      46.409  28.331  35.214  1.00  0.00     0.040 A 
ATOM     85  F   UNL A   1      45.451  30.002  33.876  1.00  0.00    -0.206 F 
ATOM     86  C   UNL A   1      46.280  27.181  35.992  1.00  0.00     0.006 A 
ENDBRANCH  62  79
ENDBRANCH  36  37
ENDBRANCH  28  31
ENDBRANCH  26  27
ENDBRANCH  25  26
ENDBRANCH   1  25
TORSDOF 14
ENDMDL
MODEL 3
REMARK VINA RESULT:     -11.4      2.379      6.873
REMARK SMILES [NH3+][C@]1(C(=O)NCCCCNC(=O)c2ccc(-c3c4nc(c(-c5c(F)cccc5F)c5ccc([nH]5)c(-c5c(F)cccc5F)c5nc(c(-c6c(F)cccc6F)c6ccc3[nH]6)C=C5)C=C4)cc2)CC[C@@H](Sc2ccc(Cl)c(Cl)c2)C1
REMARK SMILES IDX 7 1 6 2 5 3 3 4 4 5 2 7 67 8 79 9 68 10 69 11 1 12 70 16
REMARK SMILES IDX 71 17 72 18 78 19 73 20 76 21 74 22 77 23 75 24 8 25 9 26
REMARK SMILES IDX 10 27 11 28 12 30 13 31 14 32 66 33 15 34 65 35 16 36 17 37
REMARK SMILES IDX 18 38 59 39 19 40 64 41 58 42 60 43 20 44 63 45 57 46 56 47
REMARK SMILES IDX 21 49 47 50 30 51 46 52 31 53 34 54 45 55 61 56 32 57 33 58
REMARK SMILES IDX 44 60 62 61 35 62 22 63 23 64 28 65 24 66 25 67 27 68 29 69
REMARK SMILES IDX 26 70 48 71 49 72 54 73 50 74 51 75 53 76 55 77 52 78 36 79
REMARK SMILES IDX 37 80 42 81 38 82 39 83 41 84 43 85 40 86
REMARK H PARENT 5 6 1 13 1 14 1 15 10 29 60 48 34 59
REMARK Flexibility Score: inf
ROOT
ATOM      1  C   UNL A   1      36.559  19.427  24.995  1.00  0.00     0.023 C 
ENDROOT
BRANCH   1   2
ATOM      2  C   UNL A   1      35.878  20.748  25.354  1.00  0.00     0.116 C 
BRANCH   2   3
ATOM      3  N   UNL A   1      35.699  21.634  24.219  1.00  0.00    -0.351 N 
ATOM      4  C   UNL A   1      35.398  22.941  24.051  1.00  0.00     0.281 C 
ATOM      5  O   UNL A   1      35.420  23.317  22.865  1.00  0.00    -0.268 OA
ATOM      6  H   UNL A   1      35.830  21.169  23.360  1.00  0.00     0.163 HD
BRANCH   4   7
ATOM      7  C   UNL A   1      35.046  24.011  25.150  1.00  0.00     0.175 C 
ATOM      8  C   UNL A   1      34.437  25.262  24.460  1.00  0.00     0.080 C 
ATOM      9  C   UNL A   1      34.118  23.720  26.333  1.00  0.00     0.094 C 
ATOM     10  C   UNL A   1      33.209  25.681  25.264  1.00  0.00     0.022 C 
ATOM     11  C   UNL A   1      32.801  24.467  26.077  1.00  0.00     0.058 C 
BRANCH   7  12
ATOM     12  N   UNL A   1      36.361  24.417  25.728  1.00  0.00    -0.345 N 
ATOM     13  H   UNL A   1      36.827  23.599  26.120  1.00  0.00     0.345 HD
ATOM     14  H   UNL A   1      36.210  25.106  26.466  1.00  0.00     0.345 HD
ATOM     15  H   UNL A   1      36.944  24.823  24.997  1.00  0.00     0.345 HD
ENDBRANCH   7  12
BRANCH  11  16
ATOM     16  S   UNL A   1      31.368  23.441  25.541  1.00  0.00    -0.122 SA
BRANCH  16  17
ATOM     17  C   UNL A   1      31.967  21.994  24.684  1.00  0.00     0.009 A 
ATOM     18  C   UNL A   1      31.921  21.982  23.286  1.00  0.00     0.017 A 
ATOM     19  C   UNL A   1      32.234  20.793  25.332  1.00  0.00     0.037 A 
ATOM     20  C   UNL A   1      32.124  20.792  22.569  1.00  0.00     0.023 A 
ATOM     21  C   UNL A   1      32.415  19.593  24.633  1.00  0.00     0.060 A 
ATOM     22  C   UNL A   1      32.356  19.592  23.242  1.00  0.00     0.059 A 
ATOM     23  Cl  UNL A   1      32.607  18.151  25.566  1.00  0.00    -0.083 Cl
ATOM     24  Cl  UNL A   1      32.501  18.145  22.314  1.00  0.00    -0.083 Cl
ENDBRANCH  16  17
ENDBRANCH  11  16
ENDBRANCH   4   7
ENDBRANCH   2   3
ENDBRANCH   1   2
BRANCH   1  25
ATOM     25  C   UNL A   1      38.030  19.521  24.624  1.00  0.00     0.023 C 
BRANCH  25  26
ATOM     26  C   UNL A   1      38.932  19.844  25.800  1.00  0.00     0.116 C 
BRANCH  26  27
ATOM     27  N   UNL A   1      40.097  18.967  25.867  1.00  0.00    -0.352 N 
ATOM     28  C   UNL A   1      41.418  19.276  26.087  1.00  0.00     0.251 C 
ATOM     29  H   UNL A   1      39.909  18.009  25.733  1.00  0.00     0.163 HD
ATOM     30  O   UNL A   1      42.291  18.444  25.908  1.00  0.00    -0.269 OA
BRANCH  28  31
ATOM     31  C   UNL A   1      41.764  20.641  26.529  1.00  0.00     0.039 A 
ATOM     32  C   UNL A   1      42.031  20.883  27.878  1.00  0.00     0.014 A 
ATOM     33  C   UNL A   1      41.860  21.672  25.592  1.00  0.00     0.014 A 
ATOM     34  C   UNL A   1      42.468  22.148  28.272  1.00  0.00     0.010 A 
ATOM     35  C   UNL A   1      42.410  22.886  25.964  1.00  0.00     0.010 A 
ATOM     36  C   UNL A   1      42.700  23.145  27.311  1.00  0.00    -0.014 A 
BRANCH  36  37
ATOM     37  C   UNL A   1      43.207  24.489  27.681  1.00  0.00     0.031 A 
ATOM     38  C   UNL A   1      42.234  25.547  28.125  1.00  0.00     0.074 A 
ATOM     39  C   UNL A   1      44.512  24.781  27.526  1.00  0.00     0.049 A 
ATOM     40  N   UNL A   1      42.443  26.814  28.371  1.00  0.00    -0.248 NA
ATOM     41  C   UNL A   1      40.826  25.137  28.263  1.00  0.00     0.031 C 
ATOM     42  C   UNL A   1      45.539  23.859  27.033  1.00  0.00     0.029 A 
ATOM     43  N   UNL A   1      45.198  25.946  27.755  1.00  0.00    -0.354 N 
ATOM     44  C   UNL A   1      41.194  27.354  28.650  1.00  0.00     0.074 A 
ATOM     45  C   UNL A   1      40.225  26.296  28.481  1.00  0.00     0.031 C 
ATOM     46  C   UNL A   1      46.727  24.485  27.027  1.00  0.00     0.029 A 
ATOM     47  C   UNL A   1      46.541  25.861  27.477  1.00  0.00     0.049 A 
ATOM     48  H   UNL A   1      44.768  26.767  28.088  1.00  0.00     0.167 HD
ATOM     49  C   UNL A   1      40.885  28.611  29.044  1.00  0.00     0.037 A 
ATOM     50  C   UNL A   1      47.509  26.791  27.574  1.00  0.00     0.037 A 
ATOM     51  C   UNL A   1      41.864  29.639  29.274  1.00  0.00     0.049 A 
ATOM     52  C   UNL A   1      47.147  28.166  28.063  1.00  0.00     0.074 A 
ATOM     53  C   UNL A   1      41.673  30.917  29.764  1.00  0.00     0.029 A 
ATOM     54  N   UNL A   1      43.223  29.495  29.036  1.00  0.00    -0.354 N 
ATOM     55  N   UNL A   1      45.973  28.641  28.402  1.00  0.00    -0.248 NA
ATOM     56  C   UNL A   1      48.247  29.133  28.192  1.00  0.00     0.031 C 
ATOM     57  C   UNL A   1      42.914  31.561  29.791  1.00  0.00     0.029 A 
ATOM     58  C   UNL A   1      43.882  30.669  29.357  1.00  0.00     0.049 A 
ATOM     59  H   UNL A   1      43.654  28.680  28.692  1.00  0.00     0.167 HD
ATOM     60  C   UNL A   1      46.195  29.950  28.810  1.00  0.00     0.074 A 
ATOM     61  C   UNL A   1      47.619  30.189  28.690  1.00  0.00     0.031 C 
ATOM     62  C   UNL A   1      45.303  30.874  29.242  1.00  0.00     0.037 A 
BRANCH  49  63
ATOM     63  C   UNL A   1      39.436  28.932  29.269  1.00  0.00     0.057 A 
ATOM     64  C   UNL A   1      38.828  28.778  30.522  1.00  0.00     0.134 A 
ATOM     65  C   UNL A   1      38.642  29.419  28.224  1.00  0.00     0.134 A 
ATOM     66  F   UNL A   1      39.527  28.300  31.563  1.00  0.00    -0.206 F 
ATOM     67  C   UNL A   1      37.477  29.066  30.720  1.00  0.00     0.040 A 
ATOM     68  C   UNL A   1      37.297  29.739  28.415  1.00  0.00     0.040 A 
ATOM     69  F   UNL A   1      39.160  29.594  26.998  1.00  0.00    -0.206 F 
ATOM     70  C   UNL A   1      36.709  29.554  29.665  1.00  0.00     0.006 A 
ENDBRANCH  49  63
BRANCH  50  71
ATOM     71  C   UNL A   1      48.913  26.446  27.238  1.00  0.00     0.057 A 
ATOM     72  C   UNL A   1      49.421  26.667  25.953  1.00  0.00     0.134 A 
ATOM     73  C   UNL A   1      49.777  25.879  28.183  1.00  0.00     0.134 A 
ATOM     74  F   UNL A   1      48.637  27.192  25.000  1.00  0.00    -0.206 F 
ATOM     75  C   UNL A   1      50.729  26.318  25.611  1.00  0.00     0.040 A 
ATOM     76  C   UNL A   1      51.095  25.547  27.862  1.00  0.00     0.040 A 
ATOM     77  F   UNL A   1      49.355  25.650  29.434  1.00  0.00    -0.206 F 
ATOM     78  C   UNL A   1      51.571  25.759  26.570  1.00  0.00     0.006 A 
ENDBRANCH  50  71
BRANCH  62  79
ATOM     79  C   UNL A   1      45.846  32.209  29.653  1.00  0.00     0.057 A 
ATOM     80  C   UNL A   1      45.936  33.278  28.752  1.00  0.00     0.134 A 
ATOM     81  C   UNL A   1      46.237  32.441  30.978  1.00  0.00     0.134 A 
ATOM     82  F   UNL A   1      45.587  33.115  27.468  1.00  0.00    -0.206 F 
ATOM     83  C   UNL A   1      46.417  34.526  29.151  1.00  0.00     0.040 A 
ATOM     84  C   UNL A   1      46.695  33.690  31.394  1.00  0.00     0.040 A 
ATOM     85  F   UNL A   1      46.165  31.460  31.890  1.00  0.00    -0.206 F 
ATOM     86  C   UNL A   1      46.791  34.736  30.477  1.00  0.00     0.006 A 
ENDBRANCH  62  79
ENDBRANCH  36  37
ENDBRANCH  28  31
ENDBRANCH  26  27
ENDBRANCH  25  26
ENDBRANCH   1  25
TORSDOF 14
ENDMDL
