MODEL 1
REMARK VINA RESULT:     -11.7      0.000      0.000
REMARK SMILES C[C@@H](C(=O)NCCCCNC(=O)c1ccc(-c2c3nc(c(-c4c(F)cccc4F)c4ccc([nH]4)c(-c4c(F)cccc4F)c4nc(c(-c5c(F)cccc5F)c5ccc2[nH]5)C=C4)C=C3)cc1)c1ccc(C[C@H]2CCC[C@H]2O)cc1
REMARK SMILES IDX 6 1 5 2 3 3 4 4 2 6 1 7 67 8 68 9 79 10 69 11 78 12 70 13
REMARK SMILES IDX 71 14 72 15 73 16 76 17 74 18 75 19 77 20 7 22 8 23 9 24
REMARK SMILES IDX 10 25 11 26 12 28 13 29 14 30 66 31 15 32 65 33 16 34 17 35
REMARK SMILES IDX 18 36 59 37 19 38 64 39 58 40 60 41 20 42 63 43 57 44 56 45
REMARK SMILES IDX 21 47 47 48 30 49 46 50 31 51 34 52 45 53 61 54 32 55 33 56
REMARK SMILES IDX 44 58 62 59 35 60 22 61 23 62 28 63 24 64 25 65 27 66 29 67
REMARK SMILES IDX 26 68 48 69 49 70 54 71 50 72 51 73 53 74 55 75 52 76 36 77
REMARK SMILES IDX 37 78 42 79 38 80 39 81 41 82 43 83 40 84
REMARK H PARENT 5 5 77 21 10 27 60 46 34 57
REMARK Flexibility Score: inf
ROOT
ATOM      1  C   UNL A   1      36.363  22.875  24.828  1.00  0.00     0.116 C 
ENDROOT
BRANCH   1   2
ATOM      2  N   UNL A   1      35.548  23.230  23.684  1.00  0.00    -0.356 N 
ATOM      3  C   UNL A   1      34.496  24.095  23.580  1.00  0.00     0.227 C 
ATOM      4  O   UNL A   1      33.951  24.151  22.476  1.00  0.00    -0.274 OA
ATOM      5  H   UNL A   1      35.793  22.775  22.846  1.00  0.00     0.163 HD
BRANCH   3   6
ATOM      6  C   UNL A   1      34.083  24.945  24.790  1.00  0.00     0.105 C 
ATOM      7  C   UNL A   1      33.370  24.122  25.868  1.00  0.00     0.023 C 
BRANCH   6   8
ATOM      8  C   UNL A   1      33.182  26.133  24.464  1.00  0.00    -0.036 A 
ATOM      9  C   UNL A   1      33.743  27.287  23.900  1.00  0.00     0.005 A 
ATOM     10  C   UNL A   1      31.837  26.164  24.857  1.00  0.00     0.005 A 
ATOM     11  C   UNL A   1      32.997  28.462  23.804  1.00  0.00     0.004 A 
ATOM     12  C   UNL A   1      31.093  27.340  24.758  1.00  0.00     0.004 A 
ATOM     13  C   UNL A   1      31.688  28.516  24.293  1.00  0.00    -0.048 A 
BRANCH  13  14
ATOM     14  C   UNL A   1      30.955  29.831  24.394  1.00  0.00     0.041 C 
BRANCH  14  15
ATOM     15  C   UNL A   1      29.614  29.937  23.639  1.00  0.00     0.022 C 
ATOM     16  C   UNL A   1      28.910  31.307  23.672  1.00  0.00     0.007 C 
ATOM     17  C   UNL A   1      29.586  29.528  22.158  1.00  0.00     0.117 C 
ATOM     18  C   UNL A   1      28.106  31.406  22.371  1.00  0.00     0.003 C 
ATOM     19  C   UNL A   1      28.228  30.045  21.696  1.00  0.00     0.032 C 
BRANCH  17  20
ATOM     20  O   UNL A   1      30.593  30.123  21.356  1.00  0.00    -0.393 OA
ATOM     21  H   UNL A   1      30.662  31.066  21.573  1.00  0.00     0.210 HD
ENDBRANCH  17  20
ENDBRANCH  14  15
ENDBRANCH  13  14
ENDBRANCH   6   8
ENDBRANCH   3   6
ENDBRANCH   1   2
BRANCH   1  22
ATOM     22  C   UNL A   1      36.217  21.393  25.179  1.00  0.00     0.023 C 
BRANCH  22  23
ATOM     23  C   UNL A   1      37.434  20.527  24.844  1.00  0.00     0.023 C 
BRANCH  23  24
ATOM     24  C   UNL A   1      38.714  20.890  25.586  1.00  0.00     0.116 C 
BRANCH  24  25
ATOM     25  N   UNL A   1      39.669  19.795  25.628  1.00  0.00    -0.352 N 
ATOM     26  C   UNL A   1      40.986  19.804  26.026  1.00  0.00     0.251 C 
ATOM     27  H   UNL A   1      39.325  18.923  25.328  1.00  0.00     0.163 HD
ATOM     28  O   UNL A   1      41.682  18.813  25.870  1.00  0.00    -0.269 OA
BRANCH  26  29
ATOM     29  C   UNL A   1      41.564  21.033  26.610  1.00  0.00     0.039 A 
ATOM     30  C   UNL A   1      42.108  21.989  25.749  1.00  0.00     0.014 A 
ATOM     31  C   UNL A   1      41.551  21.253  27.990  1.00  0.00     0.014 A 
ATOM     32  C   UNL A   1      42.570  23.201  26.266  1.00  0.00     0.010 A 
ATOM     33  C   UNL A   1      41.950  22.488  28.497  1.00  0.00     0.010 A 
ATOM     34  C   UNL A   1      42.454  23.477  27.638  1.00  0.00    -0.014 A 
BRANCH  34  35
ATOM     35  C   UNL A   1      42.819  24.810  28.183  1.00  0.00     0.031 A 
ATOM     36  C   UNL A   1      41.769  25.866  28.384  1.00  0.00     0.074 A 
ATOM     37  C   UNL A   1      44.114  25.088  28.432  1.00  0.00     0.049 A 
ATOM     38  N   UNL A   1      41.910  27.102  28.789  1.00  0.00    -0.248 NA
ATOM     39  C   UNL A   1      40.381  25.492  28.069  1.00  0.00     0.031 C 
ATOM     40  C   UNL A   1      45.233  24.164  28.229  1.00  0.00     0.029 A 
ATOM     41  N   UNL A   1      44.710  26.232  28.899  1.00  0.00    -0.354 N 
ATOM     42  C   UNL A   1      40.636  27.656  28.766  1.00  0.00     0.074 A 
ATOM     43  C   UNL A   1      39.740  26.635  28.266  1.00  0.00     0.031 C 
ATOM     44  C   UNL A   1      46.375  24.773  28.586  1.00  0.00     0.029 A 
ATOM     45  C   UNL A   1      46.077  26.138  29.005  1.00  0.00     0.049 A 
ATOM     46  H   UNL A   1      44.206  27.044  29.136  1.00  0.00     0.167 HD
ATOM     47  C   UNL A   1      40.247  28.895  29.147  1.00  0.00     0.037 A 
ATOM     48  C   UNL A   1      46.990  27.052  29.386  1.00  0.00     0.037 A 
ATOM     49  C   UNL A   1      41.137  29.902  29.667  1.00  0.00     0.049 A 
ATOM     50  C   UNL A   1      46.528  28.424  29.794  1.00  0.00     0.074 A 
ATOM     51  C   UNL A   1      40.824  31.164  30.143  1.00  0.00     0.029 A 
ATOM     52  N   UNL A   1      42.511  29.762  29.773  1.00  0.00    -0.354 N 
ATOM     53  N   UNL A   1      45.310  28.906  29.842  1.00  0.00    -0.248 NA
ATOM     54  C   UNL A   1      47.568  29.377  30.205  1.00  0.00     0.031 C 
ATOM     55  C   UNL A   1      42.015  31.806  30.494  1.00  0.00     0.029 A 
ATOM     56  C   UNL A   1      43.065  30.926  30.284  1.00  0.00     0.049 A 
ATOM     57  H   UNL A   1      43.019  28.957  29.524  1.00  0.00     0.167 HD
ATOM     58  C   UNL A   1      45.435  30.207  30.312  1.00  0.00     0.074 A 
ATOM     59  C   UNL A   1      46.846  30.432  30.552  1.00  0.00     0.031 C 
ATOM     60  C   UNL A   1      44.469  31.133  30.525  1.00  0.00     0.037 A 
BRANCH  47  61
ATOM     61  C   UNL A   1      38.791  29.238  29.027  1.00  0.00     0.057 A 
ATOM     62  C   UNL A   1      38.213  29.579  27.798  1.00  0.00     0.134 A 
ATOM     63  C   UNL A   1      37.945  29.163  30.141  1.00  0.00     0.134 A 
ATOM     64  F   UNL A   1      38.970  29.678  26.695  1.00  0.00    -0.206 F 
ATOM     65  C   UNL A   1      36.848  29.850  27.684  1.00  0.00     0.040 A 
ATOM     66  C   UNL A   1      36.575  29.407  30.034  1.00  0.00     0.040 A 
ATOM     67  F   UNL A   1      38.433  28.836  31.347  1.00  0.00    -0.206 F 
ATOM     68  C   UNL A   1      36.023  29.754  28.802  1.00  0.00     0.006 A 
ENDBRANCH  47  61
BRANCH  48  69
ATOM     69  C   UNL A   1      48.434  26.705  29.406  1.00  0.00     0.057 A 
ATOM     70  C   UNL A   1      49.254  26.960  28.301  1.00  0.00     0.134 A 
ATOM     71  C   UNL A   1      49.020  26.085  30.516  1.00  0.00     0.134 A 
ATOM     72  F   UNL A   1      48.745  27.534  27.201  1.00  0.00    -0.206 F 
ATOM     73  C   UNL A   1      50.599  26.589  28.288  1.00  0.00     0.040 A 
ATOM     74  C   UNL A   1      50.371  25.733  30.527  1.00  0.00     0.040 A 
ATOM     75  F   UNL A   1      48.290  25.820  31.609  1.00  0.00    -0.206 F 
ATOM     76  C   UNL A   1      51.162  25.975  29.406  1.00  0.00     0.006 A 
ENDBRANCH  48  69
BRANCH  60  77
ATOM     77  C   UNL A   1      44.901  32.462  31.071  1.00  0.00     0.057 A 
ATOM     78  C   UNL A   1      45.223  33.537  30.234  1.00  0.00     0.134 A 
ATOM     79  C   UNL A   1      44.963  32.677  32.455  1.00  0.00     0.134 A 
ATOM     80  F   UNL A   1      45.197  33.392  28.901  1.00  0.00    -0.206 F 
ATOM     81  C   UNL A   1      45.616  34.772  30.752  1.00  0.00     0.040 A 
ATOM     82  C   UNL A   1      45.327  33.916  32.984  1.00  0.00     0.040 A 
ATOM     83  F   UNL A   1      44.659  31.692  33.313  1.00  0.00    -0.206 F 
ATOM     84  C   UNL A   1      45.662  34.966  32.132  1.00  0.00     0.006 A 
ENDBRANCH  60  77
ENDBRANCH  34  35
ENDBRANCH  26  29
ENDBRANCH  24  25
ENDBRANCH  23  24
ENDBRANCH  22  23
ENDBRANCH   1  22
TORSDOF 15
ENDMDL
MODEL 2
REMARK VINA RESULT:     -11.7      0.451      6.249
REMARK SMILES C[C@@H](C(=O)NCCCCNC(=O)c1ccc(-c2c3nc(c(-c4c(F)cccc4F)c4ccc([nH]4)c(-c4c(F)cccc4F)c4nc(c(-c5c(F)cccc5F)c5ccc2[nH]5)C=C4)C=C3)cc1)c1ccc(C[C@H]2CCC[C@H]2O)cc1
REMARK SMILES IDX 6 1 5 2 3 3 4 4 2 6 1 7 67 8 68 9 79 10 69 11 78 12 70 13
REMARK SMILES IDX 71 14 72 15 73 16 76 17 74 18 75 19 77 20 7 22 8 23 9 24
REMARK SMILES IDX 10 25 11 26 12 28 13 29 14 30 66 31 15 32 65 33 16 34 17 35
REMARK SMILES IDX 18 36 59 37 19 38 64 39 58 40 60 41 20 42 63 43 57 44 56 45
REMARK SMILES IDX 21 47 47 48 30 49 46 50 31 51 34 52 45 53 61 54 32 55 33 56
REMARK SMILES IDX 44 58 62 59 35 60 22 61 23 62 28 63 24 64 25 65 27 66 29 67
REMARK SMILES IDX 26 68 48 69 49 70 54 71 50 72 51 73 53 74 55 75 52 76 36 77
REMARK SMILES IDX 37 78 42 79 38 80 39 81 41 82 43 83 40 84
REMARK H PARENT 5 5 77 21 10 27 60 46 34 57
REMARK Flexibility Score: inf
ROOT
ATOM      1  C   UNL A   1      36.400  22.733  24.203  1.00  0.00     0.116 C 
ENDROOT
BRANCH   1   2
ATOM      2  N   UNL A   1      35.443  23.005  23.149  1.00  0.00    -0.356 N 
ATOM      3  C   UNL A   1      34.296  23.746  23.163  1.00  0.00     0.227 C 
ATOM      4  O   UNL A   1      33.644  23.751  22.117  1.00  0.00    -0.274 OA
ATOM      5  H   UNL A   1      35.655  22.588  22.282  1.00  0.00     0.163 HD
BRANCH   3   6
ATOM      6  C   UNL A   1      33.910  24.532  24.424  1.00  0.00     0.105 C 
ATOM      7  C   UNL A   1      33.145  23.674  25.438  1.00  0.00     0.023 C 
BRANCH   6   8
ATOM      8  C   UNL A   1      33.071  25.782  24.171  1.00  0.00    -0.036 A 
ATOM      9  C   UNL A   1      33.698  26.952  23.720  1.00  0.00     0.005 A 
ATOM     10  C   UNL A   1      31.716  25.842  24.526  1.00  0.00     0.005 A 
ATOM     11  C   UNL A   1      33.006  28.163  23.699  1.00  0.00     0.004 A 
ATOM     12  C   UNL A   1      31.026  27.053  24.502  1.00  0.00     0.004 A 
ATOM     13  C   UNL A   1      31.685  28.236  24.153  1.00  0.00    -0.048 A 
BRANCH  13  14
ATOM     14  C   UNL A   1      31.006  29.570  24.341  1.00  0.00     0.041 C 
BRANCH  14  15
ATOM     15  C   UNL A   1      29.665  29.774  23.605  1.00  0.00     0.022 C 
ATOM     16  C   UNL A   1      29.005  31.159  23.746  1.00  0.00     0.007 C 
ATOM     17  C   UNL A   1      29.616  29.478  22.098  1.00  0.00     0.117 C 
ATOM     18  C   UNL A   1      28.199  31.381  22.462  1.00  0.00     0.003 C 
ATOM     19  C   UNL A   1      28.274  30.071  21.685  1.00  0.00     0.032 C 
BRANCH  17  20
ATOM     20  O   UNL A   1      30.638  30.100  21.336  1.00  0.00    -0.393 OA
ATOM     21  H   UNL A   1      30.697  29.675  20.467  1.00  0.00     0.210 HD
ENDBRANCH  17  20
ENDBRANCH  14  15
ENDBRANCH  13  14
ENDBRANCH   6   8
ENDBRANCH   3   6
ENDBRANCH   1   2
BRANCH   1  22
ATOM     22  C   UNL A   1      36.164  21.357  24.829  1.00  0.00     0.023 C 
BRANCH  22  23
ATOM     23  C   UNL A   1      37.344  20.388  24.719  1.00  0.00     0.023 C 
BRANCH  23  24
ATOM     24  C   UNL A   1      38.565  20.752  25.553  1.00  0.00     0.116 C 
BRANCH  24  25
ATOM     25  N   UNL A   1      39.553  19.686  25.599  1.00  0.00    -0.352 N 
ATOM     26  C   UNL A   1      40.869  19.737  25.996  1.00  0.00     0.251 C 
ATOM     27  H   UNL A   1      39.235  18.804  25.304  1.00  0.00     0.163 HD
ATOM     28  O   UNL A   1      41.595  18.767  25.844  1.00  0.00    -0.269 OA
BRANCH  26  29
ATOM     29  C   UNL A   1      41.410  20.986  26.575  1.00  0.00     0.039 A 
ATOM     30  C   UNL A   1      42.003  21.916  25.718  1.00  0.00     0.014 A 
ATOM     31  C   UNL A   1      41.315  21.248  27.944  1.00  0.00     0.014 A 
ATOM     32  C   UNL A   1      42.432  23.145  26.223  1.00  0.00     0.010 A 
ATOM     33  C   UNL A   1      41.682  22.499  28.434  1.00  0.00     0.010 A 
ATOM     34  C   UNL A   1      42.234  23.464  27.577  1.00  0.00    -0.014 A 
BRANCH  34  35
ATOM     35  C   UNL A   1      42.564  24.813  28.100  1.00  0.00     0.031 A 
ATOM     36  C   UNL A   1      43.965  25.141  28.536  1.00  0.00     0.074 A 
ATOM     37  C   UNL A   1      41.581  25.723  28.246  1.00  0.00     0.049 A 
ATOM     38  N   UNL A   1      44.424  26.242  29.074  1.00  0.00    -0.248 NA
ATOM     39  C   UNL A   1      44.978  24.088  28.364  1.00  0.00     0.031 C 
ATOM     40  C   UNL A   1      40.171  25.508  27.908  1.00  0.00     0.029 A 
ATOM     41  N   UNL A   1      41.613  27.008  28.728  1.00  0.00    -0.354 N 
ATOM     42  C   UNL A   1      45.773  26.011  29.315  1.00  0.00     0.074 A 
ATOM     43  C   UNL A   1      46.048  24.650  28.907  1.00  0.00     0.031 C 
ATOM     44  C   UNL A   1      39.480  26.627  28.176  1.00  0.00     0.029 A 
ATOM     45  C   UNL A   1      40.385  27.623  28.740  1.00  0.00     0.049 A 
ATOM     46  H   UNL A   1      42.438  27.447  29.036  1.00  0.00     0.167 HD
ATOM     47  C   UNL A   1      46.700  26.863  29.813  1.00  0.00     0.037 A 
ATOM     48  C   UNL A   1      40.024  28.848  29.169  1.00  0.00     0.037 A 
ATOM     49  C   UNL A   1      46.428  28.224  30.198  1.00  0.00     0.049 A 
ATOM     50  C   UNL A   1      41.074  29.768  29.727  1.00  0.00     0.074 A 
ATOM     51  C   UNL A   1      47.317  29.185  30.649  1.00  0.00     0.029 A 
ATOM     52  N   UNL A   1      45.175  28.815  30.181  1.00  0.00    -0.354 N 
ATOM     53  N   UNL A   1      42.360  29.562  29.875  1.00  0.00    -0.248 NA
ATOM     54  C   UNL A   1      40.624  31.094  30.172  1.00  0.00     0.031 C 
ATOM     55  C   UNL A   1      46.594  30.343  30.950  1.00  0.00     0.029 A 
ATOM     56  C   UNL A   1      45.262  30.120  30.638  1.00  0.00     0.049 A 
ATOM     57  H   UNL A   1      44.345  28.374  29.887  1.00  0.00     0.167 HD
ATOM     58  C   UNL A   1      42.875  30.738  30.406  1.00  0.00     0.074 A 
ATOM     59  C   UNL A   1      41.765  31.660  30.535  1.00  0.00     0.031 C 
ATOM     60  C   UNL A   1      44.151  31.028  30.755  1.00  0.00     0.037 A 
BRANCH  47  61
ATOM     61  C   UNL A   1      48.103  26.355  29.967  1.00  0.00     0.057 A 
ATOM     62  C   UNL A   1      49.051  26.487  28.945  1.00  0.00     0.134 A 
ATOM     63  C   UNL A   1      48.529  25.786  31.174  1.00  0.00     0.134 A 
ATOM     64  F   UNL A   1      48.705  27.014  27.760  1.00  0.00    -0.206 F 
ATOM     65  C   UNL A   1      50.369  26.056  29.111  1.00  0.00     0.040 A 
ATOM     66  C   UNL A   1      49.850  25.375  31.361  1.00  0.00     0.040 A 
ATOM     67  F   UNL A   1      47.673  25.636  32.196  1.00  0.00    -0.206 F 
ATOM     68  C   UNL A   1      50.774  25.507  30.326  1.00  0.00     0.006 A 
ENDBRANCH  47  61
BRANCH  48  69
ATOM     69  C   UNL A   1      38.607  29.284  29.084  1.00  0.00     0.057 A 
ATOM     70  C   UNL A   1      37.771  29.246  30.207  1.00  0.00     0.134 A 
ATOM     71  C   UNL A   1      38.047  29.720  27.878  1.00  0.00     0.134 A 
ATOM     72  F   UNL A   1      38.245  28.818  31.386  1.00  0.00    -0.206 F 
ATOM     73  C   UNL A   1      36.424  29.600  30.128  1.00  0.00     0.040 A 
ATOM     74  C   UNL A   1      36.707  30.104  27.790  1.00  0.00     0.040 A 
ATOM     75  F   UNL A   1      38.796  29.787  26.767  1.00  0.00    -0.206 F 
ATOM     76  C   UNL A   1      35.889  30.034  28.916  1.00  0.00     0.006 A 
ENDBRANCH  48  69
BRANCH  60  77
ATOM     77  C   UNL A   1      44.421  32.407  31.282  1.00  0.00     0.057 A 
ATOM     78  C   UNL A   1      44.722  33.478  30.432  1.00  0.00     0.134 A 
ATOM     79  C   UNL A   1      44.344  32.672  32.656  1.00  0.00     0.134 A 
ATOM     80  F   UNL A   1      44.824  33.288  29.108  1.00  0.00    -0.206 F 
ATOM     81  C   UNL A   1      44.964  34.759  30.932  1.00  0.00     0.040 A 
ATOM     82  C   UNL A   1      44.556  33.955  33.164  1.00  0.00     0.040 A 
ATOM     83  F   UNL A   1      44.051  31.693  33.525  1.00  0.00    -0.206 F 
ATOM     84  C   UNL A   1      44.873  35.002  32.301  1.00  0.00     0.006 A 
ENDBRANCH  60  77
ENDBRANCH  34  35
ENDBRANCH  26  29
ENDBRANCH  24  25
ENDBRANCH  23  24
ENDBRANCH  22  23
ENDBRANCH   1  22
TORSDOF 15
ENDMDL
MODEL 3
REMARK VINA RESULT:     -11.6      4.629      9.863
REMARK SMILES C[C@@H](C(=O)NCCCCNC(=O)c1ccc(-c2c3nc(c(-c4c(F)cccc4F)c4ccc([nH]4)c(-c4c(F)cccc4F)c4nc(c(-c5c(F)cccc5F)c5ccc2[nH]5)C=C4)C=C3)cc1)c1ccc(C[C@H]2CCC[C@H]2O)cc1
REMARK SMILES IDX 6 1 5 2 3 3 4 4 2 6 1 7 67 8 68 9 79 10 69 11 78 12 70 13
REMARK SMILES IDX 71 14 72 15 73 16 76 17 74 18 75 19 77 20 7 22 8 23 9 24
REMARK SMILES IDX 10 25 11 26 12 28 13 29 14 30 66 31 15 32 65 33 16 34 17 35
REMARK SMILES IDX 18 36 59 37 19 38 64 39 58 40 60 41 20 42 63 43 57 44 56 45
REMARK SMILES IDX 21 47 47 48 30 49 46 50 31 51 34 52 45 53 61 54 32 55 33 56
REMARK SMILES IDX 44 58 62 59 35 60 22 61 23 62 28 63 24 64 25 65 27 66 29 67
REMARK SMILES IDX 26 68 48 69 49 70 54 71 50 72 51 73 53 74 55 75 52 76 36 77
REMARK SMILES IDX 37 78 42 79 38 80 39 81 41 82 43 83 40 84
REMARK H PARENT 5 5 77 21 10 27 60 46 34 57
REMARK Flexibility Score: inf
ROOT
ATOM      1  C   UNL A   1      32.560  30.070  25.583  1.00  0.00     0.116 C 
ENDROOT
BRANCH   1   2
ATOM      2  N   UNL A   1      31.757  29.632  24.460  1.00  0.00    -0.356 N 
ATOM      3  C   UNL A   1      32.061  28.788  23.429  1.00  0.00     0.227 C 
ATOM      4  O   UNL A   1      31.185  28.644  22.573  1.00  0.00    -0.274 OA
ATOM      5  H   UNL A   1      30.845  30.003  24.435  1.00  0.00     0.163 HD
BRANCH   3   6
ATOM      6  C   UNL A   1      33.414  28.064  23.409  1.00  0.00     0.105 C 
ATOM      7  C   UNL A   1      34.066  28.079  22.021  1.00  0.00     0.023 C 
BRANCH   6   8
ATOM      8  C   UNL A   1      33.372  26.609  23.868  1.00  0.00    -0.036 A 
ATOM      9  C   UNL A   1      33.228  26.322  25.233  1.00  0.00     0.005 A 
ATOM     10  C   UNL A   1      33.632  25.552  22.985  1.00  0.00     0.005 A 
ATOM     11  C   UNL A   1      33.414  25.023  25.707  1.00  0.00     0.004 A 
ATOM     12  C   UNL A   1      33.815  24.254  23.462  1.00  0.00     0.004 A 
ATOM     13  C   UNL A   1      33.775  23.992  24.834  1.00  0.00    -0.048 A 
BRANCH  13  14
ATOM     14  C   UNL A   1      34.192  22.643  25.364  1.00  0.00     0.041 C 
BRANCH  14  15
ATOM     15  C   UNL A   1      33.833  21.417  24.499  1.00  0.00     0.022 C 
ATOM     16  C   UNL A   1      34.554  20.098  24.837  1.00  0.00     0.007 C 
ATOM     17  C   UNL A   1      32.351  21.024  24.384  1.00  0.00     0.117 C 
ATOM     18  C   UNL A   1      33.595  18.971  24.439  1.00  0.00     0.003 C 
ATOM     19  C   UNL A   1      32.422  19.646  23.736  1.00  0.00     0.032 C 
BRANCH  17  20
ATOM     20  O   UNL A   1      31.669  20.907  25.622  1.00  0.00    -0.393 OA
ATOM     21  H   UNL A   1      31.921  21.643  26.200  1.00  0.00     0.210 HD
ENDBRANCH  17  20
ENDBRANCH  14  15
ENDBRANCH  13  14
ENDBRANCH   6   8
ENDBRANCH   3   6
ENDBRANCH   1   2
BRANCH   1  22
ATOM     22  C   UNL A   1      31.683  30.514  26.756  1.00  0.00     0.023 C 
BRANCH  22  23
ATOM     23  C   UNL A   1      31.469  32.026  26.865  1.00  0.00     0.023 C 
BRANCH  23  24
ATOM     24  C   UNL A   1      32.692  32.828  27.291  1.00  0.00     0.116 C 
BRANCH  24  25
ATOM     25  N   UNL A   1      32.375  34.209  27.613  1.00  0.00    -0.352 N 
ATOM     26  C   UNL A   1      32.965  35.045  28.533  1.00  0.00     0.251 C 
ATOM     27  H   UNL A   1      31.633  34.602  27.101  1.00  0.00     0.163 HD
ATOM     28  O   UNL A   1      32.481  36.141  28.766  1.00  0.00    -0.269 OA
BRANCH  26  29
ATOM     29  C   UNL A   1      34.168  34.593  29.265  1.00  0.00     0.039 A 
ATOM     30  C   UNL A   1      34.010  34.077  30.553  1.00  0.00     0.014 A 
ATOM     31  C   UNL A   1      35.436  34.656  28.681  1.00  0.00     0.014 A 
ATOM     32  C   UNL A   1      35.115  33.552  31.227  1.00  0.00     0.010 A 
ATOM     33  C   UNL A   1      36.524  34.073  29.326  1.00  0.00     0.010 A 
ATOM     34  C   UNL A   1      36.372  33.505  30.600  1.00  0.00    -0.014 A 
BRANCH  34  35
ATOM     35  C   UNL A   1      37.525  32.833  31.250  1.00  0.00     0.031 A 
ATOM     36  C   UNL A   1      38.175  31.641  30.607  1.00  0.00     0.074 A 
ATOM     37  C   UNL A   1      37.942  33.261  32.459  1.00  0.00     0.049 A 
ATOM     38  N   UNL A   1      39.149  30.891  31.056  1.00  0.00    -0.248 NA
ATOM     39  C   UNL A   1      37.649  31.222  29.298  1.00  0.00     0.031 C 
ATOM     40  C   UNL A   1      37.360  34.375  33.210  1.00  0.00     0.029 A 
ATOM     41  N   UNL A   1      38.946  32.801  33.274  1.00  0.00    -0.354 N 
ATOM     42  C   UNL A   1      39.345  29.908  30.094  1.00  0.00     0.074 A 
ATOM     43  C   UNL A   1      38.359  30.129  29.057  1.00  0.00     0.031 C 
ATOM     44  C   UNL A   1      38.027  34.523  34.365  1.00  0.00     0.029 A 
ATOM     45  C   UNL A   1      39.057  33.493  34.456  1.00  0.00     0.049 A 
ATOM     46  H   UNL A   1      39.531  32.046  33.035  1.00  0.00     0.167 HD
ATOM     47  C   UNL A   1      40.274  28.924  30.068  1.00  0.00     0.037 A 
ATOM     48  C   UNL A   1      39.886  33.311  35.502  1.00  0.00     0.037 A 
ATOM     49  C   UNL A   1      41.268  28.719  31.090  1.00  0.00     0.049 A 
ATOM     50  C   UNL A   1      40.901  32.203  35.449  1.00  0.00     0.074 A 
ATOM     51  C   UNL A   1      42.294  27.790  31.119  1.00  0.00     0.029 A 
ATOM     52  N   UNL A   1      41.357  29.450  32.264  1.00  0.00    -0.354 N 
ATOM     53  N   UNL A   1      41.125  31.331  34.496  1.00  0.00    -0.248 NA
ATOM     54  C   UNL A   1      41.783  32.056  36.615  1.00  0.00     0.031 C 
ATOM     55  C   UNL A   1      42.976  27.929  32.331  1.00  0.00     0.029 A 
ATOM     56  C   UNL A   1      42.406  28.977  33.036  1.00  0.00     0.049 A 
ATOM     57  H   UNL A   1      40.765  30.196  32.512  1.00  0.00     0.167 HD
ATOM     58  C   UNL A   1      42.186  30.551  34.936  1.00  0.00     0.074 A 
ATOM     59  C   UNL A   1      42.574  31.066  36.233  1.00  0.00     0.031 C 
ATOM     60  C   UNL A   1      42.785  29.503  34.322  1.00  0.00     0.037 A 
BRANCH  47  61
ATOM     61  C   UNL A   1      40.270  27.991  28.894  1.00  0.00     0.057 A 
ATOM     62  C   UNL A   1      40.992  28.270  27.727  1.00  0.00     0.134 A 
ATOM     63  C   UNL A   1      39.588  26.768  28.955  1.00  0.00     0.134 A 
ATOM     64  F   UNL A   1      41.658  29.429  27.601  1.00  0.00    -0.206 F 
ATOM     65  C   UNL A   1      41.024  27.376  26.655  1.00  0.00     0.040 A 
ATOM     66  C   UNL A   1      39.633  25.854  27.900  1.00  0.00     0.040 A 
ATOM     67  F   UNL A   1      38.882  26.435  30.045  1.00  0.00    -0.206 F 
ATOM     68  C   UNL A   1      40.351  26.159  26.744  1.00  0.00     0.006 A 
ENDBRANCH  47  61
BRANCH  48  69
ATOM     69  C   UNL A   1      39.800  34.199  36.689  1.00  0.00     0.057 A 
ATOM     70  C   UNL A   1      39.017  33.853  37.796  1.00  0.00     0.134 A 
ATOM     71  C   UNL A   1      40.473  35.426  36.733  1.00  0.00     0.134 A 
ATOM     72  F   UNL A   1      38.333  32.699  37.804  1.00  0.00    -0.206 F 
ATOM     73  C   UNL A   1      38.885  34.704  38.894  1.00  0.00     0.040 A 
ATOM     74  C   UNL A   1      40.371  36.276  37.837  1.00  0.00     0.040 A 
ATOM     75  F   UNL A   1      41.245  35.814  35.707  1.00  0.00    -0.206 F 
ATOM     76  C   UNL A   1      39.567  35.919  38.917  1.00  0.00     0.006 A 
ENDBRANCH  48  69
BRANCH  60  77
ATOM     77  C   UNL A   1      43.942  28.862  35.031  1.00  0.00     0.057 A 
ATOM     78  C   UNL A   1      43.769  27.772  35.894  1.00  0.00     0.134 A 
ATOM     79  C   UNL A   1      45.249  29.322  34.821  1.00  0.00     0.134 A 
ATOM     80  F   UNL A   1      42.542  27.294  36.148  1.00  0.00    -0.206 F 
ATOM     81  C   UNL A   1      44.853  27.178  36.542  1.00  0.00     0.040 A 
ATOM     82  C   UNL A   1      46.343  28.717  35.442  1.00  0.00     0.040 A 
ATOM     83  F   UNL A   1      45.485  30.356  34.000  1.00  0.00    -0.206 F 
ATOM     84  C   UNL A   1      46.145  27.646  36.311  1.00  0.00     0.006 A 
ENDBRANCH  60  77
ENDBRANCH  34  35
ENDBRANCH  26  29
ENDBRANCH  24  25
ENDBRANCH  23  24
ENDBRANCH  22  23
ENDBRANCH   1  22
TORSDOF 15
ENDMDL
