MODEL 1
REMARK VINA RESULT:     -11.1      0.000      0.000
REMARK SMILES Cc1cc(C(=O)N2CCC[C@@H]2C(C)C)sc1/C=C/C(=O)NCCCCNC(=O)c1ccc(-c2c3nc(c(-c4c(F)cccc4F)c4ccc([nH]4)c(-c4c(F)cccc4F)c4nc(c(-c5c(F)cccc5F)c5ccc2[nH]5)C=C4)C=C3)cc1
REMARK SMILES IDX 22 1 21 2 19 3 20 4 18 6 17 7 16 8 1 9 2 10 3 11 4 12 15 13
REMARK SMILES IDX 5 14 6 15 7 16 8 17 11 18 9 19 10 20 12 21 13 22 14 23 23 24
REMARK SMILES IDX 24 25 25 26 26 27 27 28 28 30 29 31 30 32 82 33 31 34 81 35
REMARK SMILES IDX 32 36 33 37 34 38 75 39 35 40 80 41 74 42 76 43 36 44 79 45
REMARK SMILES IDX 73 46 72 47 37 49 63 50 46 51 62 52 47 53 50 54 61 55 77 56
REMARK SMILES IDX 48 57 49 58 60 60 78 61 51 62 38 63 39 64 44 65 40 66 41 67
REMARK SMILES IDX 43 68 45 69 42 70 64 71 65 72 70 73 66 74 67 75 69 76 71 77
REMARK SMILES IDX 68 78 52 79 53 80 58 81 54 82 55 83 57 84 59 85 56 86
REMARK H PARENT 21 5 26 29 76 48 50 59
REMARK Flexibility Score: inf
ROOT
ATOM      1  C   UNL A   1      34.385  32.156  28.094  1.00  0.00     0.116 C 
ENDROOT
BRANCH   1   2
ATOM      2  N   UNL A   1      35.695  31.569  27.880  1.00  0.00    -0.353 N 
ATOM      3  C   UNL A   1      36.041  30.279  27.627  1.00  0.00     0.244 C 
ATOM      4  O   UNL A   1      37.213  29.997  27.388  1.00  0.00    -0.270 OA
ATOM      5  H   UNL A   1      36.447  32.203  27.925  1.00  0.00     0.163 HD
BRANCH   3   6
ATOM      6  C   UNL A   1      35.008  29.225  27.547  1.00  0.00     0.072 C 
ATOM      7  C   UNL A   1      34.438  28.827  26.399  1.00  0.00     0.025 C 
BRANCH   7   8
ATOM      8  C   UNL A   1      33.424  27.827  26.341  1.00  0.00     0.031 A 
ATOM      9  C   UNL A   1      31.402  29.109  27.289  1.00  0.00     0.046 C 
ATOM     10  C   UNL A   1      32.107  27.890  26.781  1.00  0.00    -0.032 A 
ATOM     11  C   UNL A   1      31.461  26.610  26.682  1.00  0.00     0.029 A 
ATOM     12  C   UNL A   1      32.259  25.629  26.127  1.00  0.00     0.093 A 
ATOM     13  S   UNL A   1      33.772  26.282  25.691  1.00  0.00    -0.130 S 
BRANCH  12  14
ATOM     14  C   UNL A   1      31.864  24.255  25.811  1.00  0.00     0.264 C 
ATOM     15  O   UNL A   1      30.765  23.984  25.328  1.00  0.00    -0.268 OA
BRANCH  14  16
ATOM     16  N   UNL A   1      32.841  23.280  25.935  1.00  0.00    -0.335 N 
ATOM     17  C   UNL A   1      33.121  22.647  27.211  1.00  0.00     0.120 C 
ATOM     18  C   UNL A   1      33.259  22.414  24.826  1.00  0.00     0.088 C 
ATOM     19  C   UNL A   1      34.403  21.905  26.934  1.00  0.00     0.024 C 
ATOM     20  C   UNL A   1      34.169  21.369  25.523  1.00  0.00     0.027 C 
BRANCH  18  21
ATOM     21  C   UNL A   1      33.963  23.179  23.663  1.00  0.00     0.005 C 
ATOM     22  C   UNL A   1      35.433  22.761  23.505  1.00  0.00     0.009 C 
ATOM     23  C   UNL A   1      33.281  22.954  22.305  1.00  0.00     0.009 C 
ENDBRANCH  18  21
ENDBRANCH  14  16
ENDBRANCH  12  14
ENDBRANCH   7   8
ENDBRANCH   3   6
ENDBRANCH   1   2
BRANCH   1  24
ATOM     24  C   UNL A   1      34.485  33.410  28.962  1.00  0.00     0.023 C 
BRANCH  24  25
ATOM     25  C   UNL A   1      33.304  34.371  28.814  1.00  0.00     0.023 C 
BRANCH  25  26
ATOM     26  C   UNL A   1      33.518  35.747  29.435  1.00  0.00     0.116 C 
BRANCH  26  27
ATOM     27  N   UNL A   1      32.527  36.085  30.444  1.00  0.00    -0.352 N 
ATOM     28  C   UNL A   1      32.544  35.788  31.787  1.00  0.00     0.251 C 
ATOM     29  H   UNL A   1      31.745  36.591  30.126  1.00  0.00     0.163 HD
ATOM     30  O   UNL A   1      31.586  36.055  32.498  1.00  0.00    -0.269 OA
BRANCH  28  31
ATOM     31  C   UNL A   1      33.721  35.095  32.347  1.00  0.00     0.039 A 
ATOM     32  C   UNL A   1      33.566  33.797  32.839  1.00  0.00     0.014 A 
ATOM     33  C   UNL A   1      34.978  35.707  32.337  1.00  0.00     0.014 A 
ATOM     34  C   UNL A   1      34.690  33.083  33.256  1.00  0.00     0.010 A 
ATOM     35  C   UNL A   1      36.102  34.969  32.689  1.00  0.00     0.010 A 
ATOM     36  C   UNL A   1      35.970  33.650  33.147  1.00  0.00    -0.014 A 
BRANCH  36  37
ATOM     37  C   UNL A   1      37.186  32.877  33.498  1.00  0.00     0.031 A 
ATOM     38  C   UNL A   1      37.909  33.159  34.784  1.00  0.00     0.074 A 
ATOM     39  C   UNL A   1      37.678  31.980  32.624  1.00  0.00     0.049 A 
ATOM     40  N   UNL A   1      39.031  32.652  35.228  1.00  0.00    -0.248 NA
ATOM     41  C   UNL A   1      37.308  34.164  35.674  1.00  0.00     0.031 C 
ATOM     42  C   UNL A   1      37.095  31.657  31.320  1.00  0.00     0.029 A 
ATOM     43  N   UNL A   1      38.794  31.183  32.695  1.00  0.00    -0.354 N 
ATOM     44  C   UNL A   1      39.278  33.288  36.437  1.00  0.00     0.074 A 
ATOM     45  C   UNL A   1      38.217  34.253  36.634  1.00  0.00     0.031 C 
ATOM     46  C   UNL A   1      37.846  30.717  30.724  1.00  0.00     0.029 A 
ATOM     47  C   UNL A   1      38.979  30.396  31.586  1.00  0.00     0.049 A 
ATOM     48  H   UNL A   1      39.403  31.177  33.469  1.00  0.00     0.167 HD
ATOM     49  C   UNL A   1      40.286  33.073  37.314  1.00  0.00     0.037 A 
ATOM     50  C   UNL A   1      39.957  29.516  31.294  1.00  0.00     0.037 A 
ATOM     51  C   UNL A   1      41.323  32.091  37.130  1.00  0.00     0.049 A 
ATOM     52  C   UNL A   1      41.058  29.286  32.291  1.00  0.00     0.074 A 
ATOM     53  C   UNL A   1      42.353  31.754  37.990  1.00  0.00     0.029 A 
ATOM     54  N   UNL A   1      41.457  31.288  36.009  1.00  0.00    -0.354 N 
ATOM     55  N   UNL A   1      41.244  29.848  33.461  1.00  0.00    -0.248 NA
ATOM     56  C   UNL A   1      42.082  28.295  31.930  1.00  0.00     0.031 C 
ATOM     57  C   UNL A   1      43.131  30.769  37.374  1.00  0.00     0.029 A 
ATOM     58  C   UNL A   1      42.562  30.466  36.148  1.00  0.00     0.049 A 
ATOM     59  H   UNL A   1      40.856  31.301  35.228  1.00  0.00     0.167 HD
ATOM     60  C   UNL A   1      42.385  29.258  33.989  1.00  0.00     0.074 A 
ATOM     61  C   UNL A   1      42.844  28.289  33.015  1.00  0.00     0.031 C 
ATOM     62  C   UNL A   1      42.995  29.497  35.175  1.00  0.00     0.037 A 
BRANCH  49  63
ATOM     63  C   UNL A   1      40.310  33.913  38.557  1.00  0.00     0.057 A 
ATOM     64  C   UNL A   1      39.614  33.535  39.714  1.00  0.00     0.134 A 
ATOM     65  C   UNL A   1      41.058  35.094  38.610  1.00  0.00     0.134 A 
ATOM     66  F   UNL A   1      38.868  32.421  39.725  1.00  0.00    -0.206 F 
ATOM     67  C   UNL A   1      39.641  34.319  40.869  1.00  0.00     0.040 A 
ATOM     68  C   UNL A   1      41.113  35.872  39.767  1.00  0.00     0.040 A 
ATOM     69  F   UNL A   1      41.751  35.511  37.538  1.00  0.00    -0.206 F 
ATOM     70  C   UNL A   1      40.398  35.487  40.900  1.00  0.00     0.006 A 
ENDBRANCH  49  63
BRANCH  50  71
ATOM     71  C   UNL A   1      39.922  28.764  30.016  1.00  0.00     0.057 A 
ATOM     72  C   UNL A   1      39.217  27.561  29.908  1.00  0.00     0.134 A 
ATOM     73  C   UNL A   1      40.593  29.224  28.877  1.00  0.00     0.134 A 
ATOM     74  F   UNL A   1      38.569  27.062  30.971  1.00  0.00    -0.206 F 
ATOM     75  C   UNL A   1      39.194  26.830  28.719  1.00  0.00     0.040 A 
ATOM     76  C   UNL A   1      40.560  28.515  27.674  1.00  0.00     0.040 A 
ATOM     77  F   UNL A   1      41.280  30.375  28.914  1.00  0.00    -0.206 F 
ATOM     78  C   UNL A   1      39.864  27.310  27.597  1.00  0.00     0.006 A 
ENDBRANCH  50  71
BRANCH  62  79
ATOM     79  C   UNL A   1      44.202  28.670  35.504  1.00  0.00     0.057 A 
ATOM     80  C   UNL A   1      45.496  29.082  35.165  1.00  0.00     0.134 A 
ATOM     81  C   UNL A   1      44.068  27.469  36.212  1.00  0.00     0.134 A 
ATOM     82  F   UNL A   1      45.689  30.216  34.475  1.00  0.00    -0.206 F 
ATOM     83  C   UNL A   1      46.614  28.319  35.503  1.00  0.00     0.040 A 
ATOM     84  C   UNL A   1      45.180  26.710  36.577  1.00  0.00     0.040 A 
ATOM     85  F   UNL A   1      42.855  27.022  36.574  1.00  0.00    -0.206 F 
ATOM     86  C   UNL A   1      46.458  27.133  36.218  1.00  0.00     0.006 A 
ENDBRANCH  62  79
ENDBRANCH  36  37
ENDBRANCH  28  31
ENDBRANCH  26  27
ENDBRANCH  25  26
ENDBRANCH  24  25
ENDBRANCH   1  24
TORSDOF 15
ENDMDL
MODEL 2
REMARK VINA RESULT:     -10.8      4.281      8.340
REMARK SMILES Cc1cc(C(=O)N2CCC[C@@H]2C(C)C)sc1/C=C/C(=O)NCCCCNC(=O)c1ccc(-c2c3nc(c(-c4c(F)cccc4F)c4ccc([nH]4)c(-c4c(F)cccc4F)c4nc(c(-c5c(F)cccc5F)c5ccc2[nH]5)C=C4)C=C3)cc1
REMARK SMILES IDX 22 1 21 2 19 3 20 4 18 6 17 7 16 8 1 9 2 10 3 11 4 12 15 13
REMARK SMILES IDX 5 14 6 15 7 16 8 17 11 18 9 19 10 20 12 21 13 22 14 23 23 24
REMARK SMILES IDX 24 25 25 26 26 27 27 28 28 30 29 31 30 32 82 33 31 34 81 35
REMARK SMILES IDX 32 36 33 37 34 38 75 39 35 40 80 41 74 42 76 43 36 44 79 45
REMARK SMILES IDX 73 46 72 47 37 49 63 50 46 51 62 52 47 53 50 54 61 55 77 56
REMARK SMILES IDX 48 57 49 58 60 60 78 61 51 62 38 63 39 64 44 65 40 66 41 67
REMARK SMILES IDX 43 68 45 69 42 70 64 71 65 72 70 73 66 74 67 75 69 76 71 77
REMARK SMILES IDX 68 78 52 79 53 80 58 81 54 82 55 83 57 84 59 85 56 86
REMARK H PARENT 21 5 26 29 76 48 50 59
REMARK Flexibility Score: inf
ROOT
ATOM      1  C   UNL A   1      33.412  35.956  29.022  1.00  0.00     0.116 C 
ENDROOT
BRANCH   1   2
ATOM      2  N   UNL A   1      32.671  36.362  30.201  1.00  0.00    -0.353 N 
ATOM      3  C   UNL A   1      32.796  35.953  31.492  1.00  0.00     0.244 C 
ATOM      4  O   UNL A   1      32.123  36.487  32.370  1.00  0.00    -0.270 OA
ATOM      5  H   UNL A   1      31.970  37.034  30.042  1.00  0.00     0.163 HD
BRANCH   3   6
ATOM      6  C   UNL A   1      33.803  34.936  31.864  1.00  0.00     0.072 C 
ATOM      7  C   UNL A   1      35.126  35.154  31.841  1.00  0.00     0.025 C 
BRANCH   7   8
ATOM      8  C   UNL A   1      36.084  34.154  32.179  1.00  0.00     0.031 A 
ATOM      9  C   UNL A   1      37.507  34.082  30.034  1.00  0.00     0.046 C 
ATOM     10  C   UNL A   1      37.097  33.613  31.395  1.00  0.00    -0.032 A 
ATOM     11  C   UNL A   1      37.742  32.514  32.060  1.00  0.00     0.029 A 
ATOM     12  C   UNL A   1      37.262  32.280  33.334  1.00  0.00     0.093 A 
ATOM     13  S   UNL A   1      36.061  33.425  33.727  1.00  0.00    -0.130 S 
BRANCH  12  14
ATOM     14  C   UNL A   1      37.772  31.299  34.294  1.00  0.00     0.264 C 
ATOM     15  O   UNL A   1      37.607  31.424  35.508  1.00  0.00    -0.268 OA
BRANCH  14  16
ATOM     16  N   UNL A   1      38.317  30.138  33.771  1.00  0.00    -0.335 N 
ATOM     17  C   UNL A   1      37.506  29.189  33.029  1.00  0.00     0.120 C 
ATOM     18  C   UNL A   1      39.732  30.008  33.402  1.00  0.00     0.088 C 
ATOM     19  C   UNL A   1      38.418  27.994  32.921  1.00  0.00     0.024 C 
ATOM     20  C   UNL A   1      39.776  28.645  32.663  1.00  0.00     0.027 C 
BRANCH  18  21
ATOM     21  C   UNL A   1      40.707  30.092  34.616  1.00  0.00     0.005 C 
ATOM     22  C   UNL A   1      41.963  29.233  34.408  1.00  0.00     0.009 C 
ATOM     23  C   UNL A   1      41.182  31.525  34.899  1.00  0.00     0.009 C 
ENDBRANCH  18  21
ENDBRANCH  14  16
ENDBRANCH  12  14
ENDBRANCH   7   8
ENDBRANCH   3   6
ENDBRANCH   1   2
BRANCH   1  24
ATOM     24  C   UNL A   1      33.069  34.519  28.630  1.00  0.00     0.023 C 
BRANCH  24  25
ATOM     25  C   UNL A   1      34.252  33.717  28.086  1.00  0.00     0.023 C 
BRANCH  25  26
ATOM     26  C   UNL A   1      34.550  32.426  28.841  1.00  0.00     0.116 C 
BRANCH  26  27
ATOM     27  N   UNL A   1      33.954  31.249  28.229  1.00  0.00    -0.352 N 
ATOM     28  C   UNL A   1      34.568  30.071  27.875  1.00  0.00     0.251 C 
ATOM     29  H   UNL A   1      32.989  31.303  28.044  1.00  0.00     0.163 HD
ATOM     30  O   UNL A   1      33.952  29.200  27.276  1.00  0.00    -0.269 OA
BRANCH  28  31
ATOM     31  C   UNL A   1      36.000  29.891  28.189  1.00  0.00     0.039 A 
ATOM     32  C   UNL A   1      36.354  29.412  29.452  1.00  0.00     0.014 A 
ATOM     33  C   UNL A   1      36.977  30.146  27.224  1.00  0.00     0.014 A 
ATOM     34  C   UNL A   1      37.691  29.117  29.723  1.00  0.00     0.010 A 
ATOM     35  C   UNL A   1      38.297  29.788  27.474  1.00  0.00     0.010 A 
ATOM     36  C   UNL A   1      38.666  29.267  28.722  1.00  0.00    -0.014 A 
BRANCH  36  37
ATOM     37  C   UNL A   1      40.076  28.875  28.958  1.00  0.00     0.031 A 
ATOM     38  C   UNL A   1      41.040  29.860  29.555  1.00  0.00     0.074 A 
ATOM     39  C   UNL A   1      40.504  27.661  28.563  1.00  0.00     0.049 A 
ATOM     40  N   UNL A   1      42.327  29.736  29.760  1.00  0.00    -0.248 NA
ATOM     41  C   UNL A   1      40.491  31.167  29.946  1.00  0.00     0.031 C 
ATOM     42  C   UNL A   1      39.676  26.636  27.923  1.00  0.00     0.029 A 
ATOM     43  N   UNL A   1      41.749  27.087  28.628  1.00  0.00    -0.354 N 
ATOM     44  C   UNL A   1      42.742  30.952  30.285  1.00  0.00     0.074 A 
ATOM     45  C   UNL A   1      41.583  31.817  30.322  1.00  0.00     0.031 C 
ATOM     46  C   UNL A   1      40.430  25.554  27.673  1.00  0.00     0.029 A 
ATOM     47  C   UNL A   1      41.799  25.819  28.104  1.00  0.00     0.049 A 
ATOM     48  H   UNL A   1      42.532  27.542  29.016  1.00  0.00     0.167 HD
ATOM     49  C   UNL A   1      43.974  31.309  30.717  1.00  0.00     0.037 A 
ATOM     50  C   UNL A   1      42.836  24.968  27.979  1.00  0.00     0.037 A 
ATOM     51  C   UNL A   1      45.119  30.436  30.709  1.00  0.00     0.049 A 
ATOM     52  C   UNL A   1      44.191  25.383  28.480  1.00  0.00     0.074 A 
ATOM     53  C   UNL A   1      46.395  30.683  31.183  1.00  0.00     0.029 A 
ATOM     54  N   UNL A   1      45.121  29.146  30.201  1.00  0.00    -0.354 N 
ATOM     55  N   UNL A   1      44.556  26.513  29.035  1.00  0.00    -0.248 NA
ATOM     56  C   UNL A   1      45.277  24.402  28.342  1.00  0.00     0.031 C 
ATOM     57  C   UNL A   1      47.180  29.553  30.931  1.00  0.00     0.029 A 
ATOM     58  C   UNL A   1      46.382  28.589  30.337  1.00  0.00     0.049 A 
ATOM     59  H   UNL A   1      44.343  28.693  29.802  1.00  0.00     0.167 HD
ATOM     60  C   UNL A   1      45.902  26.369  29.341  1.00  0.00     0.074 A 
ATOM     61  C   UNL A   1      46.288  25.039  28.917  1.00  0.00     0.031 C 
ATOM     62  C   UNL A   1      46.743  27.258  29.923  1.00  0.00     0.037 A 
BRANCH  49  63
ATOM     63  C   UNL A   1      44.144  32.703  31.245  1.00  0.00     0.057 A 
ATOM     64  C   UNL A   1      44.317  33.798  30.387  1.00  0.00     0.134 A 
ATOM     65  C   UNL A   1      44.105  32.958  32.620  1.00  0.00     0.134 A 
ATOM     66  F   UNL A   1      44.375  33.620  29.060  1.00  0.00    -0.206 F 
ATOM     67  C   UNL A   1      44.472  35.094  30.883  1.00  0.00     0.040 A 
ATOM     68  C   UNL A   1      44.234  34.252  33.126  1.00  0.00     0.040 A 
ATOM     69  F   UNL A   1      43.939  31.955  33.496  1.00  0.00    -0.206 F 
ATOM     70  C   UNL A   1      44.424  35.325  32.256  1.00  0.00     0.006 A 
ENDBRANCH  49  63
BRANCH  50  71
ATOM     71  C   UNL A   1      42.626  23.626  27.383  1.00  0.00     0.057 A 
ATOM     72  C   UNL A   1      42.725  23.429  26.001  1.00  0.00     0.134 A 
ATOM     73  C   UNL A   1      42.319  22.513  28.174  1.00  0.00     0.134 A 
ATOM     74  F   UNL A   1      43.000  24.462  25.192  1.00  0.00    -0.206 F 
ATOM     75  C   UNL A   1      42.508  22.178  25.423  1.00  0.00     0.040 A 
ATOM     76  C   UNL A   1      42.122  21.250  27.612  1.00  0.00     0.040 A 
ATOM     77  F   UNL A   1      42.218  22.634  29.506  1.00  0.00    -0.206 F 
ATOM     78  C   UNL A   1      42.210  21.083  26.230  1.00  0.00     0.006 A 
ENDBRANCH  50  71
BRANCH  62  79
ATOM     79  C   UNL A   1      48.151  26.809  30.173  1.00  0.00     0.057 A 
ATOM     80  C   UNL A   1      49.186  27.081  29.269  1.00  0.00     0.134 A 
ATOM     81  C   UNL A   1      48.483  26.137  31.356  1.00  0.00     0.134 A 
ATOM     82  F   UNL A   1      48.930  27.709  28.112  1.00  0.00    -0.206 F 
ATOM     83  C   UNL A   1      50.499  26.684  29.526  1.00  0.00     0.040 A 
ATOM     84  C   UNL A   1      49.796  25.757  31.635  1.00  0.00     0.040 A 
ATOM     85  F   UNL A   1      47.539  25.853  32.266  1.00  0.00    -0.206 F 
ATOM     86  C   UNL A   1      50.808  26.027  30.716  1.00  0.00     0.006 A 
ENDBRANCH  62  79
ENDBRANCH  36  37
ENDBRANCH  28  31
ENDBRANCH  26  27
ENDBRANCH  25  26
ENDBRANCH  24  25
ENDBRANCH   1  24
TORSDOF 15
ENDMDL
MODEL 3
REMARK VINA RESULT:     -10.7      5.350     10.234
REMARK SMILES Cc1cc(C(=O)N2CCC[C@@H]2C(C)C)sc1/C=C/C(=O)NCCCCNC(=O)c1ccc(-c2c3nc(c(-c4c(F)cccc4F)c4ccc([nH]4)c(-c4c(F)cccc4F)c4nc(c(-c5c(F)cccc5F)c5ccc2[nH]5)C=C4)C=C3)cc1
REMARK SMILES IDX 22 1 21 2 19 3 20 4 18 6 17 7 16 8 1 9 2 10 3 11 4 12 15 13
REMARK SMILES IDX 5 14 6 15 7 16 8 17 11 18 9 19 10 20 12 21 13 22 14 23 23 24
REMARK SMILES IDX 24 25 25 26 26 27 27 28 28 30 29 31 30 32 82 33 31 34 81 35
REMARK SMILES IDX 32 36 33 37 34 38 75 39 35 40 80 41 74 42 76 43 36 44 79 45
REMARK SMILES IDX 73 46 72 47 37 49 63 50 46 51 62 52 47 53 50 54 61 55 77 56
REMARK SMILES IDX 48 57 49 58 60 60 78 61 51 62 38 63 39 64 44 65 40 66 41 67
REMARK SMILES IDX 43 68 45 69 42 70 64 71 65 72 70 73 66 74 67 75 69 76 71 77
REMARK SMILES IDX 68 78 52 79 53 80 58 81 54 82 55 83 57 84 59 85 56 86
REMARK H PARENT 21 5 26 29 76 48 50 59
REMARK Flexibility Score: inf
ROOT
ATOM      1  C   UNL A   1      35.484  19.163  24.348  1.00  0.00     0.116 C 
ENDROOT
BRANCH   1   2
ATOM      2  N   UNL A   1      34.406  18.493  25.051  1.00  0.00    -0.353 N 
ATOM      3  C   UNL A   1      33.127  18.898  25.276  1.00  0.00     0.244 C 
ATOM      4  O   UNL A   1      32.333  18.139  25.826  1.00  0.00    -0.270 OA
ATOM      5  H   UNL A   1      34.637  17.611  25.424  1.00  0.00     0.163 HD
BRANCH   3   6
ATOM      6  C   UNL A   1      32.657  20.209  24.781  1.00  0.00     0.072 C 
ATOM      7  C   UNL A   1      32.594  21.314  25.540  1.00  0.00     0.025 C 
BRANCH   7   8
ATOM      8  C   UNL A   1      32.114  22.564  25.054  1.00  0.00     0.031 A 
ATOM      9  C   UNL A   1      30.102  22.964  26.610  1.00  0.00     0.046 C 
ATOM     10  C   UNL A   1      30.992  23.284  25.450  1.00  0.00    -0.032 A 
ATOM     11  C   UNL A   1      30.773  24.421  24.598  1.00  0.00     0.029 A 
ATOM     12  C   UNL A   1      31.742  24.579  23.627  1.00  0.00     0.093 A 
ATOM     13  S   UNL A   1      32.933  23.370  23.785  1.00  0.00    -0.130 S 
BRANCH  12  14
ATOM     14  C   UNL A   1      31.850  25.683  22.671  1.00  0.00     0.264 C 
ATOM     15  O   UNL A   1      32.109  25.497  21.482  1.00  0.00    -0.268 OA
BRANCH  14  16
ATOM     16  N   UNL A   1      31.496  26.942  23.129  1.00  0.00    -0.335 N 
ATOM     17  C   UNL A   1      30.234  27.556  22.754  1.00  0.00     0.120 C 
ATOM     18  C   UNL A   1      31.994  27.511  24.387  1.00  0.00     0.088 C 
ATOM     19  C   UNL A   1      30.411  28.977  23.222  1.00  0.00     0.024 C 
ATOM     20  C   UNL A   1      31.137  28.793  24.554  1.00  0.00     0.027 C 
BRANCH  18  21
ATOM     21  C   UNL A   1      33.529  27.783  24.388  1.00  0.00     0.005 C 
ATOM     22  C   UNL A   1      33.974  28.588  23.159  1.00  0.00     0.009 C 
ATOM     23  C   UNL A   1      33.995  28.559  25.629  1.00  0.00     0.009 C 
ENDBRANCH  18  21
ENDBRANCH  14  16
ENDBRANCH  12  14
ENDBRANCH   7   8
ENDBRANCH   3   6
ENDBRANCH   1   2
BRANCH   1  24
ATOM     24  C   UNL A   1      36.073  20.288  25.199  1.00  0.00     0.023 C 
BRANCH  24  25
ATOM     25  C   UNL A   1      37.405  20.835  24.681  1.00  0.00     0.023 C 
BRANCH  25  26
ATOM     26  C   UNL A   1      38.516  20.905  25.723  1.00  0.00     0.116 C 
BRANCH  26  27
ATOM     27  N   UNL A   1      39.455  19.797  25.641  1.00  0.00    -0.352 N 
ATOM     28  C   UNL A   1      40.787  19.784  25.981  1.00  0.00     0.251 C 
ATOM     29  H   UNL A   1      39.091  18.949  25.298  1.00  0.00     0.163 HD
ATOM     30  O   UNL A   1      41.478  18.798  25.764  1.00  0.00    -0.269 OA
BRANCH  28  31
ATOM     31  C   UNL A   1      41.383  20.999  26.571  1.00  0.00     0.039 A 
ATOM     32  C   UNL A   1      41.928  21.961  25.718  1.00  0.00     0.014 A 
ATOM     33  C   UNL A   1      41.355  21.206  27.953  1.00  0.00     0.014 A 
ATOM     34  C   UNL A   1      42.380  23.170  26.249  1.00  0.00     0.010 A 
ATOM     35  C   UNL A   1      41.744  22.436  28.470  1.00  0.00     0.010 A 
ATOM     36  C   UNL A   1      42.256  23.431  27.623  1.00  0.00    -0.014 A 
BRANCH  36  37
ATOM     37  C   UNL A   1      42.646  24.742  28.196  1.00  0.00     0.031 A 
ATOM     38  C   UNL A   1      41.609  25.807  28.409  1.00  0.00     0.074 A 
ATOM     39  C   UNL A   1      43.943  24.997  28.448  1.00  0.00     0.049 A 
ATOM     40  N   UNL A   1      41.764  27.041  28.818  1.00  0.00    -0.248 NA
ATOM     41  C   UNL A   1      40.217  25.447  28.095  1.00  0.00     0.031 C 
ATOM     42  C   UNL A   1      45.050  24.063  28.232  1.00  0.00     0.029 A 
ATOM     43  N   UNL A   1      44.554  26.128  28.929  1.00  0.00    -0.354 N 
ATOM     44  C   UNL A   1      40.497  27.607  28.791  1.00  0.00     0.074 A 
ATOM     45  C   UNL A   1      39.592  26.600  28.281  1.00  0.00     0.031 C 
ATOM     46  C   UNL A   1      46.200  24.651  28.597  1.00  0.00     0.029 A 
ATOM     47  C   UNL A   1      45.918  26.012  29.041  1.00  0.00     0.049 A 
ATOM     48  H   UNL A   1      44.060  26.945  29.172  1.00  0.00     0.167 HD
ATOM     49  C   UNL A   1      40.118  28.848  29.177  1.00  0.00     0.037 A 
ATOM     50  C   UNL A   1      46.838  26.906  29.452  1.00  0.00     0.037 A 
ATOM     51  C   UNL A   1      41.016  29.837  29.714  1.00  0.00     0.049 A 
ATOM     52  C   UNL A   1      46.390  28.273  29.888  1.00  0.00     0.074 A 
ATOM     53  C   UNL A   1      40.719  31.101  30.192  1.00  0.00     0.029 A 
ATOM     54  N   UNL A   1      42.385  29.670  29.845  1.00  0.00    -0.354 N 
ATOM     55  N   UNL A   1      45.179  28.774  29.920  1.00  0.00    -0.248 NA
ATOM     56  C   UNL A   1      47.435  29.197  30.351  1.00  0.00     0.031 C 
ATOM     57  C   UNL A   1      41.915  31.712  30.582  1.00  0.00     0.029 A 
ATOM     58  C   UNL A   1      42.951  30.814  30.382  1.00  0.00     0.049 A 
ATOM     59  H   UNL A   1      42.883  28.859  29.591  1.00  0.00     0.167 HD
ATOM     60  C   UNL A   1      45.312  30.057  30.435  1.00  0.00     0.074 A 
ATOM     61  C   UNL A   1      46.720  30.254  30.708  1.00  0.00     0.031 C 
ATOM     62  C   UNL A   1      44.353  30.987  30.662  1.00  0.00     0.037 A 
BRANCH  49  63
ATOM     63  C   UNL A   1      38.666  29.201  29.040  1.00  0.00     0.057 A 
ATOM     64  C   UNL A   1      37.791  29.153  30.134  1.00  0.00     0.134 A 
ATOM     65  C   UNL A   1      38.144  29.619  27.811  1.00  0.00     0.134 A 
ATOM     66  F   UNL A   1      38.226  28.748  31.336  1.00  0.00    -0.206 F 
ATOM     67  C   UNL A   1      36.441  29.484  30.002  1.00  0.00     0.040 A 
ATOM     68  C   UNL A   1      36.802  29.977  27.673  1.00  0.00     0.040 A 
ATOM     69  F   UNL A   1      38.929  29.691  26.725  1.00  0.00    -0.206 F 
ATOM     70  C   UNL A   1      35.945  29.904  28.770  1.00  0.00     0.006 A 
ENDBRANCH  49  63
BRANCH  50  71
ATOM     71  C   UNL A   1      48.272  26.527  29.499  1.00  0.00     0.057 A 
ATOM     72  C   UNL A   1      48.805  25.873  30.615  1.00  0.00     0.134 A 
ATOM     73  C   UNL A   1      49.140  26.812  28.440  1.00  0.00     0.134 A 
ATOM     74  F   UNL A   1      48.025  25.589  31.667  1.00  0.00    -0.206 F 
ATOM     75  C   UNL A   1      50.156  25.530  30.685  1.00  0.00     0.040 A 
ATOM     76  C   UNL A   1      50.490  26.455  28.486  1.00  0.00     0.040 A 
ATOM     77  F   UNL A   1      48.687  27.431  27.340  1.00  0.00    -0.206 F 
ATOM     78  C   UNL A   1      51.001  25.818  29.615  1.00  0.00     0.006 A 
ENDBRANCH  50  71
BRANCH  62  79
ATOM     79  C   UNL A   1      44.786  32.285  31.272  1.00  0.00     0.057 A 
ATOM     80  C   UNL A   1      45.155  33.385  30.487  1.00  0.00     0.134 A 
ATOM     81  C   UNL A   1      44.789  32.451  32.663  1.00  0.00     0.134 A 
ATOM     82  F   UNL A   1      45.185  33.285  29.150  1.00  0.00    -0.206 F 
ATOM     83  C   UNL A   1      45.528  34.599  31.065  1.00  0.00     0.040 A 
ATOM     84  C   UNL A   1      45.138  33.667  33.251  1.00  0.00     0.040 A 
ATOM     85  F   UNL A   1      44.439  31.438  33.471  1.00  0.00    -0.206 F 
ATOM     86  C   UNL A   1      45.512  34.744  32.452  1.00  0.00     0.006 A 
ENDBRANCH  62  79
ENDBRANCH  36  37
ENDBRANCH  28  31
ENDBRANCH  26  27
ENDBRANCH  25  26
ENDBRANCH  24  25
ENDBRANCH   1  24
TORSDOF 15
ENDMDL
