MODEL 1
REMARK VINA RESULT:     -14.3      0.000      0.000
REMARK SMILES Cc1c(Cl)cccc1NC(=O)C[C@H](C(=O)NCCCCNC(=O)c1ccc(-c2c3nc(c(-c4c(F)cccc4F)c4ccc([nH]4)c(-c4c(F)cccc4F)c4nc(c(-c5c(F)cccc5F)c5ccc2[nH]5)C=C4)C=C3)cc1)[C@H](C)c1ccccc1
REMARK SMILES IDX 18 1 17 2 16 3 14 4 15 5 13 7 12 8 10 9 9 10 11 12 8 13 1 14
REMARK SMILES IDX 2 15 3 16 4 17 5 18 7 19 6 20 78 21 79 22 80 23 81 24 85 25
REMARK SMILES IDX 82 26 84 27 83 28 19 29 20 30 21 31 22 32 23 34 24 35 25 36
REMARK SMILES IDX 77 37 26 38 76 39 27 40 28 41 29 42 70 43 30 44 75 45 69 46
REMARK SMILES IDX 71 47 31 48 74 49 68 50 67 51 32 53 58 54 41 55 57 56 42 57
REMARK SMILES IDX 45 58 56 59 72 60 43 61 44 62 55 64 73 65 46 66 33 67 34 68
REMARK SMILES IDX 39 69 35 70 36 71 38 72 40 73 37 74 59 75 60 76 65 77 61 78
REMARK SMILES IDX 62 79 64 80 66 81 63 82 47 83 48 84 53 85 49 86 50 87 52 88
REMARK SMILES IDX 54 89 51 90
REMARK H PARENT 16 6 9 11 21 33 71 52 45 63
REMARK Flexibility Score: inf
ROOT
ATOM      1  C   UNL A   1      37.270  21.965  24.871  1.00  0.00     0.023 C 
ENDROOT
BRANCH   1   2
ATOM      2  C   UNL A   1      35.884  23.092  26.127  1.00  0.00     0.116 C 
BRANCH   2   3
ATOM      3  N   UNL A   1      34.817  22.621  27.237  1.00  0.00    -0.356 N 
ATOM      4  C   UNL A   1      33.478  22.384  27.204  1.00  0.00     0.224 C 
ATOM      5  O   UNL A   1      32.923  22.126  28.275  1.00  0.00    -0.275 OA
ATOM      6  H   UNL A   1      35.216  22.474  28.124  1.00  0.00     0.163 HD
BRANCH   4   7
ATOM      7  C   UNL A   1      32.685  22.481  25.907  1.00  0.00     0.095 C 
BRANCH   7   8
ATOM      8  C   UNL A   1      31.941  23.841  25.940  1.00  0.00     0.114 C 
BRANCH   8   9
ATOM      9  C   UNL A   1      30.550  24.023  26.505  1.00  0.00     0.225 C 
ATOM     10  N   UNL A   1      29.859  25.198  26.399  1.00  0.00    -0.326 N 
ATOM     11  H   UNL A   1      29.108  25.331  27.021  1.00  0.00     0.169 HD
ATOM     12  O   UNL A   1      29.985  23.082  27.072  1.00  0.00    -0.275 OA
BRANCH  10  13
ATOM     13  C   UNL A   1      30.118  26.224  25.492  1.00  0.00     0.045 A 
ATOM     14  C   UNL A   1      32.047  27.370  27.293  1.00  0.00     0.048 C 
ATOM     15  C   UNL A   1      31.181  27.561  26.081  1.00  0.00    -0.009 A 
ATOM     16  C   UNL A   1      31.291  29.096  25.155  1.00  0.00     0.046 A 
ATOM     17  Cl  UNL A   1      32.252  30.395  25.737  1.00  0.00    -0.084 Cl
ATOM     18  C   UNL A   1      30.389  29.289  23.607  1.00  0.00     0.021 A 
ATOM     19  C   UNL A   1      29.251  26.382  23.918  1.00  0.00     0.026 A 
ATOM     20  C   UNL A   1      29.384  27.927  22.966  1.00  0.00     0.004 A 
ENDBRANCH  10  13
ENDBRANCH   8   9
ENDBRANCH   7   8
BRANCH   7  21
ATOM     21  C   UNL A   1      33.546  21.907  24.735  1.00  0.00     0.029 C 
ATOM     22  C   UNL A   1      33.548  22.657  23.405  1.00  0.00     0.013 C 
BRANCH  21  23
ATOM     23  C   UNL A   1      33.436  20.390  24.529  1.00  0.00    -0.044 A 
ATOM     24  C   UNL A   1      34.516  19.567  24.898  1.00  0.00     0.004 A 
ATOM     25  C   UNL A   1      32.386  19.820  23.796  1.00  0.00     0.004 A 
ATOM     26  C   UNL A   1      34.590  18.247  24.452  1.00  0.00     0.000 A 
ATOM     27  C   UNL A   1      32.471  18.506  23.336  1.00  0.00     0.000 A 
ATOM     28  C   UNL A   1      33.582  17.727  23.644  1.00  0.00     0.000 A 
ENDBRANCH  21  23
ENDBRANCH   7  21
ENDBRANCH   4   7
ENDBRANCH   2   3
ENDBRANCH   1   2
BRANCH   1  29
ATOM     29  C   UNL A   1      38.198  20.523  25.007  1.00  0.00     0.023 C 
BRANCH  29  30
ATOM     30  C   UNL A   1      39.339  20.409  26.009  1.00  0.00     0.116 C 
BRANCH  30  31
ATOM     31  N   UNL A   1      40.201  19.252  25.798  1.00  0.00    -0.352 N 
ATOM     32  C   UNL A   1      41.536  19.151  26.086  1.00  0.00     0.251 C 
ATOM     33  H   UNL A   1      39.776  18.457  25.404  1.00  0.00     0.163 HD
ATOM     34  O   UNL A   1      42.174  18.123  25.910  1.00  0.00    -0.269 OA
BRANCH  32  35
ATOM     35  C   UNL A   1      42.193  20.380  26.531  1.00  0.00     0.039 A 
ATOM     36  C   UNL A   1      42.583  21.279  25.541  1.00  0.00     0.014 A 
ATOM     37  C   UNL A   1      42.201  20.718  27.886  1.00  0.00     0.014 A 
ATOM     38  C   UNL A   1      42.947  22.563  25.913  1.00  0.00     0.010 A 
ATOM     39  C   UNL A   1      42.484  22.026  28.245  1.00  0.00     0.010 A 
ATOM     40  C   UNL A   1      42.863  22.952  27.260  1.00  0.00    -0.014 A 
BRANCH  40  41
ATOM     41  C   UNL A   1      43.209  24.336  27.638  1.00  0.00     0.031 A 
ATOM     42  C   UNL A   1      44.643  24.769  27.585  1.00  0.00     0.074 A 
ATOM     43  C   UNL A   1      42.230  25.185  28.006  1.00  0.00     0.049 A 
ATOM     44  N   UNL A   1      45.156  25.942  27.840  1.00  0.00    -0.248 NA
ATOM     45  C   UNL A   1      45.634  23.745  27.214  1.00  0.00     0.031 C 
ATOM     46  C   UNL A   1      40.809  24.843  28.114  1.00  0.00     0.029 A 
ATOM     47  N   UNL A   1      42.278  26.512  28.341  1.00  0.00    -0.354 N 
ATOM     48  C   UNL A   1      46.525  25.794  27.663  1.00  0.00     0.074 A 
ATOM     49  C   UNL A   1      46.771  24.408  27.346  1.00  0.00     0.031 C 
ATOM     50  C   UNL A   1      40.115  25.943  28.448  1.00  0.00     0.029 A 
ATOM     51  C   UNL A   1      41.045  27.054  28.621  1.00  0.00     0.049 A 
ATOM     52  H   UNL A   1      43.114  27.029  28.377  1.00  0.00     0.167 HD
ATOM     53  C   UNL A   1      47.484  26.744  27.732  1.00  0.00     0.037 A 
ATOM     54  C   UNL A   1      40.714  28.307  28.981  1.00  0.00     0.037 A 
ATOM     55  C   UNL A   1      47.215  28.123  28.036  1.00  0.00     0.049 A 
ATOM     56  C   UNL A   1      41.812  29.332  29.089  1.00  0.00     0.074 A 
ATOM     57  C   UNL A   1      48.104  29.179  28.096  1.00  0.00     0.029 A 
ATOM     58  N   UNL A   1      45.960  28.631  28.339  1.00  0.00    -0.354 N 
ATOM     59  N   UNL A   1      43.097  29.197  28.855  1.00  0.00    -0.248 NA
ATOM     60  C   UNL A   1      41.417  30.684  29.504  1.00  0.00     0.031 C 
ATOM     61  C   UNL A   1      47.398  30.314  28.505  1.00  0.00     0.029 A 
ATOM     62  C   UNL A   1      46.057  29.982  28.621  1.00  0.00     0.049 A 
ATOM     63  H   UNL A   1      45.126  28.109  28.350  1.00  0.00     0.167 HD
ATOM     64  C   UNL A   1      43.655  30.452  29.059  1.00  0.00     0.074 A 
ATOM     65  C   UNL A   1      42.566  31.337  29.417  1.00  0.00     0.031 C 
ATOM     66  C   UNL A   1      44.951  30.841  28.963  1.00  0.00     0.037 A 
BRANCH  53  67
ATOM     67  C   UNL A   1      48.903  26.320  27.490  1.00  0.00     0.057 A 
ATOM     68  C   UNL A   1      49.478  26.340  26.212  1.00  0.00     0.134 A 
ATOM     69  C   UNL A   1      49.716  25.919  28.557  1.00  0.00     0.134 A 
ATOM     70  F   UNL A   1      48.749  26.694  25.143  1.00  0.00    -0.206 F 
ATOM     71  C   UNL A   1      50.804  25.957  26.002  1.00  0.00     0.040 A 
ATOM     72  C   UNL A   1      51.052  25.565  28.365  1.00  0.00     0.040 A 
ATOM     73  F   UNL A   1      49.228  25.875  29.806  1.00  0.00    -0.206 F 
ATOM     74  C   UNL A   1      51.598  25.578  27.083  1.00  0.00     0.006 A 
ENDBRANCH  53  67
BRANCH  54  75
ATOM     75  C   UNL A   1      39.300  28.667  29.266  1.00  0.00     0.057 A 
ATOM     76  C   UNL A   1      38.476  29.225  28.281  1.00  0.00     0.134 A 
ATOM     77  C   UNL A   1      38.748  28.498  30.542  1.00  0.00     0.134 A 
ATOM     78  F   UNL A   1      38.946  29.424  27.041  1.00  0.00    -0.206 F 
ATOM     79  C   UNL A   1      37.171  29.636  28.562  1.00  0.00     0.040 A 
ATOM     80  C   UNL A   1      37.434  28.873  30.829  1.00  0.00     0.040 A 
ATOM     81  F   UNL A   1      39.476  27.958  31.530  1.00  0.00    -0.206 F 
ATOM     82  C   UNL A   1      36.646  29.458  29.841  1.00  0.00     0.006 A 
ENDBRANCH  54  75
BRANCH  66  83
ATOM     83  C   UNL A   1      45.250  32.293  29.200  1.00  0.00     0.057 A 
ATOM     84  C   UNL A   1      45.660  32.775  30.449  1.00  0.00     0.134 A 
ATOM     85  C   UNL A   1      45.170  33.212  28.146  1.00  0.00     0.134 A 
ATOM     86  F   UNL A   1      45.747  31.949  31.503  1.00  0.00    -0.206 F 
ATOM     87  C   UNL A   1      45.947  34.126  30.649  1.00  0.00     0.040 A 
ATOM     88  C   UNL A   1      45.491  34.557  28.323  1.00  0.00     0.040 A 
ATOM     89  F   UNL A   1      44.797  32.814  26.919  1.00  0.00    -0.206 F 
ATOM     90  C   UNL A   1      45.872  35.019  29.582  1.00  0.00     0.006 A 
ENDBRANCH  66  83
ENDBRANCH  40  41
ENDBRANCH  32  35
ENDBRANCH  30  31
ENDBRANCH  29  30
ENDBRANCH   1  29
TORSDOF 16
ENDMDL
MODEL 2
REMARK VINA RESULT:     -14.1      0.609      6.204
REMARK SMILES Cc1c(Cl)cccc1NC(=O)C[C@H](C(=O)NCCCCNC(=O)c1ccc(-c2c3nc(c(-c4c(F)cccc4F)c4ccc([nH]4)c(-c4c(F)cccc4F)c4nc(c(-c5c(F)cccc5F)c5ccc2[nH]5)C=C4)C=C3)cc1)[C@H](C)c1ccccc1
REMARK SMILES IDX 18 1 17 2 16 3 14 4 15 5 13 7 12 8 10 9 9 10 11 12 8 13 1 14
REMARK SMILES IDX 2 15 3 16 4 17 5 18 7 19 6 20 78 21 79 22 80 23 81 24 85 25
REMARK SMILES IDX 82 26 84 27 83 28 19 29 20 30 21 31 22 32 23 34 24 35 25 36
REMARK SMILES IDX 77 37 26 38 76 39 27 40 28 41 29 42 70 43 30 44 75 45 69 46
REMARK SMILES IDX 71 47 31 48 74 49 68 50 67 51 32 53 58 54 41 55 57 56 42 57
REMARK SMILES IDX 45 58 56 59 72 60 43 61 44 62 55 64 73 65 46 66 33 67 34 68
REMARK SMILES IDX 39 69 35 70 36 71 38 72 40 73 37 74 59 75 60 76 65 77 61 78
REMARK SMILES IDX 62 79 64 80 66 81 63 82 47 83 48 84 53 85 49 86 50 87 52 88
REMARK SMILES IDX 54 89 51 90
REMARK H PARENT 16 6 9 11 21 33 71 52 45 63
REMARK Flexibility Score: inf
ROOT
ATOM      1  C   UNL A   1      37.387  22.211  24.965  1.00  0.00     0.023 C 
ENDROOT
BRANCH   1   2
ATOM      2  C   UNL A   1      35.886  23.263  26.154  1.00  0.00     0.116 C 
BRANCH   2   3
ATOM      3  N   UNL A   1      34.833  22.743  27.255  1.00  0.00    -0.356 N 
ATOM      4  C   UNL A   1      33.508  22.445  27.212  1.00  0.00     0.224 C 
ATOM      5  O   UNL A   1      32.956  22.162  28.279  1.00  0.00    -0.275 OA
ATOM      6  H   UNL A   1      35.232  22.613  28.146  1.00  0.00     0.163 HD
BRANCH   4   7
ATOM      7  C   UNL A   1      32.721  22.507  25.909  1.00  0.00     0.095 C 
BRANCH   7   8
ATOM      8  C   UNL A   1      31.976  23.866  25.901  1.00  0.00     0.114 C 
BRANCH   8   9
ATOM      9  C   UNL A   1      30.638  24.095  26.567  1.00  0.00     0.225 C 
ATOM     10  N   UNL A   1      29.979  25.291  26.506  1.00  0.00    -0.326 N 
ATOM     11  H   UNL A   1      29.281  25.450  27.182  1.00  0.00     0.169 HD
ATOM     12  O   UNL A   1      30.088  23.175  27.181  1.00  0.00    -0.275 OA
BRANCH  10  13
ATOM     13  C   UNL A   1      30.201  26.305  25.576  1.00  0.00     0.045 A 
ATOM     14  C   UNL A   1      32.171  27.497  27.301  1.00  0.00     0.048 C 
ATOM     15  C   UNL A   1      31.268  27.661  26.112  1.00  0.00    -0.009 A 
ATOM     16  C   UNL A   1      31.336  29.182  25.160  1.00  0.00     0.046 A 
ATOM     17  Cl  UNL A   1      32.302  30.499  25.692  1.00  0.00    -0.084 Cl
ATOM     18  C   UNL A   1      30.387  29.342  23.636  1.00  0.00     0.021 A 
ATOM     19  C   UNL A   1      29.287  26.429  24.026  1.00  0.00     0.026 A 
ATOM     20  C   UNL A   1      29.376  27.960  23.046  1.00  0.00     0.004 A 
ENDBRANCH  10  13
ENDBRANCH   8   9
ENDBRANCH   7   8
BRANCH   7  21
ATOM     21  C   UNL A   1      33.588  21.900  24.757  1.00  0.00     0.029 C 
ATOM     22  C   UNL A   1      33.569  22.593  23.397  1.00  0.00     0.013 C 
BRANCH  21  23
ATOM     23  C   UNL A   1      33.508  20.374  24.616  1.00  0.00    -0.044 A 
ATOM     24  C   UNL A   1      34.658  19.602  24.864  1.00  0.00     0.004 A 
ATOM     25  C   UNL A   1      32.393  19.744  24.049  1.00  0.00     0.004 A 
ATOM     26  C   UNL A   1      34.721  18.269  24.455  1.00  0.00     0.000 A 
ATOM     27  C   UNL A   1      32.465  18.418  23.624  1.00  0.00     0.000 A 
ATOM     28  C   UNL A   1      33.635  17.687  23.806  1.00  0.00     0.000 A 
ENDBRANCH  21  23
ENDBRANCH   7  21
ENDBRANCH   4   7
ENDBRANCH   2   3
ENDBRANCH   1   2
BRANCH   1  29
ATOM     29  C   UNL A   1      38.277  20.745  25.081  1.00  0.00     0.023 C 
BRANCH  29  30
ATOM     30  C   UNL A   1      39.422  20.592  26.076  1.00  0.00     0.116 C 
BRANCH  30  31
ATOM     31  N   UNL A   1      40.205  19.376  25.895  1.00  0.00    -0.352 N 
ATOM     32  C   UNL A   1      41.546  19.214  26.127  1.00  0.00     0.251 C 
ATOM     33  H   UNL A   1      39.718  18.585  25.571  1.00  0.00     0.163 HD
ATOM     34  O   UNL A   1      42.116  18.142  25.983  1.00  0.00    -0.269 OA
BRANCH  32  35
ATOM     35  C   UNL A   1      42.292  20.426  26.465  1.00  0.00     0.039 A 
ATOM     36  C   UNL A   1      42.807  21.165  25.402  1.00  0.00     0.014 A 
ATOM     37  C   UNL A   1      42.268  20.919  27.771  1.00  0.00     0.014 A 
ATOM     38  C   UNL A   1      43.270  22.448  25.647  1.00  0.00     0.010 A 
ATOM     39  C   UNL A   1      42.653  22.231  27.995  1.00  0.00     0.010 A 
ATOM     40  C   UNL A   1      43.160  22.999  26.934  1.00  0.00    -0.014 A 
BRANCH  40  41
ATOM     41  C   UNL A   1      43.614  24.384  27.171  1.00  0.00     0.031 A 
ATOM     42  C   UNL A   1      42.621  25.408  27.628  1.00  0.00     0.074 A 
ATOM     43  C   UNL A   1      44.912  24.693  26.990  1.00  0.00     0.049 A 
ATOM     44  N   UNL A   1      42.815  26.664  27.926  1.00  0.00    -0.248 NA
ATOM     45  C   UNL A   1      41.220  24.969  27.749  1.00  0.00     0.031 C 
ATOM     46  C   UNL A   1      45.946  23.767  26.519  1.00  0.00     0.029 A 
ATOM     47  N   UNL A   1      45.588  25.867  27.194  1.00  0.00    -0.354 N 
ATOM     48  C   UNL A   1      41.564  27.162  28.266  1.00  0.00     0.074 A 
ATOM     49  C   UNL A   1      40.609  26.097  28.074  1.00  0.00     0.031 C 
ATOM     50  C   UNL A   1      47.132  24.397  26.511  1.00  0.00     0.029 A 
ATOM     51  C   UNL A   1      46.934  25.780  26.932  1.00  0.00     0.049 A 
ATOM     52  H   UNL A   1      45.150  26.694  27.499  1.00  0.00     0.167 HD
ATOM     53  C   UNL A   1      41.252  28.394  28.726  1.00  0.00     0.037 A 
ATOM     54  C   UNL A   1      47.894  26.719  27.020  1.00  0.00     0.037 A 
ATOM     55  C   UNL A   1      42.221  29.437  28.923  1.00  0.00     0.049 A 
ATOM     56  C   UNL A   1      47.506  28.094  27.497  1.00  0.00     0.074 A 
ATOM     57  C   UNL A   1      42.024  30.711  29.419  1.00  0.00     0.029 A 
ATOM     58  N   UNL A   1      43.571  29.322  28.625  1.00  0.00    -0.354 N 
ATOM     59  N   UNL A   1      46.330  28.536  27.879  1.00  0.00    -0.248 NA
ATOM     60  C   UNL A   1      48.575  29.098  27.562  1.00  0.00     0.031 C 
ATOM     61  C   UNL A   1      43.242  31.392  29.355  1.00  0.00     0.029 A 
ATOM     62  C   UNL A   1      44.214  30.517  28.894  1.00  0.00     0.049 A 
ATOM     63  H   UNL A   1      44.007  28.512  28.275  1.00  0.00     0.167 HD
ATOM     64  C   UNL A   1      46.526  29.856  28.262  1.00  0.00     0.074 A 
ATOM     65  C   UNL A   1      47.936  30.135  28.084  1.00  0.00     0.031 C 
ATOM     66  C   UNL A   1      45.624  30.761  28.718  1.00  0.00     0.037 A 
BRANCH  53  67
ATOM     67  C   UNL A   1      39.810  28.679  29.029  1.00  0.00     0.057 A 
ATOM     68  C   UNL A   1      39.264  28.479  30.304  1.00  0.00     0.134 A 
ATOM     69  C   UNL A   1      38.965  29.196  28.039  1.00  0.00     0.134 A 
ATOM     70  F   UNL A   1      40.012  27.968  31.293  1.00  0.00    -0.206 F 
ATOM     71  C   UNL A   1      37.924  28.762  30.577  1.00  0.00     0.040 A 
ATOM     72  C   UNL A   1      37.633  29.513  28.308  1.00  0.00     0.040 A 
ATOM     73  F   UNL A   1      39.423  29.409  26.796  1.00  0.00    -0.206 F 
ATOM     74  C   UNL A   1      37.108  29.292  29.579  1.00  0.00     0.006 A 
ENDBRANCH  53  67
BRANCH  54  75
ATOM     75  C   UNL A   1      49.300  26.405  26.655  1.00  0.00     0.057 A 
ATOM     76  C   UNL A   1      50.181  25.821  27.575  1.00  0.00     0.134 A 
ATOM     77  C   UNL A   1      49.811  26.715  25.389  1.00  0.00     0.134 A 
ATOM     78  F   UNL A   1      49.759  25.510  28.809  1.00  0.00    -0.206 F 
ATOM     79  C   UNL A   1      51.523  25.595  27.263  1.00  0.00     0.040 A 
ATOM     80  C   UNL A   1      51.142  26.462  25.051  1.00  0.00     0.040 A 
ATOM     81  F   UNL A   1      49.021  27.263  24.454  1.00  0.00    -0.206 F 
ATOM     82  C   UNL A   1      52.007  25.914  25.996  1.00  0.00     0.006 A 
ENDBRANCH  54  75
BRANCH  66  83
ATOM     83  C   UNL A   1      46.145  32.116  29.101  1.00  0.00     0.057 A 
ATOM     84  C   UNL A   1      46.184  33.183  28.196  1.00  0.00     0.134 A 
ATOM     85  C   UNL A   1      46.571  32.363  30.413  1.00  0.00     0.134 A 
ATOM     86  F   UNL A   1      45.799  33.009  26.922  1.00  0.00    -0.206 F 
ATOM     87  C   UNL A   1      46.659  34.439  28.573  1.00  0.00     0.040 A 
ATOM     88  C   UNL A   1      47.012  33.624  30.811  1.00  0.00     0.040 A 
ATOM     89  F   UNL A   1      46.547  31.388  31.335  1.00  0.00    -0.206 F 
ATOM     90  C   UNL A   1      47.066  34.665  29.886  1.00  0.00     0.006 A 
ENDBRANCH  66  83
ENDBRANCH  40  41
ENDBRANCH  32  35
ENDBRANCH  30  31
ENDBRANCH  29  30
ENDBRANCH   1  29
TORSDOF 16
ENDMDL
MODEL 3
REMARK VINA RESULT:     -13.9      4.990     10.304
REMARK SMILES Cc1c(Cl)cccc1NC(=O)C[C@H](C(=O)NCCCCNC(=O)c1ccc(-c2c3nc(c(-c4c(F)cccc4F)c4ccc([nH]4)c(-c4c(F)cccc4F)c4nc(c(-c5c(F)cccc5F)c5ccc2[nH]5)C=C4)C=C3)cc1)[C@H](C)c1ccccc1
REMARK SMILES IDX 18 1 17 2 16 3 14 4 15 5 13 7 12 8 10 9 9 10 11 12 8 13 1 14
REMARK SMILES IDX 2 15 3 16 4 17 5 18 7 19 6 20 78 21 79 22 80 23 81 24 85 25
REMARK SMILES IDX 82 26 84 27 83 28 19 29 20 30 21 31 22 32 23 34 24 35 25 36
REMARK SMILES IDX 77 37 26 38 76 39 27 40 28 41 29 42 70 43 30 44 75 45 69 46
REMARK SMILES IDX 71 47 31 48 74 49 68 50 67 51 32 53 58 54 41 55 57 56 42 57
REMARK SMILES IDX 45 58 56 59 72 60 43 61 44 62 55 64 73 65 46 66 33 67 34 68
REMARK SMILES IDX 39 69 35 70 36 71 38 72 40 73 37 74 59 75 60 76 65 77 61 78
REMARK SMILES IDX 62 79 64 80 66 81 63 82 47 83 48 84 53 85 49 86 50 87 52 88
REMARK SMILES IDX 54 89 51 90
REMARK H PARENT 16 6 9 11 21 33 71 52 45 63
REMARK Flexibility Score: inf
ROOT
ATOM      1  C   UNL A   1      32.151  30.287  26.962  1.00  0.00     0.023 C 
ENDROOT
BRANCH   1   2
ATOM      2  C   UNL A   1      33.395  28.987  25.724  1.00  0.00     0.116 C 
BRANCH   2   3
ATOM      3  N   UNL A   1      33.793  29.050  24.165  1.00  0.00    -0.356 N 
ATOM      4  C   UNL A   1      33.381  28.362  23.068  1.00  0.00     0.224 C 
ATOM      5  O   UNL A   1      33.969  28.586  22.006  1.00  0.00    -0.275 OA
ATOM      6  H   UNL A   1      34.477  29.729  23.965  1.00  0.00     0.163 HD
BRANCH   4   7
ATOM      7  C   UNL A   1      32.273  27.320  23.152  1.00  0.00     0.095 C 
BRANCH   7   8
ATOM      8  C   UNL A   1      32.961  25.932  23.094  1.00  0.00     0.114 C 
BRANCH   8   9
ATOM      9  C   UNL A   1      33.051  25.091  21.841  1.00  0.00     0.225 C 
ATOM     10  N   UNL A   1      33.451  23.784  21.857  1.00  0.00    -0.326 N 
ATOM     11  H   UNL A   1      33.755  23.400  21.003  1.00  0.00     0.169 HD
ATOM     12  O   UNL A   1      32.739  25.575  20.748  1.00  0.00    -0.275 OA
BRANCH  10  13
ATOM     13  C   UNL A   1      33.465  22.943  22.969  1.00  0.00     0.045 A 
ATOM     14  C   UNL A   1      36.305  23.311  23.248  1.00  0.00     0.048 C 
ATOM     15  C   UNL A   1      35.093  22.503  23.616  1.00  0.00    -0.009 A 
ATOM     16  C   UNL A   1      35.259  21.159  24.796  1.00  0.00     0.046 A 
ATOM     17  Cl  UNL A   1      36.808  20.694  25.373  1.00  0.00    -0.084 Cl
ATOM     18  C   UNL A   1      33.798  20.280  25.382  1.00  0.00     0.021 A 
ATOM     19  C   UNL A   1      31.989  22.109  23.585  1.00  0.00     0.026 A 
ATOM     20  C   UNL A   1      32.153  20.764  24.800  1.00  0.00     0.004 A 
ENDBRANCH  10  13
ENDBRANCH   8   9
ENDBRANCH   7   8
BRANCH   7  21
ATOM     21  C   UNL A   1      31.198  27.797  24.182  1.00  0.00     0.029 C 
ATOM     22  C   UNL A   1      30.654  26.779  25.183  1.00  0.00     0.013 C 
BRANCH  21  23
ATOM     23  C   UNL A   1      30.079  28.670  23.599  1.00  0.00    -0.044 A 
ATOM     24  C   UNL A   1      30.161  30.069  23.732  1.00  0.00     0.004 A 
ATOM     25  C   UNL A   1      28.882  28.116  23.127  1.00  0.00     0.004 A 
ATOM     26  C   UNL A   1      29.043  30.872  23.502  1.00  0.00     0.000 A 
ATOM     27  C   UNL A   1      27.761  28.919  22.915  1.00  0.00     0.000 A 
ATOM     28  C   UNL A   1      27.835  30.293  23.124  1.00  0.00     0.000 A 
ENDBRANCH  21  23
ENDBRANCH   7  21
ENDBRANCH   4   7
ENDBRANCH   2   3
ENDBRANCH   1   2
BRANCH   1  29
ATOM     29  C   UNL A   1      31.569  31.903  26.893  1.00  0.00     0.023 C 
BRANCH  29  30
ATOM     30  C   UNL A   1      32.519  33.079  26.701  1.00  0.00     0.116 C 
BRANCH  30  31
ATOM     31  N   UNL A   1      32.292  34.182  27.626  1.00  0.00    -0.352 N 
ATOM     32  C   UNL A   1      33.105  34.582  28.654  1.00  0.00     0.251 C 
ATOM     33  H   UNL A   1      31.463  34.697  27.498  1.00  0.00     0.163 HD
ATOM     34  O   UNL A   1      32.852  35.548  29.359  1.00  0.00    -0.269 OA
BRANCH  32  35
ATOM     35  C   UNL A   1      34.257  33.725  28.933  1.00  0.00     0.039 A 
ATOM     36  C   UNL A   1      35.519  34.288  28.756  1.00  0.00     0.014 A 
ATOM     37  C   UNL A   1      34.075  32.494  29.568  1.00  0.00     0.014 A 
ATOM     38  C   UNL A   1      36.622  33.624  29.266  1.00  0.00     0.010 A 
ATOM     39  C   UNL A   1      35.170  31.877  30.151  1.00  0.00     0.010 A 
ATOM     40  C   UNL A   1      36.449  32.437  29.998  1.00  0.00    -0.014 A 
BRANCH  40  41
ATOM     41  C   UNL A   1      37.628  31.764  30.577  1.00  0.00     0.031 A 
ATOM     42  C   UNL A   1      38.012  32.058  31.995  1.00  0.00     0.074 A 
ATOM     43  C   UNL A   1      38.322  30.886  29.827  1.00  0.00     0.049 A 
ATOM     44  N   UNL A   1      38.985  31.553  32.704  1.00  0.00    -0.248 NA
ATOM     45  C   UNL A   1      37.210  33.069  32.705  1.00  0.00     0.031 C 
ATOM     46  C   UNL A   1      38.037  30.558  28.427  1.00  0.00     0.029 A 
ATOM     47  N   UNL A   1      39.399  30.099  30.139  1.00  0.00    -0.354 N 
ATOM     48  C   UNL A   1      38.911  32.185  33.937  1.00  0.00     0.074 A 
ATOM     49  C   UNL A   1      37.846  33.156  33.862  1.00  0.00     0.031 C 
ATOM     50  C   UNL A   1      38.891  29.606  28.016  1.00  0.00     0.029 A 
ATOM     51  C   UNL A   1      39.808  29.291  29.105  1.00  0.00     0.049 A 
ATOM     52  H   UNL A   1      39.836  30.111  31.020  1.00  0.00     0.167 HD
ATOM     53  C   UNL A   1      39.652  31.949  35.043  1.00  0.00     0.037 A 
ATOM     54  C   UNL A   1      40.816  28.402  29.051  1.00  0.00     0.037 A 
ATOM     55  C   UNL A   1      40.700  30.967  35.101  1.00  0.00     0.049 A 
ATOM     56  C   UNL A   1      41.649  28.192  30.288  1.00  0.00     0.074 A 
ATOM     57  C   UNL A   1      41.491  30.616  36.178  1.00  0.00     0.029 A 
ATOM     58  N   UNL A   1      41.105  30.184  34.029  1.00  0.00    -0.354 N 
ATOM     59  N   UNL A   1      41.529  28.747  31.472  1.00  0.00    -0.248 NA
ATOM     60  C   UNL A   1      42.753  27.229  30.187  1.00  0.00     0.031 C 
ATOM     61  C   UNL A   1      42.423  29.671  35.740  1.00  0.00     0.029 A 
ATOM     62  C   UNL A   1      42.160  29.375  34.411  1.00  0.00     0.049 A 
ATOM     63  H   UNL A   1      40.701  30.201  33.131  1.00  0.00     0.167 HD
ATOM     64  C   UNL A   1      42.517  28.176  32.263  1.00  0.00     0.074 A 
ATOM     65  C   UNL A   1      43.213  27.217  31.429  1.00  0.00     0.031 C 
ATOM     66  C   UNL A   1      42.826  28.420  33.560  1.00  0.00     0.037 A 
BRANCH  53  67
ATOM     67  C   UNL A   1      39.365  32.773  36.264  1.00  0.00     0.057 A 
ATOM     68  C   UNL A   1      38.464  32.352  37.251  1.00  0.00     0.134 A 
ATOM     69  C   UNL A   1      40.027  33.990  36.470  1.00  0.00     0.134 A 
ATOM     70  F   UNL A   1      37.781  31.206  37.106  1.00  0.00    -0.206 F 
ATOM     71  C   UNL A   1      38.217  33.122  38.389  1.00  0.00     0.040 A 
ATOM     72  C   UNL A   1      39.812  34.752  37.619  1.00  0.00     0.040 A 
ATOM     73  F   UNL A   1      40.900  34.453  35.563  1.00  0.00    -0.206 F 
ATOM     74  C   UNL A   1      38.901  34.321  38.580  1.00  0.00     0.006 A 
ENDBRANCH  53  67
BRANCH  54  75
ATOM     75  C   UNL A   1      41.099  27.648  27.801  1.00  0.00     0.057 A 
ATOM     76  C   UNL A   1      41.902  28.188  26.789  1.00  0.00     0.134 A 
ATOM     77  C   UNL A   1      40.541  26.384  27.570  1.00  0.00     0.134 A 
ATOM     78  F   UNL A   1      42.458  29.399  26.941  1.00  0.00    -0.206 F 
ATOM     79  C   UNL A   1      42.108  27.518  25.581  1.00  0.00     0.040 A 
ATOM     80  C   UNL A   1      40.767  25.688  26.382  1.00  0.00     0.040 A 
ATOM     81  F   UNL A   1      39.772  25.801  28.502  1.00  0.00    -0.206 F 
ATOM     82  C   UNL A   1      41.540  26.263  25.376  1.00  0.00     0.006 A 
ENDBRANCH  54  75
BRANCH  66  83
ATOM     83  C   UNL A   1      43.930  27.604  34.168  1.00  0.00     0.057 A 
ATOM     84  C   UNL A   1      45.253  28.059  34.218  1.00  0.00     0.134 A 
ATOM     85  C   UNL A   1      43.650  26.362  34.754  1.00  0.00     0.134 A 
ATOM     86  F   UNL A   1      45.588  29.236  33.666  1.00  0.00    -0.206 F 
ATOM     87  C   UNL A   1      46.264  27.293  34.798  1.00  0.00     0.040 A 
ATOM     88  C   UNL A   1      44.645  25.605  35.371  1.00  0.00     0.040 A 
ATOM     89  F   UNL A   1      42.400  25.873  34.754  1.00  0.00    -0.206 F 
ATOM     90  C   UNL A   1      45.960  26.067  35.385  1.00  0.00     0.006 A 
ENDBRANCH  66  83
ENDBRANCH  40  41
ENDBRANCH  32  35
ENDBRANCH  30  31
ENDBRANCH  29  30
ENDBRANCH   1  29
TORSDOF 16
ENDMDL
