MODEL 1
REMARK VINA RESULT:     -10.6      0.000      0.000
REMARK SMILES COC(=O)[C@@H](C)S(=O)(=O)N(C)c1snc(C)c1C(=O)NCCCCNC(=O)c1ccc(-c2c3nc(c(-c4c(F)cccc4F)c4ccc([nH]4)c(-c4c(F)cccc4F)c4nc(c(-c5c(F)cccc5F)c5ccc2[nH]5)C=C4)C=C3)cc1
REMARK SMILES IDX 21 1 20 2 18 3 19 4 17 6 12 7 13 8 14 9 15 10 16 11 10 12
REMARK SMILES IDX 11 13 7 14 8 15 9 16 5 17 6 18 3 19 4 20 2 21 1 22 22 23
REMARK SMILES IDX 23 24 24 25 25 26 26 27 27 29 28 30 29 31 81 32 30 33 80 34
REMARK SMILES IDX 31 35 32 36 33 37 74 38 34 39 79 40 73 41 75 42 35 43 78 44
REMARK SMILES IDX 72 45 71 46 36 48 62 49 45 50 61 51 46 52 49 53 60 54 76 55
REMARK SMILES IDX 47 56 48 57 59 59 77 60 50 61 37 62 38 63 43 64 39 65 40 66
REMARK SMILES IDX 42 67 44 68 41 69 63 70 64 71 69 72 65 73 66 74 68 75 70 76
REMARK SMILES IDX 67 77 51 78 52 79 57 80 53 81 54 82 56 83 58 84 55 85
REMARK H PARENT 20 5 25 28 75 47 49 58
REMARK Flexibility Score: inf
ROOT
ATOM      1  C   UNL A   1      36.094  22.159  25.551  1.00  0.00     0.116 C 
ENDROOT
BRANCH   1   2
ATOM      2  N   UNL A   1      35.018  22.456  26.447  1.00  0.00    -0.352 N 
ATOM      3  C   UNL A   1      33.670  22.207  26.274  1.00  0.00     0.256 C 
ATOM      4  O   UNL A   1      32.975  22.388  27.278  1.00  0.00    -0.269 OA
ATOM      5  H   UNL A   1      35.269  22.894  27.292  1.00  0.00     0.163 HD
BRANCH   3   6
ATOM      6  C   UNL A   1      33.042  21.839  24.993  1.00  0.00     0.098 A 
ATOM      7  C   UNL A   1      32.541  22.618  23.943  1.00  0.00     0.138 A 
ATOM      8  S   UNL A   1      32.098  21.573  22.638  1.00  0.00    -0.017 S 
ATOM      9  N   UNL A   1      32.351  20.166  23.418  1.00  0.00    -0.195 NA
ATOM     10  C   UNL A   1      32.859  20.420  24.623  1.00  0.00     0.066 A 
ATOM     11  C   UNL A   1      33.122  19.200  25.449  1.00  0.00     0.069 C 
BRANCH   7  12
ATOM     12  N   UNL A   1      32.320  24.073  23.851  1.00  0.00    -0.261 N 
ATOM     13  C   UNL A   1      30.935  24.414  23.401  1.00  0.00     0.164 C 
BRANCH  12  14
ATOM     14  S   UNL A   1      33.581  24.819  22.946  1.00  0.00     0.249 S 
ATOM     15  O   UNL A   1      33.047  25.114  21.626  1.00  0.00    -0.206 OA
ATOM     16  O   UNL A   1      34.738  23.957  23.071  1.00  0.00    -0.206 OA
BRANCH  14  17
ATOM     17  C   UNL A   1      34.020  26.349  23.768  1.00  0.00     0.236 C 
ATOM     18  C   UNL A   1      33.797  26.509  25.261  1.00  0.00     0.039 C 
BRANCH  17  19
ATOM     19  C   UNL A   1      33.394  27.508  23.067  1.00  0.00     0.325 C 
ATOM     20  O   UNL A   1      33.993  28.234  22.293  1.00  0.00    -0.251 OA
BRANCH  19  21
ATOM     21  O   UNL A   1      32.139  27.737  23.546  1.00  0.00    -0.468 OA
ATOM     22  C   UNL A   1      31.318  28.515  22.679  1.00  0.00     0.282 C 
ENDBRANCH  19  21
ENDBRANCH  17  19
ENDBRANCH  14  17
ENDBRANCH  12  14
ENDBRANCH   7  12
ENDBRANCH   3   6
ENDBRANCH   1   2
BRANCH   1  23
ATOM     23  C   UNL A   1      36.458  20.695  25.294  1.00  0.00     0.023 C 
BRANCH  23  24
ATOM     24  C   UNL A   1      37.888  20.331  24.862  1.00  0.00     0.023 C 
BRANCH  24  25
ATOM     25  C   UNL A   1      39.000  20.452  25.902  1.00  0.00     0.116 C 
BRANCH  25  26
ATOM     26  N   UNL A   1      40.072  19.462  25.792  1.00  0.00    -0.352 N 
ATOM     27  C   UNL A   1      41.439  19.668  25.919  1.00  0.00     0.251 C 
ATOM     28  H   UNL A   1      39.789  18.538  25.605  1.00  0.00     0.163 HD
ATOM     29  O   UNL A   1      42.231  18.809  25.546  1.00  0.00    -0.269 OA
BRANCH  27  30
ATOM     30  C   UNL A   1      41.942  20.923  26.521  1.00  0.00     0.039 A 
ATOM     31  C   UNL A   1      42.189  22.059  25.741  1.00  0.00     0.014 A 
ATOM     32  C   UNL A   1      42.152  20.966  27.898  1.00  0.00     0.014 A 
ATOM     33  C   UNL A   1      42.536  23.253  26.375  1.00  0.00     0.010 A 
ATOM     34  C   UNL A   1      42.386  22.160  28.535  1.00  0.00     0.010 A 
ATOM     35  C   UNL A   1      42.593  23.304  27.778  1.00  0.00    -0.014 A 
BRANCH  35  36
ATOM     36  C   UNL A   1      42.587  24.585  28.479  1.00  0.00     0.031 A 
ATOM     37  C   UNL A   1      41.325  25.342  28.248  1.00  0.00     0.074 A 
ATOM     38  C   UNL A   1      43.457  24.925  29.454  1.00  0.00     0.049 A 
ATOM     39  N   UNL A   1      41.162  26.395  27.518  1.00  0.00    -0.248 NA
ATOM     40  C   UNL A   1      40.057  24.738  28.704  1.00  0.00     0.031 C 
ATOM     41  C   UNL A   1      44.527  24.108  30.033  1.00  0.00     0.029 A 
ATOM     42  N   UNL A   1      43.503  26.055  30.216  1.00  0.00    -0.354 N 
ATOM     43  C   UNL A   1      39.819  26.737  27.655  1.00  0.00     0.074 A 
ATOM     44  C   UNL A   1      39.162  25.560  28.152  1.00  0.00     0.031 C 
ATOM     45  C   UNL A   1      44.960  24.673  31.184  1.00  0.00     0.029 A 
ATOM     46  C   UNL A   1      44.315  25.964  31.347  1.00  0.00     0.049 A 
ATOM     47  H   UNL A   1      43.002  26.870  29.986  1.00  0.00     0.167 HD
ATOM     48  C   UNL A   1      39.444  28.047  27.680  1.00  0.00     0.037 A 
ATOM     49  C   UNL A   1      44.421  26.876  32.348  1.00  0.00     0.037 A 
ATOM     50  C   UNL A   1      40.506  28.883  27.161  1.00  0.00     0.049 A 
ATOM     51  C   UNL A   1      43.885  28.159  31.832  1.00  0.00     0.074 A 
ATOM     52  C   UNL A   1      41.237  28.928  25.989  1.00  0.00     0.029 A 
ATOM     53  N   UNL A   1      41.233  29.605  28.077  1.00  0.00    -0.354 N 
ATOM     54  N   UNL A   1      44.461  28.866  30.903  1.00  0.00    -0.248 NA
ATOM     55  C   UNL A   1      42.467  28.419  32.027  1.00  0.00     0.031 C 
ATOM     56  C   UNL A   1      42.568  29.248  26.394  1.00  0.00     0.029 A 
ATOM     57  C   UNL A   1      42.560  29.471  27.770  1.00  0.00     0.049 A 
ATOM     58  H   UNL A   1      40.863  30.127  28.825  1.00  0.00     0.167 HD
ATOM     59  C   UNL A   1      43.418  29.297  30.098  1.00  0.00     0.074 A 
ATOM     60  C   UNL A   1      42.210  29.075  30.893  1.00  0.00     0.031 C 
ATOM     61  C   UNL A   1      43.609  29.503  28.762  1.00  0.00     0.037 A 
BRANCH  48  62
ATOM     62  C   UNL A   1      38.367  28.609  28.593  1.00  0.00     0.057 A 
ATOM     63  C   UNL A   1      37.503  29.595  28.076  1.00  0.00     0.134 A 
ATOM     64  C   UNL A   1      38.339  28.485  29.998  1.00  0.00     0.134 A 
ATOM     65  F   UNL A   1      37.418  29.811  26.754  1.00  0.00    -0.206 F 
ATOM     66  C   UNL A   1      36.778  30.470  28.895  1.00  0.00     0.040 A 
ATOM     67  C   UNL A   1      37.579  29.321  30.822  1.00  0.00     0.040 A 
ATOM     68  F   UNL A   1      39.101  27.620  30.674  1.00  0.00    -0.206 F 
ATOM     69  C   UNL A   1      36.829  30.346  30.275  1.00  0.00     0.006 A 
ENDBRANCH  48  62
BRANCH  49  70
ATOM     70  C   UNL A   1      44.692  26.683  33.794  1.00  0.00     0.057 A 
ATOM     71  C   UNL A   1      43.710  26.163  34.654  1.00  0.00     0.134 A 
ATOM     72  C   UNL A   1      45.998  26.715  34.309  1.00  0.00     0.134 A 
ATOM     73  F   UNL A   1      42.436  26.053  34.246  1.00  0.00    -0.206 F 
ATOM     74  C   UNL A   1      44.014  25.670  35.931  1.00  0.00     0.040 A 
ATOM     75  C   UNL A   1      46.316  26.232  35.585  1.00  0.00     0.040 A 
ATOM     76  F   UNL A   1      47.028  27.128  33.556  1.00  0.00    -0.206 F 
ATOM     77  C   UNL A   1      45.324  25.690  36.394  1.00  0.00     0.006 A 
ENDBRANCH  49  70
BRANCH  61  78
ATOM     78  C   UNL A   1      45.024  29.554  28.252  1.00  0.00     0.057 A 
ATOM     79  C   UNL A   1      45.756  28.444  27.804  1.00  0.00     0.134 A 
ATOM     80  C   UNL A   1      45.620  30.809  28.089  1.00  0.00     0.134 A 
ATOM     81  F   UNL A   1      45.236  27.210  27.829  1.00  0.00    -0.206 F 
ATOM     82  C   UNL A   1      47.038  28.576  27.259  1.00  0.00     0.040 A 
ATOM     83  C   UNL A   1      46.883  30.959  27.515  1.00  0.00     0.040 A 
ATOM     84  F   UNL A   1      44.959  31.921  28.449  1.00  0.00    -0.206 F 
ATOM     85  C   UNL A   1      47.603  29.840  27.108  1.00  0.00     0.006 A 
ENDBRANCH  61  78
ENDBRANCH  35  36
ENDBRANCH  27  30
ENDBRANCH  25  26
ENDBRANCH  24  25
ENDBRANCH  23  24
ENDBRANCH   1  23
TORSDOF 16
ENDMDL
MODEL 2
REMARK VINA RESULT:     -10.6      2.656      7.432
REMARK SMILES COC(=O)[C@@H](C)S(=O)(=O)N(C)c1snc(C)c1C(=O)NCCCCNC(=O)c1ccc(-c2c3nc(c(-c4c(F)cccc4F)c4ccc([nH]4)c(-c4c(F)cccc4F)c4nc(c(-c5c(F)cccc5F)c5ccc2[nH]5)C=C4)C=C3)cc1
REMARK SMILES IDX 21 1 20 2 18 3 19 4 17 6 12 7 13 8 14 9 15 10 16 11 10 12
REMARK SMILES IDX 11 13 7 14 8 15 9 16 5 17 6 18 3 19 4 20 2 21 1 22 22 23
REMARK SMILES IDX 23 24 24 25 25 26 26 27 27 29 28 30 29 31 81 32 30 33 80 34
REMARK SMILES IDX 31 35 32 36 33 37 74 38 34 39 79 40 73 41 75 42 35 43 78 44
REMARK SMILES IDX 72 45 71 46 36 48 62 49 45 50 61 51 46 52 49 53 60 54 76 55
REMARK SMILES IDX 47 56 48 57 59 59 77 60 50 61 37 62 38 63 43 64 39 65 40 66
REMARK SMILES IDX 42 67 44 68 41 69 63 70 64 71 69 72 65 73 66 74 68 75 70 76
REMARK SMILES IDX 67 77 51 78 52 79 57 80 53 81 54 82 56 83 58 84 55 85
REMARK H PARENT 20 5 25 28 75 47 49 58
REMARK Flexibility Score: inf
ROOT
ATOM      1  C   UNL A   1      32.697  27.420  26.669  1.00  0.00     0.116 C 
ENDROOT
BRANCH   1   2
ATOM      2  N   UNL A   1      31.357  26.919  26.647  1.00  0.00    -0.352 N 
ATOM      3  C   UNL A   1      30.679  26.340  25.592  1.00  0.00     0.256 C 
ATOM      4  O   UNL A   1      29.600  25.820  25.890  1.00  0.00    -0.269 OA
ATOM      5  H   UNL A   1      30.855  26.997  27.490  1.00  0.00     0.163 HD
BRANCH   3   6
ATOM      6  C   UNL A   1      31.117  26.387  24.186  1.00  0.00     0.098 A 
ATOM      7  C   UNL A   1      31.906  25.515  23.425  1.00  0.00     0.138 A 
ATOM      8  S   UNL A   1      31.896  26.048  21.780  1.00  0.00    -0.017 S 
ATOM      9  N   UNL A   1      31.078  27.434  22.028  1.00  0.00    -0.195 NA
ATOM     10  C   UNL A   1      30.705  27.500  23.305  1.00  0.00     0.066 A 
ATOM     11  C   UNL A   1      29.955  28.743  23.663  1.00  0.00     0.069 C 
BRANCH   7  12
ATOM     12  N   UNL A   1      32.706  24.345  23.834  1.00  0.00    -0.261 N 
ATOM     13  C   UNL A   1      34.052  24.318  23.182  1.00  0.00     0.164 C 
BRANCH  12  14
ATOM     14  S   UNL A   1      31.789  22.898  23.665  1.00  0.00     0.249 S 
ATOM     15  O   UNL A   1      32.508  22.037  22.740  1.00  0.00    -0.206 OA
ATOM     16  O   UNL A   1      30.435  23.307  23.354  1.00  0.00    -0.206 OA
BRANCH  14  17
ATOM     17  C   UNL A   1      31.704  22.107  25.271  1.00  0.00     0.236 C 
ATOM     18  C   UNL A   1      31.961  22.909  26.535  1.00  0.00     0.039 C 
BRANCH  17  19
ATOM     19  C   UNL A   1      32.572  20.894  25.294  1.00  0.00     0.325 C 
ATOM     20  O   UNL A   1      32.161  19.765  25.088  1.00  0.00    -0.251 OA
BRANCH  19  21
ATOM     21  O   UNL A   1      33.820  21.205  25.745  1.00  0.00    -0.468 OA
ATOM     22  C   UNL A   1      34.874  20.574  25.023  1.00  0.00     0.282 C 
ENDBRANCH  19  21
ENDBRANCH  17  19
ENDBRANCH  14  17
ENDBRANCH  12  14
ENDBRANCH   7  12
ENDBRANCH   3   6
ENDBRANCH   1   2
BRANCH   1  23
ATOM     23  C   UNL A   1      33.010  28.725  25.933  1.00  0.00     0.023 C 
BRANCH  23  24
ATOM     24  C   UNL A   1      34.023  29.713  26.532  1.00  0.00     0.023 C 
BRANCH  24  25
ATOM     25  C   UNL A   1      35.078  29.160  27.489  1.00  0.00     0.116 C 
BRANCH  25  26
ATOM     26  N   UNL A   1      35.303  29.951  28.699  1.00  0.00    -0.352 N 
ATOM     27  C   UNL A   1      36.403  29.920  29.545  1.00  0.00     0.251 C 
ATOM     28  H   UNL A   1      34.588  30.582  28.942  1.00  0.00     0.163 HD
ATOM     29  O   UNL A   1      36.346  30.440  30.655  1.00  0.00    -0.269 OA
BRANCH  27  30
ATOM     30  C   UNL A   1      37.657  29.271  29.100  1.00  0.00     0.039 A 
ATOM     31  C   UNL A   1      38.403  29.780  28.030  1.00  0.00     0.014 A 
ATOM     32  C   UNL A   1      38.101  28.140  29.782  1.00  0.00     0.014 A 
ATOM     33  C   UNL A   1      39.641  29.209  27.736  1.00  0.00     0.010 A 
ATOM     34  C   UNL A   1      39.364  27.644  29.568  1.00  0.00     0.010 A 
ATOM     35  C   UNL A   1      40.133  28.164  28.538  1.00  0.00    -0.014 A 
BRANCH  35  36
ATOM     36  C   UNL A   1      41.545  27.796  28.499  1.00  0.00     0.031 A 
ATOM     37  C   UNL A   1      41.773  26.534  27.740  1.00  0.00     0.074 A 
ATOM     38  C   UNL A   1      42.559  28.625  28.829  1.00  0.00     0.049 A 
ATOM     39  N   UNL A   1      42.078  25.373  28.218  1.00  0.00    -0.248 NA
ATOM     40  C   UNL A   1      41.410  26.505  26.310  1.00  0.00     0.031 C 
ATOM     41  C   UNL A   1      42.478  30.029  29.240  1.00  0.00     0.029 A 
ATOM     42  N   UNL A   1      43.904  28.413  28.765  1.00  0.00    -0.354 N 
ATOM     43  C   UNL A   1      42.214  24.541  27.111  1.00  0.00     0.074 A 
ATOM     44  C   UNL A   1      41.539  25.206  26.032  1.00  0.00     0.031 C 
ATOM     45  C   UNL A   1      43.705  30.596  29.172  1.00  0.00     0.029 A 
ATOM     46  C   UNL A   1      44.682  29.567  28.866  1.00  0.00     0.049 A 
ATOM     47  H   UNL A   1      44.295  27.517  28.658  1.00  0.00     0.167 HD
ATOM     48  C   UNL A   1      43.160  23.560  27.103  1.00  0.00     0.037 A 
ATOM     49  C   UNL A   1      46.025  29.661  28.684  1.00  0.00     0.037 A 
ATOM     50  C   UNL A   1      43.627  23.301  28.449  1.00  0.00     0.049 A 
ATOM     51  C   UNL A   1      46.581  28.291  28.799  1.00  0.00     0.074 A 
ATOM     52  C   UNL A   1      43.029  22.962  29.647  1.00  0.00     0.029 A 
ATOM     53  N   UNL A   1      44.868  23.787  28.780  1.00  0.00    -0.354 N 
ATOM     54  N   UNL A   1      46.614  27.612  29.910  1.00  0.00    -0.248 NA
ATOM     55  C   UNL A   1      46.681  27.503  27.581  1.00  0.00     0.031 C 
ATOM     56  C   UNL A   1      43.736  23.708  30.639  1.00  0.00     0.029 A 
ATOM     57  C   UNL A   1      44.780  24.384  30.009  1.00  0.00     0.049 A 
ATOM     58  H   UNL A   1      45.682  23.718  28.230  1.00  0.00     0.167 HD
ATOM     59  C   UNL A   1      46.264  26.323  29.538  1.00  0.00     0.074 A 
ATOM     60  C   UNL A   1      46.414  26.295  28.083  1.00  0.00     0.031 C 
ATOM     61  C   UNL A   1      45.599  25.505  30.406  1.00  0.00     0.037 A 
BRANCH  48  62
ATOM     62  C   UNL A   1      43.998  23.193  25.889  1.00  0.00     0.057 A 
ATOM     63  C   UNL A   1      44.156  21.827  25.576  1.00  0.00     0.134 A 
ATOM     64  C   UNL A   1      44.899  24.053  25.226  1.00  0.00     0.134 A 
ATOM     65  F   UNL A   1      43.357  20.899  26.124  1.00  0.00    -0.206 F 
ATOM     66  C   UNL A   1      45.205  21.350  24.780  1.00  0.00     0.040 A 
ATOM     67  C   UNL A   1      45.919  23.590  24.389  1.00  0.00     0.040 A 
ATOM     68  F   UNL A   1      44.918  25.376  25.408  1.00  0.00    -0.206 F 
ATOM     69  C   UNL A   1      46.103  22.232  24.197  1.00  0.00     0.006 A 
ENDBRANCH  48  62
BRANCH  49  70
ATOM     70  C   UNL A   1      46.843  30.780  28.151  1.00  0.00     0.057 A 
ATOM     71  C   UNL A   1      46.569  31.345  26.894  1.00  0.00     0.134 A 
ATOM     72  C   UNL A   1      47.708  31.516  28.977  1.00  0.00     0.134 A 
ATOM     73  F   UNL A   1      45.724  30.741  26.045  1.00  0.00    -0.206 F 
ATOM     74  C   UNL A   1      47.092  32.584  26.499  1.00  0.00     0.040 A 
ATOM     75  C   UNL A   1      48.243  32.752  28.592  1.00  0.00     0.040 A 
ATOM     76  F   UNL A   1      47.989  31.108  30.222  1.00  0.00    -0.206 F 
ATOM     77  C   UNL A   1      47.921  33.299  27.356  1.00  0.00     0.006 A 
ENDBRANCH  49  70
BRANCH  61  78
ATOM     78  C   UNL A   1      45.533  25.916  31.852  1.00  0.00     0.057 A 
ATOM     79  C   UNL A   1      46.575  25.757  32.779  1.00  0.00     0.134 A 
ATOM     80  C   UNL A   1      44.406  26.622  32.285  1.00  0.00     0.134 A 
ATOM     81  F   UNL A   1      47.733  25.179  32.435  1.00  0.00    -0.206 F 
ATOM     82  C   UNL A   1      46.478  26.242  34.087  1.00  0.00     0.040 A 
ATOM     83  C   UNL A   1      44.311  27.142  33.577  1.00  0.00     0.040 A 
ATOM     84  F   UNL A   1      43.390  26.856  31.439  1.00  0.00    -0.206 F 
ATOM     85  C   UNL A   1      45.343  26.943  34.488  1.00  0.00     0.006 A 
ENDBRANCH  61  78
ENDBRANCH  35  36
ENDBRANCH  27  30
ENDBRANCH  25  26
ENDBRANCH  24  25
ENDBRANCH  23  24
ENDBRANCH   1  23
TORSDOF 16
ENDMDL
MODEL 3
REMARK VINA RESULT:     -10.6      2.579      7.442
REMARK SMILES COC(=O)[C@@H](C)S(=O)(=O)N(C)c1snc(C)c1C(=O)NCCCCNC(=O)c1ccc(-c2c3nc(c(-c4c(F)cccc4F)c4ccc([nH]4)c(-c4c(F)cccc4F)c4nc(c(-c5c(F)cccc5F)c5ccc2[nH]5)C=C4)C=C3)cc1
REMARK SMILES IDX 21 1 20 2 18 3 19 4 17 6 12 7 13 8 14 9 15 10 16 11 10 12
REMARK SMILES IDX 11 13 7 14 8 15 9 16 5 17 6 18 3 19 4 20 2 21 1 22 22 23
REMARK SMILES IDX 23 24 24 25 25 26 26 27 27 29 28 30 29 31 81 32 30 33 80 34
REMARK SMILES IDX 31 35 32 36 33 37 74 38 34 39 79 40 73 41 75 42 35 43 78 44
REMARK SMILES IDX 72 45 71 46 36 48 62 49 45 50 61 51 46 52 49 53 60 54 76 55
REMARK SMILES IDX 47 56 48 57 59 59 77 60 50 61 37 62 38 63 43 64 39 65 40 66
REMARK SMILES IDX 42 67 44 68 41 69 63 70 64 71 69 72 65 73 66 74 68 75 70 76
REMARK SMILES IDX 67 77 51 78 52 79 57 80 53 81 54 82 56 83 58 84 55 85
REMARK H PARENT 20 5 25 28 75 47 49 58
REMARK Flexibility Score: inf
ROOT
ATOM      1  C   UNL A   1      33.700  27.331  25.526  1.00  0.00     0.116 C 
ENDROOT
BRANCH   1   2
ATOM      2  N   UNL A   1      33.654  26.738  24.224  1.00  0.00    -0.352 N 
ATOM      3  C   UNL A   1      32.961  25.613  23.823  1.00  0.00     0.256 C 
ATOM      4  O   UNL A   1      32.939  25.424  22.603  1.00  0.00    -0.269 OA
ATOM      5  H   UNL A   1      34.185  27.188  23.527  1.00  0.00     0.163 HD
BRANCH   3   6
ATOM      6  C   UNL A   1      32.353  24.631  24.737  1.00  0.00     0.098 A 
ATOM      7  C   UNL A   1      32.775  23.365  25.161  1.00  0.00     0.138 A 
ATOM      8  S   UNL A   1      31.694  22.799  26.386  1.00  0.00    -0.017 S 
ATOM      9  N   UNL A   1      30.616  24.014  26.273  1.00  0.00    -0.195 NA
ATOM     10  C   UNL A   1      31.066  24.918  25.404  1.00  0.00     0.066 A 
ATOM     11  C   UNL A   1      30.149  26.083  25.200  1.00  0.00     0.069 C 
BRANCH   7  12
ATOM     12  N   UNL A   1      33.892  22.522  24.693  1.00  0.00    -0.261 N 
ATOM     13  C   UNL A   1      33.461  21.123  24.384  1.00  0.00     0.164 C 
BRANCH  12  14
ATOM     14  S   UNL A   1      35.233  22.648  25.764  1.00  0.00     0.249 S 
ATOM     15  O   UNL A   1      35.317  21.396  26.499  1.00  0.00    -0.206 OA
ATOM     16  O   UNL A   1      35.062  23.890  26.488  1.00  0.00    -0.206 OA
BRANCH  14  17
ATOM     17  C   UNL A   1      36.712  22.858  24.775  1.00  0.00     0.236 C 
ATOM     18  C   UNL A   1      36.617  22.945  23.261  1.00  0.00     0.039 C 
BRANCH  17  19
ATOM     19  C   UNL A   1      37.721  21.817  25.128  1.00  0.00     0.325 C 
ATOM     20  O   UNL A   1      37.740  20.702  24.637  1.00  0.00    -0.251 OA
BRANCH  19  21
ATOM     21  O   UNL A   1      38.481  22.223  26.184  1.00  0.00    -0.468 OA
ATOM     22  C   UNL A   1      39.836  21.787  26.126  1.00  0.00     0.282 C 
ENDBRANCH  19  21
ENDBRANCH  17  19
ENDBRANCH  14  17
ENDBRANCH  12  14
ENDBRANCH   7  12
ENDBRANCH   3   6
ENDBRANCH   1   2
BRANCH   1  23
ATOM     23  C   UNL A   1      33.497  28.842  25.656  1.00  0.00     0.023 C 
BRANCH  23  24
ATOM     24  C   UNL A   1      33.771  29.533  27.002  1.00  0.00     0.023 C 
BRANCH  24  25
ATOM     25  C   UNL A   1      35.190  29.467  27.562  1.00  0.00     0.116 C 
BRANCH  25  26
ATOM     26  N   UNL A   1      35.379  30.096  28.869  1.00  0.00    -0.352 N 
ATOM     27  C   UNL A   1      36.413  29.891  29.773  1.00  0.00     0.251 C 
ATOM     28  H   UNL A   1      34.689  30.743  29.141  1.00  0.00     0.163 HD
ATOM     29  O   UNL A   1      36.310  30.282  30.931  1.00  0.00    -0.269 OA
BRANCH  27  30
ATOM     30  C   UNL A   1      37.652  29.211  29.332  1.00  0.00     0.039 A 
ATOM     31  C   UNL A   1      38.303  29.575  28.148  1.00  0.00     0.014 A 
ATOM     32  C   UNL A   1      38.180  28.200  30.134  1.00  0.00     0.014 A 
ATOM     33  C   UNL A   1      39.535  28.994  27.846  1.00  0.00     0.010 A 
ATOM     34  C   UNL A   1      39.440  27.706  29.899  1.00  0.00     0.010 A 
ATOM     35  C   UNL A   1      40.116  28.088  28.750  1.00  0.00    -0.014 A 
BRANCH  35  36
ATOM     36  C   UNL A   1      41.533  27.748  28.658  1.00  0.00     0.031 A 
ATOM     37  C   UNL A   1      41.758  26.488  27.896  1.00  0.00     0.074 A 
ATOM     38  C   UNL A   1      42.542  28.600  28.946  1.00  0.00     0.049 A 
ATOM     39  N   UNL A   1      42.105  25.336  28.366  1.00  0.00    -0.248 NA
ATOM     40  C   UNL A   1      41.341  26.446  26.480  1.00  0.00     0.031 C 
ATOM     41  C   UNL A   1      42.447  30.003  29.356  1.00  0.00     0.029 A 
ATOM     42  N   UNL A   1      43.887  28.415  28.832  1.00  0.00    -0.354 N 
ATOM     43  C   UNL A   1      42.215  24.501  27.257  1.00  0.00     0.074 A 
ATOM     44  C   UNL A   1      41.486  25.149  26.202  1.00  0.00     0.031 C 
ATOM     45  C   UNL A   1      43.659  30.595  29.239  1.00  0.00     0.029 A 
ATOM     46  C   UNL A   1      44.645  29.585  28.899  1.00  0.00     0.049 A 
ATOM     47  H   UNL A   1      44.293  27.526  28.713  1.00  0.00     0.167 HD
ATOM     48  C   UNL A   1      43.181  23.540  27.216  1.00  0.00     0.037 A 
ATOM     49  C   UNL A   1      45.978  29.706  28.664  1.00  0.00     0.037 A 
ATOM     50  C   UNL A   1      43.704  23.297  28.544  1.00  0.00     0.049 A 
ATOM     51  C   UNL A   1      46.566  28.348  28.763  1.00  0.00     0.074 A 
ATOM     52  C   UNL A   1      43.159  22.950  29.766  1.00  0.00     0.029 A 
ATOM     53  N   UNL A   1      44.947  23.809  28.826  1.00  0.00    -0.354 N 
ATOM     54  N   UNL A   1      46.655  27.674  29.874  1.00  0.00    -0.248 NA
ATOM     55  C   UNL A   1      46.635  27.557  27.545  1.00  0.00     0.031 C 
ATOM     56  C   UNL A   1      43.888  23.715  30.727  1.00  0.00     0.029 A 
ATOM     57  C   UNL A   1      44.893  24.410  30.054  1.00  0.00     0.049 A 
ATOM     58  H   UNL A   1      45.740  23.755  28.245  1.00  0.00     0.167 HD
ATOM     59  C   UNL A   1      46.318  26.377  29.521  1.00  0.00     0.074 A 
ATOM     60  C   UNL A   1      46.412  26.346  28.061  1.00  0.00     0.031 C 
ATOM     61  C   UNL A   1      45.703  25.549  30.416  1.00  0.00     0.037 A 
BRANCH  48  62
ATOM     62  C   UNL A   1      43.979  23.185  25.972  1.00  0.00     0.057 A 
ATOM     63  C   UNL A   1      44.129  21.823  25.643  1.00  0.00     0.134 A 
ATOM     64  C   UNL A   1      44.856  24.053  25.288  1.00  0.00     0.134 A 
ATOM     65  F   UNL A   1      43.350  20.889  26.208  1.00  0.00    -0.206 F 
ATOM     66  C   UNL A   1      45.152  21.355  24.808  1.00  0.00     0.040 A 
ATOM     67  C   UNL A   1      45.848  23.599  24.413  1.00  0.00     0.040 A 
ATOM     68  F   UNL A   1      44.879  25.375  25.480  1.00  0.00    -0.206 F 
ATOM     69  C   UNL A   1      46.028  22.244  24.204  1.00  0.00     0.006 A 
ENDBRANCH  48  62
BRANCH  49  70
ATOM     70  C   UNL A   1      46.751  30.838  28.097  1.00  0.00     0.057 A 
ATOM     71  C   UNL A   1      46.349  31.469  26.908  1.00  0.00     0.134 A 
ATOM     72  C   UNL A   1      47.717  31.522  28.854  1.00  0.00     0.134 A 
ATOM     73  F   UNL A   1      45.403  30.919  26.131  1.00  0.00    -0.206 F 
ATOM     74  C   UNL A   1      46.847  32.719  26.515  1.00  0.00     0.040 A 
ATOM     75  C   UNL A   1      48.228  32.768  28.471  1.00  0.00     0.040 A 
ATOM     76  F   UNL A   1      48.127  31.050  30.040  1.00  0.00    -0.206 F 
ATOM     77  C   UNL A   1      47.780  33.380  27.306  1.00  0.00     0.006 A 
ENDBRANCH  49  70
BRANCH  61  78
ATOM     78  C   UNL A   1      45.685  25.964  31.862  1.00  0.00     0.057 A 
ATOM     79  C   UNL A   1      44.594  26.565  32.511  1.00  0.00     0.134 A 
ATOM     80  C   UNL A   1      46.780  25.618  32.661  1.00  0.00     0.134 A 
ATOM     81  F   UNL A   1      43.462  26.848  31.854  1.00  0.00    -0.206 F 
ATOM     82  C   UNL A   1      44.614  26.844  33.881  1.00  0.00     0.040 A 
ATOM     83  C   UNL A   1      46.799  25.859  34.035  1.00  0.00     0.040 A 
ATOM     84  F   UNL A   1      47.839  24.995  32.118  1.00  0.00    -0.206 F 
ATOM     85  C   UNL A   1      45.719  26.485  34.649  1.00  0.00     0.006 A 
ENDBRANCH  61  78
ENDBRANCH  35  36
ENDBRANCH  27  30
ENDBRANCH  25  26
ENDBRANCH  24  25
ENDBRANCH  23  24
ENDBRANCH   1  23
TORSDOF 16
ENDMDL
