MODEL 1
REMARK VINA RESULT:     -11.5      0.000      0.000
REMARK SMILES CCN(C(=O)C1(C)CCCC1)[C@@H]1COC[C@H]1C(=O)NCCCCNC(=O)c1ccc(-c2c3nc(c(-c4c(F)cccc4F)c4ccc([nH]4)c(-c4c(F)cccc4F)c4nc(c(-c5c(F)cccc5F)c5ccc2[nH]5)C=C4)C=C3)cc1
REMARK SMILES IDX 21 1 20 2 19 3 17 4 18 5 16 7 12 8 13 9 14 10 15 11 3 12
REMARK SMILES IDX 2 13 1 14 4 15 5 16 6 17 7 18 8 19 11 20 9 21 10 22 22 23
REMARK SMILES IDX 23 24 24 25 25 26 26 28 27 29 28 30 80 31 29 32 79 33 30 34
REMARK SMILES IDX 31 35 32 36 73 37 33 38 78 39 72 40 74 41 34 42 77 43 71 44
REMARK SMILES IDX 70 45 35 47 61 48 44 49 60 50 45 51 48 52 59 53 75 54 46 55
REMARK SMILES IDX 47 56 58 58 76 59 49 60 36 61 37 62 42 63 38 64 39 65 41 66
REMARK SMILES IDX 43 67 40 68 62 69 63 70 68 71 64 72 65 73 67 74 69 75 66 76
REMARK SMILES IDX 50 77 51 78 56 79 52 80 53 81 55 82 57 83 54 84
REMARK H PARENT 19 6 24 27 74 46 48 57
REMARK Flexibility Score: inf
ROOT
ATOM      1  C   UNL A   1      31.992  30.218  26.690  1.00  0.00     0.023 C 
ENDROOT
BRANCH   1   2
ATOM      2  C   UNL A   1      32.726  29.716  25.448  1.00  0.00     0.116 C 
BRANCH   2   3
ATOM      3  N   UNL A   1      31.870  29.711  24.275  1.00  0.00    -0.356 N 
ATOM      4  C   UNL A   1      31.732  28.805  23.274  1.00  0.00     0.227 C 
ATOM      5  O   UNL A   1      30.902  29.061  22.396  1.00  0.00    -0.275 OA
ATOM      6  H   UNL A   1      31.290  30.502  24.191  1.00  0.00     0.163 HD
BRANCH   4   7
ATOM      7  C   UNL A   1      32.496  27.496  23.225  1.00  0.00     0.129 C 
ATOM      8  C   UNL A   1      31.699  26.281  22.753  1.00  0.00     0.125 C 
ATOM      9  C   UNL A   1      32.741  25.509  21.946  1.00  0.00     0.186 C 
ATOM     10  O   UNL A   1      33.594  26.503  21.359  1.00  0.00    -0.378 OA
ATOM     11  C   UNL A   1      33.707  27.571  22.310  1.00  0.00     0.176 C 
BRANCH   8  12
ATOM     12  N   UNL A   1      31.013  25.607  23.878  1.00  0.00    -0.336 N 
BRANCH  12  13
ATOM     13  C   UNL A   1      30.031  26.356  24.665  1.00  0.00     0.116 C 
ATOM     14  C   UNL A   1      28.742  26.558  23.875  1.00  0.00     0.027 C 
ENDBRANCH  12  13
BRANCH  12  15
ATOM     15  C   UNL A   1      31.397  24.286  24.135  1.00  0.00     0.228 C 
ATOM     16  O   UNL A   1      31.008  23.384  23.385  1.00  0.00    -0.274 OA
BRANCH  15  17
ATOM     17  C   UNL A   1      32.179  23.924  25.429  1.00  0.00     0.047 C 
ATOM     18  C   UNL A   1      31.193  23.342  26.453  1.00  0.00     0.022 C 
ATOM     19  C   UNL A   1      33.244  22.839  25.119  1.00  0.00     0.016 C 
ATOM     20  C   UNL A   1      33.073  25.027  26.005  1.00  0.00     0.016 C 
ATOM     21  C   UNL A   1      34.467  23.596  24.608  1.00  0.00     0.001 C 
ATOM     22  C   UNL A   1      34.342  25.010  25.157  1.00  0.00     0.001 C 
ENDBRANCH  15  17
ENDBRANCH  12  15
ENDBRANCH   8  12
ENDBRANCH   4   7
ENDBRANCH   2   3
ENDBRANCH   1   2
BRANCH   1  23
ATOM     23  C   UNL A   1      31.724  31.723  26.711  1.00  0.00     0.023 C 
BRANCH  23  24
ATOM     24  C   UNL A   1      32.826  32.561  27.347  1.00  0.00     0.116 C 
BRANCH  24  25
ATOM     25  N   UNL A   1      32.424  33.939  27.590  1.00  0.00    -0.352 N 
ATOM     26  C   UNL A   1      32.945  34.849  28.477  1.00  0.00     0.251 C 
ATOM     27  H   UNL A   1      31.673  34.264  27.042  1.00  0.00     0.163 HD
ATOM     28  O   UNL A   1      32.405  35.936  28.648  1.00  0.00    -0.269 OA
BRANCH  26  29
ATOM     29  C   UNL A   1      34.148  34.487  29.252  1.00  0.00     0.039 A 
ATOM     30  C   UNL A   1      33.987  33.932  30.523  1.00  0.00     0.014 A 
ATOM     31  C   UNL A   1      35.421  34.650  28.702  1.00  0.00     0.014 A 
ATOM     32  C   UNL A   1      35.104  33.457  31.211  1.00  0.00     0.010 A 
ATOM     33  C   UNL A   1      36.524  34.117  29.359  1.00  0.00     0.010 A 
ATOM     34  C   UNL A   1      36.374  33.503  30.612  1.00  0.00    -0.014 A 
BRANCH  34  35
ATOM     35  C   UNL A   1      37.554  32.880  31.257  1.00  0.00     0.031 A 
ATOM     36  C   UNL A   1      38.199  31.671  30.643  1.00  0.00     0.074 A 
ATOM     37  C   UNL A   1      37.984  33.348  32.444  1.00  0.00     0.049 A 
ATOM     38  N   UNL A   1      39.159  30.918  31.114  1.00  0.00    -0.248 NA
ATOM     39  C   UNL A   1      37.676  31.237  29.338  1.00  0.00     0.031 C 
ATOM     40  C   UNL A   1      37.412  34.489  33.163  1.00  0.00     0.029 A 
ATOM     41  N   UNL A   1      38.990  32.909  33.267  1.00  0.00    -0.354 N 
ATOM     42  C   UNL A   1      39.346  29.913  30.173  1.00  0.00     0.074 A 
ATOM     43  C   UNL A   1      38.371  30.128  29.126  1.00  0.00     0.031 C 
ATOM     44  C   UNL A   1      38.084  34.666  34.312  1.00  0.00     0.029 A 
ATOM     45  C   UNL A   1      39.101  33.628  34.433  1.00  0.00     0.049 A 
ATOM     46  H   UNL A   1      39.577  32.151  33.044  1.00  0.00     0.167 HD
ATOM     47  C   UNL A   1      40.260  28.916  30.175  1.00  0.00     0.037 A 
ATOM     48  C   UNL A   1      39.918  33.457  35.489  1.00  0.00     0.037 A 
ATOM     49  C   UNL A   1      41.243  28.720  31.208  1.00  0.00     0.049 A 
ATOM     50  C   UNL A   1      40.904  32.323  35.479  1.00  0.00     0.074 A 
ATOM     51  C   UNL A   1      42.260  27.785  31.263  1.00  0.00     0.029 A 
ATOM     52  N   UNL A   1      41.324  29.470  32.373  1.00  0.00    -0.354 N 
ATOM     53  N   UNL A   1      41.118  31.424  34.551  1.00  0.00    -0.248 NA
ATOM     54  C   UNL A   1      41.759  32.179  36.666  1.00  0.00     0.031 C 
ATOM     55  C   UNL A   1      42.929  27.939  32.483  1.00  0.00     0.029 A 
ATOM     56  C   UNL A   1      42.354  28.995  33.168  1.00  0.00     0.049 A 
ATOM     57  H   UNL A   1      40.736  30.226  32.599  1.00  0.00     0.167 HD
ATOM     58  C   UNL A   1      42.139  30.615  35.034  1.00  0.00     0.074 A 
ATOM     59  C   UNL A   1      42.515  31.144  36.329  1.00  0.00     0.031 C 
ATOM     60  C   UNL A   1      42.710  29.529  34.458  1.00  0.00     0.037 A 
BRANCH  47  61
ATOM     61  C   UNL A   1      40.242  27.959  29.020  1.00  0.00     0.057 A 
ATOM     62  C   UNL A   1      40.973  28.202  27.850  1.00  0.00     0.134 A 
ATOM     63  C   UNL A   1      39.514  26.765  29.092  1.00  0.00     0.134 A 
ATOM     64  F   UNL A   1      41.682  29.333  27.713  1.00  0.00    -0.206 F 
ATOM     65  C   UNL A   1      40.962  27.302  26.782  1.00  0.00     0.040 A 
ATOM     66  C   UNL A   1      39.515  25.846  28.041  1.00  0.00     0.040 A 
ATOM     67  F   UNL A   1      38.796  26.469  30.186  1.00  0.00    -0.206 F 
ATOM     68  C   UNL A   1      40.236  26.116  26.880  1.00  0.00     0.006 A 
ENDBRANCH  47  61
BRANCH  48  69
ATOM     69  C   UNL A   1      39.837  34.381  36.648  1.00  0.00     0.057 A 
ATOM     70  C   UNL A   1      40.536  35.593  36.652  1.00  0.00     0.134 A 
ATOM     71  C   UNL A   1      39.068  34.076  37.777  1.00  0.00     0.134 A 
ATOM     72  F   UNL A   1      41.307  35.932  35.608  1.00  0.00    -0.206 F 
ATOM     73  C   UNL A   1      40.485  36.462  37.744  1.00  0.00     0.040 A 
ATOM     74  C   UNL A   1      38.989  34.945  38.864  1.00  0.00     0.040 A 
ATOM     75  F   UNL A   1      38.371  32.931  37.832  1.00  0.00    -0.206 F 
ATOM     76  C   UNL A   1      39.705  36.141  38.852  1.00  0.00     0.006 A 
ENDBRANCH  48  69
BRANCH  60  77
ATOM     77  C   UNL A   1      43.804  28.846  35.222  1.00  0.00     0.057 A 
ATOM     78  C   UNL A   1      45.143  29.235  35.092  1.00  0.00     0.134 A 
ATOM     79  C   UNL A   1      43.513  27.817  36.126  1.00  0.00     0.134 A 
ATOM     80  F   UNL A   1      45.488  30.204  34.231  1.00  0.00    -0.206 F 
ATOM     81  C   UNL A   1      46.156  28.615  35.823  1.00  0.00     0.040 A 
ATOM     82  C   UNL A   1      44.514  27.205  36.880  1.00  0.00     0.040 A 
ATOM     83  F   UNL A   1      42.250  27.401  36.301  1.00  0.00    -0.206 F 
ATOM     84  C   UNL A   1      45.841  27.601  36.727  1.00  0.00     0.006 A 
ENDBRANCH  60  77
ENDBRANCH  34  35
ENDBRANCH  26  29
ENDBRANCH  24  25
ENDBRANCH  23  24
ENDBRANCH   1  23
TORSDOF 15
ENDMDL
MODEL 2
REMARK VINA RESULT:     -11.4      1.025      1.583
REMARK SMILES CCN(C(=O)C1(C)CCCC1)[C@@H]1COC[C@H]1C(=O)NCCCCNC(=O)c1ccc(-c2c3nc(c(-c4c(F)cccc4F)c4ccc([nH]4)c(-c4c(F)cccc4F)c4nc(c(-c5c(F)cccc5F)c5ccc2[nH]5)C=C4)C=C3)cc1
REMARK SMILES IDX 21 1 20 2 19 3 17 4 18 5 16 7 12 8 13 9 14 10 15 11 3 12
REMARK SMILES IDX 2 13 1 14 4 15 5 16 6 17 7 18 8 19 11 20 9 21 10 22 22 23
REMARK SMILES IDX 23 24 24 25 25 26 26 28 27 29 28 30 80 31 29 32 79 33 30 34
REMARK SMILES IDX 31 35 32 36 73 37 33 38 78 39 72 40 74 41 34 42 77 43 71 44
REMARK SMILES IDX 70 45 35 47 61 48 44 49 60 50 45 51 48 52 59 53 75 54 46 55
REMARK SMILES IDX 47 56 58 58 76 59 49 60 36 61 37 62 42 63 38 64 39 65 41 66
REMARK SMILES IDX 43 67 40 68 62 69 63 70 68 71 64 72 65 73 67 74 69 75 66 76
REMARK SMILES IDX 50 77 51 78 56 79 52 80 53 81 55 82 57 83 54 84
REMARK H PARENT 19 6 24 27 74 46 48 57
REMARK Flexibility Score: inf
ROOT
ATOM      1  C   UNL A   1      31.434  30.221  26.569  1.00  0.00     0.023 C 
ENDROOT
BRANCH   1   2
ATOM      2  C   UNL A   1      32.320  29.785  25.403  1.00  0.00     0.116 C 
BRANCH   2   3
ATOM      3  N   UNL A   1      31.582  29.714  24.156  1.00  0.00    -0.356 N 
ATOM      4  C   UNL A   1      31.594  28.790  23.161  1.00  0.00     0.227 C 
ATOM      5  O   UNL A   1      30.837  28.985  22.204  1.00  0.00    -0.275 OA
ATOM      6  H   UNL A   1      30.965  30.467  24.004  1.00  0.00     0.163 HD
BRANCH   4   7
ATOM      7  C   UNL A   1      32.437  27.531  23.206  1.00  0.00     0.129 C 
ATOM      8  C   UNL A   1      31.724  26.241  22.803  1.00  0.00     0.125 C 
ATOM      9  C   UNL A   1      32.823  25.485  22.061  1.00  0.00     0.186 C 
ATOM     10  O   UNL A   1      33.624  26.491  21.421  1.00  0.00    -0.378 OA
ATOM     11  C   UNL A   1      33.656  27.623  22.303  1.00  0.00     0.176 C 
BRANCH   8  12
ATOM     12  N   UNL A   1      31.061  25.599  23.961  1.00  0.00    -0.336 N 
BRANCH  12  13
ATOM     13  C   UNL A   1      30.046  26.347  24.705  1.00  0.00     0.116 C 
ATOM     14  C   UNL A   1      28.781  26.523  23.872  1.00  0.00     0.027 C 
ENDBRANCH  12  13
BRANCH  12  15
ATOM     15  C   UNL A   1      31.499  24.310  24.287  1.00  0.00     0.228 C 
ATOM     16  O   UNL A   1      31.141  23.353  23.591  1.00  0.00    -0.274 OA
BRANCH  15  17
ATOM     17  C   UNL A   1      32.302  24.051  25.593  1.00  0.00     0.047 C 
ATOM     18  C   UNL A   1      31.340  23.514  26.663  1.00  0.00     0.022 C 
ATOM     19  C   UNL A   1      33.390  22.975  25.342  1.00  0.00     0.016 C 
ATOM     20  C   UNL A   1      33.174  25.211  26.087  1.00  0.00     0.016 C 
ATOM     21  C   UNL A   1      34.589  23.725  24.770  1.00  0.00     0.001 C 
ATOM     22  C   UNL A   1      34.435  25.168  25.228  1.00  0.00     0.001 C 
ENDBRANCH  15  17
ENDBRANCH  12  15
ENDBRANCH   8  12
ENDBRANCH   4   7
ENDBRANCH   2   3
ENDBRANCH   1   2
BRANCH   1  23
ATOM     23  C   UNL A   1      31.182  31.726  26.653  1.00  0.00     0.023 C 
BRANCH  23  24
ATOM     24  C   UNL A   1      32.438  32.588  26.623  1.00  0.00     0.116 C 
BRANCH  24  25
ATOM     25  N   UNL A   1      32.284  33.842  27.347  1.00  0.00    -0.352 N 
ATOM     26  C   UNL A   1      33.044  34.347  28.374  1.00  0.00     0.251 C 
ATOM     27  H   UNL A   1      31.530  34.407  27.062  1.00  0.00     0.163 HD
ATOM     28  O   UNL A   1      32.702  35.365  28.964  1.00  0.00    -0.269 OA
BRANCH  26  29
ATOM     29  C   UNL A   1      34.264  33.625  28.786  1.00  0.00     0.039 A 
ATOM     30  C   UNL A   1      35.503  34.243  28.606  1.00  0.00     0.014 A 
ATOM     31  C   UNL A   1      34.174  32.370  29.393  1.00  0.00     0.014 A 
ATOM     32  C   UNL A   1      36.652  33.637  29.116  1.00  0.00     0.010 A 
ATOM     33  C   UNL A   1      35.310  31.800  29.958  1.00  0.00     0.010 A 
ATOM     34  C   UNL A   1      36.556  32.435  29.837  1.00  0.00    -0.014 A 
BRANCH  34  35
ATOM     35  C   UNL A   1      37.736  31.841  30.509  1.00  0.00     0.031 A 
ATOM     36  C   UNL A   1      38.544  30.782  29.818  1.00  0.00     0.074 A 
ATOM     37  C   UNL A   1      38.020  32.190  31.779  1.00  0.00     0.049 A 
ATOM     38  N   UNL A   1      39.533  30.062  30.282  1.00  0.00    -0.248 NA
ATOM     39  C   UNL A   1      38.175  30.474  28.427  1.00  0.00     0.031 C 
ATOM     40  C   UNL A   1      37.282  33.176  32.572  1.00  0.00     0.029 A 
ATOM     41  N   UNL A   1      38.995  31.740  32.632  1.00  0.00    -0.354 N 
ATOM     42  C   UNL A   1      39.893  29.207  29.249  1.00  0.00     0.074 A 
ATOM     43  C   UNL A   1      38.990  29.466  28.149  1.00  0.00     0.031 C 
ATOM     44  C   UNL A   1      37.838  33.263  33.792  1.00  0.00     0.029 A 
ATOM     45  C   UNL A   1      38.940  32.311  33.881  1.00  0.00     0.049 A 
ATOM     46  H   UNL A   1      39.670  31.071  32.376  1.00  0.00     0.167 HD
ATOM     47  C   UNL A   1      40.899  28.302  29.216  1.00  0.00     0.037 A 
ATOM     48  C   UNL A   1      39.682  32.079  34.980  1.00  0.00     0.037 A 
ATOM     49  C   UNL A   1      41.809  28.063  30.305  1.00  0.00     0.049 A 
ATOM     50  C   UNL A   1      40.773  31.048  34.926  1.00  0.00     0.074 A 
ATOM     51  C   UNL A   1      42.906  27.221  30.342  1.00  0.00     0.029 A 
ATOM     52  N   UNL A   1      41.721  28.662  31.553  1.00  0.00    -0.354 N 
ATOM     53  N   UNL A   1      41.148  30.296  33.921  1.00  0.00    -0.248 NA
ATOM     54  C   UNL A   1      41.539  30.828  36.162  1.00  0.00     0.031 C 
ATOM     55  C   UNL A   1      43.456  27.277  31.627  1.00  0.00     0.029 A 
ATOM     56  C   UNL A   1      42.725  28.182  32.378  1.00  0.00     0.049 A 
ATOM     57  H   UNL A   1      41.045  29.328  31.813  1.00  0.00     0.167 HD
ATOM     58  C   UNL A   1      42.202  29.525  34.396  1.00  0.00     0.074 A 
ATOM     59  C   UNL A   1      42.418  29.916  35.774  1.00  0.00     0.031 C 
ATOM     60  C   UNL A   1      42.922  28.576  33.749  1.00  0.00     0.037 A 
BRANCH  47  61
ATOM     61  C   UNL A   1      41.069  27.502  27.959  1.00  0.00     0.057 A 
ATOM     62  C   UNL A   1      40.430  26.268  27.777  1.00  0.00     0.134 A 
ATOM     63  C   UNL A   1      41.853  27.986  26.904  1.00  0.00     0.134 A 
ATOM     64  F   UNL A   1      39.674  25.744  28.754  1.00  0.00    -0.206 F 
ATOM     65  C   UNL A   1      40.582  25.534  26.600  1.00  0.00     0.040 A 
ATOM     66  C   UNL A   1      41.994  27.272  25.712  1.00  0.00     0.040 A 
ATOM     67  F   UNL A   1      42.489  29.162  27.011  1.00  0.00    -0.206 F 
ATOM     68  C   UNL A   1      41.362  26.039  25.561  1.00  0.00     0.006 A 
ENDBRANCH  47  61
BRANCH  48  69
ATOM     69  C   UNL A   1      39.417  32.838  36.229  1.00  0.00     0.057 A 
ATOM     70  C   UNL A   1      40.075  34.044  36.492  1.00  0.00     0.134 A 
ATOM     71  C   UNL A   1      38.507  32.376  37.187  1.00  0.00     0.134 A 
ATOM     72  F   UNL A   1      40.973  34.527  35.621  1.00  0.00    -0.206 F 
ATOM     73  C   UNL A   1      39.850  34.756  37.672  1.00  0.00     0.040 A 
ATOM     74  C   UNL A   1      38.255  33.090  38.359  1.00  0.00     0.040 A 
ATOM     75  F   UNL A   1      37.841  31.228  36.991  1.00  0.00    -0.206 F 
ATOM     76  C   UNL A   1      38.934  34.282  38.607  1.00  0.00     0.006 A 
ENDBRANCH  48  69
BRANCH  60  77
ATOM     77  C   UNL A   1      44.013  27.900  34.524  1.00  0.00     0.057 A 
ATOM     78  C   UNL A   1      45.296  28.452  34.618  1.00  0.00     0.134 A 
ATOM     79  C   UNL A   1      43.768  26.708  35.217  1.00  0.00     0.134 A 
ATOM     80  F   UNL A   1      45.598  29.585  33.965  1.00  0.00    -0.206 F 
ATOM     81  C   UNL A   1      46.302  27.834  35.361  1.00  0.00     0.040 A 
ATOM     82  C   UNL A   1      44.759  26.093  35.982  1.00  0.00     0.040 A 
ATOM     83  F   UNL A   1      42.558  26.131  35.173  1.00  0.00    -0.206 F 
ATOM     84  C   UNL A   1      46.032  26.654  36.052  1.00  0.00     0.006 A 
ENDBRANCH  60  77
ENDBRANCH  34  35
ENDBRANCH  26  29
ENDBRANCH  24  25
ENDBRANCH  23  24
ENDBRANCH   1  23
TORSDOF 15
ENDMDL
MODEL 3
REMARK VINA RESULT:     -11.4      5.529     10.494
REMARK SMILES CCN(C(=O)C1(C)CCCC1)[C@@H]1COC[C@H]1C(=O)NCCCCNC(=O)c1ccc(-c2c3nc(c(-c4c(F)cccc4F)c4ccc([nH]4)c(-c4c(F)cccc4F)c4nc(c(-c5c(F)cccc5F)c5ccc2[nH]5)C=C4)C=C3)cc1
REMARK SMILES IDX 21 1 20 2 19 3 17 4 18 5 16 7 12 8 13 9 14 10 15 11 3 12
REMARK SMILES IDX 2 13 1 14 4 15 5 16 6 17 7 18 8 19 11 20 9 21 10 22 22 23
REMARK SMILES IDX 23 24 24 25 25 26 26 28 27 29 28 30 80 31 29 32 79 33 30 34
REMARK SMILES IDX 31 35 32 36 73 37 33 38 78 39 72 40 74 41 34 42 77 43 71 44
REMARK SMILES IDX 70 45 35 47 61 48 44 49 60 50 45 51 48 52 59 53 75 54 46 55
REMARK SMILES IDX 47 56 58 58 76 59 49 60 36 61 37 62 42 63 38 64 39 65 41 66
REMARK SMILES IDX 43 67 40 68 62 69 63 70 68 71 64 72 65 73 67 74 69 75 66 76
REMARK SMILES IDX 50 77 51 78 56 79 52 80 53 81 55 82 57 83 54 84
REMARK H PARENT 19 6 24 27 74 46 48 57
REMARK Flexibility Score: inf
ROOT
ATOM      1  C   UNL A   1      37.150  21.437  24.634  1.00  0.00     0.023 C 
ENDROOT
BRANCH   1   2
ATOM      2  C   UNL A   1      36.110  21.828  25.682  1.00  0.00     0.116 C 
BRANCH   2   3
ATOM      3  N   UNL A   1      35.042  20.849  25.781  1.00  0.00    -0.356 N 
ATOM      4  C   UNL A   1      33.706  20.999  25.969  1.00  0.00     0.227 C 
ATOM      5  O   UNL A   1      33.024  19.970  26.000  1.00  0.00    -0.275 OA
ATOM      6  H   UNL A   1      35.338  19.914  25.696  1.00  0.00     0.163 HD
BRANCH   4   7
ATOM      7  C   UNL A   1      33.029  22.351  26.083  1.00  0.00     0.129 C 
ATOM      8  C   UNL A   1      31.772  22.536  25.235  1.00  0.00     0.125 C 
ATOM      9  C   UNL A   1      30.890  23.383  26.151  1.00  0.00     0.186 C 
ATOM     10  O   UNL A   1      31.208  22.970  27.489  1.00  0.00    -0.378 OA
ATOM     11  C   UNL A   1      32.610  22.666  27.510  1.00  0.00     0.176 C 
BRANCH   8  12
ATOM     12  N   UNL A   1      32.095  23.036  23.880  1.00  0.00    -0.336 N 
BRANCH  12  13
ATOM     13  C   UNL A   1      32.883  22.193  22.980  1.00  0.00     0.116 C 
ATOM     14  C   UNL A   1      32.002  21.147  22.305  1.00  0.00     0.027 C 
ENDBRANCH  12  13
BRANCH  12  15
ATOM     15  C   UNL A   1      31.647  24.326  23.573  1.00  0.00     0.228 C 
ATOM     16  O   UNL A   1      30.451  24.509  23.323  1.00  0.00    -0.274 OA
BRANCH  15  17
ATOM     17  C   UNL A   1      32.655  25.496  23.399  1.00  0.00     0.047 C 
ATOM     18  C   UNL A   1      32.865  25.745  21.898  1.00  0.00     0.022 C 
ATOM     19  C   UNL A   1      32.077  26.793  24.024  1.00  0.00     0.016 C 
ATOM     20  C   UNL A   1      33.967  25.377  24.184  1.00  0.00     0.016 C 
ATOM     21  C   UNL A   1      32.429  26.728  25.507  1.00  0.00     0.001 C 
ATOM     22  C   UNL A   1      33.628  25.797  25.611  1.00  0.00     0.001 C 
ENDBRANCH  15  17
ENDBRANCH  12  15
ENDBRANCH   8  12
ENDBRANCH   4   7
ENDBRANCH   2   3
ENDBRANCH   1   2
BRANCH   1  23
ATOM     23  C   UNL A   1      37.958  20.184  24.971  1.00  0.00     0.023 C 
BRANCH  23  24
ATOM     24  C   UNL A   1      39.234  20.438  25.762  1.00  0.00     0.116 C 
BRANCH  24  25
ATOM     25  N   UNL A   1      40.120  19.283  25.798  1.00  0.00    -0.352 N 
ATOM     26  C   UNL A   1      41.469  19.235  26.053  1.00  0.00     0.251 C 
ATOM     27  H   UNL A   1      39.693  18.415  25.614  1.00  0.00     0.163 HD
ATOM     28  O   UNL A   1      42.095  18.190  25.918  1.00  0.00    -0.269 OA
BRANCH  26  29
ATOM     29  C   UNL A   1      42.167  20.471  26.458  1.00  0.00     0.039 A 
ATOM     30  C   UNL A   1      42.790  21.244  25.476  1.00  0.00     0.014 A 
ATOM     31  C   UNL A   1      42.160  20.885  27.792  1.00  0.00     0.014 A 
ATOM     32  C   UNL A   1      43.332  22.482  25.820  1.00  0.00     0.010 A 
ATOM     33  C   UNL A   1      42.642  22.147  28.120  1.00  0.00     0.010 A 
ATOM     34  C   UNL A   1      43.219  22.963  27.135  1.00  0.00    -0.014 A 
BRANCH  34  35
ATOM     35  C   UNL A   1      43.659  24.331  27.498  1.00  0.00     0.031 A 
ATOM     36  C   UNL A   1      42.649  25.366  27.901  1.00  0.00     0.074 A 
ATOM     37  C   UNL A   1      44.958  24.664  27.372  1.00  0.00     0.049 A 
ATOM     38  N   UNL A   1      42.823  26.641  28.139  1.00  0.00    -0.248 NA
ATOM     39  C   UNL A   1      41.255  24.912  28.029  1.00  0.00     0.031 C 
ATOM     40  C   UNL A   1      46.028  23.758  26.946  1.00  0.00     0.029 A 
ATOM     41  N   UNL A   1      45.597  25.862  27.570  1.00  0.00    -0.354 N 
ATOM     42  C   UNL A   1      41.561  27.144  28.429  1.00  0.00     0.074 A 
ATOM     43  C   UNL A   1      40.627  26.048  28.295  1.00  0.00     0.031 C 
ATOM     44  C   UNL A   1      47.191  24.430  26.927  1.00  0.00     0.029 A 
ATOM     45  C   UNL A   1      46.943  25.820  27.294  1.00  0.00     0.049 A 
ATOM     46  H   UNL A   1      45.136  26.674  27.880  1.00  0.00     0.167 HD
ATOM     47  C   UNL A   1      41.219  28.402  28.793  1.00  0.00     0.037 A 
ATOM     48  C   UNL A   1      47.869  26.797  27.315  1.00  0.00     0.037 A 
ATOM     49  C   UNL A   1      42.156  29.484  28.946  1.00  0.00     0.049 A 
ATOM     50  C   UNL A   1      47.457  28.191  27.694  1.00  0.00     0.074 A 
ATOM     51  C   UNL A   1      41.918  30.774  29.384  1.00  0.00     0.029 A 
ATOM     52  N   UNL A   1      43.511  29.402  28.659  1.00  0.00    -0.354 N 
ATOM     53  N   UNL A   1      46.274  28.638  28.034  1.00  0.00    -0.248 NA
ATOM     54  C   UNL A   1      48.509  29.218  27.685  1.00  0.00     0.031 C 
ATOM     55  C   UNL A   1      43.120  31.487  29.318  1.00  0.00     0.029 A 
ATOM     56  C   UNL A   1      44.114  30.629  28.877  1.00  0.00     0.049 A 
ATOM     57  H   UNL A   1      43.973  28.592  28.345  1.00  0.00     0.167 HD
ATOM     58  C   UNL A   1      46.439  29.993  28.294  1.00  0.00     0.074 A 
ATOM     59  C   UNL A   1      47.842  30.289  28.090  1.00  0.00     0.031 C 
ATOM     60  C   UNL A   1      45.511  30.909  28.663  1.00  0.00     0.037 A 
BRANCH  47  61
ATOM     61  C   UNL A   1      39.768  28.676  29.052  1.00  0.00     0.057 A 
ATOM     62  C   UNL A   1      39.196  28.486  30.318  1.00  0.00     0.134 A 
ATOM     63  C   UNL A   1      38.940  29.168  28.036  1.00  0.00     0.134 A 
ATOM     64  F   UNL A   1      39.932  28.006  31.331  1.00  0.00    -0.206 F 
ATOM     65  C   UNL A   1      37.847  28.754  30.557  1.00  0.00     0.040 A 
ATOM     66  C   UNL A   1      37.595  29.463  28.269  1.00  0.00     0.040 A 
ATOM     67  F   UNL A   1      39.424  29.376  26.803  1.00  0.00    -0.206 F 
ATOM     68  C   UNL A   1      37.044  29.250  29.531  1.00  0.00     0.006 A 
ENDBRANCH  47  61
BRANCH  48  69
ATOM     69  C   UNL A   1      49.279  26.491  26.966  1.00  0.00     0.057 A 
ATOM     70  C   UNL A   1      49.750  26.664  25.660  1.00  0.00     0.134 A 
ATOM     71  C   UNL A   1      50.184  26.017  27.921  1.00  0.00     0.134 A 
ATOM     72  F   UNL A   1      48.925  27.096  24.695  1.00  0.00    -0.206 F 
ATOM     73  C   UNL A   1      51.068  26.360  25.312  1.00  0.00     0.040 A 
ATOM     74  C   UNL A   1      51.510  25.732  27.594  1.00  0.00     0.040 A 
ATOM     75  F   UNL A   1      49.795  25.834  29.192  1.00  0.00    -0.206 F 
ATOM     76  C   UNL A   1      51.954  25.898  26.283  1.00  0.00     0.006 A 
ENDBRANCH  48  69
BRANCH  60  77
ATOM     77  C   UNL A   1      45.985  32.315  28.875  1.00  0.00     0.057 A 
ATOM     78  C   UNL A   1      46.476  32.744  30.114  1.00  0.00     0.134 A 
ATOM     79  C   UNL A   1      45.990  33.237  27.821  1.00  0.00     0.134 A 
ATOM     80  F   UNL A   1      46.484  31.912  31.167  1.00  0.00    -0.206 F 
ATOM     81  C   UNL A   1      46.941  34.046  30.302  1.00  0.00     0.040 A 
ATOM     82  C   UNL A   1      46.474  34.535  27.991  1.00  0.00     0.040 A 
ATOM     83  F   UNL A   1      45.539  32.887  26.608  1.00  0.00    -0.206 F 
ATOM     84  C   UNL A   1      46.948  34.944  29.236  1.00  0.00     0.006 A 
ENDBRANCH  60  77
ENDBRANCH  34  35
ENDBRANCH  26  29
ENDBRANCH  24  25
ENDBRANCH  23  24
ENDBRANCH   1  23
TORSDOF 15
ENDMDL
