MODEL 1
REMARK VINA RESULT:     -11.6      0.000      0.000
REMARK SMILES Cc1ncccc1C(=O)Nc1cnccc1C(=O)NCCCCNC(=O)c1ccc(-c2c3nc(c(-c4c(F)cccc4F)c4ccc([nH]4)c(-c4c(F)cccc4F)c4nc(c(-c5c(F)cccc5F)c5ccc2[nH]5)C=C4)C=C3)cc1
REMARK SMILES IDX 21 1 20 2 19 3 17 4 18 5 16 7 11 8 12 9 13 10 15 11 14 12
REMARK SMILES IDX 10 13 8 14 9 15 7 17 1 18 2 19 3 20 4 21 6 22 5 23 22 24
REMARK SMILES IDX 23 25 24 26 25 27 26 29 27 30 28 31 80 32 29 33 79 34 30 35
REMARK SMILES IDX 31 36 32 37 73 38 33 39 78 40 72 41 74 42 34 43 77 44 71 45
REMARK SMILES IDX 70 46 35 48 61 49 44 50 60 51 45 52 48 53 59 54 75 55 46 56
REMARK SMILES IDX 47 57 58 59 76 60 49 61 36 62 37 63 42 64 38 65 39 66 41 67
REMARK SMILES IDX 43 68 40 69 62 70 63 71 68 72 64 73 65 74 67 75 69 76 66 77
REMARK SMILES IDX 50 78 51 79 56 80 52 81 53 82 55 83 57 84 54 85
REMARK H PARENT 19 6 10 16 24 28 74 47 48 58
REMARK Flexibility Score: inf
ROOT
ATOM      1  C   UNL A   1      33.304  27.192  25.093  1.00  0.00     0.023 C 
ENDROOT
BRANCH   1   2
ATOM      2  C   UNL A   1      34.061  25.872  25.000  1.00  0.00     0.116 C 
BRANCH   2   3
ATOM      3  N   UNL A   1      33.894  25.175  23.740  1.00  0.00    -0.352 N 
ATOM      4  C   UNL A   1      34.371  23.952  23.335  1.00  0.00     0.253 C 
ATOM      5  O   UNL A   1      34.101  23.567  22.197  1.00  0.00    -0.269 OA
ATOM      6  H   UNL A   1      33.354  25.653  23.069  1.00  0.00     0.163 HD
BRANCH   4   7
ATOM      7  C   UNL A   1      35.290  23.135  24.168  1.00  0.00     0.066 A 
ATOM      8  C   UNL A   1      34.995  21.938  24.828  1.00  0.00     0.072 A 
ATOM      9  C   UNL A   1      35.936  21.495  25.762  1.00  0.00     0.137 A 
ATOM     10  N   UNL A   1      37.152  22.047  25.966  1.00  0.00    -0.263 NA
ATOM     11  C   UNL A   1      36.568  23.700  24.333  1.00  0.00     0.036 A 
ATOM     12  C   UNL A   1      37.459  23.118  25.215  1.00  0.00     0.112 A 
BRANCH   8  13
ATOM     13  N   UNL A   1      33.884  21.091  24.653  1.00  0.00    -0.320 N 
ATOM     14  C   UNL A   1      32.575  21.159  25.056  1.00  0.00     0.257 C 
ATOM     15  O   UNL A   1      31.893  20.139  24.941  1.00  0.00    -0.269 OA
ATOM     16  H   UNL A   1      34.091  20.281  24.133  1.00  0.00     0.170 HD
BRANCH  14  17
ATOM     17  C   UNL A   1      31.920  22.376  25.577  1.00  0.00     0.061 A 
ATOM     18  C   UNL A   1      32.995  22.336  27.904  1.00  0.00     0.067 C 
ATOM     19  C   UNL A   1      32.112  22.925  26.847  1.00  0.00     0.050 A 
ATOM     20  N   UNL A   1      31.519  24.094  27.221  1.00  0.00    -0.261 NA
ATOM     21  C   UNL A   1      30.771  24.754  26.310  1.00  0.00     0.111 A 
ATOM     22  C   UNL A   1      31.174  23.116  24.645  1.00  0.00     0.017 A 
ATOM     23  C   UNL A   1      30.586  24.319  25.015  1.00  0.00     0.021 A 
ENDBRANCH  14  17
ENDBRANCH   8  13
ENDBRANCH   4   7
ENDBRANCH   2   3
ENDBRANCH   1   2
BRANCH   1  24
ATOM     24  C   UNL A   1      34.001  28.323  25.849  1.00  0.00     0.023 C 
BRANCH  24  25
ATOM     25  C   UNL A   1      33.537  28.581  27.280  1.00  0.00     0.116 C 
BRANCH  25  26
ATOM     26  N   UNL A   1      33.620  29.974  27.691  1.00  0.00    -0.352 N 
ATOM     27  C   UNL A   1      34.676  30.685  28.217  1.00  0.00     0.251 C 
ATOM     28  H   UNL A   1      32.789  30.491  27.576  1.00  0.00     0.163 HD
ATOM     29  O   UNL A   1      34.521  31.838  28.595  1.00  0.00    -0.269 OA
BRANCH  27  30
ATOM     30  C   UNL A   1      35.997  30.035  28.366  1.00  0.00     0.039 A 
ATOM     31  C   UNL A   1      36.914  30.121  27.317  1.00  0.00     0.014 A 
ATOM     32  C   UNL A   1      36.342  29.378  29.549  1.00  0.00     0.014 A 
ATOM     33  C   UNL A   1      38.216  29.648  27.495  1.00  0.00     0.010 A 
ATOM     34  C   UNL A   1      37.661  28.982  29.755  1.00  0.00     0.010 A 
ATOM     35  C   UNL A   1      38.617  29.127  28.737  1.00  0.00    -0.014 A 
BRANCH  35  36
ATOM     36  C   UNL A   1      40.033  28.762  29.003  1.00  0.00     0.031 A 
ATOM     37  C   UNL A   1      40.965  29.752  29.645  1.00  0.00     0.074 A 
ATOM     38  C   UNL A   1      40.504  27.570  28.586  1.00  0.00     0.049 A 
ATOM     39  N   UNL A   1      42.249  29.650  29.872  1.00  0.00    -0.248 NA
ATOM     40  C   UNL A   1      40.381  31.037  30.060  1.00  0.00     0.031 C 
ATOM     41  C   UNL A   1      39.720  26.542  27.895  1.00  0.00     0.029 A 
ATOM     42  N   UNL A   1      41.760  27.023  28.670  1.00  0.00    -0.354 N 
ATOM     43  C   UNL A   1      42.630  30.861  30.437  1.00  0.00     0.074 A 
ATOM     44  C   UNL A   1      41.452  31.701  30.469  1.00  0.00     0.031 C 
ATOM     45  C   UNL A   1      40.506  25.484  27.643  1.00  0.00     0.029 A 
ATOM     46  C   UNL A   1      41.856  25.769  28.118  1.00  0.00     0.049 A 
ATOM     47  H   UNL A   1      42.521  27.487  29.088  1.00  0.00     0.167 HD
ATOM     48  C   UNL A   1      43.844  31.231  30.908  1.00  0.00     0.037 A 
ATOM     49  C   UNL A   1      42.913  24.943  28.000  1.00  0.00     0.037 A 
ATOM     50  C   UNL A   1      45.008  30.385  30.908  1.00  0.00     0.049 A 
ATOM     51  C   UNL A   1      44.248  25.375  28.541  1.00  0.00     0.074 A 
ATOM     52  C   UNL A   1      46.265  30.647  31.424  1.00  0.00     0.029 A 
ATOM     53  N   UNL A   1      45.056  29.109  30.368  1.00  0.00    -0.354 N 
ATOM     54  N   UNL A   1      44.576  26.497  29.135  1.00  0.00    -0.248 NA
ATOM     55  C   UNL A   1      45.359  24.423  28.402  1.00  0.00     0.031 C 
ATOM     56  C   UNL A   1      47.085  29.544  31.163  1.00  0.00     0.029 A 
ATOM     57  C   UNL A   1      46.326  28.578  30.523  1.00  0.00     0.049 A 
ATOM     58  H   UNL A   1      44.300  28.648  29.937  1.00  0.00     0.167 HD
ATOM     59  C   UNL A   1      45.920  26.374  29.464  1.00  0.00     0.074 A 
ATOM     60  C   UNL A   1      46.342  25.063  29.017  1.00  0.00     0.031 C 
ATOM     61  C   UNL A   1      46.729  27.267  30.083  1.00  0.00     0.037 A 
BRANCH  48  62
ATOM     62  C   UNL A   1      43.970  32.614  31.478  1.00  0.00     0.057 A 
ATOM     63  C   UNL A   1      43.750  32.874  32.836  1.00  0.00     0.134 A 
ATOM     64  C   UNL A   1      44.346  33.692  30.666  1.00  0.00     0.134 A 
ATOM     65  F   UNL A   1      43.375  31.888  33.665  1.00  0.00    -0.206 F 
ATOM     66  C   UNL A   1      43.873  34.161  33.362  1.00  0.00     0.040 A 
ATOM     67  C   UNL A   1      44.499  34.978  31.186  1.00  0.00     0.040 A 
ATOM     68  F   UNL A   1      44.578  33.512  29.356  1.00  0.00    -0.206 F 
ATOM     69  C   UNL A   1      44.255  35.217  32.537  1.00  0.00     0.006 A 
ENDBRANCH  48  62
BRANCH  49  70
ATOM     70  C   UNL A   1      42.753  23.610  27.368  1.00  0.00     0.057 A 
ATOM     71  C   UNL A   1      42.968  23.433  25.995  1.00  0.00     0.134 A 
ATOM     72  C   UNL A   1      42.369  22.487  28.110  1.00  0.00     0.134 A 
ATOM     73  F   UNL A   1      43.318  24.476  25.228  1.00  0.00    -0.206 F 
ATOM     74  C   UNL A   1      42.784  22.194  25.380  1.00  0.00     0.040 A 
ATOM     75  C   UNL A   1      42.206  21.236  27.512  1.00  0.00     0.040 A 
ATOM     76  F   UNL A   1      42.156  22.588  29.430  1.00  0.00    -0.206 F 
ATOM     77  C   UNL A   1      42.405  21.090  26.140  1.00  0.00     0.006 A 
ENDBRANCH  49  70
BRANCH  61  78
ATOM     78  C   UNL A   1      48.144  26.844  30.345  1.00  0.00     0.057 A 
ATOM     79  C   UNL A   1      48.499  26.123  31.491  1.00  0.00     0.134 A 
ATOM     80  C   UNL A   1      49.154  27.128  29.418  1.00  0.00     0.134 A 
ATOM     81  F   UNL A   1      47.580  25.832  32.424  1.00  0.00    -0.206 F 
ATOM     82  C   UNL A   1      49.816  25.715  31.716  1.00  0.00     0.040 A 
ATOM     83  C   UNL A   1      50.469  26.704  29.619  1.00  0.00     0.040 A 
ATOM     84  F   UNL A   1      48.878  27.809  28.296  1.00  0.00    -0.206 F 
ATOM     85  C   UNL A   1      50.803  26.000  30.773  1.00  0.00     0.006 A 
ENDBRANCH  61  78
ENDBRANCH  35  36
ENDBRANCH  27  30
ENDBRANCH  25  26
ENDBRANCH  24  25
ENDBRANCH   1  24
TORSDOF 13
ENDMDL
MODEL 2
REMARK VINA RESULT:     -11.3      2.851      7.802
REMARK SMILES Cc1ncccc1C(=O)Nc1cnccc1C(=O)NCCCCNC(=O)c1ccc(-c2c3nc(c(-c4c(F)cccc4F)c4ccc([nH]4)c(-c4c(F)cccc4F)c4nc(c(-c5c(F)cccc5F)c5ccc2[nH]5)C=C4)C=C3)cc1
REMARK SMILES IDX 21 1 20 2 19 3 17 4 18 5 16 7 11 8 12 9 13 10 15 11 14 12
REMARK SMILES IDX 10 13 8 14 9 15 7 17 1 18 2 19 3 20 4 21 6 22 5 23 22 24
REMARK SMILES IDX 23 25 24 26 25 27 26 29 27 30 28 31 80 32 29 33 79 34 30 35
REMARK SMILES IDX 31 36 32 37 73 38 33 39 78 40 72 41 74 42 34 43 77 44 71 45
REMARK SMILES IDX 70 46 35 48 61 49 44 50 60 51 45 52 48 53 59 54 75 55 46 56
REMARK SMILES IDX 47 57 58 59 76 60 49 61 36 62 37 63 42 64 38 65 39 66 41 67
REMARK SMILES IDX 43 68 40 69 62 70 63 71 68 72 64 73 65 74 67 75 69 76 66 77
REMARK SMILES IDX 50 78 51 79 56 80 52 81 53 82 55 83 57 84 54 85
REMARK H PARENT 19 6 10 16 24 28 74 47 48 58
REMARK Flexibility Score: inf
ROOT
ATOM      1  C   UNL A   1      34.251  23.725  25.715  1.00  0.00     0.023 C 
ENDROOT
BRANCH   1   2
ATOM      2  C   UNL A   1      33.695  25.138  25.850  1.00  0.00     0.116 C 
BRANCH   2   3
ATOM      3  N   UNL A   1      32.277  25.196  26.150  1.00  0.00    -0.352 N 
ATOM      4  C   UNL A   1      31.444  26.280  26.281  1.00  0.00     0.253 C 
ATOM      5  O   UNL A   1      30.261  26.078  26.551  1.00  0.00    -0.269 OA
ATOM      6  H   UNL A   1      31.845  24.321  26.280  1.00  0.00     0.163 HD
BRANCH   4   7
ATOM      7  C   UNL A   1      31.937  27.680  26.225  1.00  0.00     0.066 A 
ATOM      8  C   UNL A   1      31.749  28.603  25.191  1.00  0.00     0.072 A 
ATOM      9  C   UNL A   1      32.527  29.764  25.244  1.00  0.00     0.137 A 
ATOM     10  N   UNL A   1      33.324  30.121  26.274  1.00  0.00    -0.263 NA
ATOM     11  C   UNL A   1      32.727  28.054  27.328  1.00  0.00     0.036 A 
ATOM     12  C   UNL A   1      33.375  29.274  27.316  1.00  0.00     0.112 A 
BRANCH   8  13
ATOM     13  N   UNL A   1      30.849  28.537  24.111  1.00  0.00    -0.320 N 
ATOM     14  C   UNL A   1      30.854  27.857  22.920  1.00  0.00     0.257 C 
ATOM     15  O   UNL A   1      30.021  28.189  22.074  1.00  0.00    -0.269 OA
ATOM     16  H   UNL A   1      30.049  29.098  24.236  1.00  0.00     0.170 HD
BRANCH  14  17
ATOM     17  C   UNL A   1      31.756  26.732  22.600  1.00  0.00     0.061 A 
ATOM     18  C   UNL A   1      33.855  28.136  22.156  1.00  0.00     0.067 C 
ATOM     19  C   UNL A   1      33.110  26.842  22.272  1.00  0.00     0.050 A 
ATOM     20  N   UNL A   1      33.888  25.743  22.060  1.00  0.00    -0.261 NA
ATOM     21  C   UNL A   1      33.334  24.523  22.227  1.00  0.00     0.111 A 
ATOM     22  C   UNL A   1      31.231  25.447  22.809  1.00  0.00     0.017 A 
ATOM     23  C   UNL A   1      32.026  24.325  22.616  1.00  0.00     0.021 A 
ENDBRANCH  14  17
ENDBRANCH   8  13
ENDBRANCH   4   7
ENDBRANCH   2   3
ENDBRANCH   1   2
BRANCH   1  24
ATOM     24  C   UNL A   1      35.661  23.603  25.135  1.00  0.00     0.023 C 
BRANCH  24  25
ATOM     25  C   UNL A   1      36.821  23.775  26.111  1.00  0.00     0.116 C 
BRANCH  25  26
ATOM     26  N   UNL A   1      37.765  22.667  26.116  1.00  0.00    -0.352 N 
ATOM     27  C   UNL A   1      39.115  22.651  26.387  1.00  0.00     0.251 C 
ATOM     28  H   UNL A   1      37.377  21.791  25.889  1.00  0.00     0.163 HD
ATOM     29  O   UNL A   1      39.765  21.624  26.243  1.00  0.00    -0.269 OA
BRANCH  27  30
ATOM     30  C   UNL A   1      39.795  23.894  26.813  1.00  0.00     0.039 A 
ATOM     31  C   UNL A   1      40.064  24.877  25.857  1.00  0.00     0.014 A 
ATOM     32  C   UNL A   1      40.131  24.105  28.152  1.00  0.00     0.014 A 
ATOM     33  C   UNL A   1      40.566  26.116  26.262  1.00  0.00     0.010 A 
ATOM     34  C   UNL A   1      40.551  25.367  28.564  1.00  0.00     0.010 A 
ATOM     35  C   UNL A   1      40.758  26.391  27.626  1.00  0.00    -0.014 A 
BRANCH  35  36
ATOM     36  C   UNL A   1      41.140  27.749  28.096  1.00  0.00     0.031 A 
ATOM     37  C   UNL A   1      42.586  28.157  28.144  1.00  0.00     0.074 A 
ATOM     38  C   UNL A   1      40.190  28.585  28.561  1.00  0.00     0.049 A 
ATOM     39  N   UNL A   1      43.118  29.259  28.607  1.00  0.00    -0.248 NA
ATOM     40  C   UNL A   1      43.565  27.185  27.633  1.00  0.00     0.031 C 
ATOM     41  C   UNL A   1      38.756  28.290  28.626  1.00  0.00     0.029 A 
ATOM     42  N   UNL A   1      40.289  29.852  29.081  1.00  0.00    -0.354 N 
ATOM     43  C   UNL A   1      44.491  29.105  28.461  1.00  0.00     0.074 A 
ATOM     44  C   UNL A   1      44.713  27.783  27.916  1.00  0.00     0.031 C 
ATOM     45  C   UNL A   1      38.110  29.353  29.131  1.00  0.00     0.029 A 
ATOM     46  C   UNL A   1      39.083  30.389  29.460  1.00  0.00     0.049 A 
ATOM     47  H   UNL A   1      41.145  30.330  29.173  1.00  0.00     0.167 HD
ATOM     48  C   UNL A   1      45.477  29.992  28.733  1.00  0.00     0.037 A 
ATOM     49  C   UNL A   1      38.792  31.581  30.018  1.00  0.00     0.037 A 
ATOM     50  C   UNL A   1      45.257  31.319  29.243  1.00  0.00     0.049 A 
ATOM     51  C   UNL A   1      39.905  32.553  30.299  1.00  0.00     0.074 A 
ATOM     52  C   UNL A   1      46.187  32.315  29.488  1.00  0.00     0.029 A 
ATOM     53  N   UNL A   1      44.017  31.838  29.585  1.00  0.00    -0.354 N 
ATOM     54  N   UNL A   1      41.192  32.418  30.091  1.00  0.00    -0.248 NA
ATOM     55  C   UNL A   1      39.523  33.844  30.889  1.00  0.00     0.031 C 
ATOM     56  C   UNL A   1      45.514  33.424  30.012  1.00  0.00     0.029 A 
ATOM     57  C   UNL A   1      44.160  33.133  30.053  1.00  0.00     0.049 A 
ATOM     58  H   UNL A   1      43.162  31.357  29.506  1.00  0.00     0.167 HD
ATOM     59  C   UNL A   1      41.769  33.615  30.496  1.00  0.00     0.074 A 
ATOM     60  C   UNL A   1      40.690  34.468  30.949  1.00  0.00     0.031 C 
ATOM     61  C   UNL A   1      43.076  33.975  30.490  1.00  0.00     0.037 A 
BRANCH  48  62
ATOM     62  C   UNL A   1      46.889  29.557  28.469  1.00  0.00     0.057 A 
ATOM     63  C   UNL A   1      47.505  29.768  27.229  1.00  0.00     0.134 A 
ATOM     64  C   UNL A   1      47.651  28.950  29.474  1.00  0.00     0.134 A 
ATOM     65  F   UNL A   1      46.826  30.333  26.219  1.00  0.00    -0.206 F 
ATOM     66  C   UNL A   1      48.820  29.365  26.989  1.00  0.00     0.040 A 
ATOM     67  C   UNL A   1      48.976  28.567  29.255  1.00  0.00     0.040 A 
ATOM     68  F   UNL A   1      47.125  28.723  30.688  1.00  0.00    -0.206 F 
ATOM     69  C   UNL A   1      49.562  28.769  28.006  1.00  0.00     0.006 A 
ENDBRANCH  48  62
BRANCH  49  70
ATOM     70  C   UNL A   1      37.384  31.939  30.322  1.00  0.00     0.057 A 
ATOM     71  C   UNL A   1      36.597  32.624  29.388  1.00  0.00     0.134 A 
ATOM     72  C   UNL A   1      36.797  31.624  31.553  1.00  0.00     0.134 A 
ATOM     73  F   UNL A   1      37.112  32.970  28.199  1.00  0.00    -0.206 F 
ATOM     74  C   UNL A   1      35.284  33.001  29.674  1.00  0.00     0.040 A 
ATOM     75  C   UNL A   1      35.476  31.973  31.842  1.00  0.00     0.040 A 
ATOM     76  F   UNL A   1      37.495  30.963  32.487  1.00  0.00    -0.206 F 
ATOM     77  C   UNL A   1      34.720  32.672  30.904  1.00  0.00     0.006 A 
ENDBRANCH  49  70
BRANCH  61  78
ATOM     78  C   UNL A   1      43.407  35.361  30.956  1.00  0.00     0.057 A 
ATOM     79  C   UNL A   1      43.658  35.649  32.302  1.00  0.00     0.134 A 
ATOM     80  C   UNL A   1      43.517  36.412  30.037  1.00  0.00     0.134 A 
ATOM     81  F   UNL A   1      43.555  34.689  33.233  1.00  0.00    -0.206 F 
ATOM     82  C   UNL A   1      43.987  36.939  32.722  1.00  0.00     0.040 A 
ATOM     83  C   UNL A   1      43.869  37.701  30.440  1.00  0.00     0.040 A 
ATOM     84  F   UNL A   1      43.297  36.201  28.730  1.00  0.00    -0.206 F 
ATOM     85  C   UNL A   1      44.100  37.968  31.788  1.00  0.00     0.006 A 
ENDBRANCH  61  78
ENDBRANCH  35  36
ENDBRANCH  27  30
ENDBRANCH  25  26
ENDBRANCH  24  25
ENDBRANCH   1  24
TORSDOF 13
ENDMDL
MODEL 3
REMARK VINA RESULT:     -11.2      2.033      6.898
REMARK SMILES Cc1ncccc1C(=O)Nc1cnccc1C(=O)NCCCCNC(=O)c1ccc(-c2c3nc(c(-c4c(F)cccc4F)c4ccc([nH]4)c(-c4c(F)cccc4F)c4nc(c(-c5c(F)cccc5F)c5ccc2[nH]5)C=C4)C=C3)cc1
REMARK SMILES IDX 21 1 20 2 19 3 17 4 18 5 16 7 11 8 12 9 13 10 15 11 14 12
REMARK SMILES IDX 10 13 8 14 9 15 7 17 1 18 2 19 3 20 4 21 6 22 5 23 22 24
REMARK SMILES IDX 23 25 24 26 25 27 26 29 27 30 28 31 80 32 29 33 79 34 30 35
REMARK SMILES IDX 31 36 32 37 73 38 33 39 78 40 72 41 74 42 34 43 77 44 71 45
REMARK SMILES IDX 70 46 35 48 61 49 44 50 60 51 45 52 48 53 59 54 75 55 46 56
REMARK SMILES IDX 47 57 58 59 76 60 49 61 36 62 37 63 42 64 38 65 39 66 41 67
REMARK SMILES IDX 43 68 40 69 62 70 63 71 68 72 64 73 65 74 67 75 69 76 66 77
REMARK SMILES IDX 50 78 51 79 56 80 52 81 53 82 55 83 57 84 54 85
REMARK H PARENT 19 6 10 16 24 28 74 47 48 58
REMARK Flexibility Score: inf
ROOT
ATOM      1  C   UNL A   1      36.911  21.795  23.926  1.00  0.00     0.023 C 
ENDROOT
BRANCH   1   2
ATOM      2  C   UNL A   1      36.840  23.245  24.394  1.00  0.00     0.116 C 
BRANCH   2   3
ATOM      3  N   UNL A   1      35.910  23.477  25.483  1.00  0.00    -0.352 N 
ATOM      4  C   UNL A   1      34.607  23.070  25.635  1.00  0.00     0.253 C 
ATOM      5  O   UNL A   1      34.008  23.401  26.658  1.00  0.00    -0.269 OA
ATOM      6  H   UNL A   1      36.270  24.009  26.229  1.00  0.00     0.163 HD
BRANCH   4   7
ATOM      7  C   UNL A   1      33.863  22.352  24.570  1.00  0.00     0.066 A 
ATOM      8  C   UNL A   1      33.461  22.857  23.330  1.00  0.00     0.072 A 
ATOM      9  C   UNL A   1      32.546  22.081  22.609  1.00  0.00     0.137 A 
ATOM     10  N   UNL A   1      32.142  20.838  22.947  1.00  0.00    -0.263 NA
ATOM     11  C   UNL A   1      33.489  21.040  24.918  1.00  0.00     0.036 A 
ATOM     12  C   UNL A   1      32.656  20.326  24.078  1.00  0.00     0.112 A 
BRANCH   8  13
ATOM     13  N   UNL A   1      33.881  24.035  22.686  1.00  0.00    -0.320 N 
ATOM     14  C   UNL A   1      33.575  25.362  22.854  1.00  0.00     0.257 C 
ATOM     15  O   UNL A   1      33.937  26.143  21.972  1.00  0.00    -0.269 OA
ATOM     16  H   UNL A   1      34.530  23.873  21.963  1.00  0.00     0.170 HD
BRANCH  14  17
ATOM     17  C   UNL A   1      32.881  25.920  24.032  1.00  0.00     0.061 A 
ATOM     18  C   UNL A   1      30.534  25.079  23.437  1.00  0.00     0.067 C 
ATOM     19  C   UNL A   1      31.519  25.786  24.315  1.00  0.00     0.050 A 
ATOM     20  N   UNL A   1      30.974  26.274  25.466  1.00  0.00    -0.261 NA
ATOM     21  C   UNL A   1      31.795  26.853  26.369  1.00  0.00     0.111 A 
ATOM     22  C   UNL A   1      33.707  26.485  25.018  1.00  0.00     0.017 A 
ATOM     23  C   UNL A   1      33.159  26.964  26.201  1.00  0.00     0.021 A 
ENDBRANCH  14  17
ENDBRANCH   8  13
ENDBRANCH   4   7
ENDBRANCH   2   3
ENDBRANCH   1   2
BRANCH   1  24
ATOM     24  C   UNL A   1      37.340  20.765  24.971  1.00  0.00     0.023 C 
BRANCH  24  25
ATOM     25  C   UNL A   1      38.657  21.028  25.694  1.00  0.00     0.116 C 
BRANCH  25  26
ATOM     26  N   UNL A   1      39.599  19.920  25.638  1.00  0.00    -0.352 N 
ATOM     27  C   UNL A   1      40.931  19.868  25.985  1.00  0.00     0.251 C 
ATOM     28  H   UNL A   1      39.226  19.075  25.298  1.00  0.00     0.163 HD
ATOM     29  O   UNL A   1      41.589  18.858  25.773  1.00  0.00    -0.269 OA
BRANCH  27  30
ATOM     30  C   UNL A   1      41.584  21.056  26.578  1.00  0.00     0.039 A 
ATOM     31  C   UNL A   1      42.136  22.017  25.727  1.00  0.00     0.014 A 
ATOM     32  C   UNL A   1      41.619  21.240  27.961  1.00  0.00     0.014 A 
ATOM     33  C   UNL A   1      42.621  23.214  26.258  1.00  0.00     0.010 A 
ATOM     34  C   UNL A   1      42.025  22.465  28.482  1.00  0.00     0.010 A 
ATOM     35  C   UNL A   1      42.515  23.473  27.635  1.00  0.00    -0.014 A 
BRANCH  35  36
ATOM     36  C   UNL A   1      42.877  24.797  28.205  1.00  0.00     0.031 A 
ATOM     37  C   UNL A   1      41.821  25.845  28.422  1.00  0.00     0.074 A 
ATOM     38  C   UNL A   1      44.171  25.088  28.445  1.00  0.00     0.049 A 
ATOM     39  N   UNL A   1      41.957  27.084  28.820  1.00  0.00    -0.248 NA
ATOM     40  C   UNL A   1      40.434  25.458  28.123  1.00  0.00     0.031 C 
ATOM     41  C   UNL A   1      45.301  24.182  28.221  1.00  0.00     0.029 A 
ATOM     42  N   UNL A   1      44.758  26.234  28.921  1.00  0.00    -0.354 N 
ATOM     43  C   UNL A   1      40.679  27.629  28.801  1.00  0.00     0.074 A 
ATOM     44  C   UNL A   1      39.790  26.602  28.301  1.00  0.00     0.031 C 
ATOM     45  C   UNL A   1      46.438  24.798  28.582  1.00  0.00     0.029 A 
ATOM     46  C   UNL A   1      46.126  26.152  29.026  1.00  0.00     0.049 A 
ATOM     47  H   UNL A   1      44.247  27.040  29.163  1.00  0.00     0.167 HD
ATOM     48  C   UNL A   1      40.278  28.863  29.187  1.00  0.00     0.037 A 
ATOM     49  C   UNL A   1      47.029  27.066  29.429  1.00  0.00     0.037 A 
ATOM     50  C   UNL A   1      41.156  29.873  29.715  1.00  0.00     0.049 A 
ATOM     51  C   UNL A   1      46.556  28.426  29.863  1.00  0.00     0.074 A 
ATOM     52  C   UNL A   1      40.833  31.131  30.195  1.00  0.00     0.029 A 
ATOM     53  N   UNL A   1      42.530  29.740  29.836  1.00  0.00    -0.354 N 
ATOM     54  N   UNL A   1      45.335  28.903  29.904  1.00  0.00    -0.248 NA
ATOM     55  C   UNL A   1      47.586  29.374  30.312  1.00  0.00     0.031 C 
ATOM     56  C   UNL A   1      42.017  31.773  30.573  1.00  0.00     0.029 A 
ATOM     57  C   UNL A   1      43.072  30.899  30.368  1.00  0.00     0.049 A 
ATOM     58  H   UNL A   1      43.046  28.941  29.582  1.00  0.00     0.167 HD
ATOM     59  C   UNL A   1      45.447  30.192  30.409  1.00  0.00     0.074 A 
ATOM     60  C   UNL A   1      46.854  30.418  30.672  1.00  0.00     0.031 C 
ATOM     61  C   UNL A   1      44.472  31.105  30.635  1.00  0.00     0.037 A 
BRANCH  48  62
ATOM     62  C   UNL A   1      38.817  29.184  29.062  1.00  0.00     0.057 A 
ATOM     63  C   UNL A   1      37.952  29.114  30.161  1.00  0.00     0.134 A 
ATOM     64  C   UNL A   1      38.276  29.598  27.839  1.00  0.00     0.134 A 
ATOM     65  F   UNL A   1      38.404  28.712  31.359  1.00  0.00    -0.206 F 
ATOM     66  C   UNL A   1      36.595  29.418  30.042  1.00  0.00     0.040 A 
ATOM     67  C   UNL A   1      36.926  29.931  27.713  1.00  0.00     0.040 A 
ATOM     68  F   UNL A   1      39.051  29.693  26.747  1.00  0.00    -0.206 F 
ATOM     69  C   UNL A   1      36.079  29.834  28.816  1.00  0.00     0.006 A 
ENDBRANCH  48  62
BRANCH  49  70
ATOM     70  C   UNL A   1      48.473  26.723  29.471  1.00  0.00     0.057 A 
ATOM     71  C   UNL A   1      49.029  26.086  30.588  1.00  0.00     0.134 A 
ATOM     72  C   UNL A   1      49.332  27.033  28.411  1.00  0.00     0.134 A 
ATOM     73  F   UNL A   1      48.258  25.781  31.643  1.00  0.00    -0.206 F 
ATOM     74  C   UNL A   1      50.391  25.790  30.658  1.00  0.00     0.040 A 
ATOM     75  C   UNL A   1      50.692  26.720  28.458  1.00  0.00     0.040 A 
ATOM     76  F   UNL A   1      48.860  27.636  27.311  1.00  0.00    -0.206 F 
ATOM     77  C   UNL A   1      51.226  26.105  29.589  1.00  0.00     0.006 A 
ENDBRANCH  49  70
BRANCH  61  78
ATOM     78  C   UNL A   1      44.887  32.419  31.228  1.00  0.00     0.057 A 
ATOM     79  C   UNL A   1      44.968  32.613  32.612  1.00  0.00     0.134 A 
ATOM     80  C   UNL A   1      45.249  33.489  30.401  1.00  0.00     0.134 A 
ATOM     81  F   UNL A   1      44.622  31.630  33.457  1.00  0.00    -0.206 F 
ATOM     82  C   UNL A   1      45.376  33.833  33.153  1.00  0.00     0.040 A 
ATOM     83  C   UNL A   1      45.681  34.707  30.930  1.00  0.00     0.040 A 
ATOM     84  F   UNL A   1      45.201  33.366  29.066  1.00  0.00    -0.206 F 
ATOM     85  C   UNL A   1      45.740  34.882  32.310  1.00  0.00     0.006 A 
ENDBRANCH  61  78
ENDBRANCH  35  36
ENDBRANCH  27  30
ENDBRANCH  25  26
ENDBRANCH  24  25
ENDBRANCH   1  24
TORSDOF 13
ENDMDL
