MODEL 1
REMARK VINA RESULT:     -12.5      0.000      0.000
REMARK SMILES Cc1c(NC(=O)c2ccc(Br)cc2N)cccc1C(=O)NCCCCNC(=O)c1ccc(-c2c3nc(c(-c4c(F)cccc4F)c4ccc([nH]4)c(-c4c(F)cccc4F)c4nc(c(-c5c(F)cccc5F)c5ccc2[nH]5)C=C4)C=C3)cc1
REMARK SMILES IDX 23 1 22 2 21 3 19 4 20 5 18 7 1 8 2 9 3 10 15 11 17 12 16 13
REMARK SMILES IDX 4 14 5 15 6 17 7 18 8 19 13 20 9 21 12 22 10 23 11 24 14 25
REMARK SMILES IDX 24 28 25 29 26 30 27 31 28 33 29 34 30 35 82 36 31 37 81 38
REMARK SMILES IDX 32 39 33 40 34 41 75 42 35 43 80 44 74 45 76 46 36 47 79 48
REMARK SMILES IDX 73 49 72 50 37 52 63 53 46 54 62 55 47 56 50 57 61 58 77 59
REMARK SMILES IDX 48 60 49 61 60 63 78 64 51 65 38 66 39 67 44 68 40 69 41 70
REMARK SMILES IDX 43 71 45 72 42 73 64 74 65 75 70 76 66 77 67 78 69 79 71 80
REMARK SMILES IDX 68 81 52 82 53 83 58 84 54 85 55 86 57 87 59 88 56 89
REMARK H PARENT 21 6 4 16 14 26 14 27 26 32 76 51 50 62
REMARK Flexibility Score: inf
ROOT
ATOM      1  C   UNL A   1      32.370  30.629  26.933  1.00  0.00     0.023 C 
ENDROOT
BRANCH   1   2
ATOM      2  C   UNL A   1      31.814  30.302  25.533  1.00  0.00     0.116 C 
BRANCH   2   3
ATOM      3  N   UNL A   1      32.875  29.845  24.660  1.00  0.00    -0.352 N 
ATOM      4  C   UNL A   1      33.273  28.652  24.121  1.00  0.00     0.251 C 
ATOM      5  O   UNL A   1      34.313  28.729  23.453  1.00  0.00    -0.269 OA
ATOM      6  H   UNL A   1      33.462  30.586  24.381  1.00  0.00     0.163 HD
BRANCH   4   7
ATOM      7  C   UNL A   1      32.594  27.307  24.198  1.00  0.00     0.044 A 
ATOM      8  C   UNL A   1      32.648  26.875  26.727  1.00  0.00     0.047 C 
ATOM      9  C   UNL A   1      32.266  26.514  25.322  1.00  0.00    -0.015 A 
ATOM     10  C   UNL A   1      31.729  25.208  25.130  1.00  0.00     0.045 A 
ATOM     11  C   UNL A   1      31.597  24.657  23.858  1.00  0.00     0.026 A 
ATOM     12  C   UNL A   1      32.414  26.719  22.921  1.00  0.00     0.014 A 
ATOM     13  C   UNL A   1      31.945  25.414  22.750  1.00  0.00     0.003 A 
BRANCH  10  14
ATOM     14  N   UNL A   1      31.338  24.485  26.269  1.00  0.00    -0.322 N 
ATOM     15  C   UNL A   1      31.812  23.318  26.816  1.00  0.00     0.257 C 
ATOM     16  H   UNL A   1      30.588  24.886  26.764  1.00  0.00     0.170 HD
ATOM     17  O   UNL A   1      31.169  22.798  27.730  1.00  0.00    -0.269 OA
BRANCH  15  18
ATOM     18  C   UNL A   1      33.101  22.699  26.409  1.00  0.00     0.063 A 
ATOM     19  C   UNL A   1      34.224  23.533  26.551  1.00  0.00     0.017 A 
ATOM     20  C   UNL A   1      33.240  21.420  25.827  1.00  0.00     0.045 A 
ATOM     21  C   UNL A   1      35.489  23.098  26.158  1.00  0.00     0.016 A 
ATOM     22  C   UNL A   1      34.525  20.997  25.453  1.00  0.00     0.042 A 
ATOM     23  C   UNL A   1      35.634  21.824  25.623  1.00  0.00     0.020 A 
ATOM     24  Br  UNL A   1      37.340  21.226  25.074  1.00  0.00    -0.051 Br
BRANCH  20  25
ATOM     25  N   UNL A   1      32.172  20.621  25.427  1.00  0.00    -0.398 N 
ATOM     26  H   UNL A   1      31.694  20.070  26.088  1.00  0.00     0.156 HD
ATOM     27  H   UNL A   1      31.896  20.607  24.481  1.00  0.00     0.156 HD
ENDBRANCH  20  25
ENDBRANCH  15  18
ENDBRANCH  10  14
ENDBRANCH   4   7
ENDBRANCH   2   3
ENDBRANCH   1   2
BRANCH   1  28
ATOM     28  C   UNL A   1      33.874  30.873  27.000  1.00  0.00     0.023 C 
BRANCH  28  29
ATOM     29  C   UNL A   1      34.384  30.991  28.421  1.00  0.00     0.116 C 
BRANCH  29  30
ATOM     30  N   UNL A   1      35.579  31.815  28.583  1.00  0.00    -0.352 N 
ATOM     31  C   UNL A   1      36.894  31.424  28.780  1.00  0.00     0.251 C 
ATOM     32  H   UNL A   1      35.428  32.788  28.547  1.00  0.00     0.163 HD
ATOM     33  O   UNL A   1      37.764  32.271  28.962  1.00  0.00    -0.269 OA
BRANCH  31  34
ATOM     34  C   UNL A   1      37.274  29.998  28.598  1.00  0.00     0.039 A 
ATOM     35  C   UNL A   1      37.406  29.220  29.754  1.00  0.00     0.014 A 
ATOM     36  C   UNL A   1      37.812  29.555  27.398  1.00  0.00     0.014 A 
ATOM     37  C   UNL A   1      38.350  28.201  29.777  1.00  0.00     0.010 A 
ATOM     38  C   UNL A   1      38.852  28.652  27.455  1.00  0.00     0.010 A 
ATOM     39  C   UNL A   1      39.178  28.040  28.670  1.00  0.00    -0.014 A 
BRANCH  39  40
ATOM     40  C   UNL A   1      40.487  27.400  28.743  1.00  0.00     0.031 A 
ATOM     41  C   UNL A   1      40.628  25.950  28.505  1.00  0.00     0.074 A 
ATOM     42  C   UNL A   1      41.586  28.170  28.917  1.00  0.00     0.049 A 
ATOM     43  N   UNL A   1      41.637  25.241  28.879  1.00  0.00    -0.248 NA
ATOM     44  C   UNL A   1      39.584  25.162  27.866  1.00  0.00     0.031 C 
ATOM     45  C   UNL A   1      42.981  27.788  28.714  1.00  0.00     0.029 A 
ATOM     46  N   UNL A   1      41.657  29.433  29.523  1.00  0.00    -0.354 N 
ATOM     47  C   UNL A   1      41.525  24.000  28.291  1.00  0.00     0.074 A 
ATOM     48  C   UNL A   1      40.186  23.976  27.755  1.00  0.00     0.031 C 
ATOM     49  C   UNL A   1      43.766  28.624  29.411  1.00  0.00     0.029 A 
ATOM     50  C   UNL A   1      42.894  29.474  30.202  1.00  0.00     0.049 A 
ATOM     51  H   UNL A   1      40.981  30.146  29.484  1.00  0.00     0.167 HD
ATOM     52  C   UNL A   1      42.635  23.209  28.210  1.00  0.00     0.037 A 
ATOM     53  C   UNL A   1      42.951  29.596  31.561  1.00  0.00     0.037 A 
ATOM     54  C   UNL A   1      43.737  23.783  28.989  1.00  0.00     0.049 A 
ATOM     55  C   UNL A   1      43.606  28.424  32.256  1.00  0.00     0.074 A 
ATOM     56  C   UNL A   1      44.865  24.508  28.638  1.00  0.00     0.029 A 
ATOM     57  N   UNL A   1      43.610  23.907  30.371  1.00  0.00    -0.354 N 
ATOM     58  N   UNL A   1      43.825  27.270  31.687  1.00  0.00    -0.248 NA
ATOM     59  C   UNL A   1      44.031  28.443  33.653  1.00  0.00     0.031 C 
ATOM     60  C   UNL A   1      45.370  25.132  29.807  1.00  0.00     0.029 A 
ATOM     61  C   UNL A   1      44.567  24.769  30.873  1.00  0.00     0.049 A 
ATOM     62  H   UNL A   1      42.933  23.445  30.915  1.00  0.00     0.167 HD
ATOM     63  C   UNL A   1      44.352  26.398  32.603  1.00  0.00     0.074 A 
ATOM     64  C   UNL A   1      44.492  27.189  33.812  1.00  0.00     0.031 C 
ATOM     65  C   UNL A   1      44.606  25.093  32.293  1.00  0.00     0.037 A 
BRANCH  52  66
ATOM     66  C   UNL A   1      42.829  22.095  27.188  1.00  0.00     0.057 A 
ATOM     67  C   UNL A   1      42.098  20.891  27.294  1.00  0.00     0.134 A 
ATOM     68  C   UNL A   1      43.770  22.084  26.142  1.00  0.00     0.134 A 
ATOM     69  F   UNL A   1      41.075  20.760  28.148  1.00  0.00    -0.206 F 
ATOM     70  C   UNL A   1      42.374  19.749  26.525  1.00  0.00     0.040 A 
ATOM     71  C   UNL A   1      44.084  20.940  25.389  1.00  0.00     0.040 A 
ATOM     72  F   UNL A   1      44.398  23.188  25.735  1.00  0.00    -0.206 F 
ATOM     73  C   UNL A   1      43.397  19.758  25.594  1.00  0.00     0.006 A 
ENDBRANCH  52  66
BRANCH  53  74
ATOM     74  C   UNL A   1      41.847  30.417  32.123  1.00  0.00     0.057 A 
ATOM     75  C   UNL A   1      41.942  31.817  32.034  1.00  0.00     0.134 A 
ATOM     76  C   UNL A   1      40.584  29.880  32.381  1.00  0.00     0.134 A 
ATOM     77  F   UNL A   1      43.128  32.397  31.784  1.00  0.00    -0.206 F 
ATOM     78  C   UNL A   1      40.815  32.640  32.084  1.00  0.00     0.040 A 
ATOM     79  C   UNL A   1      39.447  30.696  32.441  1.00  0.00     0.040 A 
ATOM     80  F   UNL A   1      40.407  28.553  32.451  1.00  0.00    -0.206 F 
ATOM     81  C   UNL A   1      39.556  32.074  32.253  1.00  0.00     0.006 A 
ENDBRANCH  53  74
BRANCH  65  82
ATOM     82  C   UNL A   1      44.982  24.014  33.276  1.00  0.00     0.057 A 
ATOM     83  C   UNL A   1      44.127  22.974  33.669  1.00  0.00     0.134 A 
ATOM     84  C   UNL A   1      46.309  23.911  33.747  1.00  0.00     0.134 A 
ATOM     85  F   UNL A   1      42.869  22.891  33.213  1.00  0.00    -0.206 F 
ATOM     86  C   UNL A   1      44.547  21.934  34.508  1.00  0.00     0.040 A 
ATOM     87  C   UNL A   1      46.753  22.851  34.542  1.00  0.00     0.040 A 
ATOM     88  F   UNL A   1      47.237  24.829  33.434  1.00  0.00    -0.206 F 
ATOM     89  C   UNL A   1      45.867  21.862  34.937  1.00  0.00     0.006 A 
ENDBRANCH  65  82
ENDBRANCH  39  40
ENDBRANCH  31  34
ENDBRANCH  29  30
ENDBRANCH  28  29
ENDBRANCH   1  28
TORSDOF 14
ENDMDL
MODEL 2
REMARK VINA RESULT:     -12.2      4.036      9.420
REMARK SMILES Cc1c(NC(=O)c2ccc(Br)cc2N)cccc1C(=O)NCCCCNC(=O)c1ccc(-c2c3nc(c(-c4c(F)cccc4F)c4ccc([nH]4)c(-c4c(F)cccc4F)c4nc(c(-c5c(F)cccc5F)c5ccc2[nH]5)C=C4)C=C3)cc1
REMARK SMILES IDX 23 1 22 2 21 3 19 4 20 5 18 7 1 8 2 9 3 10 15 11 17 12 16 13
REMARK SMILES IDX 4 14 5 15 6 17 7 18 8 19 13 20 9 21 12 22 10 23 11 24 14 25
REMARK SMILES IDX 24 28 25 29 26 30 27 31 28 33 29 34 30 35 82 36 31 37 81 38
REMARK SMILES IDX 32 39 33 40 34 41 75 42 35 43 80 44 74 45 76 46 36 47 79 48
REMARK SMILES IDX 73 49 72 50 37 52 63 53 46 54 62 55 47 56 50 57 61 58 77 59
REMARK SMILES IDX 48 60 49 61 60 63 78 64 51 65 38 66 39 67 44 68 40 69 41 70
REMARK SMILES IDX 43 71 45 72 42 73 64 74 65 75 70 76 66 77 67 78 69 79 71 80
REMARK SMILES IDX 68 81 52 82 53 83 58 84 54 85 55 86 57 87 59 88 56 89
REMARK H PARENT 21 6 4 16 14 26 14 27 26 32 76 51 50 62
REMARK Flexibility Score: inf
ROOT
ATOM      1  C   UNL A   1      37.555  21.288  24.762  1.00  0.00     0.023 C 
ENDROOT
BRANCH   1   2
ATOM      2  C   UNL A   1      36.252  20.503  25.009  1.00  0.00     0.116 C 
BRANCH   2   3
ATOM      3  N   UNL A   1      35.540  21.048  26.146  1.00  0.00    -0.352 N 
ATOM      4  C   UNL A   1      34.493  21.908  26.343  1.00  0.00     0.251 C 
ATOM      5  O   UNL A   1      34.256  22.140  27.535  1.00  0.00    -0.269 OA
ATOM      6  H   UNL A   1      35.902  20.713  26.999  1.00  0.00     0.163 HD
BRANCH   4   7
ATOM      7  C   UNL A   1      33.592  22.549  25.317  1.00  0.00     0.044 A 
ATOM      8  C   UNL A   1      35.307  23.776  23.855  1.00  0.00     0.047 C 
ATOM      9  C   UNL A   1      33.912  23.341  24.190  1.00  0.00    -0.015 A 
ATOM     10  C   UNL A   1      32.865  23.941  23.431  1.00  0.00     0.045 A 
ATOM     11  C   UNL A   1      31.533  23.837  23.822  1.00  0.00     0.026 A 
ATOM     12  C   UNL A   1      32.221  22.443  25.660  1.00  0.00     0.014 A 
ATOM     13  C   UNL A   1      31.211  23.088  24.944  1.00  0.00     0.003 A 
BRANCH  10  14
ATOM     14  N   UNL A   1      33.218  24.651  22.271  1.00  0.00    -0.322 N 
ATOM     15  C   UNL A   1      33.128  25.983  21.953  1.00  0.00     0.257 C 
ATOM     16  H   UNL A   1      33.598  24.091  21.556  1.00  0.00     0.170 HD
ATOM     17  O   UNL A   1      33.346  26.322  20.789  1.00  0.00    -0.269 OA
BRANCH  15  18
ATOM     18  C   UNL A   1      32.856  27.039  22.965  1.00  0.00     0.063 A 
ATOM     19  C   UNL A   1      33.744  27.052  24.055  1.00  0.00     0.017 A 
ATOM     20  C   UNL A   1      31.755  27.923  22.941  1.00  0.00     0.045 A 
ATOM     21  C   UNL A   1      33.574  27.955  25.102  1.00  0.00     0.016 A 
ATOM     22  C   UNL A   1      31.611  28.834  23.998  1.00  0.00     0.042 A 
ATOM     23  C   UNL A   1      32.514  28.853  25.061  1.00  0.00     0.020 A 
ATOM     24  Br  UNL A   1      32.265  30.075  26.479  1.00  0.00    -0.051 Br
BRANCH  20  25
ATOM     25  N   UNL A   1      30.696  27.832  22.041  1.00  0.00    -0.398 N 
ATOM     26  H   UNL A   1      29.866  27.371  22.301  1.00  0.00     0.156 HD
ATOM     27  H   UNL A   1      30.779  28.229  21.142  1.00  0.00     0.156 HD
ENDBRANCH  20  25
ENDBRANCH  15  18
ENDBRANCH  10  14
ENDBRANCH   4   7
ENDBRANCH   2   3
ENDBRANCH   1   2
BRANCH   1  28
ATOM     28  C   UNL A   1      38.397  21.569  26.003  1.00  0.00     0.023 C 
BRANCH  28  29
ATOM     29  C   UNL A   1      38.877  23.004  26.071  1.00  0.00     0.116 C 
BRANCH  29  30
ATOM     30  N   UNL A   1      40.255  23.173  26.522  1.00  0.00    -0.352 N 
ATOM     31  C   UNL A   1      40.887  24.310  27.002  1.00  0.00     0.251 C 
ATOM     32  H   UNL A   1      40.816  22.365  26.479  1.00  0.00     0.163 HD
ATOM     33  O   UNL A   1      42.084  24.277  27.275  1.00  0.00    -0.269 OA
BRANCH  31  34
ATOM     34  C   UNL A   1      40.082  25.511  27.348  1.00  0.00     0.039 A 
ATOM     35  C   UNL A   1      40.280  26.659  26.572  1.00  0.00     0.014 A 
ATOM     36  C   UNL A   1      39.440  25.605  28.576  1.00  0.00     0.014 A 
ATOM     37  C   UNL A   1      40.153  27.907  27.170  1.00  0.00     0.010 A 
ATOM     38  C   UNL A   1      39.458  26.825  29.218  1.00  0.00     0.010 A 
ATOM     39  C   UNL A   1      39.900  27.964  28.538  1.00  0.00    -0.014 A 
BRANCH  39  40
ATOM     40  C   UNL A   1      40.242  29.119  29.361  1.00  0.00     0.031 A 
ATOM     41  C   UNL A   1      39.230  30.150  29.664  1.00  0.00     0.074 A 
ATOM     42  C   UNL A   1      41.463  29.175  29.941  1.00  0.00     0.049 A 
ATOM     43  N   UNL A   1      39.500  31.346  30.065  1.00  0.00    -0.248 NA
ATOM     44  C   UNL A   1      37.805  29.922  29.471  1.00  0.00     0.031 C 
ATOM     45  C   UNL A   1      41.896  30.055  31.022  1.00  0.00     0.029 A 
ATOM     46  N   UNL A   1      42.644  28.555  29.505  1.00  0.00    -0.354 N 
ATOM     47  C   UNL A   1      38.319  31.937  30.459  1.00  0.00     0.074 A 
ATOM     48  C   UNL A   1      37.293  31.045  29.977  1.00  0.00     0.031 C 
ATOM     49  C   UNL A   1      43.234  30.147  31.000  1.00  0.00     0.029 A 
ATOM     50  C   UNL A   1      43.694  29.449  29.812  1.00  0.00     0.049 A 
ATOM     51  H   UNL A   1      42.725  27.675  29.073  1.00  0.00     0.167 HD
ATOM     52  C   UNL A   1      38.372  33.034  31.270  1.00  0.00     0.037 A 
ATOM     53  C   UNL A   1      44.455  30.008  28.827  1.00  0.00     0.037 A 
ATOM     54  C   UNL A   1      39.753  33.513  31.400  1.00  0.00     0.049 A 
ATOM     55  C   UNL A   1      44.367  31.516  28.763  1.00  0.00     0.074 A 
ATOM     56  C   UNL A   1      40.710  33.377  32.394  1.00  0.00     0.029 A 
ATOM     57  N   UNL A   1      40.424  33.991  30.277  1.00  0.00    -0.354 N 
ATOM     58  N   UNL A   1      43.440  32.216  29.359  1.00  0.00    -0.248 NA
ATOM     59  C   UNL A   1      45.286  32.352  27.995  1.00  0.00     0.031 C 
ATOM     60  C   UNL A   1      41.973  33.700  31.837  1.00  0.00     0.029 A 
ATOM     61  C   UNL A   1      41.784  34.058  30.514  1.00  0.00     0.049 A 
ATOM     62  H   UNL A   1      39.990  34.245  29.431  1.00  0.00     0.167 HD
ATOM     63  C   UNL A   1      43.587  33.540  29.039  1.00  0.00     0.074 A 
ATOM     64  C   UNL A   1      44.775  33.579  28.207  1.00  0.00     0.031 C 
ATOM     65  C   UNL A   1      42.702  34.488  29.468  1.00  0.00     0.037 A 
BRANCH  52  66
ATOM     66  C   UNL A   1      37.244  33.485  32.188  1.00  0.00     0.057 A 
ATOM     67  C   UNL A   1      36.116  34.153  31.662  1.00  0.00     0.134 A 
ATOM     68  C   UNL A   1      37.229  33.391  33.592  1.00  0.00     0.134 A 
ATOM     69  F   UNL A   1      35.894  34.230  30.344  1.00  0.00    -0.206 F 
ATOM     70  C   UNL A   1      35.147  34.782  32.461  1.00  0.00     0.040 A 
ATOM     71  C   UNL A   1      36.289  34.045  34.406  1.00  0.00     0.040 A 
ATOM     72  F   UNL A   1      38.077  32.612  34.264  1.00  0.00    -0.206 F 
ATOM     73  C   UNL A   1      35.252  34.762  33.840  1.00  0.00     0.006 A 
ENDBRANCH  52  66
BRANCH  53  74
ATOM     74  C   UNL A   1      44.656  29.112  27.659  1.00  0.00     0.057 A 
ATOM     75  C   UNL A   1      45.623  28.096  27.752  1.00  0.00     0.134 A 
ATOM     76  C   UNL A   1      43.697  28.986  26.651  1.00  0.00     0.134 A 
ATOM     77  F   UNL A   1      46.572  28.155  28.702  1.00  0.00    -0.206 F 
ATOM     78  C   UNL A   1      45.572  26.950  26.955  1.00  0.00     0.040 A 
ATOM     79  C   UNL A   1      43.641  27.846  25.840  1.00  0.00     0.040 A 
ATOM     80  F   UNL A   1      42.724  29.899  26.517  1.00  0.00    -0.206 F 
ATOM     81  C   UNL A   1      44.555  26.808  26.018  1.00  0.00     0.006 A 
ENDBRANCH  53  74
BRANCH  65  82
ATOM     82  C   UNL A   1      42.655  35.920  29.000  1.00  0.00     0.057 A 
ATOM     83  C   UNL A   1      43.470  36.942  29.509  1.00  0.00     0.134 A 
ATOM     84  C   UNL A   1      41.868  36.279  27.884  1.00  0.00     0.134 A 
ATOM     85  F   UNL A   1      44.341  36.715  30.502  1.00  0.00    -0.206 F 
ATOM     86  C   UNL A   1      43.466  38.239  28.979  1.00  0.00     0.040 A 
ATOM     87  C   UNL A   1      41.896  37.554  27.314  1.00  0.00     0.040 A 
ATOM     88  F   UNL A   1      41.056  35.394  27.285  1.00  0.00    -0.206 F 
ATOM     89  C   UNL A   1      42.688  38.545  27.869  1.00  0.00     0.006 A 
ENDBRANCH  65  82
ENDBRANCH  39  40
ENDBRANCH  31  34
ENDBRANCH  29  30
ENDBRANCH  28  29
ENDBRANCH   1  28
TORSDOF 14
ENDMDL
MODEL 3
REMARK VINA RESULT:     -12.1      3.312      8.422
REMARK SMILES Cc1c(NC(=O)c2ccc(Br)cc2N)cccc1C(=O)NCCCCNC(=O)c1ccc(-c2c3nc(c(-c4c(F)cccc4F)c4ccc([nH]4)c(-c4c(F)cccc4F)c4nc(c(-c5c(F)cccc5F)c5ccc2[nH]5)C=C4)C=C3)cc1
REMARK SMILES IDX 23 1 22 2 21 3 19 4 20 5 18 7 1 8 2 9 3 10 15 11 17 12 16 13
REMARK SMILES IDX 4 14 5 15 6 17 7 18 8 19 13 20 9 21 12 22 10 23 11 24 14 25
REMARK SMILES IDX 24 28 25 29 26 30 27 31 28 33 29 34 30 35 82 36 31 37 81 38
REMARK SMILES IDX 32 39 33 40 34 41 75 42 35 43 80 44 74 45 76 46 36 47 79 48
REMARK SMILES IDX 73 49 72 50 37 52 63 53 46 54 62 55 47 56 50 57 61 58 77 59
REMARK SMILES IDX 48 60 49 61 60 63 78 64 51 65 38 66 39 67 44 68 40 69 41 70
REMARK SMILES IDX 43 71 45 72 42 73 64 74 65 75 70 76 66 77 67 78 69 79 71 80
REMARK SMILES IDX 68 81 52 82 53 83 58 84 54 85 55 86 57 87 59 88 56 89
REMARK H PARENT 21 6 4 16 14 26 14 27 26 32 76 51 50 62
REMARK Flexibility Score: inf
ROOT
ATOM      1  C   UNL A   1      38.039  20.927  25.261  1.00  0.00     0.023 C 
ENDROOT
BRANCH   1   2
ATOM      2  C   UNL A   1      36.522  20.748  25.055  1.00  0.00     0.116 C 
BRANCH   2   3
ATOM      3  N   UNL A   1      35.795  21.199  26.223  1.00  0.00    -0.352 N 
ATOM      4  C   UNL A   1      34.725  22.015  26.472  1.00  0.00     0.251 C 
ATOM      5  O   UNL A   1      34.481  22.164  27.676  1.00  0.00    -0.269 OA
ATOM      6  H   UNL A   1      36.167  20.820  27.052  1.00  0.00     0.163 HD
BRANCH   4   7
ATOM      7  C   UNL A   1      33.806  22.695  25.488  1.00  0.00     0.044 A 
ATOM      8  C   UNL A   1      35.499  23.931  24.008  1.00  0.00     0.047 C 
ATOM      9  C   UNL A   1      34.107  23.509  24.371  1.00  0.00    -0.015 A 
ATOM     10  C   UNL A   1      33.049  24.144  23.657  1.00  0.00     0.045 A 
ATOM     11  C   UNL A   1      31.727  24.051  24.083  1.00  0.00     0.026 A 
ATOM     12  C   UNL A   1      32.444  22.602  25.868  1.00  0.00     0.014 A 
ATOM     13  C   UNL A   1      31.424  23.280  25.195  1.00  0.00     0.003 A 
BRANCH  10  14
ATOM     14  N   UNL A   1      33.381  24.876  22.505  1.00  0.00    -0.322 N 
ATOM     15  C   UNL A   1      33.275  26.213  22.211  1.00  0.00     0.257 C 
ATOM     16  H   UNL A   1      33.756  24.331  21.776  1.00  0.00     0.170 HD
ATOM     17  O   UNL A   1      33.475  26.573  21.050  1.00  0.00    -0.269 OA
BRANCH  15  18
ATOM     18  C   UNL A   1      33.007  27.248  23.243  1.00  0.00     0.063 A 
ATOM     19  C   UNL A   1      33.873  27.213  24.351  1.00  0.00     0.017 A 
ATOM     20  C   UNL A   1      31.928  28.158  23.221  1.00  0.00     0.045 A 
ATOM     21  C   UNL A   1      33.704  28.094  25.417  1.00  0.00     0.016 A 
ATOM     22  C   UNL A   1      31.784  29.046  24.298  1.00  0.00     0.042 A 
ATOM     23  C   UNL A   1      32.666  29.017  25.378  1.00  0.00     0.020 A 
ATOM     24  Br  UNL A   1      32.416  30.209  26.823  1.00  0.00    -0.051 Br
BRANCH  20  25
ATOM     25  N   UNL A   1      30.886  28.115  22.298  1.00  0.00    -0.398 N 
ATOM     26  H   UNL A   1      30.022  28.537  22.510  1.00  0.00     0.156 HD
ATOM     27  H   UNL A   1      31.013  27.662  21.432  1.00  0.00     0.156 HD
ENDBRANCH  20  25
ENDBRANCH  15  18
ENDBRANCH  10  14
ENDBRANCH   4   7
ENDBRANCH   2   3
ENDBRANCH   1   2
BRANCH   1  28
ATOM     28  C   UNL A   1      38.452  22.173  26.039  1.00  0.00     0.023 C 
BRANCH  28  29
ATOM     29  C   UNL A   1      39.892  22.117  26.509  1.00  0.00     0.116 C 
BRANCH  29  30
ATOM     30  N   UNL A   1      40.675  21.010  25.968  1.00  0.00    -0.352 N 
ATOM     31  C   UNL A   1      42.047  20.813  25.992  1.00  0.00     0.251 C 
ATOM     32  H   UNL A   1      40.154  20.303  25.523  1.00  0.00     0.163 HD
ATOM     33  O   UNL A   1      42.536  19.842  25.421  1.00  0.00    -0.269 OA
BRANCH  31  34
ATOM     34  C   UNL A   1      42.901  21.676  26.850  1.00  0.00     0.039 A 
ATOM     35  C   UNL A   1      42.673  21.629  28.231  1.00  0.00     0.014 A 
ATOM     36  C   UNL A   1      43.630  22.722  26.302  1.00  0.00     0.014 A 
ATOM     37  C   UNL A   1      42.870  22.779  28.985  1.00  0.00     0.010 A 
ATOM     38  C   UNL A   1      43.685  23.906  27.007  1.00  0.00     0.010 A 
ATOM     39  C   UNL A   1      43.220  23.953  28.325  1.00  0.00    -0.014 A 
BRANCH  39  40
ATOM     40  C   UNL A   1      42.964  25.280  28.875  1.00  0.00     0.031 A 
ATOM     41  C   UNL A   1      41.799  26.066  28.424  1.00  0.00     0.074 A 
ATOM     42  C   UNL A   1      43.741  25.735  29.885  1.00  0.00     0.049 A 
ATOM     43  N   UNL A   1      41.676  27.342  28.567  1.00  0.00    -0.248 NA
ATOM     44  C   UNL A   1      40.686  25.464  27.705  1.00  0.00     0.031 C 
ATOM     45  C   UNL A   1      43.478  26.867  30.769  1.00  0.00     0.029 A 
ATOM     46  N   UNL A   1      45.059  25.361  30.184  1.00  0.00    -0.354 N 
ATOM     47  C   UNL A   1      40.381  27.682  28.240  1.00  0.00     0.074 A 
ATOM     48  C   UNL A   1      39.844  26.496  27.620  1.00  0.00     0.031 C 
ATOM     49  C   UNL A   1      44.638  27.281  31.302  1.00  0.00     0.029 A 
ATOM     50  C   UNL A   1      45.700  26.524  30.662  1.00  0.00     0.049 A 
ATOM     51  H   UNL A   1      45.458  24.467  30.081  1.00  0.00     0.167 HD
ATOM     52  C   UNL A   1      39.889  28.881  28.669  1.00  0.00     0.037 A 
ATOM     53  C   UNL A   1      46.753  27.077  29.992  1.00  0.00     0.037 A 
ATOM     54  C   UNL A   1      40.959  29.701  29.249  1.00  0.00     0.049 A 
ATOM     55  C   UNL A   1      46.498  28.482  29.496  1.00  0.00     0.074 A 
ATOM     56  C   UNL A   1      41.334  29.978  30.554  1.00  0.00     0.029 A 
ATOM     57  N   UNL A   1      42.011  30.129  28.442  1.00  0.00    -0.354 N 
ATOM     58  N   UNL A   1      45.312  29.023  29.424  1.00  0.00    -0.248 NA
ATOM     59  C   UNL A   1      47.545  29.374  29.007  1.00  0.00     0.031 C 
ATOM     60  C   UNL A   1      42.652  30.503  30.532  1.00  0.00     0.029 A 
ATOM     61  C   UNL A   1      43.069  30.569  29.214  1.00  0.00     0.049 A 
ATOM     62  H   UNL A   1      42.002  30.119  27.458  1.00  0.00     0.167 HD
ATOM     63  C   UNL A   1      45.409  30.267  28.857  1.00  0.00     0.074 A 
ATOM     64  C   UNL A   1      46.831  30.454  28.642  1.00  0.00     0.031 C 
ATOM     65  C   UNL A   1      44.305  31.026  28.593  1.00  0.00     0.037 A 
BRANCH  52  66
ATOM     66  C   UNL A   1      38.409  29.191  28.855  1.00  0.00     0.057 A 
ATOM     67  C   UNL A   1      37.647  29.712  27.785  1.00  0.00     0.134 A 
ATOM     68  C   UNL A   1      37.687  29.100  30.059  1.00  0.00     0.134 A 
ATOM     69  F   UNL A   1      38.125  29.758  26.536  1.00  0.00    -0.206 F 
ATOM     70  C   UNL A   1      36.346  30.217  27.938  1.00  0.00     0.040 A 
ATOM     71  C   UNL A   1      36.400  29.633  30.237  1.00  0.00     0.040 A 
ATOM     72  F   UNL A   1      38.147  28.433  31.118  1.00  0.00    -0.206 F 
ATOM     73  C   UNL A   1      35.730  30.215  29.176  1.00  0.00     0.006 A 
ENDBRANCH  52  66
BRANCH  53  74
ATOM     74  C   UNL A   1      47.608  26.070  29.310  1.00  0.00     0.057 A 
ATOM     75  C   UNL A   1      47.369  25.798  27.952  1.00  0.00     0.134 A 
ATOM     76  C   UNL A   1      48.844  25.677  29.830  1.00  0.00     0.134 A 
ATOM     77  F   UNL A   1      46.202  26.154  27.389  1.00  0.00    -0.206 F 
ATOM     78  C   UNL A   1      48.356  25.264  27.120  1.00  0.00     0.040 A 
ATOM     79  C   UNL A   1      49.838  25.133  29.007  1.00  0.00     0.040 A 
ATOM     80  F   UNL A   1      49.157  25.928  31.110  1.00  0.00    -0.206 F 
ATOM     81  C   UNL A   1      49.609  24.962  27.642  1.00  0.00     0.006 A 
ENDBRANCH  53  74
BRANCH  65  82
ATOM     82  C   UNL A   1      44.288  32.300  27.788  1.00  0.00     0.057 A 
ATOM     83  C   UNL A   1      44.631  32.379  26.431  1.00  0.00     0.134 A 
ATOM     84  C   UNL A   1      43.762  33.487  28.345  1.00  0.00     0.134 A 
ATOM     85  F   UNL A   1      45.047  31.302  25.749  1.00  0.00    -0.206 F 
ATOM     86  C   UNL A   1      44.507  33.564  25.692  1.00  0.00     0.040 A 
ATOM     87  C   UNL A   1      43.585  34.659  27.605  1.00  0.00     0.040 A 
ATOM     88  F   UNL A   1      43.377  33.548  29.629  1.00  0.00    -0.206 F 
ATOM     89  C   UNL A   1      43.969  34.705  26.275  1.00  0.00     0.006 A 
ENDBRANCH  65  82
ENDBRANCH  39  40
ENDBRANCH  31  34
ENDBRANCH  29  30
ENDBRANCH  28  29
ENDBRANCH   1  28
TORSDOF 14
ENDMDL
