MODEL 1
REMARK VINA RESULT:     -13.6      0.000      0.000
REMARK SMILES O=C(NCCCCNC(=O)[C@H]1CCCN(c2cc(-c3ccccn3)nc(-c3ccccc3F)n2)C1)c1ccc(-c2c3nc(c(-c4c(F)cccc4F)c4ccc([nH]4)c(-c4c(F)cccc4F)c4nc(c(-c5c(F)cccc5F)c5ccc2[nH]5)C=C4)C=C3)cc1
REMARK SMILES IDX 5 1 4 2 3 3 1 4 2 5 36 7 37 8 89 9 38 10 88 11 39 12 40 13
REMARK SMILES IDX 41 14 82 15 42 16 87 17 81 18 83 19 43 20 86 21 80 22 79 23
REMARK SMILES IDX 44 25 70 26 53 27 69 28 54 29 57 30 68 31 84 32 55 33 56 34
REMARK SMILES IDX 67 36 85 37 58 38 45 39 46 40 51 41 47 42 48 43 50 44 52 45
REMARK SMILES IDX 49 46 71 47 72 48 77 49 73 50 74 51 76 52 78 53 75 54 59 55
REMARK SMILES IDX 60 56 65 57 61 58 62 59 64 60 66 61 63 62 6 63 7 64 8 65
REMARK SMILES IDX 9 66 10 68 11 69 12 70 35 71 13 72 15 73 14 74 16 75 17 76
REMARK SMILES IDX 34 77 18 78 26 79 25 80 19 81 20 82 24 83 21 84 23 85 22 86
REMARK SMILES IDX 27 87 28 88 32 89 29 90 31 91 33 92 30 93
REMARK H PARENT 3 6 83 24 57 35 8 67
REMARK Flexibility Score: inf
ROOT
ATOM      1  C   UNL A   1      35.126  23.433  25.806  1.00  0.00     0.023 C 
ENDROOT
BRANCH   1   2
ATOM      2  C   UNL A   1      36.578  23.902  25.853  1.00  0.00     0.116 C 
BRANCH   2   3
ATOM      3  N   UNL A   1      37.539  22.813  25.927  1.00  0.00    -0.352 N 
ATOM      4  O   UNL A   1      39.542  21.830  26.261  1.00  0.00    -0.269 OA
ATOM      5  C   UNL A   1      38.847  22.838  26.350  1.00  0.00     0.251 C 
ATOM      6  H   UNL A   1      37.207  21.934  25.633  1.00  0.00     0.163 HD
BRANCH   5   7
ATOM      7  C   UNL A   1      39.429  24.091  26.878  1.00  0.00     0.039 A 
ATOM      8  C   UNL A   1      39.401  24.379  28.244  1.00  0.00     0.014 A 
ATOM      9  C   UNL A   1      40.010  24.992  25.980  1.00  0.00     0.014 A 
ATOM     10  C   UNL A   1      39.834  25.622  28.696  1.00  0.00     0.010 A 
ATOM     11  C   UNL A   1      40.506  26.212  26.444  1.00  0.00     0.010 A 
ATOM     12  C   UNL A   1      40.392  26.549  27.802  1.00  0.00    -0.014 A 
BRANCH  12  13
ATOM     13  C   UNL A   1      40.887  27.854  28.308  1.00  0.00     0.031 A 
ATOM     14  C   UNL A   1      42.353  28.186  28.281  1.00  0.00     0.074 A 
ATOM     15  C   UNL A   1      40.000  28.750  28.777  1.00  0.00     0.049 A 
ATOM     16  N   UNL A   1      42.957  29.271  28.697  1.00  0.00    -0.248 NA
ATOM     17  C   UNL A   1      43.257  27.172  27.719  1.00  0.00     0.031 C 
ATOM     18  C   UNL A   1      38.552  28.541  28.848  1.00  0.00     0.029 A 
ATOM     19  N   UNL A   1      40.178  30.017  29.270  1.00  0.00    -0.354 N 
ATOM     20  C   UNL A   1      44.311  29.065  28.462  1.00  0.00     0.074 A 
ATOM     21  C   UNL A   1      44.443  27.743  27.888  1.00  0.00     0.031 C 
ATOM     22  C   UNL A   1      37.971  29.654  29.319  1.00  0.00     0.029 A 
ATOM     23  C   UNL A   1      39.007  30.632  29.636  1.00  0.00     0.049 A 
ATOM     24  H   UNL A   1      41.062  30.444  29.353  1.00  0.00     0.167 HD
ATOM     25  C   UNL A   1      45.345  29.908  28.697  1.00  0.00     0.037 A 
ATOM     26  C   UNL A   1      38.787  31.842  30.182  1.00  0.00     0.037 A 
ATOM     27  C   UNL A   1      45.206  31.230  29.252  1.00  0.00     0.049 A 
ATOM     28  C   UNL A   1      39.953  32.742  30.465  1.00  0.00     0.074 A 
ATOM     29  C   UNL A   1      46.193  32.167  29.500  1.00  0.00     0.029 A 
ATOM     30  N   UNL A   1      44.005  31.800  29.646  1.00  0.00    -0.354 N 
ATOM     31  N   UNL A   1      41.226  32.538  30.230  1.00  0.00    -0.248 NA
ATOM     32  C   UNL A   1      39.656  34.036  31.097  1.00  0.00     0.031 C 
ATOM     33  C   UNL A   1      45.596  33.290  30.083  1.00  0.00     0.029 A 
ATOM     34  C   UNL A   1      44.230  33.069  30.155  1.00  0.00     0.049 A 
ATOM     35  H   UNL A   1      43.123  31.368  29.575  1.00  0.00     0.167 HD
ATOM     36  C   UNL A   1      41.882  33.678  30.672  1.00  0.00     0.074 A 
ATOM     37  C   UNL A   1      40.864  34.577  31.178  1.00  0.00     0.031 C 
ATOM     38  C   UNL A   1      43.208  33.952  30.657  1.00  0.00     0.037 A 
BRANCH  25  39
ATOM     39  C   UNL A   1      46.727  29.429  28.365  1.00  0.00     0.057 A 
ATOM     40  C   UNL A   1      47.246  29.586  27.073  1.00  0.00     0.134 A 
ATOM     41  C   UNL A   1      47.520  28.753  29.301  1.00  0.00     0.134 A 
ATOM     42  F   UNL A   1      46.536  30.218  26.126  1.00  0.00    -0.206 F 
ATOM     43  C   UNL A   1      48.497  29.078  26.721  1.00  0.00     0.040 A 
ATOM     44  C   UNL A   1      48.783  28.259  28.967  1.00  0.00     0.040 A 
ATOM     45  F   UNL A   1      47.087  28.579  30.559  1.00  0.00    -0.206 F 
ATOM     46  C   UNL A   1      49.271  28.414  27.671  1.00  0.00     0.006 A 
ENDBRANCH  25  39
BRANCH  26  47
ATOM     47  C   UNL A   1      37.397  32.259  30.482  1.00  0.00     0.057 A 
ATOM     48  C   UNL A   1      36.688  33.104  29.621  1.00  0.00     0.134 A 
ATOM     49  C   UNL A   1      36.769  31.870  31.670  1.00  0.00     0.134 A 
ATOM     50  F   UNL A   1      37.241  33.519  28.471  1.00  0.00    -0.206 F 
ATOM     51  C   UNL A   1      35.413  33.571  29.942  1.00  0.00     0.040 A 
ATOM     52  C   UNL A   1      35.486  32.311  31.994  1.00  0.00     0.040 A 
ATOM     53  F   UNL A   1      37.395  31.050  32.527  1.00  0.00    -0.206 F 
ATOM     54  C   UNL A   1      34.809  33.173  31.133  1.00  0.00     0.006 A 
ENDBRANCH  26  47
BRANCH  38  55
ATOM     55  C   UNL A   1      43.644  35.284  31.189  1.00  0.00     0.057 A 
ATOM     56  C   UNL A   1      43.905  35.456  32.554  1.00  0.00     0.134 A 
ATOM     57  C   UNL A   1      43.730  36.412  30.363  1.00  0.00     0.134 A 
ATOM     58  F   UNL A   1      43.830  34.416  33.398  1.00  0.00    -0.206 F 
ATOM     59  C   UNL A   1      44.223  36.708  33.083  1.00  0.00     0.040 A 
ATOM     60  C   UNL A   1      44.068  37.664  30.877  1.00  0.00     0.040 A 
ATOM     61  F   UNL A   1      43.502  36.308  29.045  1.00  0.00    -0.206 F 
ATOM     62  C   UNL A   1      44.306  37.816  32.243  1.00  0.00     0.006 A 
ENDBRANCH  38  55
ENDBRANCH  12  13
ENDBRANCH   5   7
ENDBRANCH   2   3
ENDBRANCH   1   2
BRANCH   1  63
ATOM     63  C   UNL A   1      34.543  22.919  27.127  1.00  0.00     0.023 C 
BRANCH  63  64
ATOM     64  C   UNL A   1      33.502  21.812  26.983  1.00  0.00     0.116 C 
BRANCH  64  65
ATOM     65  N   UNL A   1      32.190  22.193  27.465  1.00  0.00    -0.356 N 
ATOM     66  C   UNL A   1      31.177  22.942  26.969  1.00  0.00     0.224 C 
ATOM     67  H   UNL A   1      31.990  21.823  28.355  1.00  0.00     0.163 HD
ATOM     68  O   UNL A   1      30.143  22.937  27.652  1.00  0.00    -0.275 OA
BRANCH  66  69
ATOM     69  C   UNL A   1      31.249  23.856  25.751  1.00  0.00     0.098 C 
ATOM     70  C   UNL A   1      31.144  23.033  24.458  1.00  0.00     0.017 C 
ATOM     71  C   UNL A   1      30.322  25.062  25.707  1.00  0.00     0.131 C 
ATOM     72  C   UNL A   1      31.376  23.917  23.228  1.00  0.00     0.022 C 
ATOM     73  N   UNL A   1      30.542  25.821  24.478  1.00  0.00    -0.356 N 
ATOM     74  C   UNL A   1      30.433  25.121  23.210  1.00  0.00     0.118 C 
BRANCH  73  75
ATOM     75  C   UNL A   1      30.668  27.188  24.545  1.00  0.00     0.133 A 
ATOM     76  C   UNL A   1      29.964  28.010  23.693  1.00  0.00     0.077 A 
ATOM     77  N   UNL A   1      31.517  27.693  25.452  1.00  0.00    -0.211 NA
ATOM     78  C   UNL A   1      30.155  29.373  23.816  1.00  0.00     0.095 A 
ATOM     79  C   UNL A   1      31.682  29.030  25.476  1.00  0.00     0.165 A 
ATOM     80  N   UNL A   1      31.017  29.902  24.706  1.00  0.00    -0.226 NA
BRANCH  78  81
ATOM     81  C   UNL A   1      29.418  30.311  22.962  1.00  0.00     0.089 A 
ATOM     82  C   UNL A   1      28.924  31.516  23.463  1.00  0.00     0.030 A 
ATOM     83  N   UNL A   1      29.188  29.910  21.684  1.00  0.00    -0.255 NA
ATOM     84  C   UNL A   1      28.177  32.340  22.626  1.00  0.00     0.004 A 
ATOM     85  C   UNL A   1      28.475  30.738  20.891  1.00  0.00     0.112 A 
ATOM     86  C   UNL A   1      27.950  31.947  21.312  1.00  0.00     0.020 A 
ENDBRANCH  78  81
BRANCH  79  87
ATOM     87  C   UNL A   1      32.773  29.550  26.296  1.00  0.00     0.055 A 
ATOM     88  C   UNL A   1      33.978  28.830  26.424  1.00  0.00     0.015 A 
ATOM     89  C   UNL A   1      32.682  30.782  26.949  1.00  0.00     0.134 A 
ATOM     90  C   UNL A   1      35.051  29.339  27.165  1.00  0.00     0.001 A 
ATOM     91  C   UNL A   1      33.745  31.292  27.697  1.00  0.00     0.040 A 
ATOM     92  F   UNL A   1      31.550  31.500  26.893  1.00  0.00    -0.206 F 
ATOM     93  C   UNL A   1      34.934  30.572  27.800  1.00  0.00     0.003 A 
ENDBRANCH  79  87
ENDBRANCH  73  75
ENDBRANCH  66  69
ENDBRANCH  64  65
ENDBRANCH  63  64
ENDBRANCH   1  63
TORSDOF 14
ENDMDL
MODEL 2
REMARK VINA RESULT:     -13.4      0.178      5.880
REMARK SMILES O=C(NCCCCNC(=O)[C@H]1CCCN(c2cc(-c3ccccn3)nc(-c3ccccc3F)n2)C1)c1ccc(-c2c3nc(c(-c4c(F)cccc4F)c4ccc([nH]4)c(-c4c(F)cccc4F)c4nc(c(-c5c(F)cccc5F)c5ccc2[nH]5)C=C4)C=C3)cc1
REMARK SMILES IDX 5 1 4 2 3 3 1 4 2 5 36 7 37 8 89 9 38 10 88 11 39 12 40 13
REMARK SMILES IDX 41 14 82 15 42 16 87 17 81 18 83 19 43 20 86 21 80 22 79 23
REMARK SMILES IDX 44 25 70 26 53 27 69 28 54 29 57 30 68 31 84 32 55 33 56 34
REMARK SMILES IDX 67 36 85 37 58 38 45 39 46 40 51 41 47 42 48 43 50 44 52 45
REMARK SMILES IDX 49 46 71 47 72 48 77 49 73 50 74 51 76 52 78 53 75 54 59 55
REMARK SMILES IDX 60 56 65 57 61 58 62 59 64 60 66 61 63 62 6 63 7 64 8 65
REMARK SMILES IDX 9 66 10 68 11 69 12 70 35 71 13 72 15 73 14 74 16 75 17 76
REMARK SMILES IDX 34 77 18 78 26 79 25 80 19 81 20 82 24 83 21 84 23 85 22 86
REMARK SMILES IDX 27 87 28 88 32 89 29 90 31 91 33 92 30 93
REMARK H PARENT 3 6 83 24 57 35 8 67
REMARK Flexibility Score: inf
ROOT
ATOM      1  C   UNL A   1      35.181  23.346  25.859  1.00  0.00     0.023 C 
ENDROOT
BRANCH   1   2
ATOM      2  C   UNL A   1      36.616  23.844  26.016  1.00  0.00     0.116 C 
BRANCH   2   3
ATOM      3  N   UNL A   1      37.606  22.779  25.998  1.00  0.00    -0.352 N 
ATOM      4  O   UNL A   1      39.650  21.841  26.170  1.00  0.00    -0.269 OA
ATOM      5  C   UNL A   1      38.939  22.828  26.332  1.00  0.00     0.251 C 
ATOM      6  H   UNL A   1      37.276  21.899  25.704  1.00  0.00     0.163 HD
BRANCH   5   7
ATOM      7  C   UNL A   1      39.524  24.083  26.851  1.00  0.00     0.039 A 
ATOM      8  C   UNL A   1      39.536  24.360  28.219  1.00  0.00     0.014 A 
ATOM      9  C   UNL A   1      40.069  24.996  25.943  1.00  0.00     0.014 A 
ATOM     10  C   UNL A   1      39.971  25.604  28.667  1.00  0.00     0.010 A 
ATOM     11  C   UNL A   1      40.567  26.218  26.401  1.00  0.00     0.010 A 
ATOM     12  C   UNL A   1      40.491  26.544  27.764  1.00  0.00    -0.014 A 
BRANCH  12  13
ATOM     13  C   UNL A   1      40.989  27.849  28.264  1.00  0.00     0.031 A 
ATOM     14  C   UNL A   1      40.040  28.884  28.800  1.00  0.00     0.074 A 
ATOM     15  C   UNL A   1      42.313  28.091  28.248  1.00  0.00     0.049 A 
ATOM     16  N   UNL A   1      40.304  30.081  29.261  1.00  0.00    -0.248 NA
ATOM     17  C   UNL A   1      38.612  28.533  28.821  1.00  0.00     0.031 C 
ATOM     18  C   UNL A   1      43.331  27.161  27.755  1.00  0.00     0.029 A 
ATOM     19  N   UNL A   1      43.032  29.181  28.666  1.00  0.00    -0.354 N 
ATOM     20  C   UNL A   1      39.077  30.633  29.611  1.00  0.00     0.074 A 
ATOM     21  C   UNL A   1      38.066  29.648  29.289  1.00  0.00     0.031 C 
ATOM     22  C   UNL A   1      44.544  27.703  27.934  1.00  0.00     0.029 A 
ATOM     23  C   UNL A   1      44.387  29.040  28.500  1.00  0.00     0.049 A 
ATOM     24  H   UNL A   1      42.616  29.987  29.049  1.00  0.00     0.167 HD
ATOM     25  C   UNL A   1      38.823  31.844  30.158  1.00  0.00     0.037 A 
ATOM     26  C   UNL A   1      45.395  29.893  28.758  1.00  0.00     0.037 A 
ATOM     27  C   UNL A   1      39.836  32.813  30.493  1.00  0.00     0.049 A 
ATOM     28  C   UNL A   1      45.084  31.244  29.331  1.00  0.00     0.074 A 
ATOM     29  C   UNL A   1      39.677  34.058  31.077  1.00  0.00     0.029 A 
ATOM     30  N   UNL A   1      41.194  32.646  30.272  1.00  0.00    -0.354 N 
ATOM     31  N   UNL A   1      43.921  31.748  29.665  1.00  0.00    -0.248 NA
ATOM     32  C   UNL A   1      46.220  32.149  29.555  1.00  0.00     0.031 C 
ATOM     33  C   UNL A   1      40.934  34.661  31.172  1.00  0.00     0.029 A 
ATOM     34  C   UNL A   1      41.882  33.774  30.689  1.00  0.00     0.049 A 
ATOM     35  H   UNL A   1      41.610  31.846  29.877  1.00  0.00     0.167 HD
ATOM     36  C   UNL A   1      44.183  33.021  30.149  1.00  0.00     0.074 A 
ATOM     37  C   UNL A   1      45.618  33.209  30.078  1.00  0.00     0.031 C 
ATOM     38  C   UNL A   1      43.310  33.948  30.611  1.00  0.00     0.037 A 
BRANCH  25  39
ATOM     39  C   UNL A   1      37.392  32.206  30.426  1.00  0.00     0.057 A 
ATOM     40  C   UNL A   1      36.705  33.078  29.571  1.00  0.00     0.134 A 
ATOM     41  C   UNL A   1      36.715  31.749  31.563  1.00  0.00     0.134 A 
ATOM     42  F   UNL A   1      37.298  33.559  28.468  1.00  0.00    -0.206 F 
ATOM     43  C   UNL A   1      35.400  33.491  29.844  1.00  0.00     0.040 A 
ATOM     44  C   UNL A   1      35.401  32.138  31.835  1.00  0.00     0.040 A 
ATOM     45  F   UNL A   1      37.312  30.904  32.416  1.00  0.00    -0.206 F 
ATOM     46  C   UNL A   1      34.744  33.019  30.978  1.00  0.00     0.006 A 
ENDBRANCH  25  39
BRANCH  26  47
ATOM     47  C   UNL A   1      46.789  29.475  28.476  1.00  0.00     0.057 A 
ATOM     48  C   UNL A   1      47.582  28.874  29.460  1.00  0.00     0.134 A 
ATOM     49  C   UNL A   1      47.378  29.725  27.232  1.00  0.00     0.134 A 
ATOM     50  F   UNL A   1      47.075  28.618  30.676  1.00  0.00    -0.206 F 
ATOM     51  C   UNL A   1      48.921  28.560  29.228  1.00  0.00     0.040 A 
ATOM     52  C   UNL A   1      48.709  29.395  26.979  1.00  0.00     0.040 A 
ATOM     53  F   UNL A   1      46.662  30.286  26.247  1.00  0.00    -0.206 F 
ATOM     54  C   UNL A   1      49.488  28.821  27.982  1.00  0.00     0.006 A 
ENDBRANCH  26  47
BRANCH  38  55
ATOM     55  C   UNL A   1      43.877  35.249  31.095  1.00  0.00     0.057 A 
ATOM     56  C   UNL A   1      44.218  35.421  32.442  1.00  0.00     0.134 A 
ATOM     57  C   UNL A   1      44.014  36.352  30.243  1.00  0.00     0.134 A 
ATOM     58  F   UNL A   1      44.100  34.405  33.310  1.00  0.00    -0.206 F 
ATOM     59  C   UNL A   1      44.661  36.652  32.930  1.00  0.00     0.040 A 
ATOM     60  C   UNL A   1      44.477  37.580  30.715  1.00  0.00     0.040 A 
ATOM     61  F   UNL A   1      43.715  36.245  28.940  1.00  0.00    -0.206 F 
ATOM     62  C   UNL A   1      44.793  37.735  32.064  1.00  0.00     0.006 A 
ENDBRANCH  38  55
ENDBRANCH  12  13
ENDBRANCH   5   7
ENDBRANCH   2   3
ENDBRANCH   1   2
BRANCH   1  63
ATOM     63  C   UNL A   1      34.471  22.924  27.151  1.00  0.00     0.023 C 
BRANCH  63  64
ATOM     64  C   UNL A   1      33.427  21.825  26.980  1.00  0.00     0.116 C 
BRANCH  64  65
ATOM     65  N   UNL A   1      32.110  22.209  27.446  1.00  0.00    -0.356 N 
ATOM     66  C   UNL A   1      31.105  22.961  26.938  1.00  0.00     0.224 C 
ATOM     67  H   UNL A   1      31.897  21.840  28.334  1.00  0.00     0.163 HD
ATOM     68  O   UNL A   1      30.062  22.959  27.609  1.00  0.00    -0.275 OA
BRANCH  66  69
ATOM     69  C   UNL A   1      31.193  23.875  25.721  1.00  0.00     0.098 C 
ATOM     70  C   UNL A   1      31.106  23.051  24.427  1.00  0.00     0.017 C 
ATOM     71  C   UNL A   1      30.269  25.081  25.664  1.00  0.00     0.131 C 
ATOM     72  C   UNL A   1      31.355  23.935  23.200  1.00  0.00     0.022 C 
ATOM     73  N   UNL A   1      30.506  25.840  24.439  1.00  0.00    -0.356 N 
ATOM     74  C   UNL A   1      30.413  25.140  23.169  1.00  0.00     0.118 C 
BRANCH  73  75
ATOM     75  C   UNL A   1      30.632  27.207  24.507  1.00  0.00     0.133 A 
ATOM     76  C   UNL A   1      29.925  28.030  23.658  1.00  0.00     0.077 A 
ATOM     77  N   UNL A   1      31.484  27.711  25.411  1.00  0.00    -0.211 NA
ATOM     78  C   UNL A   1      30.115  29.393  23.782  1.00  0.00     0.095 A 
ATOM     79  C   UNL A   1      31.648  29.048  25.437  1.00  0.00     0.165 A 
ATOM     80  N   UNL A   1      30.981  29.921  24.669  1.00  0.00    -0.226 NA
BRANCH  78  81
ATOM     81  C   UNL A   1      29.376  30.332  22.931  1.00  0.00     0.089 A 
ATOM     82  C   UNL A   1      29.021  31.601  23.389  1.00  0.00     0.030 A 
ATOM     83  N   UNL A   1      29.001  29.871  21.709  1.00  0.00    -0.255 NA
ATOM     84  C   UNL A   1      28.264  32.429  22.564  1.00  0.00     0.004 A 
ATOM     85  C   UNL A   1      28.283  30.703  20.925  1.00  0.00     0.112 A 
ATOM     86  C   UNL A   1      27.889  31.975  21.305  1.00  0.00     0.020 A 
ENDBRANCH  78  81
BRANCH  79  87
ATOM     87  C   UNL A   1      32.742  29.567  26.253  1.00  0.00     0.055 A 
ATOM     88  C   UNL A   1      33.945  28.844  26.383  1.00  0.00     0.015 A 
ATOM     89  C   UNL A   1      32.656  30.801  26.902  1.00  0.00     0.134 A 
ATOM     90  C   UNL A   1      35.020  29.351  27.121  1.00  0.00     0.001 A 
ATOM     91  C   UNL A   1      33.721  31.311  27.647  1.00  0.00     0.040 A 
ATOM     92  F   UNL A   1      31.526  31.524  26.846  1.00  0.00    -0.206 F 
ATOM     93  C   UNL A   1      34.908  30.587  27.752  1.00  0.00     0.003 A 
ENDBRANCH  79  87
ENDBRANCH  73  75
ENDBRANCH  66  69
ENDBRANCH  64  65
ENDBRANCH  63  64
ENDBRANCH   1  63
TORSDOF 14
ENDMDL
MODEL 3
REMARK VINA RESULT:     -13.0      0.579      2.931
REMARK SMILES O=C(NCCCCNC(=O)[C@H]1CCCN(c2cc(-c3ccccn3)nc(-c3ccccc3F)n2)C1)c1ccc(-c2c3nc(c(-c4c(F)cccc4F)c4ccc([nH]4)c(-c4c(F)cccc4F)c4nc(c(-c5c(F)cccc5F)c5ccc2[nH]5)C=C4)C=C3)cc1
REMARK SMILES IDX 5 1 4 2 3 3 1 4 2 5 36 7 37 8 89 9 38 10 88 11 39 12 40 13
REMARK SMILES IDX 41 14 82 15 42 16 87 17 81 18 83 19 43 20 86 21 80 22 79 23
REMARK SMILES IDX 44 25 70 26 53 27 69 28 54 29 57 30 68 31 84 32 55 33 56 34
REMARK SMILES IDX 67 36 85 37 58 38 45 39 46 40 51 41 47 42 48 43 50 44 52 45
REMARK SMILES IDX 49 46 71 47 72 48 77 49 73 50 74 51 76 52 78 53 75 54 59 55
REMARK SMILES IDX 60 56 65 57 61 58 62 59 64 60 66 61 63 62 6 63 7 64 8 65
REMARK SMILES IDX 9 66 10 68 11 69 12 70 35 71 13 72 15 73 14 74 16 75 17 76
REMARK SMILES IDX 34 77 18 78 26 79 25 80 19 81 20 82 24 83 21 84 23 85 22 86
REMARK SMILES IDX 27 87 28 88 32 89 29 90 31 91 33 92 30 93
REMARK H PARENT 3 6 83 24 57 35 8 67
REMARK Flexibility Score: inf
ROOT
ATOM      1  C   UNL A   1      35.202  23.341  25.964  1.00  0.00     0.023 C 
ENDROOT
BRANCH   1   2
ATOM      2  C   UNL A   1      36.636  23.847  26.094  1.00  0.00     0.116 C 
BRANCH   2   3
ATOM      3  N   UNL A   1      37.633  22.790  26.035  1.00  0.00    -0.352 N 
ATOM      4  O   UNL A   1      39.687  21.863  26.145  1.00  0.00    -0.269 OA
ATOM      5  C   UNL A   1      38.973  22.843  26.340  1.00  0.00     0.251 C 
ATOM      6  H   UNL A   1      37.303  21.912  25.735  1.00  0.00     0.163 HD
BRANCH   5   7
ATOM      7  C   UNL A   1      39.562  24.093  26.866  1.00  0.00     0.039 A 
ATOM      8  C   UNL A   1      39.634  24.333  28.239  1.00  0.00     0.014 A 
ATOM      9  C   UNL A   1      40.047  25.041  25.959  1.00  0.00     0.014 A 
ATOM     10  C   UNL A   1      40.069  25.571  28.701  1.00  0.00     0.010 A 
ATOM     11  C   UNL A   1      40.546  26.258  26.428  1.00  0.00     0.010 A 
ATOM     12  C   UNL A   1      40.530  26.545  27.802  1.00  0.00    -0.014 A 
BRANCH  12  13
ATOM     13  C   UNL A   1      41.030  27.845  28.314  1.00  0.00     0.031 A 
ATOM     14  C   UNL A   1      42.495  28.176  28.283  1.00  0.00     0.074 A 
ATOM     15  C   UNL A   1      40.146  28.739  28.795  1.00  0.00     0.049 A 
ATOM     16  N   UNL A   1      43.103  29.257  28.704  1.00  0.00    -0.248 NA
ATOM     17  C   UNL A   1      43.396  27.165  27.709  1.00  0.00     0.031 C 
ATOM     18  C   UNL A   1      38.698  28.531  28.872  1.00  0.00     0.029 A 
ATOM     19  N   UNL A   1      40.328  30.002  29.297  1.00  0.00    -0.354 N 
ATOM     20  C   UNL A   1      44.456  29.052  28.461  1.00  0.00     0.074 A 
ATOM     21  C   UNL A   1      44.583  27.734  27.877  1.00  0.00     0.031 C 
ATOM     22  C   UNL A   1      38.121  29.641  29.353  1.00  0.00     0.029 A 
ATOM     23  C   UNL A   1      39.159  30.616  29.673  1.00  0.00     0.049 A 
ATOM     24  H   UNL A   1      41.212  30.427  29.379  1.00  0.00     0.167 HD
ATOM     25  C   UNL A   1      45.492  29.891  28.697  1.00  0.00     0.037 A 
ATOM     26  C   UNL A   1      38.944  31.822  30.228  1.00  0.00     0.037 A 
ATOM     27  C   UNL A   1      45.357  31.209  29.263  1.00  0.00     0.049 A 
ATOM     28  C   UNL A   1      40.112  32.719  30.513  1.00  0.00     0.074 A 
ATOM     29  C   UNL A   1      46.347  32.144  29.513  1.00  0.00     0.029 A 
ATOM     30  N   UNL A   1      44.159  31.778  29.667  1.00  0.00    -0.354 N 
ATOM     31  N   UNL A   1      41.383  32.515  30.270  1.00  0.00    -0.248 NA
ATOM     32  C   UNL A   1      39.819  34.007  31.156  1.00  0.00     0.031 C 
ATOM     33  C   UNL A   1      45.753  33.262  30.107  1.00  0.00     0.029 A 
ATOM     34  C   UNL A   1      44.388  33.042  30.184  1.00  0.00     0.049 A 
ATOM     35  H   UNL A   1      43.276  31.348  29.597  1.00  0.00     0.167 HD
ATOM     36  C   UNL A   1      42.043  33.651  30.717  1.00  0.00     0.074 A 
ATOM     37  C   UNL A   1      41.028  34.547  31.235  1.00  0.00     0.031 C 
ATOM     38  C   UNL A   1      43.369  33.923  30.698  1.00  0.00     0.037 A 
BRANCH  25  39
ATOM     39  C   UNL A   1      46.872  29.414  28.355  1.00  0.00     0.057 A 
ATOM     40  C   UNL A   1      47.662  28.767  29.315  1.00  0.00     0.134 A 
ATOM     41  C   UNL A   1      47.446  29.652  27.100  1.00  0.00     0.134 A 
ATOM     42  F   UNL A   1      47.176  28.514  30.539  1.00  0.00    -0.206 F 
ATOM     43  C   UNL A   1      48.977  28.387  29.043  1.00  0.00     0.040 A 
ATOM     44  C   UNL A   1      48.754  29.257  26.809  1.00  0.00     0.040 A 
ATOM     45  F   UNL A   1      46.740  30.257  26.133  1.00  0.00    -0.206 F 
ATOM     46  C   UNL A   1      49.526  28.629  27.786  1.00  0.00     0.006 A 
ENDBRANCH  25  39
BRANCH  26  47
ATOM     47  C   UNL A   1      37.555  32.238  30.539  1.00  0.00     0.057 A 
ATOM     48  C   UNL A   1      36.878  33.167  29.741  1.00  0.00     0.134 A 
ATOM     49  C   UNL A   1      36.898  31.761  31.678  1.00  0.00     0.134 A 
ATOM     50  F   UNL A   1      37.461  33.668  28.642  1.00  0.00    -0.206 F 
ATOM     51  C   UNL A   1      35.606  33.629  30.078  1.00  0.00     0.040 A 
ATOM     52  C   UNL A   1      35.617  32.197  32.015  1.00  0.00     0.040 A 
ATOM     53  F   UNL A   1      37.493  30.859  32.472  1.00  0.00    -0.206 F 
ATOM     54  C   UNL A   1      34.971  33.143  31.220  1.00  0.00     0.006 A 
ENDBRANCH  26  47
BRANCH  38  55
ATOM     55  C   UNL A   1      43.809  35.251  31.237  1.00  0.00     0.057 A 
ATOM     56  C   UNL A   1      44.055  35.418  32.606  1.00  0.00     0.134 A 
ATOM     57  C   UNL A   1      43.914  36.379  30.415  1.00  0.00     0.134 A 
ATOM     58  F   UNL A   1      43.962  34.377  33.447  1.00  0.00    -0.206 F 
ATOM     59  C   UNL A   1      44.377  36.666  33.141  1.00  0.00     0.040 A 
ATOM     60  C   UNL A   1      44.256  37.627  30.935  1.00  0.00     0.040 A 
ATOM     61  F   UNL A   1      43.701  36.280  29.094  1.00  0.00    -0.206 F 
ATOM     62  C   UNL A   1      44.479  37.775  32.304  1.00  0.00     0.006 A 
ENDBRANCH  38  55
ENDBRANCH  12  13
ENDBRANCH   5   7
ENDBRANCH   2   3
ENDBRANCH   1   2
BRANCH   1  63
ATOM     63  C   UNL A   1      34.517  22.923  27.269  1.00  0.00     0.023 C 
BRANCH  63  64
ATOM     64  C   UNL A   1      33.506  21.788  27.130  1.00  0.00     0.116 C 
BRANCH  64  65
ATOM     65  N   UNL A   1      32.172  22.154  27.559  1.00  0.00    -0.356 N 
ATOM     66  C   UNL A   1      31.167  22.883  27.018  1.00  0.00     0.224 C 
ATOM     67  H   UNL A   1      31.943  21.789  28.444  1.00  0.00     0.163 HD
ATOM     68  O   UNL A   1      30.108  22.870  27.662  1.00  0.00    -0.275 OA
BRANCH  66  69
ATOM     69  C   UNL A   1      31.271  23.788  25.795  1.00  0.00     0.098 C 
ATOM     70  C   UNL A   1      31.031  22.979  24.511  1.00  0.00     0.017 C 
ATOM     71  C   UNL A   1      30.463  25.077  25.788  1.00  0.00     0.131 C 
ATOM     72  C   UNL A   1      31.291  23.839  23.269  1.00  0.00     0.022 C 
ATOM     73  N   UNL A   1      30.700  25.812  24.549  1.00  0.00    -0.356 N 
ATOM     74  C   UNL A   1      30.468  25.127  23.289  1.00  0.00     0.118 C 
BRANCH  73  75
ATOM     75  C   UNL A   1      30.959  27.161  24.606  1.00  0.00     0.133 A 
ATOM     76  C   UNL A   1      31.878  27.672  25.496  1.00  0.00     0.077 A 
ATOM     77  N   UNL A   1      30.270  27.964  23.783  1.00  0.00    -0.211 NA
ATOM     78  C   UNL A   1      32.072  29.040  25.500  1.00  0.00     0.095 A 
ATOM     79  C   UNL A   1      30.484  29.291  23.880  1.00  0.00     0.165 A 
ATOM     80  N   UNL A   1      31.377  29.868  24.696  1.00  0.00    -0.226 NA
BRANCH  78  81
ATOM     81  C   UNL A   1      33.054  29.653  26.401  1.00  0.00     0.089 A 
ATOM     82  C   UNL A   1      32.833  30.907  26.972  1.00  0.00     0.030 A 
ATOM     83  N   UNL A   1      34.212  28.966  26.588  1.00  0.00    -0.255 NA
ATOM     84  C   UNL A   1      33.826  31.471  27.769  1.00  0.00     0.004 A 
ATOM     85  C   UNL A   1      35.149  29.531  27.379  1.00  0.00     0.112 A 
ATOM     86  C   UNL A   1      35.007  30.770  27.980  1.00  0.00     0.020 A 
ENDBRANCH  78  81
BRANCH  79  87
ATOM     87  C   UNL A   1      29.568  30.167  23.155  1.00  0.00     0.055 A 
ATOM     88  C   UNL A   1      29.022  29.767  21.919  1.00  0.00     0.015 A 
ATOM     89  C   UNL A   1      29.175  31.407  23.666  1.00  0.00     0.134 A 
ATOM     90  C   UNL A   1      28.104  30.573  21.237  1.00  0.00     0.001 A 
ATOM     91  C   UNL A   1      28.267  32.221  22.986  1.00  0.00     0.040 A 
ATOM     92  F   UNL A   1      29.685  31.861  24.821  1.00  0.00    -0.206 F 
ATOM     93  C   UNL A   1      27.726  31.801  21.773  1.00  0.00     0.003 A 
ENDBRANCH  79  87
ENDBRANCH  73  75
ENDBRANCH  66  69
ENDBRANCH  64  65
ENDBRANCH  63  64
ENDBRANCH   1  63
TORSDOF 14
ENDMDL
