MODEL 1
REMARK VINA RESULT:     -12.0      0.000      0.000
REMARK SMILES COc1ccc(C(=O)N[C@H](C(=O)NCCCCNC(=O)c2ccc(-c3c4nc(c(-c5c(F)cccc5F)c5ccc([nH]5)c(-c5c(F)cccc5F)c5nc(c(-c6c(F)cccc6F)c6ccc3[nH]6)C=C5)C=C4)cc2)C2=C(C)N=N[C@H]2C)c(F)c1F
REMARK SMILES IDX 15 1 14 2 13 3 11 4 12 5 10 7 9 8 7 9 8 10 6 12 3 13 4 14
REMARK SMILES IDX 84 15 5 16 82 17 85 18 83 19 2 20 1 21 75 22 76 23 80 24
REMARK SMILES IDX 77 25 78 26 79 27 81 28 16 29 17 30 18 31 19 32 20 34 21 35
REMARK SMILES IDX 22 36 74 37 23 38 73 39 24 40 25 41 26 42 67 43 27 44 72 45
REMARK SMILES IDX 66 46 68 47 28 48 71 49 65 50 64 51 29 53 55 54 38 55 54 56
REMARK SMILES IDX 39 57 42 58 53 59 69 60 40 61 41 62 52 64 70 65 43 66 30 67
REMARK SMILES IDX 31 68 36 69 32 70 33 71 35 72 37 73 34 74 56 75 57 76 62 77
REMARK SMILES IDX 58 78 59 79 61 80 63 81 60 82 44 83 45 84 50 85 46 86 47 87
REMARK SMILES IDX 49 88 51 89 48 90
REMARK H PARENT 13 6 9 11 18 33 68 52 42 63
REMARK Flexibility Score: inf
ROOT
ATOM      1  C   UNL A   1      36.577  21.554  25.348  1.00  0.00     0.023 C 
ENDROOT
BRANCH   1   2
ATOM      2  C   UNL A   1      35.853  22.326  24.258  1.00  0.00     0.116 C 
BRANCH   2   3
ATOM      3  N   UNL A   1      34.547  21.833  23.885  1.00  0.00    -0.354 N 
ATOM      4  C   UNL A   1      33.440  22.602  23.591  1.00  0.00     0.247 C 
ATOM      5  O   UNL A   1      32.556  22.087  22.903  1.00  0.00    -0.272 OA
ATOM      6  H   UNL A   1      34.436  20.856  23.837  1.00  0.00     0.163 HD
BRANCH   4   7
ATOM      7  C   UNL A   1      33.360  24.107  24.038  1.00  0.00     0.202 C 
BRANCH   7   8
ATOM      8  N   UNL A   1      33.442  24.948  22.839  1.00  0.00    -0.336 N 
ATOM      9  C   UNL A   1      33.515  26.283  22.582  1.00  0.00     0.255 C 
ATOM     10  O   UNL A   1      33.833  26.656  21.455  1.00  0.00    -0.269 OA
ATOM     11  H   UNL A   1      33.444  24.412  22.013  1.00  0.00     0.165 HD
BRANCH   9  12
ATOM     12  C   UNL A   1      33.022  27.273  23.536  1.00  0.00     0.078 A 
ATOM     13  C   UNL A   1      32.419  29.407  25.222  1.00  0.00     0.157 A 
ATOM     14  C   UNL A   1      33.542  28.616  25.480  1.00  0.00     0.050 A 
ATOM     15  C   UNL A   1      31.547  29.043  24.188  1.00  0.00     0.201 A 
ATOM     16  C   UNL A   1      33.843  27.547  24.638  1.00  0.00     0.021 A 
ATOM     17  C   UNL A   1      31.839  27.970  23.354  1.00  0.00     0.175 A 
ATOM     18  F   UNL A   1      30.445  29.770  23.950  1.00  0.00    -0.200 F 
ATOM     19  F   UNL A   1      31.011  27.657  22.347  1.00  0.00    -0.203 F 
BRANCH  13  20
ATOM     20  O   UNL A   1      32.100  30.531  25.934  1.00  0.00    -0.494 OA
ATOM     21  C   UNL A   1      32.925  30.789  27.068  1.00  0.00     0.278 C 
ENDBRANCH  13  20
ENDBRANCH   9  12
ENDBRANCH   7   8
BRANCH   7  22
ATOM     22  C   UNL A   1      32.235  24.313  25.007  1.00  0.00     0.011 C 
ATOM     23  C   UNL A   1      30.923  24.605  24.977  1.00  0.00     0.064 C 
ATOM     24  C   UNL A   1      32.561  24.263  26.480  1.00  0.00     0.156 C 
ATOM     25  C   UNL A   1      29.982  24.917  23.864  1.00  0.00     0.069 C 
ATOM     26  N   UNL A   1      30.369  24.661  26.235  1.00  0.00    -0.160 NA
ATOM     27  N   UNL A   1      31.237  24.454  27.117  1.00  0.00    -0.181 NA
ATOM     28  C   UNL A   1      33.182  22.984  27.016  1.00  0.00     0.040 C 
ENDBRANCH   7  22
ENDBRANCH   4   7
ENDBRANCH   2   3
ENDBRANCH   1   2
BRANCH   1  29
ATOM     29  C   UNL A   1      37.894  20.912  24.928  1.00  0.00     0.023 C 
BRANCH  29  30
ATOM     30  C   UNL A   1      38.957  20.762  26.013  1.00  0.00     0.116 C 
BRANCH  30  31
ATOM     31  N   UNL A   1      39.927  19.698  25.781  1.00  0.00    -0.352 N 
ATOM     32  C   UNL A   1      41.287  19.701  26.008  1.00  0.00     0.251 C 
ATOM     33  H   UNL A   1      39.560  18.863  25.411  1.00  0.00     0.163 HD
ATOM     34  O   UNL A   1      41.968  18.719  25.727  1.00  0.00    -0.269 OA
BRANCH  32  35
ATOM     35  C   UNL A   1      41.929  20.923  26.535  1.00  0.00     0.039 A 
ATOM     36  C   UNL A   1      42.385  21.888  25.633  1.00  0.00     0.014 A 
ATOM     37  C   UNL A   1      41.985  21.159  27.910  1.00  0.00     0.014 A 
ATOM     38  C   UNL A   1      42.782  23.141  26.109  1.00  0.00     0.010 A 
ATOM     39  C   UNL A   1      42.293  22.435  28.373  1.00  0.00     0.010 A 
ATOM     40  C   UNL A   1      42.677  23.446  27.476  1.00  0.00    -0.014 A 
BRANCH  40  41
ATOM     41  C   UNL A   1      42.926  24.818  27.987  1.00  0.00     0.031 A 
ATOM     42  C   UNL A   1      44.313  25.239  28.381  1.00  0.00     0.074 A 
ATOM     43  C   UNL A   1      41.891  25.661  28.178  1.00  0.00     0.049 A 
ATOM     44  N   UNL A   1      44.715  26.357  28.931  1.00  0.00    -0.248 NA
ATOM     45  C   UNL A   1      45.387  24.259  28.158  1.00  0.00     0.031 C 
ATOM     46  C   UNL A   1      40.487  25.364  27.887  1.00  0.00     0.029 A 
ATOM     47  N   UNL A   1      41.861  26.943  28.671  1.00  0.00    -0.354 N 
ATOM     48  C   UNL A   1      46.081  26.207  29.135  1.00  0.00     0.074 A 
ATOM     49  C   UNL A   1      46.427  24.869  28.706  1.00  0.00     0.031 C 
ATOM     50  C   UNL A   1      39.739  26.442  28.172  1.00  0.00     0.029 A 
ATOM     51  C   UNL A   1      40.602  27.493  28.703  1.00  0.00     0.049 A 
ATOM     52  H   UNL A   1      42.665  27.422  28.974  1.00  0.00     0.167 HD
ATOM     53  C   UNL A   1      46.972  27.109  29.610  1.00  0.00     0.037 A 
ATOM     54  C   UNL A   1      40.188  28.707  29.113  1.00  0.00     0.037 A 
ATOM     55  C   UNL A   1      46.636  28.448  30.011  1.00  0.00     0.049 A 
ATOM     56  C   UNL A   1      41.194  29.688  29.646  1.00  0.00     0.074 A 
ATOM     57  C   UNL A   1      47.477  29.454  30.453  1.00  0.00     0.029 A 
ATOM     58  N   UNL A   1      45.351  28.970  30.018  1.00  0.00    -0.354 N 
ATOM     59  N   UNL A   1      42.491  29.552  29.778  1.00  0.00    -0.248 NA
ATOM     60  C   UNL A   1      40.678  30.992  30.085  1.00  0.00     0.031 C 
ATOM     61  C   UNL A   1      46.698  30.575  30.759  1.00  0.00     0.029 A 
ATOM     62  C   UNL A   1      45.374  30.279  30.471  1.00  0.00     0.049 A 
ATOM     63  H   UNL A   1      44.542  28.482  29.743  1.00  0.00     0.167 HD
ATOM     64  C   UNL A   1      42.950  30.761  30.286  1.00  0.00     0.074 A 
ATOM     65  C   UNL A   1      41.793  31.621  30.432  1.00  0.00     0.031 C 
ATOM     66  C   UNL A   1      44.217  31.126  30.603  1.00  0.00     0.037 A 
BRANCH  53  67
ATOM     67  C   UNL A   1      48.402  26.665  29.709  1.00  0.00     0.057 A 
ATOM     68  C   UNL A   1      49.325  26.925  28.687  1.00  0.00     0.134 A 
ATOM     69  C   UNL A   1      48.863  25.974  30.835  1.00  0.00     0.134 A 
ATOM     70  F   UNL A   1      48.944  27.570  27.574  1.00  0.00    -0.206 F 
ATOM     71  C   UNL A   1      50.646  26.480  28.766  1.00  0.00     0.040 A 
ATOM     72  C   UNL A   1      50.189  25.548  30.938  1.00  0.00     0.040 A 
ATOM     73  F   UNL A   1      48.034  25.697  31.853  1.00  0.00    -0.206 F 
ATOM     74  C   UNL A   1      51.082  25.793  29.896  1.00  0.00     0.006 A 
ENDBRANCH  53  67
BRANCH  54  75
ATOM     75  C   UNL A   1      38.757  29.083  28.998  1.00  0.00     0.057 A 
ATOM     76  C   UNL A   1      37.900  28.976  30.099  1.00  0.00     0.134 A 
ATOM     77  C   UNL A   1      38.211  29.550  27.797  1.00  0.00     0.134 A 
ATOM     78  F   UNL A   1      38.363  28.514  31.271  1.00  0.00    -0.206 F 
ATOM     79  C   UNL A   1      36.547  29.305  30.008  1.00  0.00     0.040 A 
ATOM     80  C   UNL A   1      36.865  29.904  27.698  1.00  0.00     0.040 A 
ATOM     81  F   UNL A   1      38.982  29.680  26.708  1.00  0.00    -0.206 F 
ATOM     82  C   UNL A   1      36.027  29.776  28.805  1.00  0.00     0.006 A 
ENDBRANCH  54  75
BRANCH  66  83
ATOM     83  C   UNL A   1      44.423  32.524  31.101  1.00  0.00     0.057 A 
ATOM     84  C   UNL A   1      44.647  33.595  30.227  1.00  0.00     0.134 A 
ATOM     85  C   UNL A   1      44.359  32.808  32.471  1.00  0.00     0.134 A 
ATOM     86  F   UNL A   1      44.733  33.386  28.904  1.00  0.00    -0.206 F 
ATOM     87  C   UNL A   1      44.819  34.897  30.700  1.00  0.00     0.040 A 
ATOM     88  C   UNL A   1      44.507  34.109  32.954  1.00  0.00     0.040 A 
ATOM     89  F   UNL A   1      44.142  31.827  33.360  1.00  0.00    -0.206 F 
ATOM     90  C   UNL A   1      44.742  35.157  32.066  1.00  0.00     0.006 A 
ENDBRANCH  66  83
ENDBRANCH  40  41
ENDBRANCH  32  35
ENDBRANCH  30  31
ENDBRANCH  29  30
ENDBRANCH   1  29
TORSDOF 15
ENDMDL
MODEL 2
REMARK VINA RESULT:     -11.9      2.062      7.065
REMARK SMILES COc1ccc(C(=O)N[C@H](C(=O)NCCCCNC(=O)c2ccc(-c3c4nc(c(-c5c(F)cccc5F)c5ccc([nH]5)c(-c5c(F)cccc5F)c5nc(c(-c6c(F)cccc6F)c6ccc3[nH]6)C=C5)C=C4)cc2)C2=C(C)N=N[C@H]2C)c(F)c1F
REMARK SMILES IDX 15 1 14 2 13 3 11 4 12 5 10 7 9 8 7 9 8 10 6 12 3 13 4 14
REMARK SMILES IDX 84 15 5 16 82 17 85 18 83 19 2 20 1 21 75 22 76 23 80 24
REMARK SMILES IDX 77 25 78 26 79 27 81 28 16 29 17 30 18 31 19 32 20 34 21 35
REMARK SMILES IDX 22 36 74 37 23 38 73 39 24 40 25 41 26 42 67 43 27 44 72 45
REMARK SMILES IDX 66 46 68 47 28 48 71 49 65 50 64 51 29 53 55 54 38 55 54 56
REMARK SMILES IDX 39 57 42 58 53 59 69 60 40 61 41 62 52 64 70 65 43 66 30 67
REMARK SMILES IDX 31 68 36 69 32 70 33 71 35 72 37 73 34 74 56 75 57 76 62 77
REMARK SMILES IDX 58 78 59 79 61 80 63 81 60 82 44 83 45 84 50 85 46 86 47 87
REMARK SMILES IDX 49 88 51 89 48 90
REMARK H PARENT 13 6 9 11 18 33 68 52 42 63
REMARK Flexibility Score: inf
ROOT
ATOM      1  C   UNL A   1      31.766  27.337  27.254  1.00  0.00     0.023 C 
ENDROOT
BRANCH   1   2
ATOM      2  C   UNL A   1      31.974  26.356  26.112  1.00  0.00     0.116 C 
BRANCH   2   3
ATOM      3  N   UNL A   1      33.318  25.853  25.938  1.00  0.00    -0.354 N 
ATOM      4  C   UNL A   1      33.742  24.987  24.952  1.00  0.00     0.247 C 
ATOM      5  O   UNL A   1      34.943  24.982  24.676  1.00  0.00    -0.272 OA
ATOM      6  H   UNL A   1      33.995  26.158  26.584  1.00  0.00     0.163 HD
BRANCH   4   7
ATOM      7  C   UNL A   1      32.712  24.112  24.148  1.00  0.00     0.202 C 
BRANCH   7   8
ATOM      8  N   UNL A   1      32.889  24.389  22.719  1.00  0.00    -0.336 N 
ATOM      9  C   UNL A   1      32.937  25.503  21.937  1.00  0.00     0.255 C 
ATOM     10  O   UNL A   1      33.361  25.404  20.787  1.00  0.00    -0.269 OA
ATOM     11  H   UNL A   1      33.002  23.564  22.195  1.00  0.00     0.165 HD
BRANCH   9  12
ATOM     12  C   UNL A   1      32.304  26.753  22.346  1.00  0.00     0.078 A 
ATOM     13  C   UNL A   1      30.920  28.903  23.453  1.00  0.00     0.157 A 
ATOM     14  C   UNL A   1      30.215  27.886  22.805  1.00  0.00     0.050 A 
ATOM     15  C   UNL A   1      32.321  28.886  23.435  1.00  0.00     0.201 A 
ATOM     16  C   UNL A   1      30.907  26.811  22.249  1.00  0.00     0.021 A 
ATOM     17  C   UNL A   1      33.013  27.820  22.871  1.00  0.00     0.175 A 
ATOM     18  F   UNL A   1      33.014  29.874  24.023  1.00  0.00    -0.200 F 
ATOM     19  F   UNL A   1      34.354  27.803  22.893  1.00  0.00    -0.203 F 
BRANCH  13  20
ATOM     20  O   UNL A   1      30.322  29.943  24.111  1.00  0.00    -0.494 OA
ATOM     21  C   UNL A   1      29.232  30.553  23.423  1.00  0.00     0.278 C 
ENDBRANCH  13  20
ENDBRANCH   9  12
ENDBRANCH   7   8
BRANCH   7  22
ATOM     22  C   UNL A   1      32.731  22.693  24.631  1.00  0.00     0.011 C 
ATOM     23  C   UNL A   1      33.616  21.690  24.768  1.00  0.00     0.064 C 
ATOM     24  C   UNL A   1      31.419  22.079  25.058  1.00  0.00     0.156 C 
ATOM     25  C   UNL A   1      35.058  21.559  24.418  1.00  0.00     0.069 C 
ATOM     26  N   UNL A   1      33.046  20.557  25.302  1.00  0.00    -0.160 NA
ATOM     27  N   UNL A   1      31.819  20.725  25.506  1.00  0.00    -0.181 NA
ATOM     28  C   UNL A   1      30.660  22.763  26.181  1.00  0.00     0.040 C 
ENDBRANCH   7  22
ENDBRANCH   4   7
ENDBRANCH   2   3
ENDBRANCH   1   2
BRANCH   1  29
ATOM     29  C   UNL A   1      32.157  28.778  26.955  1.00  0.00     0.023 C 
BRANCH  29  30
ATOM     30  C   UNL A   1      33.589  29.183  27.299  1.00  0.00     0.116 C 
BRANCH  30  31
ATOM     31  N   UNL A   1      33.715  30.452  28.006  1.00  0.00    -0.352 N 
ATOM     32  C   UNL A   1      34.818  30.985  28.639  1.00  0.00     0.251 C 
ATOM     33  H   UNL A   1      32.902  31.005  28.035  1.00  0.00     0.163 HD
ATOM     34  O   UNL A   1      34.744  32.066  29.216  1.00  0.00    -0.269 OA
BRANCH  32  35
ATOM     35  C   UNL A   1      36.077  30.211  28.672  1.00  0.00     0.039 A 
ATOM     36  C   UNL A   1      36.921  30.248  27.559  1.00  0.00     0.014 A 
ATOM     37  C   UNL A   1      36.469  29.541  29.833  1.00  0.00     0.014 A 
ATOM     38  C   UNL A   1      38.210  29.716  27.655  1.00  0.00     0.010 A 
ATOM     39  C   UNL A   1      37.781  29.096  29.955  1.00  0.00     0.010 A 
ATOM     40  C   UNL A   1      38.672  29.195  28.875  1.00  0.00    -0.014 A 
BRANCH  40  41
ATOM     41  C   UNL A   1      40.088  28.783  29.056  1.00  0.00     0.031 A 
ATOM     42  C   UNL A   1      41.087  29.742  29.640  1.00  0.00     0.074 A 
ATOM     43  C   UNL A   1      40.496  27.575  28.619  1.00  0.00     0.049 A 
ATOM     44  N   UNL A   1      42.379  29.601  29.793  1.00  0.00    -0.248 NA
ATOM     45  C   UNL A   1      40.568  31.046  30.080  1.00  0.00     0.031 C 
ATOM     46  C   UNL A   1      39.644  26.566  27.986  1.00  0.00     0.029 A 
ATOM     47  N   UNL A   1      41.740  26.992  28.633  1.00  0.00    -0.354 N 
ATOM     48  C   UNL A   1      42.829  30.801  30.328  1.00  0.00     0.074 A 
ATOM     49  C   UNL A   1      41.681  31.679  30.417  1.00  0.00     0.031 C 
ATOM     50  C   UNL A   1      40.379  25.478  27.707  1.00  0.00     0.029 A 
ATOM     51  C   UNL A   1      41.763  25.724  28.103  1.00  0.00     0.049 A 
ATOM     52  H   UNL A   1      42.541  27.440  28.990  1.00  0.00     0.167 HD
ATOM     53  C   UNL A   1      44.076  31.135  30.734  1.00  0.00     0.037 A 
ATOM     54  C   UNL A   1      42.782  24.858  27.952  1.00  0.00     0.037 A 
ATOM     55  C   UNL A   1      45.212  30.255  30.673  1.00  0.00     0.049 A 
ATOM     56  C   UNL A   1      44.160  25.254  28.402  1.00  0.00     0.074 A 
ATOM     57  C   UNL A   1      46.505  30.483  31.112  1.00  0.00     0.029 A 
ATOM     58  N   UNL A   1      45.191  28.976  30.138  1.00  0.00    -0.354 N 
ATOM     59  N   UNL A   1      44.558  26.371  28.959  1.00  0.00    -0.248 NA
ATOM     60  C   UNL A   1      45.231  24.267  28.202  1.00  0.00     0.031 C 
ATOM     61  C   UNL A   1      47.275  29.353  30.813  1.00  0.00     0.029 A 
ATOM     62  C   UNL A   1      46.451  28.407  30.222  1.00  0.00     0.049 A 
ATOM     63  H   UNL A   1      44.397  28.537  29.755  1.00  0.00     0.167 HD
ATOM     64  C   UNL A   1      45.916  26.211  29.205  1.00  0.00     0.074 A 
ATOM     65  C   UNL A   1      46.272  24.885  28.741  1.00  0.00     0.031 C 
ATOM     66  C   UNL A   1      46.789  27.083  29.765  1.00  0.00     0.037 A 
BRANCH  53  67
ATOM     67  C   UNL A   1      44.264  32.516  31.291  1.00  0.00     0.057 A 
ATOM     68  C   UNL A   1      44.090  32.789  32.654  1.00  0.00     0.134 A 
ATOM     69  C   UNL A   1      44.623  33.583  30.459  1.00  0.00     0.134 A 
ATOM     70  F   UNL A   1      43.731  31.814  33.503  1.00  0.00    -0.206 F 
ATOM     71  C   UNL A   1      44.231  34.082  33.164  1.00  0.00     0.040 A 
ATOM     72  C   UNL A   1      44.794  34.874  30.961  1.00  0.00     0.040 A 
ATOM     73  F   UNL A   1      44.811  33.390  29.144  1.00  0.00    -0.206 F 
ATOM     74  C   UNL A   1      44.588  35.128  32.316  1.00  0.00     0.006 A 
ENDBRANCH  53  67
BRANCH  54  75
ATOM     75  C   UNL A   1      42.533  23.509  27.386  1.00  0.00     0.057 A 
ATOM     76  C   UNL A   1      42.635  23.283  26.009  1.00  0.00     0.134 A 
ATOM     77  C   UNL A   1      42.185  22.421  28.195  1.00  0.00     0.134 A 
ATOM     78  F   UNL A   1      42.946  24.292  25.181  1.00  0.00    -0.206 F 
ATOM     79  C   UNL A   1      42.387  22.027  25.452  1.00  0.00     0.040 A 
ATOM     80  C   UNL A   1      41.954  21.156  27.654  1.00  0.00     0.040 A 
ATOM     81  F   UNL A   1      42.076  22.573  29.522  1.00  0.00    -0.206 F 
ATOM     82  C   UNL A   1      42.050  20.957  26.278  1.00  0.00     0.006 A 
ENDBRANCH  54  75
BRANCH  66  83
ATOM     83  C   UNL A   1      48.203  26.620  29.942  1.00  0.00     0.057 A 
ATOM     84  C   UNL A   1      49.189  26.872  28.980  1.00  0.00     0.134 A 
ATOM     85  C   UNL A   1      48.590  25.945  31.106  1.00  0.00     0.134 A 
ATOM     86  F   UNL A   1      48.878  27.501  27.836  1.00  0.00    -0.206 F 
ATOM     87  C   UNL A   1      50.508  26.452  29.162  1.00  0.00     0.040 A 
ATOM     88  C   UNL A   1      49.910  25.540  31.310  1.00  0.00     0.040 A 
ATOM     89  F   UNL A   1      47.695  25.678  32.068  1.00  0.00    -0.206 F 
ATOM     90  C   UNL A   1      50.873  25.791  30.333  1.00  0.00     0.006 A 
ENDBRANCH  66  83
ENDBRANCH  40  41
ENDBRANCH  32  35
ENDBRANCH  30  31
ENDBRANCH  29  30
ENDBRANCH   1  29
TORSDOF 15
ENDMDL
MODEL 3
REMARK VINA RESULT:     -11.8      3.954      7.920
REMARK SMILES COc1ccc(C(=O)N[C@H](C(=O)NCCCCNC(=O)c2ccc(-c3c4nc(c(-c5c(F)cccc5F)c5ccc([nH]5)c(-c5c(F)cccc5F)c5nc(c(-c6c(F)cccc6F)c6ccc3[nH]6)C=C5)C=C4)cc2)C2=C(C)N=N[C@H]2C)c(F)c1F
REMARK SMILES IDX 15 1 14 2 13 3 11 4 12 5 10 7 9 8 7 9 8 10 6 12 3 13 4 14
REMARK SMILES IDX 84 15 5 16 82 17 85 18 83 19 2 20 1 21 75 22 76 23 80 24
REMARK SMILES IDX 77 25 78 26 79 27 81 28 16 29 17 30 18 31 19 32 20 34 21 35
REMARK SMILES IDX 22 36 74 37 23 38 73 39 24 40 25 41 26 42 67 43 27 44 72 45
REMARK SMILES IDX 66 46 68 47 28 48 71 49 65 50 64 51 29 53 55 54 38 55 54 56
REMARK SMILES IDX 39 57 42 58 53 59 69 60 40 61 41 62 52 64 70 65 43 66 30 67
REMARK SMILES IDX 31 68 36 69 32 70 33 71 35 72 37 73 34 74 56 75 57 76 62 77
REMARK SMILES IDX 58 78 59 79 61 80 63 81 60 82 44 83 45 84 50 85 46 86 47 87
REMARK SMILES IDX 49 88 51 89 48 90
REMARK H PARENT 13 6 9 11 18 33 68 52 42 63
REMARK Flexibility Score: inf
ROOT
ATOM      1  C   UNL A   1      37.112  22.221  24.418  1.00  0.00     0.023 C 
ENDROOT
BRANCH   1   2
ATOM      2  C   UNL A   1      36.123  23.056  23.624  1.00  0.00     0.116 C 
BRANCH   2   3
ATOM      3  N   UNL A   1      34.821  22.469  23.404  1.00  0.00    -0.354 N 
ATOM      4  C   UNL A   1      33.617  23.142  23.382  1.00  0.00     0.247 C 
ATOM      5  O   UNL A   1      32.679  22.610  22.783  1.00  0.00    -0.272 OA
ATOM      6  H   UNL A   1      34.790  21.496  23.256  1.00  0.00     0.163 HD
BRANCH   4   7
ATOM      7  C   UNL A   1      33.481  24.574  24.014  1.00  0.00     0.202 C 
BRANCH   7   8
ATOM      8  N   UNL A   1      33.504  25.560  22.929  1.00  0.00    -0.336 N 
ATOM      9  C   UNL A   1      33.605  26.915  22.840  1.00  0.00     0.255 C 
ATOM     10  O   UNL A   1      33.853  27.423  21.748  1.00  0.00    -0.269 OA
ATOM     11  H   UNL A   1      33.428  25.136  22.044  1.00  0.00     0.165 HD
BRANCH   9  12
ATOM     12  C   UNL A   1      33.215  27.786  23.946  1.00  0.00     0.078 A 
ATOM     13  C   UNL A   1      32.798  29.707  25.920  1.00  0.00     0.157 A 
ATOM     14  C   UNL A   1      33.935  28.896  25.971  1.00  0.00     0.050 A 
ATOM     15  C   UNL A   1      31.825  29.461  24.942  1.00  0.00     0.201 A 
ATOM     16  C   UNL A   1      34.143  27.933  24.985  1.00  0.00     0.021 A 
ATOM     17  C   UNL A   1      32.025  28.494  23.963  1.00  0.00     0.175 A 
ATOM     18  F   UNL A   1      30.710  30.207  24.900  1.00  0.00    -0.200 F 
ATOM     19  F   UNL A   1      31.099  28.296  23.014  1.00  0.00    -0.203 F 
BRANCH  13  20
ATOM     20  O   UNL A   1      32.559  30.739  26.785  1.00  0.00    -0.494 OA
ATOM     21  C   UNL A   1      33.669  31.127  27.592  1.00  0.00     0.278 C 
ENDBRANCH  13  20
ENDBRANCH   9  12
ENDBRANCH   7   8
BRANCH   7  22
ATOM     22  C   UNL A   1      32.366  24.607  25.016  1.00  0.00     0.011 C 
ATOM     23  C   UNL A   1      31.043  24.842  25.039  1.00  0.00     0.064 C 
ATOM     24  C   UNL A   1      32.720  24.388  26.467  1.00  0.00     0.156 C 
ATOM     25  C   UNL A   1      30.069  25.248  23.987  1.00  0.00     0.069 C 
ATOM     26  N   UNL A   1      30.510  24.716  26.302  1.00  0.00    -0.160 NA
ATOM     27  N   UNL A   1      31.402  24.439  27.140  1.00  0.00    -0.181 NA
ATOM     28  C   UNL A   1      33.405  23.081  26.830  1.00  0.00     0.040 C 
ENDBRANCH   7  22
ENDBRANCH   4   7
ENDBRANCH   2   3
ENDBRANCH   1   2
BRANCH   1  29
ATOM     29  C   UNL A   1      37.289  22.629  25.875  1.00  0.00     0.023 C 
BRANCH  29  30
ATOM     30  C   UNL A   1      38.055  23.925  26.132  1.00  0.00     0.116 C 
BRANCH  30  31
ATOM     31  N   UNL A   1      39.501  23.826  25.977  1.00  0.00    -0.352 N 
ATOM     32  C   UNL A   1      40.489  24.598  26.551  1.00  0.00     0.251 C 
ATOM     33  H   UNL A   1      39.816  23.109  25.381  1.00  0.00     0.163 HD
ATOM     34  O   UNL A   1      41.671  24.395  26.289  1.00  0.00    -0.269 OA
BRANCH  32  35
ATOM     35  C   UNL A   1      40.108  25.718  27.438  1.00  0.00     0.039 A 
ATOM     36  C   UNL A   1      39.298  25.455  28.547  1.00  0.00     0.014 A 
ATOM     37  C   UNL A   1      40.633  26.995  27.234  1.00  0.00     0.014 A 
ATOM     38  C   UNL A   1      39.118  26.445  29.516  1.00  0.00     0.010 A 
ATOM     39  C   UNL A   1      40.527  27.947  28.244  1.00  0.00     0.010 A 
ATOM     40  C   UNL A   1      39.784  27.676  29.404  1.00  0.00    -0.014 A 
BRANCH  40  41
ATOM     41  C   UNL A   1      39.751  28.680  30.500  1.00  0.00     0.031 A 
ATOM     42  C   UNL A   1      38.789  29.832  30.441  1.00  0.00     0.074 A 
ATOM     43  C   UNL A   1      40.644  28.604  31.507  1.00  0.00     0.049 A 
ATOM     44  N   UNL A   1      38.671  30.855  31.250  1.00  0.00    -0.248 NA
ATOM     45  C   UNL A   1      37.856  29.855  29.304  1.00  0.00     0.031 C 
ATOM     46  C   UNL A   1      41.667  27.567  31.660  1.00  0.00     0.029 A 
ATOM     47  N   UNL A   1      40.839  29.422  32.593  1.00  0.00    -0.354 N 
ATOM     48  C   UNL A   1      37.667  31.649  30.710  1.00  0.00     0.074 A 
ATOM     49  C   UNL A   1      37.251  31.020  29.474  1.00  0.00     0.031 C 
ATOM     50  C   UNL A   1      42.356  27.791  32.791  1.00  0.00     0.029 A 
ATOM     51  C   UNL A   1      41.852  29.006  33.423  1.00  0.00     0.049 A 
ATOM     52  H   UNL A   1      40.303  30.230  32.761  1.00  0.00     0.167 HD
ATOM     53  C   UNL A   1      37.121  32.783  31.208  1.00  0.00     0.037 A 
ATOM     54  C   UNL A   1      42.324  29.544  34.564  1.00  0.00     0.037 A 
ATOM     55  C   UNL A   1      37.513  33.394  32.450  1.00  0.00     0.049 A 
ATOM     56  C   UNL A   1      41.708  30.808  35.093  1.00  0.00     0.074 A 
ATOM     57  C   UNL A   1      36.981  34.513  33.067  1.00  0.00     0.029 A 
ATOM     58  N   UNL A   1      38.537  32.937  33.265  1.00  0.00    -0.354 N 
ATOM     59  N   UNL A   1      40.720  31.515  34.602  1.00  0.00    -0.248 NA
ATOM     60  C   UNL A   1      42.273  31.348  36.339  1.00  0.00     0.031 C 
ATOM     61  C   UNL A   1      37.705  34.752  34.241  1.00  0.00     0.029 A 
ATOM     62  C   UNL A   1      38.663  33.759  34.373  1.00  0.00     0.049 A 
ATOM     63  H   UNL A   1      39.092  32.145  33.084  1.00  0.00     0.167 HD
ATOM     64  C   UNL A   1      40.525  32.565  35.490  1.00  0.00     0.074 A 
ATOM     65  C   UNL A   1      41.493  32.398  36.556  1.00  0.00     0.031 C 
ATOM     66  C   UNL A   1      39.624  33.576  35.430  1.00  0.00     0.037 A 
BRANCH  53  67
ATOM     67  C   UNL A   1      36.030  33.424  30.402  1.00  0.00     0.057 A 
ATOM     68  C   UNL A   1      34.689  33.372  30.807  1.00  0.00     0.134 A 
ATOM     69  C   UNL A   1      36.320  34.103  29.213  1.00  0.00     0.134 A 
ATOM     70  F   UNL A   1      34.342  32.724  31.930  1.00  0.00    -0.206 F 
ATOM     71  C   UNL A   1      33.672  33.939  30.037  1.00  0.00     0.040 A 
ATOM     72  C   UNL A   1      35.315  34.698  28.449  1.00  0.00     0.040 A 
ATOM     73  F   UNL A   1      37.583  34.196  28.771  1.00  0.00    -0.206 F 
ATOM     74  C   UNL A   1      33.984  34.608  28.856  1.00  0.00     0.006 A 
ENDBRANCH  53  67
BRANCH  54  75
ATOM     75  C   UNL A   1      43.412  28.865  35.311  1.00  0.00     0.057 A 
ATOM     76  C   UNL A   1      44.754  29.135  35.019  1.00  0.00     0.134 A 
ATOM     77  C   UNL A   1      43.146  27.935  36.322  1.00  0.00     0.134 A 
ATOM     78  F   UNL A   1      45.070  30.002  34.046  1.00  0.00    -0.206 F 
ATOM     79  C   UNL A   1      45.793  28.495  35.695  1.00  0.00     0.040 A 
ATOM     80  C   UNL A   1      44.175  27.303  37.021  1.00  0.00     0.040 A 
ATOM     81  F   UNL A   1      41.881  27.638  36.652  1.00  0.00    -0.206 F 
ATOM     82  C   UNL A   1      45.504  27.579  36.704  1.00  0.00     0.006 A 
ENDBRANCH  54  75
BRANCH  66  83
ATOM     83  C   UNL A   1      39.617  34.556  36.563  1.00  0.00     0.057 A 
ATOM     84  C   UNL A   1      38.896  34.320  37.740  1.00  0.00     0.134 A 
ATOM     85  C   UNL A   1      40.370  35.734  36.489  1.00  0.00     0.134 A 
ATOM     86  F   UNL A   1      38.144  33.217  37.866  1.00  0.00    -0.206 F 
ATOM     87  C   UNL A   1      38.911  35.231  38.798  1.00  0.00     0.040 A 
ATOM     88  C   UNL A   1      40.411  36.642  37.549  1.00  0.00     0.040 A 
ATOM     89  F   UNL A   1      41.087  36.017  35.391  1.00  0.00    -0.206 F 
ATOM     90  C   UNL A   1      39.676  36.392  38.707  1.00  0.00     0.006 A 
ENDBRANCH  66  83
ENDBRANCH  40  41
ENDBRANCH  32  35
ENDBRANCH  30  31
ENDBRANCH  29  30
ENDBRANCH   1  29
TORSDOF 15
ENDMDL
