MODEL 1
REMARK VINA RESULT:     -12.6      0.000      0.000
REMARK SMILES COc1ccc(C[NH2+]Cc2cccn2-c2sc(C)c(C)c2C(=O)NCCCCNC(=O)c2ccc(-c3c4nc(c(-c5c(F)cccc5F)c5ccc([nH]5)c(-c5c(F)cccc5F)c5nc(c(-c6c(F)cccc6F)c6ccc3[nH]6)C=C5)C=C4)cc2)cc1
REMARK SMILES IDX 22 1 23 2 24 3 21 5 15 6 16 7 17 8 19 9 18 10 20 11 14 12
REMARK SMILES IDX 10 13 11 14 12 15 13 16 9 17 8 18 7 21 6 22 3 23 4 24 87 25
REMARK SMILES IDX 5 26 86 27 2 28 1 29 25 30 26 31 27 32 28 33 29 34 30 35
REMARK SMILES IDX 31 37 32 38 33 39 85 40 34 41 84 42 35 43 36 44 37 45 78 46
REMARK SMILES IDX 38 47 83 48 77 49 79 50 39 51 82 52 76 53 75 54 40 56 66 57
REMARK SMILES IDX 49 58 65 59 50 60 53 61 64 62 80 63 51 64 52 65 63 67 81 68
REMARK SMILES IDX 54 69 41 70 42 71 47 72 43 73 44 74 46 75 48 76 45 77 67 78
REMARK SMILES IDX 68 79 73 80 69 81 70 82 72 83 74 84 71 85 55 86 56 87 61 88
REMARK SMILES IDX 57 89 58 90 60 91 62 92 59 93
REMARK H PARENT 24 4 8 19 8 20 29 36 79 55 53 66
REMARK Flexibility Score: inf
ROOT
ATOM      1  C   UNL A   1      31.418  25.216  26.226  1.00  0.00     0.254 C 
ATOM      2  O   UNL A   1      31.110  24.170  26.801  1.00  0.00    -0.269 OA
ATOM      3  N   UNL A   1      31.063  26.376  26.894  1.00  0.00    -0.352 N 
ATOM      4  H   UNL A   1      30.506  26.252  27.697  1.00  0.00     0.163 HD
ENDROOT
BRANCH   1   5
ATOM      5  C   UNL A   1      32.043  25.176  24.874  1.00  0.00     0.078 A 
ATOM      6  C   UNL A   1      33.283  24.708  24.458  1.00  0.00     0.113 A 
ATOM      7  S   UNL A   1      33.553  24.810  22.788  1.00  0.00    -0.122 S 
ATOM      8  C   UNL A   1      32.077  25.589  22.512  1.00  0.00     0.007 A 
ATOM      9  C   UNL A   1      31.325  25.684  23.674  1.00  0.00    -0.022 A 
ATOM     10  C   UNL A   1      31.744  26.038  21.124  1.00  0.00     0.057 C 
ATOM     11  C   UNL A   1      29.936  26.262  23.700  1.00  0.00     0.046 C 
BRANCH   6  12
ATOM     12  N   UNL A   1      34.307  24.053  25.148  1.00  0.00    -0.306 N 
ATOM     13  C   UNL A   1      34.356  22.704  25.528  1.00  0.00     0.078 A 
ATOM     14  C   UNL A   1      35.603  22.462  26.084  1.00  0.00     0.029 A 
ATOM     15  C   UNL A   1      36.307  23.682  26.117  1.00  0.00     0.020 A 
ATOM     16  C   UNL A   1      35.499  24.636  25.542  1.00  0.00     0.092 A 
BRANCH  13  17
ATOM     17  C   UNL A   1      33.259  21.712  25.254  1.00  0.00     0.316 C 
BRANCH  17  18
ATOM     18  N   UNL A   1      33.455  21.041  23.971  1.00  0.00    -0.338 N 
ATOM     19  H   UNL A   1      33.501  21.741  23.230  1.00  0.00     0.346 HD
ATOM     20  H   UNL A   1      34.325  20.509  24.006  1.00  0.00     0.346 HD
BRANCH  18  21
ATOM     21  C   UNL A   1      32.352  20.127  23.699  1.00  0.00     0.297 C 
BRANCH  21  22
ATOM     22  C   UNL A   1      32.662  18.706  24.068  1.00  0.00     0.006 A 
ATOM     23  C   UNL A   1      33.471  16.126  24.785  1.00  0.00     0.118 A 
ATOM     24  C   UNL A   1      32.845  16.954  25.719  1.00  0.00     0.047 A 
ATOM     25  C   UNL A   1      33.639  16.566  23.473  1.00  0.00     0.047 A 
ATOM     26  C   UNL A   1      32.444  18.241  25.366  1.00  0.00     0.013 A 
ATOM     27  C   UNL A   1      33.231  17.850  23.115  1.00  0.00     0.013 A 
BRANCH  23  28
ATOM     28  O   UNL A   1      33.848  14.895  25.249  1.00  0.00    -0.497 OA
ATOM     29  C   UNL A   1      32.782  14.073  25.714  1.00  0.00     0.278 C 
ENDBRANCH  23  28
ENDBRANCH  21  22
ENDBRANCH  18  21
ENDBRANCH  17  18
ENDBRANCH  13  17
ENDBRANCH   6  12
ENDBRANCH   1   5
BRANCH   3  30
ATOM     30  C   UNL A   1      31.396  27.733  26.573  1.00  0.00     0.116 C 
BRANCH  30  31
ATOM     31  C   UNL A   1      32.565  28.420  27.259  1.00  0.00     0.023 C 
BRANCH  31  32
ATOM     32  C   UNL A   1      33.727  28.896  26.385  1.00  0.00     0.023 C 
BRANCH  32  33
ATOM     33  C   UNL A   1      35.108  28.956  27.048  1.00  0.00     0.116 C 
BRANCH  33  34
ATOM     34  N   UNL A   1      35.515  30.303  27.412  1.00  0.00    -0.352 N 
ATOM     35  C   UNL A   1      36.641  30.699  28.104  1.00  0.00     0.251 C 
ATOM     36  H   UNL A   1      34.910  31.026  27.129  1.00  0.00     0.163 HD
ATOM     37  O   UNL A   1      36.691  31.814  28.604  1.00  0.00    -0.269 OA
BRANCH  35  38
ATOM     38  C   UNL A   1      37.804  29.792  28.236  1.00  0.00     0.039 A 
ATOM     39  C   UNL A   1      38.739  29.728  27.195  1.00  0.00     0.014 A 
ATOM     40  C   UNL A   1      37.920  28.943  29.343  1.00  0.00     0.014 A 
ATOM     41  C   UNL A   1      39.825  28.859  27.293  1.00  0.00     0.010 A 
ATOM     42  C   UNL A   1      39.005  28.081  29.448  1.00  0.00     0.010 A 
ATOM     43  C   UNL A   1      39.968  28.055  28.433  1.00  0.00    -0.014 A 
BRANCH  43  44
ATOM     44  C   UNL A   1      41.268  27.388  28.682  1.00  0.00     0.031 A 
ATOM     45  C   UNL A   1      41.170  25.887  28.265  1.00  0.00     0.074 A 
ATOM     46  C   UNL A   1      42.280  28.160  29.203  1.00  0.00     0.049 A 
ATOM     47  N   UNL A   1      41.801  24.850  28.718  1.00  0.00    -0.248 NA
ATOM     48  C   UNL A   1      40.163  25.462  27.244  1.00  0.00     0.031 C 
ATOM     49  C   UNL A   1      42.185  29.617  29.475  1.00  0.00     0.029 A 
ATOM     50  N   UNL A   1      43.583  27.917  29.606  1.00  0.00    -0.354 N 
ATOM     51  C   UNL A   1      41.470  23.736  27.899  1.00  0.00     0.074 A 
ATOM     52  C   UNL A   1      40.349  24.145  27.115  1.00  0.00     0.031 C 
ATOM     53  C   UNL A   1      43.311  30.089  30.064  1.00  0.00     0.029 A 
ATOM     54  C   UNL A   1      44.266  29.011  30.230  1.00  0.00     0.049 A 
ATOM     55  H   UNL A   1      44.016  27.043  29.469  1.00  0.00     0.167 HD
ATOM     56  C   UNL A   1      42.276  22.631  27.797  1.00  0.00     0.037 A 
ATOM     57  C   UNL A   1      45.488  29.024  30.865  1.00  0.00     0.037 A 
ATOM     58  C   UNL A   1      43.388  22.804  28.668  1.00  0.00     0.049 A 
ATOM     59  C   UNL A   1      46.052  27.707  30.574  1.00  0.00     0.074 A 
ATOM     60  C   UNL A   1      43.487  22.867  30.033  1.00  0.00     0.029 A 
ATOM     61  N   UNL A   1      44.495  23.378  28.092  1.00  0.00    -0.354 N 
ATOM     62  N   UNL A   1      46.545  27.364  29.424  1.00  0.00    -0.248 NA
ATOM     63  C   UNL A   1      46.008  26.679  31.619  1.00  0.00     0.031 C 
ATOM     64  C   UNL A   1      44.356  23.960  30.209  1.00  0.00     0.029 A 
ATOM     65  C   UNL A   1      44.998  24.261  29.002  1.00  0.00     0.049 A 
ATOM     66  H   UNL A   1      44.856  23.188  27.196  1.00  0.00     0.167 HD
ATOM     67  C   UNL A   1      46.502  25.998  29.510  1.00  0.00     0.074 A 
ATOM     68  C   UNL A   1      46.509  25.663  30.922  1.00  0.00     0.031 C 
ATOM     69  C   UNL A   1      45.856  25.315  28.532  1.00  0.00     0.037 A 
BRANCH  56  70
ATOM     70  C   UNL A   1      42.420  21.525  26.775  1.00  0.00     0.057 A 
ATOM     71  C   UNL A   1      41.883  20.251  27.105  1.00  0.00     0.134 A 
ATOM     72  C   UNL A   1      43.362  21.527  25.744  1.00  0.00     0.134 A 
ATOM     73  F   UNL A   1      40.917  20.123  28.031  1.00  0.00    -0.206 F 
ATOM     74  C   UNL A   1      42.392  19.056  26.591  1.00  0.00     0.040 A 
ATOM     75  C   UNL A   1      43.837  20.332  25.177  1.00  0.00     0.040 A 
ATOM     76  F   UNL A   1      43.925  22.659  25.308  1.00  0.00    -0.206 F 
ATOM     77  C   UNL A   1      43.395  19.095  25.639  1.00  0.00     0.006 A 
ENDBRANCH  56  70
BRANCH  57  78
ATOM     78  C   UNL A   1      46.373  29.873  31.768  1.00  0.00     0.057 A 
ATOM     79  C   UNL A   1      47.696  30.241  31.532  1.00  0.00     0.134 A 
ATOM     80  C   UNL A   1      45.813  30.494  32.931  1.00  0.00     0.134 A 
ATOM     81  F   UNL A   1      48.412  29.660  30.563  1.00  0.00    -0.206 F 
ATOM     82  C   UNL A   1      48.349  31.238  32.301  1.00  0.00     0.040 A 
ATOM     83  C   UNL A   1      46.417  31.526  33.653  1.00  0.00     0.040 A 
ATOM     84  F   UNL A   1      44.620  30.135  33.427  1.00  0.00    -0.206 F 
ATOM     85  C   UNL A   1      47.694  31.921  33.325  1.00  0.00     0.006 A 
ENDBRANCH  57  78
BRANCH  69  86
ATOM     86  C   UNL A   1      45.821  26.008  27.177  1.00  0.00     0.057 A 
ATOM     87  C   UNL A   1      47.024  26.343  26.537  1.00  0.00     0.134 A 
ATOM     88  C   UNL A   1      44.659  26.464  26.535  1.00  0.00     0.134 A 
ATOM     89  F   UNL A   1      48.194  25.929  27.046  1.00  0.00    -0.206 F 
ATOM     90  C   UNL A   1      47.070  27.114  25.366  1.00  0.00     0.040 A 
ATOM     91  C   UNL A   1      44.686  27.234  25.359  1.00  0.00     0.040 A 
ATOM     92  F   UNL A   1      43.452  26.187  27.024  1.00  0.00    -0.206 F 
ATOM     93  C   UNL A   1      45.898  27.571  24.776  1.00  0.00     0.006 A 
ENDBRANCH  69  86
ENDBRANCH  43  44
ENDBRANCH  35  38
ENDBRANCH  33  34
ENDBRANCH  32  33
ENDBRANCH  31  32
ENDBRANCH  30  31
ENDBRANCH   3  30
TORSDOF 17
ENDMDL
MODEL 2
REMARK VINA RESULT:     -12.5      1.980      2.505
REMARK SMILES COc1ccc(C[NH2+]Cc2cccn2-c2sc(C)c(C)c2C(=O)NCCCCNC(=O)c2ccc(-c3c4nc(c(-c5c(F)cccc5F)c5ccc([nH]5)c(-c5c(F)cccc5F)c5nc(c(-c6c(F)cccc6F)c6ccc3[nH]6)C=C5)C=C4)cc2)cc1
REMARK SMILES IDX 22 1 23 2 24 3 21 5 15 6 16 7 17 8 19 9 18 10 20 11 14 12
REMARK SMILES IDX 10 13 11 14 12 15 13 16 9 17 8 18 7 21 6 22 3 23 4 24 87 25
REMARK SMILES IDX 5 26 86 27 2 28 1 29 25 30 26 31 27 32 28 33 29 34 30 35
REMARK SMILES IDX 31 37 32 38 33 39 85 40 34 41 84 42 35 43 36 44 37 45 78 46
REMARK SMILES IDX 38 47 83 48 77 49 79 50 39 51 82 52 76 53 75 54 40 56 66 57
REMARK SMILES IDX 49 58 65 59 50 60 53 61 64 62 80 63 51 64 52 65 63 67 81 68
REMARK SMILES IDX 54 69 41 70 42 71 47 72 43 73 44 74 46 75 48 76 45 77 67 78
REMARK SMILES IDX 68 79 73 80 69 81 70 82 72 83 74 84 71 85 55 86 56 87 61 88
REMARK SMILES IDX 57 89 58 90 60 91 62 92 59 93
REMARK H PARENT 24 4 8 19 8 20 29 36 79 55 53 66
REMARK Flexibility Score: inf
ROOT
ATOM      1  C   UNL A   1      32.738  28.657  23.685  1.00  0.00     0.254 C 
ATOM      2  O   UNL A   1      33.498  28.603  22.715  1.00  0.00    -0.269 OA
ATOM      3  N   UNL A   1      32.991  29.694  24.568  1.00  0.00    -0.352 N 
ATOM      4  H   UNL A   1      33.811  30.211  24.396  1.00  0.00     0.163 HD
ENDROOT
BRANCH   1   5
ATOM      5  C   UNL A   1      31.702  27.606  23.888  1.00  0.00     0.078 A 
ATOM      6  C   UNL A   1      31.822  26.258  24.202  1.00  0.00     0.113 A 
ATOM      7  S   UNL A   1      30.347  25.444  24.396  1.00  0.00    -0.122 S 
ATOM      8  C   UNL A   1      29.442  26.807  23.966  1.00  0.00     0.007 A 
ATOM      9  C   UNL A   1      30.252  27.917  23.772  1.00  0.00    -0.022 A 
ATOM     10  C   UNL A   1      27.953  26.687  23.876  1.00  0.00     0.057 C 
ATOM     11  C   UNL A   1      29.700  29.281  23.459  1.00  0.00     0.046 C 
BRANCH   6  12
ATOM     12  N   UNL A   1      32.936  25.472  24.508  1.00  0.00    -0.306 N 
ATOM     13  C   UNL A   1      33.582  24.544  23.680  1.00  0.00     0.078 A 
ATOM     14  C   UNL A   1      34.708  24.087  24.349  1.00  0.00     0.029 A 
ATOM     15  C   UNL A   1      34.722  24.677  25.628  1.00  0.00     0.020 A 
ATOM     16  C   UNL A   1      33.634  25.517  25.703  1.00  0.00     0.092 A 
BRANCH  13  17
ATOM     17  C   UNL A   1      33.149  24.223  22.277  1.00  0.00     0.316 C 
BRANCH  17  18
ATOM     18  N   UNL A   1      33.085  22.780  22.054  1.00  0.00    -0.338 N 
ATOM     19  H   UNL A   1      33.004  22.598  21.054  1.00  0.00     0.346 HD
ATOM     20  H   UNL A   1      33.935  22.352  22.422  1.00  0.00     0.346 HD
BRANCH  18  21
ATOM     21  C   UNL A   1      31.932  22.208  22.741  1.00  0.00     0.297 C 
BRANCH  21  22
ATOM     22  C   UNL A   1      32.248  20.922  23.447  1.00  0.00     0.006 A 
ATOM     23  C   UNL A   1      33.053  18.532  24.657  1.00  0.00     0.118 A 
ATOM     24  C   UNL A   1      33.090  19.731  25.371  1.00  0.00     0.047 A 
ATOM     25  C   UNL A   1      32.556  18.517  23.354  1.00  0.00     0.047 A 
ATOM     26  C   UNL A   1      32.693  20.924  24.770  1.00  0.00     0.013 A 
ATOM     27  C   UNL A   1      32.150  19.708  22.754  1.00  0.00     0.013 A 
BRANCH  23  28
ATOM     28  O   UNL A   1      33.493  17.428  25.336  1.00  0.00    -0.497 OA
ATOM     29  C   UNL A   1      34.401  16.600  24.617  1.00  0.00     0.278 C 
ENDBRANCH  23  28
ENDBRANCH  21  22
ENDBRANCH  18  21
ENDBRANCH  17  18
ENDBRANCH  13  17
ENDBRANCH   6  12
ENDBRANCH   1   5
BRANCH   3  30
ATOM     30  C   UNL A   1      32.217  30.115  25.700  1.00  0.00     0.116 C 
BRANCH  30  31
ATOM     31  C   UNL A   1      32.497  29.540  27.078  1.00  0.00     0.023 C 
BRANCH  31  32
ATOM     32  C   UNL A   1      33.736  28.660  27.248  1.00  0.00     0.023 C 
BRANCH  32  33
ATOM     33  C   UNL A   1      35.071  29.253  26.783  1.00  0.00     0.116 C 
BRANCH  33  34
ATOM     34  N   UNL A   1      35.395  30.518  27.424  1.00  0.00    -0.352 N 
ATOM     35  C   UNL A   1      36.371  30.776  28.363  1.00  0.00     0.251 C 
ATOM     36  H   UNL A   1      34.847  31.289  27.151  1.00  0.00     0.163 HD
ATOM     37  O   UNL A   1      36.321  31.797  29.033  1.00  0.00    -0.269 OA
BRANCH  35  38
ATOM     38  C   UNL A   1      37.496  29.834  28.562  1.00  0.00     0.039 A 
ATOM     39  C   UNL A   1      38.558  29.839  27.648  1.00  0.00     0.014 A 
ATOM     40  C   UNL A   1      37.457  28.888  29.592  1.00  0.00     0.014 A 
ATOM     41  C   UNL A   1      39.611  28.940  27.806  1.00  0.00     0.010 A 
ATOM     42  C   UNL A   1      38.508  27.994  29.759  1.00  0.00     0.010 A 
ATOM     43  C   UNL A   1      39.594  28.035  28.878  1.00  0.00    -0.014 A 
BRANCH  43  44
ATOM     44  C   UNL A   1      40.843  27.319  29.231  1.00  0.00     0.031 A 
ATOM     45  C   UNL A   1      41.012  26.077  28.299  1.00  0.00     0.074 A 
ATOM     46  C   UNL A   1      41.597  27.839  30.256  1.00  0.00     0.049 A 
ATOM     47  N   UNL A   1      41.601  24.944  28.512  1.00  0.00    -0.248 NA
ATOM     48  C   UNL A   1      40.359  26.064  26.952  1.00  0.00     0.031 C 
ATOM     49  C   UNL A   1      41.288  29.093  30.989  1.00  0.00     0.029 A 
ATOM     50  N   UNL A   1      42.766  27.460  30.897  1.00  0.00    -0.354 N 
ATOM     51  C   UNL A   1      41.613  24.213  27.293  1.00  0.00     0.074 A 
ATOM     52  C   UNL A   1      40.704  24.887  26.423  1.00  0.00     0.031 C 
ATOM     53  C   UNL A   1      42.163  29.309  32.001  1.00  0.00     0.029 A 
ATOM     54  C   UNL A   1      43.144  28.243  32.036  1.00  0.00     0.049 A 
ATOM     55  H   UNL A   1      43.305  26.696  30.588  1.00  0.00     0.167 HD
ATOM     56  C   UNL A   1      42.525  23.220  27.038  1.00  0.00     0.037 A 
ATOM     57  C   UNL A   1      44.147  28.015  32.953  1.00  0.00     0.037 A 
ATOM     58  C   UNL A   1      43.343  23.055  28.190  1.00  0.00     0.049 A 
ATOM     59  C   UNL A   1      44.898  26.897  32.385  1.00  0.00     0.074 A 
ATOM     60  C   UNL A   1      43.071  22.609  29.456  1.00  0.00     0.029 A 
ATOM     61  N   UNL A   1      44.500  23.797  28.195  1.00  0.00    -0.354 N 
ATOM     62  N   UNL A   1      45.710  27.001  31.379  1.00  0.00    -0.248 NA
ATOM     63  C   UNL A   1      44.684  25.556  32.938  1.00  0.00     0.031 C 
ATOM     64  C   UNL A   1      43.747  23.557  30.249  1.00  0.00     0.029 A 
ATOM     65  C   UNL A   1      44.652  24.280  29.461  1.00  0.00     0.049 A 
ATOM     66  H   UNL A   1      45.102  23.950  27.432  1.00  0.00     0.167 HD
ATOM     67  C   UNL A   1      45.784  25.701  30.957  1.00  0.00     0.074 A 
ATOM     68  C   UNL A   1      45.451  24.867  32.098  1.00  0.00     0.031 C 
ATOM     69  C   UNL A   1      45.492  25.430  29.661  1.00  0.00     0.037 A 
BRANCH  56  70
ATOM     70  C   UNL A   1      43.046  22.570  25.776  1.00  0.00     0.057 A 
ATOM     71  C   UNL A   1      43.213  21.158  25.785  1.00  0.00     0.134 A 
ATOM     72  C   UNL A   1      43.744  23.247  24.774  1.00  0.00     0.134 A 
ATOM     73  F   UNL A   1      42.539  20.384  26.654  1.00  0.00    -0.206 F 
ATOM     74  C   UNL A   1      44.156  20.500  24.992  1.00  0.00     0.040 A 
ATOM     75  C   UNL A   1      44.651  22.584  23.931  1.00  0.00     0.040 A 
ATOM     76  F   UNL A   1      43.654  24.573  24.628  1.00  0.00    -0.206 F 
ATOM     77  C   UNL A   1      44.901  21.221  24.076  1.00  0.00     0.006 A 
ENDBRANCH  56  70
BRANCH  57  78
ATOM     78  C   UNL A   1      44.671  28.467  34.308  1.00  0.00     0.057 A 
ATOM     79  C   UNL A   1      45.682  29.396  34.546  1.00  0.00     0.134 A 
ATOM     80  C   UNL A   1      44.016  28.029  35.505  1.00  0.00     0.134 A 
ATOM     81  F   UNL A   1      46.480  29.816  33.556  1.00  0.00    -0.206 F 
ATOM     82  C   UNL A   1      45.922  29.937  35.834  1.00  0.00     0.040 A 
ATOM     83  C   UNL A   1      44.193  28.602  36.767  1.00  0.00     0.040 A 
ATOM     84  F   UNL A   1      43.143  27.011  35.509  1.00  0.00    -0.206 F 
ATOM     85  C   UNL A   1      45.141  29.584  36.935  1.00  0.00     0.006 A 
ENDBRANCH  57  78
BRANCH  69  86
ATOM     86  C   UNL A   1      45.748  26.574  28.690  1.00  0.00     0.057 A 
ATOM     87  C   UNL A   1      47.034  27.124  28.586  1.00  0.00     0.134 A 
ATOM     88  C   UNL A   1      44.758  27.233  27.944  1.00  0.00     0.134 A 
ATOM     89  F   UNL A   1      48.063  26.553  29.232  1.00  0.00    -0.206 F 
ATOM     90  C   UNL A   1      47.309  28.273  27.831  1.00  0.00     0.040 A 
ATOM     91  C   UNL A   1      45.015  28.383  27.177  1.00  0.00     0.040 A 
ATOM     92  F   UNL A   1      43.501  26.793  27.932  1.00  0.00    -0.206 F 
ATOM     93  C   UNL A   1      46.296  28.914  27.128  1.00  0.00     0.006 A 
ENDBRANCH  69  86
ENDBRANCH  43  44
ENDBRANCH  35  38
ENDBRANCH  33  34
ENDBRANCH  32  33
ENDBRANCH  31  32
ENDBRANCH  30  31
ENDBRANCH   3  30
TORSDOF 17
ENDMDL
MODEL 3
REMARK VINA RESULT:     -12.5      2.934      3.595
REMARK SMILES COc1ccc(C[NH2+]Cc2cccn2-c2sc(C)c(C)c2C(=O)NCCCCNC(=O)c2ccc(-c3c4nc(c(-c5c(F)cccc5F)c5ccc([nH]5)c(-c5c(F)cccc5F)c5nc(c(-c6c(F)cccc6F)c6ccc3[nH]6)C=C5)C=C4)cc2)cc1
REMARK SMILES IDX 22 1 23 2 24 3 21 5 15 6 16 7 17 8 19 9 18 10 20 11 14 12
REMARK SMILES IDX 10 13 11 14 12 15 13 16 9 17 8 18 7 21 6 22 3 23 4 24 87 25
REMARK SMILES IDX 5 26 86 27 2 28 1 29 25 30 26 31 27 32 28 33 29 34 30 35
REMARK SMILES IDX 31 37 32 38 33 39 85 40 34 41 84 42 35 43 36 44 37 45 78 46
REMARK SMILES IDX 38 47 83 48 77 49 79 50 39 51 82 52 76 53 75 54 40 56 66 57
REMARK SMILES IDX 49 58 65 59 50 60 53 61 64 62 80 63 51 64 52 65 63 67 81 68
REMARK SMILES IDX 54 69 41 70 42 71 47 72 43 73 44 74 46 75 48 76 45 77 67 78
REMARK SMILES IDX 68 79 73 80 69 81 70 82 72 83 74 84 71 85 55 86 56 87 61 88
REMARK SMILES IDX 57 89 58 90 60 91 62 92 59 93
REMARK H PARENT 24 4 8 19 8 20 29 36 79 55 53 66
REMARK Flexibility Score: inf
ROOT
ATOM      1  C   UNL A   1      30.244  26.047  24.527  1.00  0.00     0.254 C 
ATOM      2  O   UNL A   1      29.927  24.947  24.068  1.00  0.00    -0.269 OA
ATOM      3  N   UNL A   1      30.756  26.017  25.813  1.00  0.00    -0.352 N 
ATOM      4  H   UNL A   1      30.712  25.146  26.270  1.00  0.00     0.163 HD
ENDROOT
BRANCH   1   5
ATOM      5  C   UNL A   1      29.988  27.290  23.746  1.00  0.00     0.078 A 
ATOM      6  C   UNL A   1      30.865  28.174  23.130  1.00  0.00     0.113 A 
ATOM      7  S   UNL A   1      30.115  29.442  22.290  1.00  0.00    -0.122 S 
ATOM      8  C   UNL A   1      28.568  28.964  22.780  1.00  0.00     0.007 A 
ATOM      9  C   UNL A   1      28.604  27.778  23.501  1.00  0.00    -0.022 A 
ATOM     10  C   UNL A   1      27.392  29.801  22.383  1.00  0.00     0.057 C 
ATOM     11  C   UNL A   1      27.362  27.086  23.991  1.00  0.00     0.046 C 
BRANCH   6  12
ATOM     12  N   UNL A   1      32.253  28.146  22.972  1.00  0.00    -0.306 N 
ATOM     13  C   UNL A   1      33.017  27.184  22.296  1.00  0.00     0.078 A 
ATOM     14  C   UNL A   1      34.335  27.615  22.287  1.00  0.00     0.029 A 
ATOM     15  C   UNL A   1      34.404  28.814  23.025  1.00  0.00     0.020 A 
ATOM     16  C   UNL A   1      33.125  29.118  23.432  1.00  0.00     0.092 A 
BRANCH  13  17
ATOM     17  C   UNL A   1      32.438  25.972  21.620  1.00  0.00     0.316 C 
BRANCH  17  18
ATOM     18  N   UNL A   1      33.259  24.786  21.856  1.00  0.00    -0.338 N 
ATOM     19  H   UNL A   1      33.026  24.073  21.165  1.00  0.00     0.346 HD
ATOM     20  H   UNL A   1      34.243  25.044  21.777  1.00  0.00     0.346 HD
BRANCH  18  21
ATOM     21  C   UNL A   1      33.016  24.255  23.193  1.00  0.00     0.297 C 
BRANCH  21  22
ATOM     22  C   UNL A   1      34.277  23.873  23.911  1.00  0.00     0.006 A 
ATOM     23  C   UNL A   1      36.724  23.368  25.169  1.00  0.00     0.118 A 
ATOM     24  C   UNL A   1      35.644  23.864  25.901  1.00  0.00     0.047 A 
ATOM     25  C   UNL A   1      36.563  23.067  23.817  1.00  0.00     0.047 A 
ATOM     26  C   UNL A   1      34.424  24.120  25.277  1.00  0.00     0.013 A 
ATOM     27  C   UNL A   1      35.343  23.314  23.192  1.00  0.00     0.013 A 
BRANCH  23  28
ATOM     28  O   UNL A   1      37.880  23.182  25.877  1.00  0.00    -0.497 OA
ATOM     29  C   UNL A   1      38.464  21.889  25.751  1.00  0.00     0.278 C 
ENDBRANCH  23  28
ENDBRANCH  21  22
ENDBRANCH  18  21
ENDBRANCH  17  18
ENDBRANCH  13  17
ENDBRANCH   6  12
ENDBRANCH   1   5
BRANCH   3  30
ATOM     30  C   UNL A   1      31.342  27.086  26.569  1.00  0.00     0.116 C 
BRANCH  30  31
ATOM     31  C   UNL A   1      32.839  27.339  26.509  1.00  0.00     0.023 C 
BRANCH  31  32
ATOM     32  C   UNL A   1      33.352  28.705  26.968  1.00  0.00     0.023 C 
BRANCH  32  33
ATOM     33  C   UNL A   1      34.864  28.940  26.874  1.00  0.00     0.116 C 
BRANCH  33  34
ATOM     34  N   UNL A   1      35.262  30.287  27.250  1.00  0.00    -0.352 N 
ATOM     35  C   UNL A   1      36.327  30.677  28.035  1.00  0.00     0.251 C 
ATOM     36  H   UNL A   1      34.700  31.015  26.899  1.00  0.00     0.163 HD
ATOM     37  O   UNL A   1      36.354  31.800  28.518  1.00  0.00    -0.269 OA
BRANCH  35  38
ATOM     38  C   UNL A   1      37.455  29.752  28.291  1.00  0.00     0.039 A 
ATOM     39  C   UNL A   1      38.511  29.697  27.371  1.00  0.00     0.014 A 
ATOM     40  C   UNL A   1      37.425  28.879  29.384  1.00  0.00     0.014 A 
ATOM     41  C   UNL A   1      39.567  28.812  27.584  1.00  0.00     0.010 A 
ATOM     42  C   UNL A   1      38.479  28.000  29.604  1.00  0.00     0.010 A 
ATOM     43  C   UNL A   1      39.559  27.983  28.716  1.00  0.00    -0.014 A 
BRANCH  43  44
ATOM     44  C   UNL A   1      40.811  27.294  29.109  1.00  0.00     0.031 A 
ATOM     45  C   UNL A   1      41.032  26.051  28.190  1.00  0.00     0.074 A 
ATOM     46  C   UNL A   1      41.526  27.836  30.151  1.00  0.00     0.049 A 
ATOM     47  N   UNL A   1      41.638  24.931  28.427  1.00  0.00    -0.248 NA
ATOM     48  C   UNL A   1      40.418  26.016  26.825  1.00  0.00     0.031 C 
ATOM     49  C   UNL A   1      41.170  29.088  30.866  1.00  0.00     0.029 A 
ATOM     50  N   UNL A   1      42.683  27.484  30.828  1.00  0.00    -0.354 N 
ATOM     51  C   UNL A   1      41.699  24.193  27.214  1.00  0.00     0.074 A 
ATOM     52  C   UNL A   1      40.802  24.843  26.314  1.00  0.00     0.031 C 
ATOM     53  C   UNL A   1      42.012  29.328  31.901  1.00  0.00     0.029 A 
ATOM     54  C   UNL A   1      43.013  28.282  31.971  1.00  0.00     0.049 A 
ATOM     55  H   UNL A   1      43.246  26.730  30.539  1.00  0.00     0.167 HD
ATOM     56  C   UNL A   1      42.638  23.217  26.991  1.00  0.00     0.037 A 
ATOM     57  C   UNL A   1      43.993  28.080  32.918  1.00  0.00     0.037 A 
ATOM     58  C   UNL A   1      43.426  23.076  28.167  1.00  0.00     0.049 A 
ATOM     59  C   UNL A   1      44.783  26.975  32.379  1.00  0.00     0.074 A 
ATOM     60  C   UNL A   1      43.127  22.633  29.428  1.00  0.00     0.029 A 
ATOM     61  N   UNL A   1      44.567  23.842  28.200  1.00  0.00    -0.354 N 
ATOM     62  N   UNL A   1      45.621  27.089  31.395  1.00  0.00    -0.248 NA
ATOM     63  C   UNL A   1      44.580  25.633  32.935  1.00  0.00     0.031 C 
ATOM     64  C   UNL A   1      43.761  23.598  30.233  1.00  0.00     0.029 A 
ATOM     65  C   UNL A   1      44.673  24.335  29.467  1.00  0.00     0.049 A 
ATOM     66  H   UNL A   1      45.188  24.002  27.453  1.00  0.00     0.167 HD
ATOM     67  C   UNL A   1      45.733  25.788  30.985  1.00  0.00     0.074 A 
ATOM     68  C   UNL A   1      45.384  24.954  32.121  1.00  0.00     0.031 C 
ATOM     69  C   UNL A   1      45.484  25.503  29.682  1.00  0.00     0.037 A 
BRANCH  56  70
ATOM     70  C   UNL A   1      43.207  22.571  25.749  1.00  0.00     0.057 A 
ATOM     71  C   UNL A   1      43.364  21.157  25.757  1.00  0.00     0.134 A 
ATOM     72  C   UNL A   1      43.953  23.248  24.782  1.00  0.00     0.134 A 
ATOM     73  F   UNL A   1      42.648  20.384  26.592  1.00  0.00    -0.206 F 
ATOM     74  C   UNL A   1      44.335  20.497  25.001  1.00  0.00     0.040 A 
ATOM     75  C   UNL A   1      44.890  22.583  23.974  1.00  0.00     0.040 A 
ATOM     76  F   UNL A   1      43.878  24.575  24.639  1.00  0.00    -0.206 F 
ATOM     77  C   UNL A   1      45.124  21.217  24.122  1.00  0.00     0.006 A 
ENDBRANCH  56  70
BRANCH  57  78
ATOM     78  C   UNL A   1      44.469  28.551  34.285  1.00  0.00     0.057 A 
ATOM     79  C   UNL A   1      45.666  29.204  34.573  1.00  0.00     0.134 A 
ATOM     80  C   UNL A   1      43.590  28.460  35.413  1.00  0.00     0.134 A 
ATOM     81  F   UNL A   1      46.653  29.267  33.671  1.00  0.00    -0.206 F 
ATOM     82  C   UNL A   1      45.902  29.826  35.825  1.00  0.00     0.040 A 
ATOM     83  C   UNL A   1      43.779  29.126  36.627  1.00  0.00     0.040 A 
ATOM     84  F   UNL A   1      42.475  27.717  35.390  1.00  0.00    -0.206 F 
ATOM     85  C   UNL A   1      44.938  29.837  36.833  1.00  0.00     0.006 A 
ENDBRANCH  57  78
BRANCH  69  86
ATOM     86  C   UNL A   1      45.744  26.646  28.712  1.00  0.00     0.057 A 
ATOM     87  C   UNL A   1      47.021  27.223  28.642  1.00  0.00     0.134 A 
ATOM     88  C   UNL A   1      44.763  27.280  27.932  1.00  0.00     0.134 A 
ATOM     89  F   UNL A   1      48.042  26.677  29.321  1.00  0.00    -0.206 F 
ATOM     90  C   UNL A   1      47.294  28.373  27.887  1.00  0.00     0.040 A 
ATOM     91  C   UNL A   1      45.018  28.430  27.166  1.00  0.00     0.040 A 
ATOM     92  F   UNL A   1      43.516  26.813  27.887  1.00  0.00    -0.206 F 
ATOM     93  C   UNL A   1      46.289  28.988  27.150  1.00  0.00     0.006 A 
ENDBRANCH  69  86
ENDBRANCH  43  44
ENDBRANCH  35  38
ENDBRANCH  33  34
ENDBRANCH  32  33
ENDBRANCH  31  32
ENDBRANCH  30  31
ENDBRANCH   3  30
TORSDOF 17
ENDMDL
