MODEL 1
REMARK VINA RESULT:     -12.8      0.000      0.000
REMARK SMILES O=C(NCCCCNC(=O)c1ccc(-c2c3nc(c(-c4c(F)cccc4F)c4ccc([nH]4)c(-c4c(F)cccc4F)c4nc(c(-c5c(F)cccc5F)c5ccc2[nH]5)C=C4)C=C3)cc1)c1ccc(NS(=O)(=O)C2=Cc3ccccc3CC2)cc1
REMARK SMILES IDX 5 1 4 2 3 3 1 4 2 5 65 7 66 8 84 9 67 10 83 11 68 12 69 13
REMARK SMILES IDX 70 15 71 16 72 17 73 18 74 19 82 20 75 21 81 22 76 23 80 24
REMARK SMILES IDX 77 25 79 26 78 27 6 28 7 29 8 30 9 31 10 33 11 34 12 35
REMARK SMILES IDX 64 36 13 37 63 38 14 39 15 40 16 41 57 42 17 43 62 44 56 45
REMARK SMILES IDX 58 46 18 47 61 48 55 49 54 50 19 52 45 53 28 54 44 55 29 56
REMARK SMILES IDX 32 57 43 58 59 59 30 60 31 61 42 63 60 64 33 65 20 66 21 67
REMARK SMILES IDX 26 68 22 69 23 70 25 71 27 72 24 73 46 74 47 75 52 76 48 77
REMARK SMILES IDX 49 78 51 79 53 80 50 81 34 82 35 83 40 84 36 85 37 86 39 87
REMARK SMILES IDX 41 88 38 89
REMARK H PARENT 3 6 69 14 8 32 58 51 32 62
REMARK Flexibility Score: inf
ROOT
ATOM      1  C   UNL A   1      36.044  21.968  25.153  1.00  0.00     0.023 C 
ENDROOT
BRANCH   1   2
ATOM      2  C   UNL A   1      35.130  21.634  26.328  1.00  0.00     0.116 C 
BRANCH   2   3
ATOM      3  N   UNL A   1      34.392  20.399  26.123  1.00  0.00    -0.352 N 
ATOM      4  O   UNL A   1      32.608  19.145  25.529  1.00  0.00    -0.269 OA
ATOM      5  C   UNL A   1      33.188  20.224  25.488  1.00  0.00     0.251 C 
ATOM      6  H   UNL A   1      34.809  19.585  26.488  1.00  0.00     0.163 HD
BRANCH   5   7
ATOM      7  C   UNL A   1      32.592  21.353  24.746  1.00  0.00     0.039 A 
ATOM      8  C   UNL A   1      32.926  21.563  23.405  1.00  0.00     0.016 A 
ATOM      9  C   UNL A   1      31.656  22.178  25.376  1.00  0.00     0.016 A 
ATOM     10  C   UNL A   1      32.353  22.624  22.709  1.00  0.00     0.027 A 
ATOM     11  C   UNL A   1      31.095  23.254  24.676  1.00  0.00     0.027 A 
ATOM     12  C   UNL A   1      31.452  23.481  23.343  1.00  0.00     0.049 A 
BRANCH  12  13
ATOM     13  N   UNL A   1      30.799  24.497  22.582  1.00  0.00    -0.280 N 
ATOM     14  H   UNL A   1      30.084  24.257  21.950  1.00  0.00     0.180 HD
BRANCH  13  15
ATOM     15  S   UNL A   1      31.259  26.128  22.769  1.00  0.00     0.258 S 
ATOM     16  O   UNL A   1      32.576  26.058  23.368  1.00  0.00    -0.202 OA
ATOM     17  O   UNL A   1      31.120  26.708  21.445  1.00  0.00    -0.202 OA
BRANCH  15  18
ATOM     18  C   UNL A   1      30.119  26.918  23.870  1.00  0.00     0.066 C 
ATOM     19  C   UNL A   1      30.382  26.777  25.190  1.00  0.00     0.026 C 
ATOM     20  C   UNL A   1      29.667  28.289  23.425  1.00  0.00     0.055 C 
ATOM     21  C   UNL A   1      31.209  27.866  25.784  1.00  0.00    -0.021 A 
ATOM     22  C   UNL A   1      30.733  29.340  23.765  1.00  0.00     0.041 C 
ATOM     23  C   UNL A   1      31.816  27.662  27.027  1.00  0.00     0.008 A 
ATOM     24  C   UNL A   1      31.395  29.087  25.102  1.00  0.00    -0.040 A 
ATOM     25  C   UNL A   1      32.646  28.644  27.570  1.00  0.00     0.001 A 
ATOM     26  C   UNL A   1      32.247  30.055  25.648  1.00  0.00     0.004 A 
ATOM     27  C   UNL A   1      32.873  29.831  26.875  1.00  0.00     0.000 A 
ENDBRANCH  15  18
ENDBRANCH  13  15
ENDBRANCH  12  13
ENDBRANCH   5   7
ENDBRANCH   2   3
ENDBRANCH   1   2
BRANCH   1  28
ATOM     28  C   UNL A   1      37.147  20.950  24.873  1.00  0.00     0.023 C 
BRANCH  28  29
ATOM     29  C   UNL A   1      38.430  21.135  25.680  1.00  0.00     0.116 C 
BRANCH  29  30
ATOM     30  N   UNL A   1      39.310  19.976  25.629  1.00  0.00    -0.352 N 
ATOM     31  C   UNL A   1      40.638  19.866  25.967  1.00  0.00     0.251 C 
ATOM     32  H   UNL A   1      38.890  19.146  25.304  1.00  0.00     0.163 HD
ATOM     33  O   UNL A   1      41.248  18.826  25.739  1.00  0.00    -0.269 OA
BRANCH  31  34
ATOM     34  C   UNL A   1      41.343  21.018  26.566  1.00  0.00     0.039 A 
ATOM     35  C   UNL A   1      41.927  21.964  25.719  1.00  0.00     0.014 A 
ATOM     36  C   UNL A   1      41.386  21.189  27.951  1.00  0.00     0.014 A 
ATOM     37  C   UNL A   1      42.456  23.139  26.259  1.00  0.00     0.010 A 
ATOM     38  C   UNL A   1      41.849  22.390  28.481  1.00  0.00     0.010 A 
ATOM     39  C   UNL A   1      42.365  23.386  27.638  1.00  0.00    -0.014 A 
BRANCH  39  40
ATOM     40  C   UNL A   1      42.735  24.704  28.213  1.00  0.00     0.031 A 
ATOM     41  C   UNL A   1      41.695  25.765  28.420  1.00  0.00     0.074 A 
ATOM     42  C   UNL A   1      44.033  24.978  28.444  1.00  0.00     0.049 A 
ATOM     43  N   UNL A   1      41.849  27.007  28.805  1.00  0.00    -0.248 NA
ATOM     44  C   UNL A   1      40.303  25.389  28.130  1.00  0.00     0.031 C 
ATOM     45  C   UNL A   1      45.147  24.054  28.221  1.00  0.00     0.029 A 
ATOM     46  N   UNL A   1      44.638  26.126  28.893  1.00  0.00    -0.354 N 
ATOM     47  C   UNL A   1      40.578  27.565  28.790  1.00  0.00     0.074 A 
ATOM     48  C   UNL A   1      39.672  26.541  28.314  1.00  0.00     0.031 C 
ATOM     49  C   UNL A   1      46.297  24.669  28.536  1.00  0.00     0.029 A 
ATOM     50  C   UNL A   1      46.009  26.038  28.948  1.00  0.00     0.049 A 
ATOM     51  H   UNL A   1      44.140  26.934  29.150  1.00  0.00     0.167 HD
ATOM     52  C   UNL A   1      40.198  28.812  29.158  1.00  0.00     0.037 A 
ATOM     53  C   UNL A   1      46.932  26.961  29.274  1.00  0.00     0.037 A 
ATOM     54  C   UNL A   1      41.098  29.823  29.647  1.00  0.00     0.049 A 
ATOM     55  C   UNL A   1      46.491  28.340  29.673  1.00  0.00     0.074 A 
ATOM     56  C   UNL A   1      40.797  31.086  30.128  1.00  0.00     0.029 A 
ATOM     57  N   UNL A   1      42.477  29.692  29.707  1.00  0.00    -0.354 N 
ATOM     58  N   UNL A   1      45.277  28.829  29.734  1.00  0.00    -0.248 NA
ATOM     59  C   UNL A   1      47.545  29.292  30.045  1.00  0.00     0.031 C 
ATOM     60  C   UNL A   1      41.998  31.735  30.438  1.00  0.00     0.029 A 
ATOM     61  C   UNL A   1      43.045  30.861  30.186  1.00  0.00     0.049 A 
ATOM     62  H   UNL A   1      42.979  28.886  29.448  1.00  0.00     0.167 HD
ATOM     63  C   UNL A   1      45.418  30.143  30.157  1.00  0.00     0.074 A 
ATOM     64  C   UNL A   1      46.835  30.368  30.358  1.00  0.00     0.031 C 
ATOM     65  C   UNL A   1      44.458  31.079  30.360  1.00  0.00     0.037 A 
BRANCH  52  66
ATOM     66  C   UNL A   1      38.740  29.144  29.044  1.00  0.00     0.057 A 
ATOM     67  C   UNL A   1      37.877  29.065  30.146  1.00  0.00     0.134 A 
ATOM     68  C   UNL A   1      38.194  29.558  27.823  1.00  0.00     0.134 A 
ATOM     69  F   UNL A   1      38.336  28.663  31.341  1.00  0.00    -0.206 F 
ATOM     70  C   UNL A   1      36.517  29.354  30.030  1.00  0.00     0.040 A 
ATOM     71  C   UNL A   1      36.839  29.874  27.701  1.00  0.00     0.040 A 
ATOM     72  F   UNL A   1      38.964  29.660  26.731  1.00  0.00    -0.206 F 
ATOM     73  C   UNL A   1      35.995  29.764  28.805  1.00  0.00     0.006 A 
ENDBRANCH  52  66
BRANCH  53  74
ATOM     74  C   UNL A   1      48.370  26.601  29.236  1.00  0.00     0.057 A 
ATOM     75  C   UNL A   1      48.984  25.968  30.321  1.00  0.00     0.134 A 
ATOM     76  C   UNL A   1      49.153  26.847  28.101  1.00  0.00     0.134 A 
ATOM     77  F   UNL A   1      48.288  25.721  31.441  1.00  0.00    -0.206 F 
ATOM     78  C   UNL A   1      50.330  25.597  30.283  1.00  0.00     0.040 A 
ATOM     79  C   UNL A   1      50.493  26.465  28.042  1.00  0.00     0.040 A 
ATOM     80  F   UNL A   1      48.616  27.443  27.025  1.00  0.00    -0.206 F 
ATOM     81  C   UNL A   1      51.085  25.839  29.137  1.00  0.00     0.006 A 
ENDBRANCH  53  74
BRANCH  65  82
ATOM     82  C   UNL A   1      44.912  32.434  30.815  1.00  0.00     0.057 A 
ATOM     83  C   UNL A   1      45.086  32.728  32.173  1.00  0.00     0.134 A 
ATOM     84  C   UNL A   1      45.214  33.439  29.889  1.00  0.00     0.134 A 
ATOM     85  F   UNL A   1      44.798  31.812  33.111  1.00  0.00    -0.206 F 
ATOM     86  C   UNL A   1      45.532  33.982  32.595  1.00  0.00     0.040 A 
ATOM     87  C   UNL A   1      45.681  34.689  30.298  1.00  0.00     0.040 A 
ATOM     88  F   UNL A   1      45.072  33.218  28.573  1.00  0.00    -0.206 F 
ATOM     89  C   UNL A   1      45.837  34.964  31.655  1.00  0.00     0.006 A 
ENDBRANCH  65  82
ENDBRANCH  39  40
ENDBRANCH  31  34
ENDBRANCH  29  30
ENDBRANCH  28  29
ENDBRANCH   1  28
TORSDOF 14
ENDMDL
MODEL 2
REMARK VINA RESULT:     -12.8      0.444      6.118
REMARK SMILES O=C(NCCCCNC(=O)c1ccc(-c2c3nc(c(-c4c(F)cccc4F)c4ccc([nH]4)c(-c4c(F)cccc4F)c4nc(c(-c5c(F)cccc5F)c5ccc2[nH]5)C=C4)C=C3)cc1)c1ccc(NS(=O)(=O)C2=Cc3ccccc3CC2)cc1
REMARK SMILES IDX 5 1 4 2 3 3 1 4 2 5 65 7 66 8 84 9 67 10 83 11 68 12 69 13
REMARK SMILES IDX 70 15 71 16 72 17 73 18 74 19 82 20 75 21 81 22 76 23 80 24
REMARK SMILES IDX 77 25 79 26 78 27 6 28 7 29 8 30 9 31 10 33 11 34 12 35
REMARK SMILES IDX 64 36 13 37 63 38 14 39 15 40 16 41 57 42 17 43 62 44 56 45
REMARK SMILES IDX 58 46 18 47 61 48 55 49 54 50 19 52 45 53 28 54 44 55 29 56
REMARK SMILES IDX 32 57 43 58 59 59 30 60 31 61 42 63 60 64 33 65 20 66 21 67
REMARK SMILES IDX 26 68 22 69 23 70 25 71 27 72 24 73 46 74 47 75 52 76 48 77
REMARK SMILES IDX 49 78 51 79 53 80 50 81 34 82 35 83 40 84 36 85 37 86 39 87
REMARK SMILES IDX 41 88 38 89
REMARK H PARENT 3 6 69 14 8 32 58 51 32 62
REMARK Flexibility Score: inf
ROOT
ATOM      1  C   UNL A   1      36.329  21.658  25.005  1.00  0.00     0.023 C 
ENDROOT
BRANCH   1   2
ATOM      2  C   UNL A   1      35.291  21.558  26.117  1.00  0.00     0.116 C 
BRANCH   2   3
ATOM      3  N   UNL A   1      34.480  20.356  26.013  1.00  0.00    -0.352 N 
ATOM      4  O   UNL A   1      32.599  19.177  25.590  1.00  0.00    -0.269 OA
ATOM      5  C   UNL A   1      33.228  20.222  25.467  1.00  0.00     0.251 C 
ATOM      6  H   UNL A   1      34.879  19.536  26.382  1.00  0.00     0.163 HD
BRANCH   5   7
ATOM      7  C   UNL A   1      32.639  21.352  24.721  1.00  0.00     0.039 A 
ATOM      8  C   UNL A   1      33.000  21.574  23.389  1.00  0.00     0.016 A 
ATOM      9  C   UNL A   1      31.684  22.165  25.337  1.00  0.00     0.016 A 
ATOM     10  C   UNL A   1      32.434  22.636  22.689  1.00  0.00     0.027 A 
ATOM     11  C   UNL A   1      31.130  23.242  24.633  1.00  0.00     0.027 A 
ATOM     12  C   UNL A   1      31.513  23.483  23.310  1.00  0.00     0.049 A 
BRANCH  12  13
ATOM     13  N   UNL A   1      30.869  24.500  22.543  1.00  0.00    -0.280 N 
ATOM     14  H   UNL A   1      30.179  24.258  21.885  1.00  0.00     0.180 HD
BRANCH  13  15
ATOM     15  S   UNL A   1      31.299  26.134  22.767  1.00  0.00     0.258 S 
ATOM     16  O   UNL A   1      32.614  26.076  23.371  1.00  0.00    -0.202 OA
ATOM     17  O   UNL A   1      31.155  26.740  21.455  1.00  0.00    -0.202 OA
BRANCH  15  18
ATOM     18  C   UNL A   1      30.140  26.880  23.880  1.00  0.00     0.066 C 
ATOM     19  C   UNL A   1      30.419  26.747  25.196  1.00  0.00     0.026 C 
ATOM     20  C   UNL A   1      29.632  28.233  23.440  1.00  0.00     0.055 C 
ATOM     21  C   UNL A   1      31.210  27.866  25.785  1.00  0.00    -0.021 A 
ATOM     22  C   UNL A   1      30.661  29.323  23.772  1.00  0.00     0.041 C 
ATOM     23  C   UNL A   1      31.836  27.684  27.022  1.00  0.00     0.008 A 
ATOM     24  C   UNL A   1      31.344  29.094  25.103  1.00  0.00    -0.040 A 
ATOM     25  C   UNL A   1      32.633  28.695  27.559  1.00  0.00     0.001 A 
ATOM     26  C   UNL A   1      32.164  30.093  25.643  1.00  0.00     0.004 A 
ATOM     27  C   UNL A   1      32.809  29.891  26.864  1.00  0.00     0.000 A 
ENDBRANCH  15  18
ENDBRANCH  13  15
ENDBRANCH  12  13
ENDBRANCH   5   7
ENDBRANCH   2   3
ENDBRANCH   1   2
BRANCH   1  28
ATOM     28  C   UNL A   1      37.382  20.552  24.991  1.00  0.00     0.023 C 
BRANCH  28  29
ATOM     29  C   UNL A   1      38.685  20.879  25.715  1.00  0.00     0.116 C 
BRANCH  29  30
ATOM     30  N   UNL A   1      39.633  19.773  25.714  1.00  0.00    -0.352 N 
ATOM     31  C   UNL A   1      40.968  19.760  26.041  1.00  0.00     0.251 C 
ATOM     32  H   UNL A   1      39.261  18.904  25.437  1.00  0.00     0.163 HD
ATOM     33  O   UNL A   1      41.638  18.748  25.861  1.00  0.00    -0.269 OA
BRANCH  31  34
ATOM     34  C   UNL A   1      41.607  20.983  26.572  1.00  0.00     0.039 A 
ATOM     35  C   UNL A   1      42.199  21.876  25.675  1.00  0.00     0.014 A 
ATOM     36  C   UNL A   1      41.582  21.268  27.938  1.00  0.00     0.014 A 
ATOM     37  C   UNL A   1      42.665  23.109  26.136  1.00  0.00     0.010 A 
ATOM     38  C   UNL A   1      41.981  22.524  28.386  1.00  0.00     0.010 A 
ATOM     39  C   UNL A   1      42.503  23.465  27.485  1.00  0.00    -0.014 A 
BRANCH  39  40
ATOM     40  C   UNL A   1      42.804  24.838  27.963  1.00  0.00     0.031 A 
ATOM     41  C   UNL A   1      44.188  25.205  28.410  1.00  0.00     0.074 A 
ATOM     42  C   UNL A   1      41.797  25.722  28.096  1.00  0.00     0.049 A 
ATOM     43  N   UNL A   1      44.611  26.316  28.959  1.00  0.00    -0.248 NA
ATOM     44  C   UNL A   1      45.228  24.178  28.245  1.00  0.00     0.031 C 
ATOM     45  C   UNL A   1      40.395  25.467  27.759  1.00  0.00     0.029 A 
ATOM     46  N   UNL A   1      41.793  27.008  28.578  1.00  0.00    -0.354 N 
ATOM     47  C   UNL A   1      45.961  26.118  29.217  1.00  0.00     0.074 A 
ATOM     48  C   UNL A   1      46.275  24.764  28.808  1.00  0.00     0.031 C 
ATOM     49  C   UNL A   1      39.669  26.559  28.040  1.00  0.00     0.029 A 
ATOM     50  C   UNL A   1      40.543  27.579  28.610  1.00  0.00     0.049 A 
ATOM     51  H   UNL A   1      42.607  27.477  28.872  1.00  0.00     0.167 HD
ATOM     52  C   UNL A   1      46.860  26.991  29.729  1.00  0.00     0.037 A 
ATOM     53  C   UNL A   1      40.141  28.779  29.065  1.00  0.00     0.037 A 
ATOM     54  C   UNL A   1      46.550  28.341  30.119  1.00  0.00     0.049 A 
ATOM     55  C   UNL A   1      41.153  29.730  29.636  1.00  0.00     0.074 A 
ATOM     56  C   UNL A   1      47.410  29.329  30.567  1.00  0.00     0.029 A 
ATOM     57  N   UNL A   1      45.276  28.890  30.119  1.00  0.00    -0.354 N 
ATOM     58  N   UNL A   1      42.442  29.560  29.798  1.00  0.00    -0.248 NA
ATOM     59  C   UNL A   1      40.655  31.036  30.089  1.00  0.00     0.031 C 
ATOM     60  C   UNL A   1      46.650  30.463  30.879  1.00  0.00     0.029 A 
ATOM     61  C   UNL A   1      45.321  30.193  30.590  1.00  0.00     0.049 A 
ATOM     62  H   UNL A   1      44.460  28.423  29.828  1.00  0.00     0.167 HD
ATOM     63  C   UNL A   1      42.912  30.736  30.363  1.00  0.00     0.074 A 
ATOM     64  C   UNL A   1      41.772  31.620  30.498  1.00  0.00     0.031 C 
ATOM     65  C   UNL A   1      44.176  31.054  30.739  1.00  0.00     0.037 A 
BRANCH  52  66
ATOM     66  C   UNL A   1      48.269  26.503  29.895  1.00  0.00     0.057 A 
ATOM     67  C   UNL A   1      49.235  26.687  28.895  1.00  0.00     0.134 A 
ATOM     68  C   UNL A   1      48.668  25.853  31.068  1.00  0.00     0.134 A 
ATOM     69  F   UNL A   1      48.912  27.292  27.742  1.00  0.00    -0.206 F 
ATOM     70  C   UNL A   1      50.538  26.212  29.044  1.00  0.00     0.040 A 
ATOM     71  C   UNL A   1      49.977  25.396  31.239  1.00  0.00     0.040 A 
ATOM     72  F   UNL A   1      47.796  25.650  32.066  1.00  0.00    -0.206 F 
ATOM     73  C   UNL A   1      50.914  25.568  30.221  1.00  0.00     0.006 A 
ENDBRANCH  52  66
BRANCH  53  74
ATOM     74  C   UNL A   1      38.706  29.144  28.993  1.00  0.00     0.057 A 
ATOM     75  C   UNL A   1      38.131  29.580  27.795  1.00  0.00     0.134 A 
ATOM     76  C   UNL A   1      37.868  29.030  30.109  1.00  0.00     0.134 A 
ATOM     77  F   UNL A   1      38.888  29.724  26.697  1.00  0.00    -0.206 F 
ATOM     78  C   UNL A   1      36.774  29.897  27.709  1.00  0.00     0.040 A 
ATOM     79  C   UNL A   1      36.507  29.324  30.034  1.00  0.00     0.040 A 
ATOM     80  F   UNL A   1      38.360  28.608  31.284  1.00  0.00    -0.206 F 
ATOM     81  C   UNL A   1      35.957  29.761  28.830  1.00  0.00     0.006 A 
ENDBRANCH  53  74
BRANCH  65  82
ATOM     82  C   UNL A   1      44.389  32.412  31.338  1.00  0.00     0.057 A 
ATOM     83  C   UNL A   1      44.340  32.616  32.722  1.00  0.00     0.134 A 
ATOM     84  C   UNL A   1      44.682  33.516  30.529  1.00  0.00     0.134 A 
ATOM     85  F   UNL A   1      44.048  31.601  33.550  1.00  0.00    -0.206 F 
ATOM     86  C   UNL A   1      44.563  33.876  33.281  1.00  0.00     0.040 A 
ATOM     87  C   UNL A   1      44.927  34.776  31.077  1.00  0.00     0.040 A 
ATOM     88  F   UNL A   1      44.747  33.386  29.195  1.00  0.00    -0.206 F 
ATOM     89  C   UNL A   1      44.864  34.959  32.457  1.00  0.00     0.006 A 
ENDBRANCH  65  82
ENDBRANCH  39  40
ENDBRANCH  31  34
ENDBRANCH  29  30
ENDBRANCH  28  29
ENDBRANCH   1  28
TORSDOF 14
ENDMDL
MODEL 3
REMARK VINA RESULT:     -12.7      0.460      1.476
REMARK SMILES O=C(NCCCCNC(=O)c1ccc(-c2c3nc(c(-c4c(F)cccc4F)c4ccc([nH]4)c(-c4c(F)cccc4F)c4nc(c(-c5c(F)cccc5F)c5ccc2[nH]5)C=C4)C=C3)cc1)c1ccc(NS(=O)(=O)C2=Cc3ccccc3CC2)cc1
REMARK SMILES IDX 5 1 4 2 3 3 1 4 2 5 65 7 66 8 84 9 67 10 83 11 68 12 69 13
REMARK SMILES IDX 70 15 71 16 72 17 73 18 74 19 82 20 75 21 81 22 76 23 80 24
REMARK SMILES IDX 77 25 79 26 78 27 6 28 7 29 8 30 9 31 10 33 11 34 12 35
REMARK SMILES IDX 64 36 13 37 63 38 14 39 15 40 16 41 57 42 17 43 62 44 56 45
REMARK SMILES IDX 58 46 18 47 61 48 55 49 54 50 19 52 45 53 28 54 44 55 29 56
REMARK SMILES IDX 32 57 43 58 59 59 30 60 31 61 42 63 60 64 33 65 20 66 21 67
REMARK SMILES IDX 26 68 22 69 23 70 25 71 27 72 24 73 46 74 47 75 52 76 48 77
REMARK SMILES IDX 49 78 51 79 53 80 50 81 34 82 35 83 40 84 36 85 37 86 39 87
REMARK SMILES IDX 41 88 38 89
REMARK H PARENT 3 6 69 14 8 32 58 51 32 62
REMARK Flexibility Score: inf
ROOT
ATOM      1  C   UNL A   1      35.964  22.002  25.308  1.00  0.00     0.023 C 
ENDROOT
BRANCH   1   2
ATOM      2  C   UNL A   1      34.963  21.654  26.405  1.00  0.00     0.116 C 
BRANCH   2   3
ATOM      3  N   UNL A   1      34.283  20.394  26.157  1.00  0.00    -0.352 N 
ATOM      4  O   UNL A   1      32.561  19.080  25.512  1.00  0.00    -0.269 OA
ATOM      5  C   UNL A   1      33.091  20.185  25.509  1.00  0.00     0.251 C 
ATOM      6  H   UNL A   1      34.734  19.589  26.499  1.00  0.00     0.163 HD
BRANCH   5   7
ATOM      7  C   UNL A   1      32.449  21.308  24.797  1.00  0.00     0.039 A 
ATOM      8  C   UNL A   1      31.618  22.192  25.492  1.00  0.00     0.016 A 
ATOM      9  C   UNL A   1      32.715  21.510  23.441  1.00  0.00     0.016 A 
ATOM     10  C   UNL A   1      31.022  23.254  24.817  1.00  0.00     0.027 A 
ATOM     11  C   UNL A   1      32.101  22.571  22.763  1.00  0.00     0.027 A 
ATOM     12  C   UNL A   1      31.246  23.438  23.451  1.00  0.00     0.049 A 
BRANCH  12  13
ATOM     13  N   UNL A   1      30.709  24.591  22.803  1.00  0.00    -0.280 N 
ATOM     14  H   UNL A   1      29.753  24.628  22.574  1.00  0.00     0.180 HD
BRANCH  13  15
ATOM     15  S   UNL A   1      31.727  25.906  22.426  1.00  0.00     0.258 S 
ATOM     16  O   UNL A   1      32.929  25.655  23.194  1.00  0.00    -0.202 OA
ATOM     17  O   UNL A   1      31.808  25.910  20.976  1.00  0.00    -0.202 OA
BRANCH  15  18
ATOM     18  C   UNL A   1      30.949  27.402  22.967  1.00  0.00     0.066 C 
ATOM     19  C   UNL A   1      30.451  27.385  24.225  1.00  0.00     0.026 C 
ATOM     20  C   UNL A   1      31.665  28.666  22.552  1.00  0.00     0.055 C 
ATOM     21  C   UNL A   1      31.388  27.875  25.277  1.00  0.00    -0.021 A 
ATOM     22  C   UNL A   1      32.852  28.938  23.487  1.00  0.00     0.041 C 
ATOM     23  C   UNL A   1      31.117  27.592  26.619  1.00  0.00     0.008 A 
ATOM     24  C   UNL A   1      32.546  28.603  24.931  1.00  0.00    -0.040 A 
ATOM     25  C   UNL A   1      32.014  27.986  27.612  1.00  0.00     0.001 A 
ATOM     26  C   UNL A   1      33.449  28.974  25.935  1.00  0.00     0.004 A 
ATOM     27  C   UNL A   1      33.185  28.662  27.270  1.00  0.00     0.000 A 
ENDBRANCH  15  18
ENDBRANCH  13  15
ENDBRANCH  12  13
ENDBRANCH   5   7
ENDBRANCH   2   3
ENDBRANCH   1   2
BRANCH   1  28
ATOM     28  C   UNL A   1      37.011  20.929  25.014  1.00  0.00     0.023 C 
BRANCH  28  29
ATOM     29  C   UNL A   1      38.391  21.177  25.618  1.00  0.00     0.116 C 
BRANCH  29  30
ATOM     30  N   UNL A   1      39.254  20.005  25.572  1.00  0.00    -0.352 N 
ATOM     31  C   UNL A   1      40.575  19.873  25.930  1.00  0.00     0.251 C 
ATOM     32  H   UNL A   1      38.828  19.185  25.234  1.00  0.00     0.163 HD
ATOM     33  O   UNL A   1      41.173  18.826  25.704  1.00  0.00    -0.269 OA
BRANCH  31  34
ATOM     34  C   UNL A   1      41.287  21.011  26.549  1.00  0.00     0.039 A 
ATOM     35  C   UNL A   1      41.942  21.926  25.721  1.00  0.00     0.014 A 
ATOM     36  C   UNL A   1      41.269  21.199  27.932  1.00  0.00     0.014 A 
ATOM     37  C   UNL A   1      42.482  23.090  26.271  1.00  0.00     0.010 A 
ATOM     38  C   UNL A   1      41.744  22.392  28.470  1.00  0.00     0.010 A 
ATOM     39  C   UNL A   1      42.333  23.359  27.641  1.00  0.00    -0.014 A 
BRANCH  39  40
ATOM     40  C   UNL A   1      42.717  24.672  28.218  1.00  0.00     0.031 A 
ATOM     41  C   UNL A   1      41.688  25.744  28.428  1.00  0.00     0.074 A 
ATOM     42  C   UNL A   1      44.018  24.933  28.448  1.00  0.00     0.049 A 
ATOM     43  N   UNL A   1      41.855  26.983  28.814  1.00  0.00    -0.248 NA
ATOM     44  C   UNL A   1      40.293  25.383  28.139  1.00  0.00     0.031 C 
ATOM     45  C   UNL A   1      45.122  23.998  28.222  1.00  0.00     0.029 A 
ATOM     46  N   UNL A   1      44.636  26.073  28.897  1.00  0.00    -0.354 N 
ATOM     47  C   UNL A   1      40.591  27.555  28.802  1.00  0.00     0.074 A 
ATOM     48  C   UNL A   1      39.674  26.540  28.325  1.00  0.00     0.031 C 
ATOM     49  C   UNL A   1      46.279  24.599  28.536  1.00  0.00     0.029 A 
ATOM     50  C   UNL A   1      46.005  25.971  28.951  1.00  0.00     0.049 A 
ATOM     51  H   UNL A   1      44.146  26.886  29.157  1.00  0.00     0.167 HD
ATOM     52  C   UNL A   1      40.225  28.804  29.173  1.00  0.00     0.037 A 
ATOM     53  C   UNL A   1      46.939  26.884  29.277  1.00  0.00     0.037 A 
ATOM     54  C   UNL A   1      41.135  29.806  29.662  1.00  0.00     0.049 A 
ATOM     55  C   UNL A   1      46.512  28.266  29.678  1.00  0.00     0.074 A 
ATOM     56  C   UNL A   1      40.848  31.071  30.145  1.00  0.00     0.029 A 
ATOM     57  N   UNL A   1      42.513  29.660  29.720  1.00  0.00    -0.354 N 
ATOM     58  N   UNL A   1      45.304  28.769  29.742  1.00  0.00    -0.248 NA
ATOM     59  C   UNL A   1      47.577  29.207  30.051  1.00  0.00     0.031 C 
ATOM     60  C   UNL A   1      42.056  31.707  30.454  1.00  0.00     0.029 A 
ATOM     61  C   UNL A   1      43.093  30.823  30.200  1.00  0.00     0.049 A 
ATOM     62  H   UNL A   1      43.006  28.849  29.458  1.00  0.00     0.167 HD
ATOM     63  C   UNL A   1      45.459  30.080  30.167  1.00  0.00     0.074 A 
ATOM     64  C   UNL A   1      46.878  30.289  30.366  1.00  0.00     0.031 C 
ATOM     65  C   UNL A   1      44.509  31.026  30.372  1.00  0.00     0.037 A 
BRANCH  52  66
ATOM     66  C   UNL A   1      38.770  29.152  29.060  1.00  0.00     0.057 A 
ATOM     67  C   UNL A   1      37.906  29.074  30.162  1.00  0.00     0.134 A 
ATOM     68  C   UNL A   1      38.227  29.580  27.843  1.00  0.00     0.134 A 
ATOM     69  F   UNL A   1      38.361  28.660  31.354  1.00  0.00    -0.206 F 
ATOM     70  C   UNL A   1      36.549  29.377  30.048  1.00  0.00     0.040 A 
ATOM     71  C   UNL A   1      36.876  29.910  27.723  1.00  0.00     0.040 A 
ATOM     72  F   UNL A   1      38.999  29.682  26.751  1.00  0.00    -0.206 F 
ATOM     73  C   UNL A   1      36.031  29.801  28.826  1.00  0.00     0.006 A 
ENDBRANCH  52  66
BRANCH  53  74
ATOM     74  C   UNL A   1      48.372  26.508  29.236  1.00  0.00     0.057 A 
ATOM     75  C   UNL A   1      49.150  26.750  28.099  1.00  0.00     0.134 A 
ATOM     76  C   UNL A   1      49.006  25.933  30.344  1.00  0.00     0.134 A 
ATOM     77  F   UNL A   1      48.593  27.283  27.001  1.00  0.00    -0.206 F 
ATOM     78  C   UNL A   1      50.507  26.427  28.061  1.00  0.00     0.040 A 
ATOM     79  C   UNL A   1      50.366  25.624  30.327  1.00  0.00     0.040 A 
ATOM     80  F   UNL A   1      48.315  25.686  31.466  1.00  0.00    -0.206 F 
ATOM     81  C   UNL A   1      51.121  25.870  29.182  1.00  0.00     0.006 A 
ENDBRANCH  53  74
BRANCH  65  82
ATOM     82  C   UNL A   1      44.977  32.375  30.829  1.00  0.00     0.057 A 
ATOM     83  C   UNL A   1      45.254  33.400  29.916  1.00  0.00     0.134 A 
ATOM     84  C   UNL A   1      45.116  32.664  32.191  1.00  0.00     0.134 A 
ATOM     85  F   UNL A   1      45.155  33.181  28.596  1.00  0.00    -0.206 F 
ATOM     86  C   UNL A   1      45.666  34.664  30.344  1.00  0.00     0.040 A 
ATOM     87  C   UNL A   1      45.507  33.929  32.632  1.00  0.00     0.040 A 
ATOM     88  F   UNL A   1      44.862  31.725  33.117  1.00  0.00    -0.206 F 
ATOM     89  C   UNL A   1      45.787  34.932  31.706  1.00  0.00     0.006 A 
ENDBRANCH  65  82
ENDBRANCH  39  40
ENDBRANCH  31  34
ENDBRANCH  29  30
ENDBRANCH  28  29
ENDBRANCH   1  28
TORSDOF 14
ENDMDL
