MODEL 1
REMARK VINA RESULT:     -13.6      0.000      0.000
REMARK SMILES O=C(NCCCCNC(=O)c1ccccc1-c1ccc(/C=C2/SC(=S)N(Cc3ccccc3)C2=O)o1)c1ccc(-c2c3nc(c(-c4c(F)cccc4F)c4ccc([nH]4)c(-c4c(F)cccc4F)c4nc(c(-c5c(F)cccc5F)c5ccc2[nH]5)C=C4)C=C3)cc1
REMARK SMILES IDX 6 1 5 2 4 3 3 4 1 5 2 6 37 8 38 9 90 10 39 11 89 12 40 13
REMARK SMILES IDX 41 14 42 15 83 16 43 17 88 18 82 19 84 20 44 21 87 22 81 23
REMARK SMILES IDX 80 24 45 26 71 27 54 28 70 29 55 30 58 31 69 32 85 33 56 34
REMARK SMILES IDX 57 35 68 37 86 38 59 39 46 40 47 41 52 42 48 43 49 44 51 45
REMARK SMILES IDX 53 46 50 47 72 48 73 49 78 50 74 51 75 52 77 53 79 54 76 55
REMARK SMILES IDX 60 56 61 57 66 58 62 59 63 60 65 61 67 62 64 63 7 64 8 65
REMARK SMILES IDX 9 66 10 68 11 69 12 70 16 71 13 72 15 73 14 74 17 75 18 76
REMARK SMILES IDX 36 77 19 78 20 79 21 80 22 81 23 82 34 83 24 84 26 85 35 86
REMARK SMILES IDX 25 87 27 88 28 89 29 90 33 91 30 92 32 93 31 94
REMARK H PARENT 3 7 84 25 58 36 8 67
REMARK Flexibility Score: inf
ROOT
ATOM      1  C   UNL A   1      32.636  30.114  26.969  1.00  0.00     0.023 C 
ENDROOT
BRANCH   1   2
ATOM      2  C   UNL A   1      33.615  28.955  27.157  1.00  0.00     0.023 C 
BRANCH   2   3
ATOM      3  C   UNL A   1      35.028  29.347  27.574  1.00  0.00     0.116 C 
BRANCH   3   4
ATOM      4  N   UNL A   1      35.063  30.168  28.775  1.00  0.00    -0.352 N 
ATOM      5  O   UNL A   1      35.907  31.028  30.685  1.00  0.00    -0.269 OA
ATOM      6  C   UNL A   1      36.102  30.399  29.649  1.00  0.00     0.251 C 
ATOM      7  H   UNL A   1      34.221  30.626  28.996  1.00  0.00     0.163 HD
BRANCH   6   8
ATOM      8  C   UNL A   1      37.449  29.868  29.351  1.00  0.00     0.039 A 
ATOM      9  C   UNL A   1      38.237  29.325  30.367  1.00  0.00     0.014 A 
ATOM     10  C   UNL A   1      37.933  29.919  28.040  1.00  0.00     0.014 A 
ATOM     11  C   UNL A   1      39.560  28.988  30.107  1.00  0.00     0.010 A 
ATOM     12  C   UNL A   1      39.236  29.489  27.762  1.00  0.00     0.010 A 
ATOM     13  C   UNL A   1      40.073  29.051  28.800  1.00  0.00    -0.014 A 
BRANCH  13  14
ATOM     14  C   UNL A   1      41.461  28.588  28.546  1.00  0.00     0.031 A 
ATOM     15  C   UNL A   1      41.760  27.166  28.161  1.00  0.00     0.074 A 
ATOM     16  C   UNL A   1      42.461  29.488  28.627  1.00  0.00     0.049 A 
ATOM     17  N   UNL A   1      42.913  26.617  27.870  1.00  0.00    -0.248 NA
ATOM     18  C   UNL A   1      40.622  26.234  28.098  1.00  0.00     0.031 C 
ATOM     19  C   UNL A   1      42.297  30.894  29.006  1.00  0.00     0.029 A 
ATOM     20  N   UNL A   1      43.803  29.367  28.376  1.00  0.00    -0.354 N 
ATOM     21  C   UNL A   1      42.646  25.279  27.605  1.00  0.00     0.074 A 
ATOM     22  C   UNL A   1      41.223  25.091  27.794  1.00  0.00     0.031 C 
ATOM     23  C   UNL A   1      43.481  31.515  28.912  1.00  0.00     0.029 A 
ATOM     24  C   UNL A   1      44.497  30.543  28.531  1.00  0.00     0.049 A 
ATOM     25  H   UNL A   1      44.228  28.520  28.110  1.00  0.00     0.167 HD
ATOM     26  C   UNL A   1      43.509  24.303  27.232  1.00  0.00     0.037 A 
ATOM     27  C   UNL A   1      45.808  30.809  28.398  1.00  0.00     0.037 A 
ATOM     28  C   UNL A   1      44.923  24.499  27.031  1.00  0.00     0.049 A 
ATOM     29  C   UNL A   1      46.741  29.703  28.005  1.00  0.00     0.074 A 
ATOM     30  C   UNL A   1      45.872  23.578  26.620  1.00  0.00     0.029 A 
ATOM     31  N   UNL A   1      45.593  25.696  27.232  1.00  0.00    -0.354 N 
ATOM     32  N   UNL A   1      46.466  28.452  27.726  1.00  0.00    -0.248 NA
ATOM     33  C   UNL A   1      48.166  30.043  27.913  1.00  0.00     0.031 C 
ATOM     34  C   UNL A   1      47.121  24.206  26.613  1.00  0.00     0.029 A 
ATOM     35  C   UNL A   1      46.946  25.531  26.975  1.00  0.00     0.049 A 
ATOM     36  H   UNL A   1      45.171  26.540  27.515  1.00  0.00     0.167 HD
ATOM     37  C   UNL A   1      47.681  27.858  27.415  1.00  0.00     0.074 A 
ATOM     38  C   UNL A   1      48.690  28.892  27.514  1.00  0.00     0.031 C 
ATOM     39  C   UNL A   1      47.938  26.570  27.083  1.00  0.00     0.037 A 
BRANCH  26  40
ATOM     40  C   UNL A   1      42.955  22.922  27.024  1.00  0.00     0.057 A 
ATOM     41  C   UNL A   1      42.600  22.098  28.100  1.00  0.00     0.134 A 
ATOM     42  C   UNL A   1      42.712  22.437  25.733  1.00  0.00     0.134 A 
ATOM     43  F   UNL A   1      42.814  22.498  29.362  1.00  0.00    -0.206 F 
ATOM     44  C   UNL A   1      42.037  20.835  27.898  1.00  0.00     0.040 A 
ATOM     45  C   UNL A   1      42.130  21.186  25.518  1.00  0.00     0.040 A 
ATOM     46  F   UNL A   1      43.020  23.178  24.657  1.00  0.00    -0.206 F 
ATOM     47  C   UNL A   1      41.794  20.380  26.603  1.00  0.00     0.006 A 
ENDBRANCH  26  40
BRANCH  27  48
ATOM     48  C   UNL A   1      46.311  32.181  28.652  1.00  0.00     0.057 A 
ATOM     49  C   UNL A   1      46.412  33.120  27.620  1.00  0.00     0.134 A 
ATOM     50  C   UNL A   1      46.697  32.587  29.935  1.00  0.00     0.134 A 
ATOM     51  F   UNL A   1      46.072  32.784  26.366  1.00  0.00    -0.206 F 
ATOM     52  C   UNL A   1      46.891  34.410  27.851  1.00  0.00     0.040 A 
ATOM     53  C   UNL A   1      47.150  33.882  30.187  1.00  0.00     0.040 A 
ATOM     54  F   UNL A   1      46.616  31.735  30.968  1.00  0.00    -0.206 F 
ATOM     55  C   UNL A   1      47.255  34.795  29.140  1.00  0.00     0.006 A 
ENDBRANCH  27  48
BRANCH  39  56
ATOM     56  C   UNL A   1      49.365  26.219  26.785  1.00  0.00     0.057 A 
ATOM     57  C   UNL A   1      50.244  25.794  27.789  1.00  0.00     0.134 A 
ATOM     58  C   UNL A   1      49.863  26.299  25.479  1.00  0.00     0.134 A 
ATOM     59  F   UNL A   1      49.832  25.714  29.064  1.00  0.00    -0.206 F 
ATOM     60  C   UNL A   1      51.576  25.485  27.509  1.00  0.00     0.040 A 
ATOM     61  C   UNL A   1      51.186  25.969  25.182  1.00  0.00     0.040 A 
ATOM     62  F   UNL A   1      49.071  26.694  24.470  1.00  0.00    -0.206 F 
ATOM     63  C   UNL A   1      52.049  25.567  26.200  1.00  0.00     0.006 A 
ENDBRANCH  39  56
ENDBRANCH  13  14
ENDBRANCH   6   8
ENDBRANCH   3   4
ENDBRANCH   2   3
ENDBRANCH   1   2
BRANCH   1  64
ATOM     64  C   UNL A   1      31.643  29.943  25.828  1.00  0.00     0.116 C 
BRANCH  64  65
ATOM     65  N   UNL A   1      32.270  29.708  24.537  1.00  0.00    -0.352 N 
ATOM     66  C   UNL A   1      31.771  28.992  23.475  1.00  0.00     0.252 C 
ATOM     67  H   UNL A   1      33.158  30.111  24.409  1.00  0.00     0.163 HD
ATOM     68  O   UNL A   1      32.404  28.907  22.427  1.00  0.00    -0.269 OA
BRANCH  66  69
ATOM     69  C   UNL A   1      30.485  28.279  23.614  1.00  0.00     0.050 A 
ATOM     70  C   UNL A   1      29.343  28.950  23.159  1.00  0.00     0.014 A 
ATOM     71  C   UNL A   1      30.395  26.983  24.153  1.00  0.00     0.030 A 
ATOM     72  C   UNL A   1      28.106  28.312  23.190  1.00  0.00     0.001 A 
ATOM     73  C   UNL A   1      29.145  26.349  24.158  1.00  0.00     0.013 A 
ATOM     74  C   UNL A   1      28.009  27.008  23.676  1.00  0.00     0.001 A 
BRANCH  71  75
ATOM     75  C   UNL A   1      31.552  26.307  24.714  1.00  0.00     0.135 A 
ATOM     76  C   UNL A   1      31.945  26.012  25.999  1.00  0.00     0.051 A 
ATOM     77  O   UNL A   1      32.525  25.943  23.829  1.00  0.00    -0.457 OA
ATOM     78  C   UNL A   1      33.233  25.449  25.893  1.00  0.00     0.051 A 
ATOM     79  C   UNL A   1      33.570  25.408  24.543  1.00  0.00     0.128 A 
BRANCH  79  80
ATOM     80  C   UNL A   1      34.771  24.916  23.966  1.00  0.00     0.068 C 
ATOM     81  C   UNL A   1      35.028  23.602  23.956  1.00  0.00     0.084 C 
ATOM     82  S   UNL A   1      36.588  22.913  23.731  1.00  0.00    -0.054 SA
ATOM     83  C   UNL A   1      34.075  22.529  24.328  1.00  0.00     0.266 C 
ATOM     84  C   UNL A   1      36.123  21.432  24.582  1.00  0.00     0.148 C 
ATOM     85  N   UNL A   1      34.764  21.438  24.812  1.00  0.00    -0.288 N 
ATOM     86  O   UNL A   1      32.861  22.603  24.174  1.00  0.00    -0.268 OA
ATOM     87  S   UNL A   1      37.238  20.264  24.995  1.00  0.00    -0.052 S 
BRANCH  85  88
ATOM     88  C   UNL A   1      33.999  20.375  25.462  1.00  0.00     0.163 C 
BRANCH  88  89
ATOM     89  C   UNL A   1      33.734  19.200  24.538  1.00  0.00    -0.028 A 
ATOM     90  C   UNL A   1      34.563  18.070  24.566  1.00  0.00     0.005 A 
ATOM     91  C   UNL A   1      32.682  19.232  23.605  1.00  0.00     0.005 A 
ATOM     92  C   UNL A   1      34.347  17.008  23.682  1.00  0.00     0.000 A 
ATOM     93  C   UNL A   1      32.458  18.163  22.736  1.00  0.00     0.000 A 
ATOM     94  C   UNL A   1      33.294  17.053  22.771  1.00  0.00     0.000 A 
ENDBRANCH  88  89
ENDBRANCH  85  88
ENDBRANCH  79  80
ENDBRANCH  71  75
ENDBRANCH  66  69
ENDBRANCH  64  65
ENDBRANCH   1  64
TORSDOF 15
ENDMDL
MODEL 2
REMARK VINA RESULT:     -13.3      2.462      8.268
REMARK SMILES O=C(NCCCCNC(=O)c1ccccc1-c1ccc(/C=C2/SC(=S)N(Cc3ccccc3)C2=O)o1)c1ccc(-c2c3nc(c(-c4c(F)cccc4F)c4ccc([nH]4)c(-c4c(F)cccc4F)c4nc(c(-c5c(F)cccc5F)c5ccc2[nH]5)C=C4)C=C3)cc1
REMARK SMILES IDX 6 1 5 2 4 3 3 4 1 5 2 6 37 8 38 9 90 10 39 11 89 12 40 13
REMARK SMILES IDX 41 14 42 15 83 16 43 17 88 18 82 19 84 20 44 21 87 22 81 23
REMARK SMILES IDX 80 24 45 26 71 27 54 28 70 29 55 30 58 31 69 32 85 33 56 34
REMARK SMILES IDX 57 35 68 37 86 38 59 39 46 40 47 41 52 42 48 43 49 44 51 45
REMARK SMILES IDX 53 46 50 47 72 48 73 49 78 50 74 51 75 52 77 53 79 54 76 55
REMARK SMILES IDX 60 56 61 57 66 58 62 59 63 60 65 61 67 62 64 63 7 64 8 65
REMARK SMILES IDX 9 66 10 68 11 69 12 70 16 71 13 72 15 73 14 74 17 75 18 76
REMARK SMILES IDX 36 77 19 78 20 79 21 80 22 81 23 82 34 83 24 84 26 85 35 86
REMARK SMILES IDX 25 87 27 88 28 89 29 90 33 91 30 92 32 93 31 94
REMARK H PARENT 3 7 84 25 58 36 8 67
REMARK Flexibility Score: inf
ROOT
ATOM      1  C   UNL A   1      36.933  19.620  24.964  1.00  0.00     0.023 C 
ENDROOT
BRANCH   1   2
ATOM      2  C   UNL A   1      38.436  19.599  24.683  1.00  0.00     0.023 C 
BRANCH   2   3
ATOM      3  C   UNL A   1      39.336  19.794  25.897  1.00  0.00     0.116 C 
BRANCH   3   4
ATOM      4  N   UNL A   1      40.447  18.855  25.942  1.00  0.00    -0.352 N 
ATOM      5  O   UNL A   1      42.601  18.180  26.023  1.00  0.00    -0.269 OA
ATOM      6  C   UNL A   1      41.788  19.092  26.144  1.00  0.00     0.251 C 
ATOM      7  H   UNL A   1      40.206  17.910  25.808  1.00  0.00     0.163 HD
BRANCH   6   8
ATOM      8  C   UNL A   1      42.254  20.455  26.483  1.00  0.00     0.039 A 
ATOM      9  C   UNL A   1      42.218  20.908  27.803  1.00  0.00     0.014 A 
ATOM     10  C   UNL A   1      42.727  21.292  25.467  1.00  0.00     0.014 A 
ATOM     11  C   UNL A   1      42.496  22.241  28.081  1.00  0.00     0.010 A 
ATOM     12  C   UNL A   1      43.098  22.607  25.766  1.00  0.00     0.010 A 
ATOM     13  C   UNL A   1      42.953  23.104  27.070  1.00  0.00    -0.014 A 
BRANCH  13  14
ATOM     14  C   UNL A   1      43.334  24.495  27.428  1.00  0.00     0.031 A 
ATOM     15  C   UNL A   1      42.308  25.512  27.844  1.00  0.00     0.074 A 
ATOM     16  C   UNL A   1      44.641  24.824  27.413  1.00  0.00     0.049 A 
ATOM     17  N   UNL A   1      42.487  26.753  28.221  1.00  0.00    -0.248 NA
ATOM     18  C   UNL A   1      40.899  25.088  27.831  1.00  0.00     0.031 C 
ATOM     19  C   UNL A   1      45.729  23.926  27.012  1.00  0.00     0.029 A 
ATOM     20  N   UNL A   1      45.281  25.985  27.761  1.00  0.00    -0.354 N 
ATOM     21  C   UNL A   1      41.219  27.263  28.476  1.00  0.00     0.074 A 
ATOM     22  C   UNL A   1      40.276  26.204  28.186  1.00  0.00     0.031 C 
ATOM     23  C   UNL A   1      46.901  24.552  27.186  1.00  0.00     0.029 A 
ATOM     24  C   UNL A   1      46.648  25.911  27.648  1.00  0.00     0.049 A 
ATOM     25  H   UNL A   1      44.807  26.792  28.063  1.00  0.00     0.167 HD
ATOM     26  C   UNL A   1      40.879  28.498  28.918  1.00  0.00     0.037 A 
ATOM     27  C   UNL A   1      47.596  26.838  27.873  1.00  0.00     0.037 A 
ATOM     28  C   UNL A   1      41.823  29.545  29.219  1.00  0.00     0.049 A 
ATOM     29  C   UNL A   1      47.186  28.202  28.341  1.00  0.00     0.074 A 
ATOM     30  C   UNL A   1      41.574  30.818  29.705  1.00  0.00     0.029 A 
ATOM     31  N   UNL A   1      43.197  29.443  29.058  1.00  0.00    -0.354 N 
ATOM     32  N   UNL A   1      45.986  28.656  28.608  1.00  0.00    -0.248 NA
ATOM     33  C   UNL A   1      48.259  29.185  28.533  1.00  0.00     0.031 C 
ATOM     34  C   UNL A   1      42.792  31.499  29.798  1.00  0.00     0.029 A 
ATOM     35  C   UNL A   1      43.805  30.637  29.414  1.00  0.00     0.049 A 
ATOM     36  H   UNL A   1      43.670  28.641  28.739  1.00  0.00     0.167 HD
ATOM     37  C   UNL A   1      46.160  29.972  29.011  1.00  0.00     0.074 A 
ATOM     38  C   UNL A   1      47.584  30.235  28.977  1.00  0.00     0.031 C 
ATOM     39  C   UNL A   1      45.224  30.883  29.370  1.00  0.00     0.037 A 
BRANCH  26  40
ATOM     40  C   UNL A   1      39.417  28.799  29.096  1.00  0.00     0.057 A 
ATOM     41  C   UNL A   1      38.774  28.642  30.331  1.00  0.00     0.134 A 
ATOM     42  C   UNL A   1      38.661  29.315  28.036  1.00  0.00     0.134 A 
ATOM     43  F   UNL A   1      39.439  28.145  31.384  1.00  0.00    -0.206 F 
ATOM     44  C   UNL A   1      37.428  28.974  30.500  1.00  0.00     0.040 A 
ATOM     45  C   UNL A   1      37.321  29.671  28.198  1.00  0.00     0.040 A 
ATOM     46  F   UNL A   1      39.216  29.499  26.828  1.00  0.00    -0.206 F 
ATOM     47  C   UNL A   1      36.700  29.497  29.433  1.00  0.00     0.006 A 
ENDBRANCH  26  40
BRANCH  27  48
ATOM     48  C   UNL A   1      49.023  26.503  27.646  1.00  0.00     0.057 A 
ATOM     49  C   UNL A   1      49.616  26.669  26.390  1.00  0.00     0.134 A 
ATOM     50  C   UNL A   1      49.829  26.016  28.682  1.00  0.00     0.134 A 
ATOM     51  F   UNL A   1      48.890  27.117  25.354  1.00  0.00    -0.206 F 
ATOM     52  C   UNL A   1      50.956  26.349  26.168  1.00  0.00     0.040 A 
ATOM     53  C   UNL A   1      51.177  25.720  28.482  1.00  0.00     0.040 A 
ATOM     54  F   UNL A   1      49.320  25.843  29.911  1.00  0.00    -0.206 F 
ATOM     55  C   UNL A   1      51.742  25.879  27.219  1.00  0.00     0.006 A 
ENDBRANCH  27  48
BRANCH  39  56
ATOM     56  C   UNL A   1      45.719  32.240  29.773  1.00  0.00     0.057 A 
ATOM     57  C   UNL A   1      46.094  32.527  31.092  1.00  0.00     0.134 A 
ATOM     58  C   UNL A   1      45.834  33.269  28.829  1.00  0.00     0.134 A 
ATOM     59  F   UNL A   1      45.990  31.589  32.046  1.00  0.00    -0.206 F 
ATOM     60  C   UNL A   1      46.539  33.795  31.464  1.00  0.00     0.040 A 
ATOM     61  C   UNL A   1      46.302  34.534  29.184  1.00  0.00     0.040 A 
ATOM     62  F   UNL A   1      45.497  33.058  27.547  1.00  0.00    -0.206 F 
ATOM     63  C   UNL A   1      46.649  34.803  30.507  1.00  0.00     0.006 A 
ENDBRANCH  39  56
ENDBRANCH  13  14
ENDBRANCH   6   8
ENDBRANCH   3   4
ENDBRANCH   2   3
ENDBRANCH   1   2
BRANCH   1  64
ATOM     64  C   UNL A   1      36.327  21.006  25.140  1.00  0.00     0.116 C 
BRANCH  64  65
ATOM     65  N   UNL A   1      35.339  21.081  26.204  1.00  0.00    -0.352 N 
ATOM     66  C   UNL A   1      33.974  20.950  26.100  1.00  0.00     0.252 C 
ATOM     67  H   UNL A   1      35.690  21.247  27.108  1.00  0.00     0.163 HD
ATOM     68  O   UNL A   1      33.264  21.004  27.098  1.00  0.00    -0.269 OA
BRANCH  66  69
ATOM     69  C   UNL A   1      33.356  20.789  24.767  1.00  0.00     0.050 A 
ATOM     70  C   UNL A   1      33.067  19.480  24.363  1.00  0.00     0.014 A 
ATOM     71  C   UNL A   1      33.045  21.885  23.943  1.00  0.00     0.030 A 
ATOM     72  C   UNL A   1      32.417  19.256  23.152  1.00  0.00     0.001 A 
ATOM     73  C   UNL A   1      32.373  21.643  22.738  1.00  0.00     0.013 A 
ATOM     74  C   UNL A   1      32.058  20.337  22.347  1.00  0.00     0.001 A 
BRANCH  71  75
ATOM     75  C   UNL A   1      33.419  23.242  24.304  1.00  0.00     0.135 A 
ATOM     76  C   UNL A   1      34.379  24.113  23.843  1.00  0.00     0.051 A 
ATOM     77  O   UNL A   1      32.768  23.783  25.374  1.00  0.00    -0.457 OA
ATOM     78  C   UNL A   1      34.318  25.241  24.687  1.00  0.00     0.051 A 
ATOM     79  C   UNL A   1      33.312  25.020  25.622  1.00  0.00     0.128 A 
BRANCH  79  80
ATOM     80  C   UNL A   1      32.893  25.889  26.664  1.00  0.00     0.068 C 
ATOM     81  C   UNL A   1      32.212  27.006  26.382  1.00  0.00     0.084 C 
ATOM     82  S   UNL A   1      32.054  28.349  27.445  1.00  0.00    -0.054 SA
ATOM     83  C   UNL A   1      31.653  27.369  25.058  1.00  0.00     0.266 C 
ATOM     84  C   UNL A   1      31.765  29.460  26.097  1.00  0.00     0.148 C 
ATOM     85  N   UNL A   1      31.597  28.741  24.933  1.00  0.00    -0.288 N 
ATOM     86  O   UNL A   1      31.258  26.555  24.232  1.00  0.00    -0.268 OA
ATOM     87  S   UNL A   1      31.722  31.112  26.309  1.00  0.00    -0.052 S 
BRANCH  85  88
ATOM     88  C   UNL A   1      31.309  29.300  23.614  1.00  0.00     0.163 C 
BRANCH  88  89
ATOM     89  C   UNL A   1      29.837  29.619  23.425  1.00  0.00    -0.028 A 
ATOM     90  C   UNL A   1      29.362  30.925  23.610  1.00  0.00     0.005 A 
ATOM     91  C   UNL A   1      28.910  28.612  23.102  1.00  0.00     0.005 A 
ATOM     92  C   UNL A   1      27.998  31.210  23.483  1.00  0.00     0.000 A 
ATOM     93  C   UNL A   1      27.552  28.902  22.959  1.00  0.00     0.000 A 
ATOM     94  C   UNL A   1      27.096  30.201  23.154  1.00  0.00     0.000 A 
ENDBRANCH  88  89
ENDBRANCH  85  88
ENDBRANCH  79  80
ENDBRANCH  71  75
ENDBRANCH  66  69
ENDBRANCH  64  65
ENDBRANCH   1  64
TORSDOF 15
ENDMDL
MODEL 3
REMARK VINA RESULT:     -13.3      2.423      8.431
REMARK SMILES O=C(NCCCCNC(=O)c1ccccc1-c1ccc(/C=C2/SC(=S)N(Cc3ccccc3)C2=O)o1)c1ccc(-c2c3nc(c(-c4c(F)cccc4F)c4ccc([nH]4)c(-c4c(F)cccc4F)c4nc(c(-c5c(F)cccc5F)c5ccc2[nH]5)C=C4)C=C3)cc1
REMARK SMILES IDX 6 1 5 2 4 3 3 4 1 5 2 6 37 8 38 9 90 10 39 11 89 12 40 13
REMARK SMILES IDX 41 14 42 15 83 16 43 17 88 18 82 19 84 20 44 21 87 22 81 23
REMARK SMILES IDX 80 24 45 26 71 27 54 28 70 29 55 30 58 31 69 32 85 33 56 34
REMARK SMILES IDX 57 35 68 37 86 38 59 39 46 40 47 41 52 42 48 43 49 44 51 45
REMARK SMILES IDX 53 46 50 47 72 48 73 49 78 50 74 51 75 52 77 53 79 54 76 55
REMARK SMILES IDX 60 56 61 57 66 58 62 59 63 60 65 61 67 62 64 63 7 64 8 65
REMARK SMILES IDX 9 66 10 68 11 69 12 70 16 71 13 72 15 73 14 74 17 75 18 76
REMARK SMILES IDX 36 77 19 78 20 79 21 80 22 81 23 82 34 83 24 84 26 85 35 86
REMARK SMILES IDX 25 87 27 88 28 89 29 90 33 91 30 92 32 93 31 94
REMARK H PARENT 3 7 84 25 58 36 8 67
REMARK Flexibility Score: inf
ROOT
ATOM      1  C   UNL A   1      37.697  21.133  24.993  1.00  0.00     0.023 C 
ENDROOT
BRANCH   1   2
ATOM      2  C   UNL A   1      38.622  19.917  24.977  1.00  0.00     0.023 C 
BRANCH   2   3
ATOM      3  C   UNL A   1      39.510  19.747  26.204  1.00  0.00     0.116 C 
BRANCH   3   4
ATOM      4  N   UNL A   1      40.632  18.848  25.979  1.00  0.00    -0.352 N 
ATOM      5  O   UNL A   1      42.783  18.246  25.645  1.00  0.00    -0.269 OA
ATOM      6  C   UNL A   1      41.983  19.114  25.981  1.00  0.00     0.251 C 
ATOM      7  H   UNL A   1      40.391  17.911  25.799  1.00  0.00     0.163 HD
BRANCH   6   8
ATOM      8  C   UNL A   1      42.470  20.457  26.365  1.00  0.00     0.039 A 
ATOM      9  C   UNL A   1      42.443  20.866  27.699  1.00  0.00     0.014 A 
ATOM     10  C   UNL A   1      42.955  21.320  25.377  1.00  0.00     0.014 A 
ATOM     11  C   UNL A   1      42.743  22.184  28.021  1.00  0.00     0.010 A 
ATOM     12  C   UNL A   1      43.347  22.619  25.719  1.00  0.00     0.010 A 
ATOM     13  C   UNL A   1      43.212  23.074  27.040  1.00  0.00    -0.014 A 
BRANCH  13  14
ATOM     14  C   UNL A   1      43.616  24.445  27.443  1.00  0.00     0.031 A 
ATOM     15  C   UNL A   1      45.044  24.905  27.351  1.00  0.00     0.074 A 
ATOM     16  C   UNL A   1      42.658  25.298  27.860  1.00  0.00     0.049 A 
ATOM     17  N   UNL A   1      45.548  26.082  27.628  1.00  0.00    -0.248 NA
ATOM     18  C   UNL A   1      46.038  23.922  26.895  1.00  0.00     0.031 C 
ATOM     19  C   UNL A   1      41.239  24.961  28.006  1.00  0.00     0.029 A 
ATOM     20  N   UNL A   1      42.724  26.620  28.215  1.00  0.00    -0.354 N 
ATOM     21  C   UNL A   1      46.914  25.979  27.396  1.00  0.00     0.074 A 
ATOM     22  C   UNL A   1      47.166  24.615  26.978  1.00  0.00     0.031 C 
ATOM     23  C   UNL A   1      40.563  26.059  28.369  1.00  0.00     0.029 A 
ATOM     24  C   UNL A   1      41.504  27.159  28.544  1.00  0.00     0.049 A 
ATOM     25  H   UNL A   1      43.563  27.133  28.233  1.00  0.00     0.167 HD
ATOM     26  C   UNL A   1      47.866  26.936  27.514  1.00  0.00     0.037 A 
ATOM     27  C   UNL A   1      41.177  28.396  28.958  1.00  0.00     0.037 A 
ATOM     28  C   UNL A   1      47.609  28.296  27.917  1.00  0.00     0.049 A 
ATOM     29  C   UNL A   1      42.256  29.427  29.100  1.00  0.00     0.074 A 
ATOM     30  C   UNL A   1      48.504  29.346  28.033  1.00  0.00     0.029 A 
ATOM     31  N   UNL A   1      46.365  28.794  28.276  1.00  0.00    -0.354 N 
ATOM     32  N   UNL A   1      43.537  29.320  28.844  1.00  0.00    -0.248 NA
ATOM     33  C   UNL A   1      41.846  30.747  29.593  1.00  0.00     0.031 C 
ATOM     34  C   UNL A   1      47.810  30.467  28.501  1.00  0.00     0.029 A 
ATOM     35  C   UNL A   1      46.474  30.129  28.634  1.00  0.00     0.049 A 
ATOM     36  H   UNL A   1      45.528  28.276  28.276  1.00  0.00     0.167 HD
ATOM     37  C   UNL A   1      44.084  30.562  29.134  1.00  0.00     0.074 A 
ATOM     38  C   UNL A   1      42.992  31.412  29.559  1.00  0.00     0.031 C 
ATOM     39  C   UNL A   1      45.378  30.960  29.060  1.00  0.00     0.037 A 
BRANCH  26  40
ATOM     40  C   UNL A   1      49.287  26.550  27.216  1.00  0.00     0.057 A 
ATOM     41  C   UNL A   1      50.152  26.081  28.214  1.00  0.00     0.134 A 
ATOM     42  C   UNL A   1      49.776  26.585  25.904  1.00  0.00     0.134 A 
ATOM     43  F   UNL A   1      49.749  26.029  29.492  1.00  0.00    -0.206 F 
ATOM     44  C   UNL A   1      51.455  25.674  27.919  1.00  0.00     0.040 A 
ATOM     45  C   UNL A   1      51.070  26.161  25.593  1.00  0.00     0.040 A 
ATOM     46  F   UNL A   1      48.999  27.015  24.898  1.00  0.00    -0.206 F 
ATOM     47  C   UNL A   1      51.914  25.707  26.603  1.00  0.00     0.006 A 
ENDBRANCH  26  40
BRANCH  27  48
ATOM     48  C   UNL A   1      39.764  28.716  29.278  1.00  0.00     0.057 A 
ATOM     49  C   UNL A   1      38.888  29.192  28.297  1.00  0.00     0.134 A 
ATOM     50  C   UNL A   1      39.256  28.547  30.572  1.00  0.00     0.134 A 
ATOM     51  F   UNL A   1      39.322  29.390  27.043  1.00  0.00    -0.206 F 
ATOM     52  C   UNL A   1      37.560  29.502  28.593  1.00  0.00     0.040 A 
ATOM     53  C   UNL A   1      37.923  28.826  30.875  1.00  0.00     0.040 A 
ATOM     54  F   UNL A   1      40.044  28.087  31.554  1.00  0.00    -0.206 F 
ATOM     55  C   UNL A   1      37.073  29.312  29.885  1.00  0.00     0.006 A 
ENDBRANCH  27  48
BRANCH  39  56
ATOM     56  C   UNL A   1      45.670  32.383  29.430  1.00  0.00     0.057 A 
ATOM     57  C   UNL A   1      46.040  32.746  30.732  1.00  0.00     0.134 A 
ATOM     58  C   UNL A   1      45.591  33.402  28.472  1.00  0.00     0.134 A 
ATOM     59  F   UNL A   1      46.116  31.818  31.699  1.00  0.00    -0.206 F 
ATOM     60  C   UNL A   1      46.294  34.074  31.074  1.00  0.00     0.040 A 
ATOM     61  C   UNL A   1      45.868  34.730  28.796  1.00  0.00     0.040 A 
ATOM     62  F   UNL A   1      45.248  33.121  27.205  1.00  0.00    -0.206 F 
ATOM     63  C   UNL A   1      46.214  35.071  30.103  1.00  0.00     0.006 A 
ENDBRANCH  39  56
ENDBRANCH  13  14
ENDBRANCH   6   8
ENDBRANCH   3   4
ENDBRANCH   2   3
ENDBRANCH   1   2
BRANCH   1  64
ATOM     64  C   UNL A   1      36.252  20.853  24.603  1.00  0.00     0.116 C 
BRANCH  64  65
ATOM     65  N   UNL A   1      35.333  20.842  25.729  1.00  0.00    -0.352 N 
ATOM     66  C   UNL A   1      33.962  20.747  25.700  1.00  0.00     0.252 C 
ATOM     67  H   UNL A   1      35.744  20.911  26.622  1.00  0.00     0.163 HD
ATOM     68  O   UNL A   1      33.315  20.716  26.742  1.00  0.00    -0.269 OA
BRANCH  66  69
ATOM     69  C   UNL A   1      33.260  20.731  24.400  1.00  0.00     0.050 A 
ATOM     70  C   UNL A   1      32.905  19.474  23.894  1.00  0.00     0.014 A 
ATOM     71  C   UNL A   1      32.935  21.909  23.703  1.00  0.00     0.030 A 
ATOM     72  C   UNL A   1      32.176  19.384  22.711  1.00  0.00     0.001 A 
ATOM     73  C   UNL A   1      32.184  21.800  22.525  1.00  0.00     0.013 A 
ATOM     74  C   UNL A   1      31.804  20.546  22.035  1.00  0.00     0.001 A 
BRANCH  71  75
ATOM     75  C   UNL A   1      33.373  23.214  24.165  1.00  0.00     0.135 A 
ATOM     76  C   UNL A   1      34.422  24.036  23.822  1.00  0.00     0.051 A 
ATOM     77  O   UNL A   1      32.684  23.745  25.216  1.00  0.00    -0.457 OA
ATOM     78  C   UNL A   1      34.377  25.121  24.722  1.00  0.00     0.051 A 
ATOM     79  C   UNL A   1      33.292  24.926  25.570  1.00  0.00     0.128 A 
BRANCH  79  80
ATOM     80  C   UNL A   1      32.858  25.768  26.628  1.00  0.00     0.068 C 
ATOM     81  C   UNL A   1      32.189  26.897  26.364  1.00  0.00     0.084 C 
ATOM     82  S   UNL A   1      32.017  28.211  27.460  1.00  0.00    -0.054 SA
ATOM     83  C   UNL A   1      31.657  27.300  25.040  1.00  0.00     0.266 C 
ATOM     84  C   UNL A   1      31.761  29.360  26.138  1.00  0.00     0.148 C 
ATOM     85  N   UNL A   1      31.611  28.675  24.952  1.00  0.00    -0.288 N 
ATOM     86  O   UNL A   1      31.274  26.511  24.184  1.00  0.00    -0.268 OA
ATOM     87  S   UNL A   1      31.722  31.007  26.393  1.00  0.00    -0.052 S 
BRANCH  85  88
ATOM     88  C   UNL A   1      31.351  29.271  23.643  1.00  0.00     0.163 C 
BRANCH  88  89
ATOM     89  C   UNL A   1      29.883  29.593  23.430  1.00  0.00    -0.028 A 
ATOM     90  C   UNL A   1      29.390  30.878  23.697  1.00  0.00     0.005 A 
ATOM     91  C   UNL A   1      28.977  28.607  23.002  1.00  0.00     0.005 A 
ATOM     92  C   UNL A   1      28.028  31.162  23.547  1.00  0.00     0.000 A 
ATOM     93  C   UNL A   1      27.622  28.897  22.836  1.00  0.00     0.000 A 
ATOM     94  C   UNL A   1      27.147  30.174  23.114  1.00  0.00     0.000 A 
ENDBRANCH  88  89
ENDBRANCH  85  88
ENDBRANCH  79  80
ENDBRANCH  71  75
ENDBRANCH  66  69
ENDBRANCH  64  65
ENDBRANCH   1  64
TORSDOF 15
ENDMDL
