MODEL 1
REMARK VINA RESULT:     -11.5      0.000      0.000
REMARK SMILES [NH3+][C@]1(C(=O)NCCCCNC(=O)c2ccc(-c3c4nc(c(-c5c(F)cccc5F)c5ccc([nH]5)c(-c5c(F)cccc5F)c5nc(c(-c6c(F)cccc6F)c6ccc3[nH]6)C=C5)C=C4)cc2)CC[C@@H]([NH+]2CCC(C(F)(F)F)CC2)C1
REMARK SMILES IDX 7 1 6 2 5 3 3 4 4 5 2 7 67 8 80 9 68 10 69 11 1 12 70 16
REMARK SMILES IDX 71 17 79 18 72 20 78 21 73 22 74 23 75 24 76 25 77 26 8 27
REMARK SMILES IDX 9 28 10 29 11 30 12 32 13 33 14 34 66 35 15 36 65 37 16 38
REMARK SMILES IDX 17 39 18 40 59 41 19 42 64 43 58 44 60 45 20 46 63 47 57 48
REMARK SMILES IDX 56 49 21 51 47 52 30 53 46 54 31 55 34 56 45 57 61 58 32 59
REMARK SMILES IDX 33 60 44 62 62 63 35 64 22 65 23 66 28 67 24 68 25 69 27 70
REMARK SMILES IDX 29 71 26 72 48 73 49 74 54 75 50 76 51 77 53 78 55 79 52 80
REMARK SMILES IDX 36 81 37 82 42 83 38 84 39 85 41 86 43 87 40 88
REMARK H PARENT 5 6 1 13 1 14 1 15 70 19 10 31 60 50 34 61
REMARK Flexibility Score: inf
ROOT
ATOM      1  C   UNL A   1      38.959  22.762  26.304  1.00  0.00     0.023 C 
ENDROOT
BRANCH   1   2
ATOM      2  C   UNL A   1      37.875  23.748  25.887  1.00  0.00     0.116 C 
BRANCH   2   3
ATOM      3  N   UNL A   1      37.384  23.521  24.546  1.00  0.00    -0.351 N 
ATOM      4  C   UNL A   1      36.123  23.476  24.039  1.00  0.00     0.281 C 
ATOM      5  O   UNL A   1      36.047  23.243  22.825  1.00  0.00    -0.268 OA
ATOM      6  H   UNL A   1      38.092  23.373  23.878  1.00  0.00     0.163 HD
BRANCH   4   7
ATOM      7  C   UNL A   1      34.830  23.569  24.917  1.00  0.00     0.179 C 
ATOM      8  C   UNL A   1      33.502  23.234  24.230  1.00  0.00     0.085 C 
ATOM      9  C   UNL A   1      34.925  22.540  26.084  1.00  0.00     0.144 C 
ATOM     10  C   UNL A   1      32.643  22.543  25.273  1.00  0.00     0.072 C 
ATOM     11  C   UNL A   1      33.617  21.723  26.116  1.00  0.00     0.191 C 
BRANCH   7  12
ATOM     12  N   UNL A   1      34.766  24.947  25.460  1.00  0.00    -0.345 N 
ATOM     13  H   UNL A   1      35.420  25.036  26.239  1.00  0.00     0.345 HD
ATOM     14  H   UNL A   1      33.819  25.139  25.788  1.00  0.00     0.345 HD
ATOM     15  H   UNL A   1      35.015  25.613  24.730  1.00  0.00     0.345 HD
ENDBRANCH   7  12
BRANCH  11  16
ATOM     16  N   UNL A   1      33.697  20.302  25.715  1.00  0.00    -0.332 N 
ATOM     17  C   UNL A   1      32.515  19.754  25.044  1.00  0.00     0.263 C 
ATOM     18  C   UNL A   1      34.929  20.033  24.958  1.00  0.00     0.263 C 
ATOM     19  H   UNL A   1      33.726  19.793  26.600  1.00  0.00     0.348 HD
ATOM     20  C   UNL A   1      32.649  18.252  24.791  1.00  0.00     0.074 C 
ATOM     21  C   UNL A   1      35.128  18.535  24.735  1.00  0.00     0.074 C 
ATOM     22  C   UNL A   1      33.924  17.923  24.017  1.00  0.00     0.106 C 
BRANCH  22  23
ATOM     23  C   UNL A   1      34.086  16.425  23.852  1.00  0.00     0.392 C 
ATOM     24  F   UNL A   1      34.354  16.108  22.564  1.00  0.00    -0.171 F 
ATOM     25  F   UNL A   1      35.113  15.966  24.601  1.00  0.00    -0.171 F 
ATOM     26  F   UNL A   1      32.976  15.752  24.217  1.00  0.00    -0.171 F 
ENDBRANCH  22  23
ENDBRANCH  11  16
ENDBRANCH   4   7
ENDBRANCH   2   3
ENDBRANCH   1   2
BRANCH   1  27
ATOM     27  C   UNL A   1      38.938  21.418  25.579  1.00  0.00     0.023 C 
BRANCH  27  28
ATOM     28  C   UNL A   1      39.315  20.203  26.420  1.00  0.00     0.116 C 
BRANCH  28  29
ATOM     29  N   UNL A   1      40.436  19.443  25.886  1.00  0.00    -0.352 N 
ATOM     30  C   UNL A   1      41.767  19.780  25.831  1.00  0.00     0.251 C 
ATOM     31  H   UNL A   1      40.207  18.562  25.509  1.00  0.00     0.163 HD
ATOM     32  O   UNL A   1      42.572  19.040  25.273  1.00  0.00    -0.269 OA
BRANCH  30  33
ATOM     33  C   UNL A   1      42.221  21.060  26.411  1.00  0.00     0.039 A 
ATOM     34  C   UNL A   1      42.615  22.086  25.548  1.00  0.00     0.014 A 
ATOM     35  C   UNL A   1      42.217  21.262  27.794  1.00  0.00     0.014 A 
ATOM     36  C   UNL A   1      42.928  23.343  26.068  1.00  0.00     0.010 A 
ATOM     37  C   UNL A   1      42.456  22.534  28.304  1.00  0.00     0.010 A 
ATOM     38  C   UNL A   1      42.808  23.588  27.445  1.00  0.00    -0.014 A 
BRANCH  38  39
ATOM     39  C   UNL A   1      43.038  24.941  28.010  1.00  0.00     0.031 A 
ATOM     40  C   UNL A   1      44.413  25.344  28.464  1.00  0.00     0.074 A 
ATOM     41  C   UNL A   1      41.996  25.778  28.183  1.00  0.00     0.049 A 
ATOM     42  N   UNL A   1      44.798  26.446  29.054  1.00  0.00    -0.248 NA
ATOM     43  C   UNL A   1      45.491  24.366  28.253  1.00  0.00     0.031 C 
ATOM     44  C   UNL A   1      40.605  25.484  27.834  1.00  0.00     0.029 A 
ATOM     45  N   UNL A   1      41.945  27.044  28.709  1.00  0.00    -0.354 N 
ATOM     46  C   UNL A   1      46.155  26.286  29.303  1.00  0.00     0.074 A 
ATOM     47  C   UNL A   1      46.515  24.963  28.844  1.00  0.00     0.031 C 
ATOM     48  C   UNL A   1      39.843  26.547  28.134  1.00  0.00     0.029 A 
ATOM     49  C   UNL A   1      40.682  27.584  28.727  1.00  0.00     0.049 A 
ATOM     50  H   UNL A   1      42.739  27.522  29.042  1.00  0.00     0.167 HD
ATOM     51  C   UNL A   1      47.026  27.171  29.842  1.00  0.00     0.037 A 
ATOM     52  C   UNL A   1      40.250  28.777  29.176  1.00  0.00     0.037 A 
ATOM     53  C   UNL A   1      46.673  28.499  30.267  1.00  0.00     0.049 A 
ATOM     54  C   UNL A   1      41.240  29.747  29.757  1.00  0.00     0.074 A 
ATOM     55  C   UNL A   1      47.497  29.493  30.767  1.00  0.00     0.029 A 
ATOM     56  N   UNL A   1      45.388  29.020  30.241  1.00  0.00    -0.354 N 
ATOM     57  N   UNL A   1      42.533  29.607  29.925  1.00  0.00    -0.248 NA
ATOM     58  C   UNL A   1      40.712  31.044  30.205  1.00  0.00     0.031 C 
ATOM     59  C   UNL A   1      46.704  30.604  31.074  1.00  0.00     0.029 A 
ATOM     60  C   UNL A   1      45.394  30.316  30.729  1.00  0.00     0.049 A 
ATOM     61  H   UNL A   1      44.590  28.539  29.922  1.00  0.00     0.167 HD
ATOM     62  C   UNL A   1      42.976  30.804  30.471  1.00  0.00     0.074 A 
ATOM     63  C   UNL A   1      41.817  31.663  30.596  1.00  0.00     0.031 C 
ATOM     64  C   UNL A   1      44.232  31.160  30.836  1.00  0.00     0.037 A 
BRANCH  51  65
ATOM     65  C   UNL A   1      48.452  26.726  29.994  1.00  0.00     0.057 A 
ATOM     66  C   UNL A   1      48.885  26.016  31.122  1.00  0.00     0.134 A 
ATOM     67  C   UNL A   1      49.395  26.991  28.995  1.00  0.00     0.134 A 
ATOM     68  F   UNL A   1      48.034  25.742  32.122  1.00  0.00    -0.206 F 
ATOM     69  C   UNL A   1      50.213  25.609  31.261  1.00  0.00     0.040 A 
ATOM     70  C   UNL A   1      50.720  26.567  29.111  1.00  0.00     0.040 A 
ATOM     71  F   UNL A   1      49.045  27.662  27.888  1.00  0.00    -0.206 F 
ATOM     72  C   UNL A   1      51.134  25.879  30.251  1.00  0.00     0.006 A 
ENDBRANCH  51  65
BRANCH  52  73
ATOM     73  C   UNL A   1      38.815  29.136  29.064  1.00  0.00     0.057 A 
ATOM     74  C   UNL A   1      37.962  29.046  30.169  1.00  0.00     0.134 A 
ATOM     75  C   UNL A   1      38.259  29.570  27.854  1.00  0.00     0.134 A 
ATOM     76  F   UNL A   1      38.433  28.619  31.351  1.00  0.00    -0.206 F 
ATOM     77  C   UNL A   1      36.604  29.358  30.075  1.00  0.00     0.040 A 
ATOM     78  C   UNL A   1      36.908  29.906  27.750  1.00  0.00     0.040 A 
ATOM     79  F   UNL A   1      39.025  29.683  26.759  1.00  0.00    -0.206 F 
ATOM     80  C   UNL A   1      36.075  29.794  28.862  1.00  0.00     0.006 A 
ENDBRANCH  52  73
BRANCH  64  81
ATOM     81  C   UNL A   1      44.422  32.548  31.371  1.00  0.00     0.057 A 
ATOM     82  C   UNL A   1      44.360  32.827  32.742  1.00  0.00     0.134 A 
ATOM     83  C   UNL A   1      44.710  33.610  30.505  1.00  0.00     0.134 A 
ATOM     84  F   UNL A   1      44.075  31.854  33.621  1.00  0.00    -0.206 F 
ATOM     85  C   UNL A   1      44.558  34.118  33.232  1.00  0.00     0.040 A 
ATOM     86  C   UNL A   1      44.933  34.902  30.985  1.00  0.00     0.040 A 
ATOM     87  F   UNL A   1      44.791  33.408  29.181  1.00  0.00    -0.206 F 
ATOM     88  C   UNL A   1      44.852  35.158  32.353  1.00  0.00     0.006 A 
ENDBRANCH  64  81
ENDBRANCH  38  39
ENDBRANCH  30  33
ENDBRANCH  28  29
ENDBRANCH  27  28
ENDBRANCH   1  27
TORSDOF 14
ENDMDL
MODEL 2
REMARK VINA RESULT:     -11.4      0.959      2.020
REMARK SMILES [NH3+][C@]1(C(=O)NCCCCNC(=O)c2ccc(-c3c4nc(c(-c5c(F)cccc5F)c5ccc([nH]5)c(-c5c(F)cccc5F)c5nc(c(-c6c(F)cccc6F)c6ccc3[nH]6)C=C5)C=C4)cc2)CC[C@@H]([NH+]2CCC(C(F)(F)F)CC2)C1
REMARK SMILES IDX 7 1 6 2 5 3 3 4 4 5 2 7 67 8 80 9 68 10 69 11 1 12 70 16
REMARK SMILES IDX 71 17 79 18 72 20 78 21 73 22 74 23 75 24 76 25 77 26 8 27
REMARK SMILES IDX 9 28 10 29 11 30 12 32 13 33 14 34 66 35 15 36 65 37 16 38
REMARK SMILES IDX 17 39 18 40 59 41 19 42 64 43 58 44 60 45 20 46 63 47 57 48
REMARK SMILES IDX 56 49 21 51 47 52 30 53 46 54 31 55 34 56 45 57 61 58 32 59
REMARK SMILES IDX 33 60 44 62 62 63 35 64 22 65 23 66 28 67 24 68 25 69 27 70
REMARK SMILES IDX 29 71 26 72 48 73 49 74 54 75 50 76 51 77 53 78 55 79 52 80
REMARK SMILES IDX 36 81 37 82 42 83 38 84 39 85 41 86 43 87 40 88
REMARK H PARENT 5 6 1 13 1 14 1 15 70 19 10 31 60 50 34 61
REMARK Flexibility Score: inf
ROOT
ATOM      1  C   UNL A   1      36.352  20.860  25.182  1.00  0.00     0.023 C 
ENDROOT
BRANCH   1   2
ATOM      2  C   UNL A   1      36.090  22.021  24.230  1.00  0.00     0.116 C 
BRANCH   2   3
ATOM      3  N   UNL A   1      35.830  23.269  24.913  1.00  0.00    -0.351 N 
ATOM      4  C   UNL A   1      34.753  24.099  24.903  1.00  0.00     0.281 C 
ATOM      5  O   UNL A   1      34.860  25.116  25.603  1.00  0.00    -0.268 OA
ATOM      6  H   UNL A   1      36.568  23.574  25.490  1.00  0.00     0.163 HD
BRANCH   4   7
ATOM      7  C   UNL A   1      33.506  23.892  23.980  1.00  0.00     0.179 C 
ATOM      8  C   UNL A   1      33.765  23.307  22.588  1.00  0.00     0.085 C 
ATOM      9  C   UNL A   1      32.534  22.873  24.647  1.00  0.00     0.144 C 
ATOM     10  C   UNL A   1      32.575  22.421  22.269  1.00  0.00     0.072 C 
ATOM     11  C   UNL A   1      32.168  21.799  23.602  1.00  0.00     0.191 C 
BRANCH   7  12
ATOM     12  N   UNL A   1      32.840  25.210  23.840  1.00  0.00    -0.345 N 
ATOM     13  H   UNL A   1      32.871  25.703  24.732  1.00  0.00     0.345 HD
ATOM     14  H   UNL A   1      31.869  25.072  23.561  1.00  0.00     0.345 HD
ATOM     15  H   UNL A   1      33.322  25.761  23.130  1.00  0.00     0.345 HD
ENDBRANCH   7  12
BRANCH  11  16
ATOM     16  N   UNL A   1      32.708  20.439  23.812  1.00  0.00    -0.332 N 
ATOM     17  C   UNL A   1      32.653  19.929  25.185  1.00  0.00     0.263 C 
ATOM     18  C   UNL A   1      32.132  19.485  22.852  1.00  0.00     0.263 C 
ATOM     19  H   UNL A   1      33.709  20.535  23.633  1.00  0.00     0.348 HD
ATOM     20  C   UNL A   1      33.353  18.576  25.318  1.00  0.00     0.074 C 
ATOM     21  C   UNL A   1      32.846  18.135  22.914  1.00  0.00     0.074 C 
ATOM     22  C   UNL A   1      32.795  17.554  24.328  1.00  0.00     0.106 C 
BRANCH  22  23
ATOM     23  C   UNL A   1      33.558  16.246  24.412  1.00  0.00     0.392 C 
ATOM     24  F   UNL A   1      34.175  15.973  23.240  1.00  0.00    -0.171 F 
ATOM     25  F   UNL A   1      34.513  16.305  25.365  1.00  0.00    -0.171 F 
ATOM     26  F   UNL A   1      32.749  15.206  24.702  1.00  0.00    -0.171 F 
ENDBRANCH  22  23
ENDBRANCH  11  16
ENDBRANCH   4   7
ENDBRANCH   2   3
ENDBRANCH   1   2
BRANCH   1  27
ATOM     27  C   UNL A   1      37.613  20.048  24.898  1.00  0.00     0.023 C 
BRANCH  27  28
ATOM     28  C   UNL A   1      38.851  20.441  25.697  1.00  0.00     0.116 C 
BRANCH  28  29
ATOM     29  N   UNL A   1      39.894  19.425  25.702  1.00  0.00    -0.352 N 
ATOM     30  C   UNL A   1      41.210  19.532  26.084  1.00  0.00     0.251 C 
ATOM     31  H   UNL A   1      39.617  18.535  25.384  1.00  0.00     0.163 HD
ATOM     32  O   UNL A   1      41.974  18.581  25.951  1.00  0.00    -0.269 OA
BRANCH  30  33
ATOM     33  C   UNL A   1      41.713  20.814  26.618  1.00  0.00     0.039 A 
ATOM     34  C   UNL A   1      42.240  21.752  25.727  1.00  0.00     0.014 A 
ATOM     35  C   UNL A   1      41.626  21.105  27.982  1.00  0.00     0.014 A 
ATOM     36  C   UNL A   1      42.605  23.016  26.193  1.00  0.00     0.010 A 
ATOM     37  C   UNL A   1      41.921  22.389  28.432  1.00  0.00     0.010 A 
ATOM     38  C   UNL A   1      42.406  23.358  27.540  1.00  0.00    -0.014 A 
BRANCH  38  39
ATOM     39  C   UNL A   1      42.694  24.726  28.038  1.00  0.00     0.031 A 
ATOM     40  C   UNL A   1      44.092  25.104  28.440  1.00  0.00     0.074 A 
ATOM     41  C   UNL A   1      41.684  25.603  28.199  1.00  0.00     0.049 A 
ATOM     42  N   UNL A   1      44.526  26.217  28.972  1.00  0.00    -0.248 NA
ATOM     43  C   UNL A   1      45.133  24.083  28.247  1.00  0.00     0.031 C 
ATOM     44  C   UNL A   1      40.276  25.340  27.896  1.00  0.00     0.029 A 
ATOM     45  N   UNL A   1      41.686  26.892  28.669  1.00  0.00    -0.354 N 
ATOM     46  C   UNL A   1      45.883  26.024  29.195  1.00  0.00     0.074 A 
ATOM     47  C   UNL A   1      46.190  24.670  28.787  1.00  0.00     0.031 C 
ATOM     48  C   UNL A   1      39.555  26.440  28.167  1.00  0.00     0.029 A 
ATOM     49  C   UNL A   1      40.442  27.473  28.693  1.00  0.00     0.049 A 
ATOM     50  H   UNL A   1      42.504  27.358  28.960  1.00  0.00     0.167 HD
ATOM     51  C   UNL A   1      46.796  26.902  29.673  1.00  0.00     0.037 A 
ATOM     52  C   UNL A   1      40.059  28.699  29.098  1.00  0.00     0.037 A 
ATOM     53  C   UNL A   1      46.496  28.259  30.046  1.00  0.00     0.049 A 
ATOM     54  C   UNL A   1      41.094  29.661  29.611  1.00  0.00     0.074 A 
ATOM     55  C   UNL A   1      47.364  29.246  30.481  1.00  0.00     0.029 A 
ATOM     56  N   UNL A   1      45.228  28.820  30.028  1.00  0.00    -0.354 N 
ATOM     57  N   UNL A   1      42.385  29.486  29.754  1.00  0.00    -0.248 NA
ATOM     58  C   UNL A   1      40.619  30.993  30.014  1.00  0.00     0.031 C 
ATOM     59  C   UNL A   1      46.615  30.394  30.757  1.00  0.00     0.029 A 
ATOM     60  C   UNL A   1      45.287  30.135  30.457  1.00  0.00     0.049 A 
ATOM     61  H   UNL A   1      44.407  28.351  29.750  1.00  0.00     0.167 HD
ATOM     62  C   UNL A   1      42.880  30.690  30.235  1.00  0.00     0.074 A 
ATOM     63  C   UNL A   1      41.753  31.592  30.349  1.00  0.00     0.031 C 
ATOM     64  C   UNL A   1      44.156  31.021  30.554  1.00  0.00     0.037 A 
BRANCH  51  65
ATOM     65  C   UNL A   1      48.210  26.418  29.810  1.00  0.00     0.057 A 
ATOM     66  C   UNL A   1      49.149  26.586  28.784  1.00  0.00     0.134 A 
ATOM     67  C   UNL A   1      48.645  25.800  30.989  1.00  0.00     0.134 A 
ATOM     68  F   UNL A   1      48.793  27.159  27.624  1.00  0.00    -0.206 F 
ATOM     69  C   UNL A   1      50.461  26.130  28.914  1.00  0.00     0.040 A 
ATOM     70  C   UNL A   1      49.961  25.363  31.141  1.00  0.00     0.040 A 
ATOM     71  F   UNL A   1      47.798  25.613  32.012  1.00  0.00    -0.206 F 
ATOM     72  C   UNL A   1      50.873  25.522  30.098  1.00  0.00     0.006 A 
ENDBRANCH  51  65
BRANCH  52  73
ATOM     73  C   UNL A   1      38.634  29.100  29.004  1.00  0.00     0.057 A 
ATOM     74  C   UNL A   1      38.099  29.582  27.803  1.00  0.00     0.134 A 
ATOM     75  C   UNL A   1      37.775  29.019  30.106  1.00  0.00     0.134 A 
ATOM     76  F   UNL A   1      38.879  29.700  26.718  1.00  0.00    -0.206 F 
ATOM     77  C   UNL A   1      36.767  29.985  27.704  1.00  0.00     0.040 A 
ATOM     78  C   UNL A   1      36.434  29.397  30.016  1.00  0.00     0.040 A 
ATOM     79  F   UNL A   1      38.224  28.559  31.283  1.00  0.00    -0.206 F 
ATOM     80  C   UNL A   1      35.929  29.889  28.813  1.00  0.00     0.006 A 
ENDBRANCH  52  73
BRANCH  64  81
ATOM     81  C   UNL A   1      44.404  32.424  31.022  1.00  0.00     0.057 A 
ATOM     82  C   UNL A   1      44.672  33.465  30.126  1.00  0.00     0.134 A 
ATOM     83  C   UNL A   1      44.333  32.741  32.384  1.00  0.00     0.134 A 
ATOM     84  F   UNL A   1      44.765  33.222  28.810  1.00  0.00    -0.206 F 
ATOM     85  C   UNL A   1      44.881  34.771  30.570  1.00  0.00     0.040 A 
ATOM     86  C   UNL A   1      44.517  34.048  32.838  1.00  0.00     0.040 A 
ATOM     87  F   UNL A   1      44.072  31.790  33.294  1.00  0.00    -0.206 F 
ATOM     88  C   UNL A   1      44.797  35.067  31.929  1.00  0.00     0.006 A 
ENDBRANCH  64  81
ENDBRANCH  38  39
ENDBRANCH  30  33
ENDBRANCH  28  29
ENDBRANCH  27  28
ENDBRANCH   1  27
TORSDOF 14
ENDMDL
MODEL 3
REMARK VINA RESULT:     -11.3      5.466     10.156
REMARK SMILES [NH3+][C@]1(C(=O)NCCCCNC(=O)c2ccc(-c3c4nc(c(-c5c(F)cccc5F)c5ccc([nH]5)c(-c5c(F)cccc5F)c5nc(c(-c6c(F)cccc6F)c6ccc3[nH]6)C=C5)C=C4)cc2)CC[C@@H]([NH+]2CCC(C(F)(F)F)CC2)C1
REMARK SMILES IDX 7 1 6 2 5 3 3 4 4 5 2 7 67 8 80 9 68 10 69 11 1 12 70 16
REMARK SMILES IDX 71 17 79 18 72 20 78 21 73 22 74 23 75 24 76 25 77 26 8 27
REMARK SMILES IDX 9 28 10 29 11 30 12 32 13 33 14 34 66 35 15 36 65 37 16 38
REMARK SMILES IDX 17 39 18 40 59 41 19 42 64 43 58 44 60 45 20 46 63 47 57 48
REMARK SMILES IDX 56 49 21 51 47 52 30 53 46 54 31 55 34 56 45 57 61 58 32 59
REMARK SMILES IDX 33 60 44 62 62 63 35 64 22 65 23 66 28 67 24 68 25 69 27 70
REMARK SMILES IDX 29 71 26 72 48 73 49 74 54 75 50 76 51 77 53 78 55 79 52 80
REMARK SMILES IDX 36 81 37 82 42 83 38 84 39 85 41 86 43 87 40 88
REMARK H PARENT 5 6 1 13 1 14 1 15 70 19 10 31 60 50 34 61
REMARK Flexibility Score: inf
ROOT
ATOM      1  C   UNL A   1      31.761  30.251  25.773  1.00  0.00     0.023 C 
ENDROOT
BRANCH   1   2
ATOM      2  C   UNL A   1      31.766  29.009  26.655  1.00  0.00     0.116 C 
BRANCH   2   3
ATOM      3  N   UNL A   1      32.950  28.196  26.487  1.00  0.00    -0.351 N 
ATOM      4  C   UNL A   1      33.126  26.951  25.968  1.00  0.00     0.281 C 
ATOM      5  O   UNL A   1      34.291  26.529  25.984  1.00  0.00    -0.268 OA
ATOM      6  H   UNL A   1      33.779  28.620  26.805  1.00  0.00     0.163 HD
BRANCH   4   7
ATOM      7  C   UNL A   1      31.949  26.029  25.502  1.00  0.00     0.179 C 
ATOM      8  C   UNL A   1      30.588  26.257  26.167  1.00  0.00     0.085 C 
ATOM      9  C   UNL A   1      31.678  26.267  23.986  1.00  0.00     0.144 C 
ATOM     10  C   UNL A   1      29.542  26.004  25.096  1.00  0.00     0.072 C 
ATOM     11  C   UNL A   1      30.165  26.509  23.798  1.00  0.00     0.191 C 
BRANCH   7  12
ATOM     12  N   UNL A   1      32.375  24.627  25.727  1.00  0.00    -0.345 N 
ATOM     13  H   UNL A   1      31.808  24.003  25.151  1.00  0.00     0.345 HD
ATOM     14  H   UNL A   1      32.251  24.387  26.710  1.00  0.00     0.345 HD
ATOM     15  H   UNL A   1      33.357  24.524  25.473  1.00  0.00     0.345 HD
ENDBRANCH   7  12
BRANCH  11  16
ATOM     16  N   UNL A   1      29.740  27.876  23.428  1.00  0.00    -0.332 N 
ATOM     17  C   UNL A   1      30.515  28.526  22.367  1.00  0.00     0.263 C 
ATOM     18  C   UNL A   1      28.295  27.927  23.159  1.00  0.00     0.263 C 
ATOM     19  H   UNL A   1      29.950  28.437  24.255  1.00  0.00     0.348 HD
ATOM     20  C   UNL A   1      30.080  29.976  22.153  1.00  0.00     0.074 C 
ATOM     21  C   UNL A   1      27.811  29.367  22.996  1.00  0.00     0.074 C 
ATOM     22  C   UNL A   1      28.580  30.080  21.882  1.00  0.00     0.106 C 
BRANCH  22  23
ATOM     23  C   UNL A   1      28.150  31.529  21.760  1.00  0.00     0.392 C 
ATOM     24  F   UNL A   1      27.312  31.869  22.765  1.00  0.00    -0.171 F 
ATOM     25  F   UNL A   1      29.217  32.356  21.829  1.00  0.00    -0.171 F 
ATOM     26  F   UNL A   1      27.515  31.773  20.595  1.00  0.00    -0.171 F 
ENDBRANCH  22  23
ENDBRANCH  11  16
ENDBRANCH   4   7
ENDBRANCH   2   3
ENDBRANCH   1   2
BRANCH   1  27
ATOM     27  C   UNL A   1      31.494  31.570  26.495  1.00  0.00     0.023 C 
BRANCH  27  28
ATOM     28  C   UNL A   1      32.718  32.269  27.076  1.00  0.00     0.116 C 
BRANCH  28  29
ATOM     29  N   UNL A   1      32.471  33.647  27.479  1.00  0.00    -0.352 N 
ATOM     30  C   UNL A   1      33.133  34.412  28.409  1.00  0.00     0.251 C 
ATOM     31  H   UNL A   1      31.723  34.093  27.020  1.00  0.00     0.163 HD
ATOM     32  O   UNL A   1      32.738  35.543  28.675  1.00  0.00    -0.269 OA
BRANCH  30  33
ATOM     33  C   UNL A   1      34.300  33.850  29.120  1.00  0.00     0.039 A 
ATOM     34  C   UNL A   1      34.079  32.951  30.166  1.00  0.00     0.014 A 
ATOM     35  C   UNL A   1      35.601  34.176  28.729  1.00  0.00     0.014 A 
ATOM     36  C   UNL A   1      35.165  32.314  30.768  1.00  0.00     0.010 A 
ATOM     37  C   UNL A   1      36.677  33.485  29.279  1.00  0.00     0.010 A 
ATOM     38  C   UNL A   1      36.468  32.544  30.299  1.00  0.00    -0.014 A 
BRANCH  38  39
ATOM     39  C   UNL A   1      37.628  31.804  30.856  1.00  0.00     0.031 A 
ATOM     40  C   UNL A   1      38.148  32.139  32.226  1.00  0.00     0.074 A 
ATOM     41  C   UNL A   1      38.259  30.885  30.099  1.00  0.00     0.049 A 
ATOM     42  N   UNL A   1      39.195  31.664  32.851  1.00  0.00    -0.248 NA
ATOM     43  C   UNL A   1      37.411  33.165  32.979  1.00  0.00     0.031 C 
ATOM     44  C   UNL A   1      37.886  30.509  28.735  1.00  0.00     0.029 A 
ATOM     45  N   UNL A   1      39.358  30.108  30.368  1.00  0.00    -0.354 N 
ATOM     46  C   UNL A   1      39.253  32.346  34.059  1.00  0.00     0.074 A 
ATOM     47  C   UNL A   1      38.166  33.301  34.058  1.00  0.00     0.031 C 
ATOM     48  C   UNL A   1      38.726  29.559  28.295  1.00  0.00     0.029 A 
ATOM     49  C   UNL A   1      39.716  29.282  29.331  1.00  0.00     0.049 A 
ATOM     50  H   UNL A   1      39.843  30.139  31.225  1.00  0.00     0.167 HD
ATOM     51  C   UNL A   1      40.118  32.176  35.087  1.00  0.00     0.037 A 
ATOM     52  C   UNL A   1      40.732  28.405  29.226  1.00  0.00     0.037 A 
ATOM     53  C   UNL A   1      41.178  31.202  35.100  1.00  0.00     0.049 A 
ATOM     54  C   UNL A   1      41.671  28.223  30.386  1.00  0.00     0.074 A 
ATOM     55  C   UNL A   1      42.067  30.909  36.120  1.00  0.00     0.029 A 
ATOM     56  N   UNL A   1      41.490  30.363  34.042  1.00  0.00    -0.354 N 
ATOM     57  N   UNL A   1      41.673  28.828  31.549  1.00  0.00    -0.248 NA
ATOM     58  C   UNL A   1      42.744  27.232  30.221  1.00  0.00     0.031 C 
ATOM     59  C   UNL A   1      42.939  29.914  35.665  1.00  0.00     0.029 A 
ATOM     60  C   UNL A   1      42.568  29.560  34.378  1.00  0.00     0.049 A 
ATOM     61  H   UNL A   1      41.015  30.341  33.179  1.00  0.00     0.167 HD
ATOM     62  C   UNL A   1      42.726  28.274  32.263  1.00  0.00     0.074 A 
ATOM     63  C   UNL A   1      43.333  27.275  31.408  1.00  0.00     0.031 C 
ATOM     64  C   UNL A   1      43.152  28.565  33.517  1.00  0.00     0.037 A 
BRANCH  51  65
ATOM     65  C   UNL A   1      39.945  33.061  36.286  1.00  0.00     0.057 A 
ATOM     66  C   UNL A   1      40.657  34.260  36.425  1.00  0.00     0.134 A 
ATOM     67  C   UNL A   1      39.042  32.724  37.301  1.00  0.00     0.134 A 
ATOM     68  F   UNL A   1      41.547  34.634  35.495  1.00  0.00    -0.206 F 
ATOM     69  C   UNL A   1      40.496  35.078  37.545  1.00  0.00     0.040 A 
ATOM     70  C   UNL A   1      38.854  33.546  38.413  1.00  0.00     0.040 A 
ATOM     71  F   UNL A   1      38.326  31.592  37.227  1.00  0.00    -0.206 F 
ATOM     72  C   UNL A   1      39.588  34.724  38.541  1.00  0.00     0.006 A 
ENDBRANCH  51  65
BRANCH  52  73
ATOM     73  C   UNL A   1      40.897  27.605  27.987  1.00  0.00     0.057 A 
ATOM     74  C   UNL A   1      40.296  26.348  27.857  1.00  0.00     0.134 A 
ATOM     75  C   UNL A   1      41.660  28.070  26.910  1.00  0.00     0.134 A 
ATOM     76  F   UNL A   1      39.568  25.842  28.864  1.00  0.00    -0.206 F 
ATOM     77  C   UNL A   1      40.459  25.573  26.708  1.00  0.00     0.040 A 
ATOM     78  C   UNL A   1      41.814  27.315  25.745  1.00  0.00     0.040 A 
ATOM     79  F   UNL A   1      42.257  29.269  26.970  1.00  0.00    -0.206 F 
ATOM     80  C   UNL A   1      41.218  26.059  25.645  1.00  0.00     0.006 A 
ENDBRANCH  52  73
BRANCH  64  81
ATOM     81  C   UNL A   1      44.307  27.770  34.050  1.00  0.00     0.057 A 
ATOM     82  C   UNL A   1      45.628  28.219  33.936  1.00  0.00     0.134 A 
ATOM     83  C   UNL A   1      44.088  26.560  34.719  1.00  0.00     0.134 A 
ATOM     84  F   UNL A   1      45.904  29.365  33.295  1.00  0.00    -0.206 F 
ATOM     85  C   UNL A   1      46.694  27.482  34.453  1.00  0.00     0.040 A 
ATOM     86  C   UNL A   1      45.144  25.825  35.260  1.00  0.00     0.040 A 
ATOM     87  F   UNL A   1      42.845  26.078  34.868  1.00  0.00    -0.206 F 
ATOM     88  C   UNL A   1      46.453  26.285  35.123  1.00  0.00     0.006 A 
ENDBRANCH  64  81
ENDBRANCH  38  39
ENDBRANCH  30  33
ENDBRANCH  28  29
ENDBRANCH  27  28
ENDBRANCH   1  27
TORSDOF 14
ENDMDL
