MODEL 1
REMARK VINA RESULT:     -11.5      0.000      0.000
REMARK SMILES CC(C)Cc1s/c(=N/C(=O)CCC(=O)Nc2nccs2)[nH]c1C(=O)NCCCCNC(=O)c1ccc(-c2c3nc(c(-c4c(F)cccc4F)c4ccc([nH]4)c(-c4c(F)cccc4F)c4nc(c(-c5c(F)cccc5F)c5ccc2[nH]5)C=C4)C=C3)cc1
REMARK SMILES IDX 26 1 25 2 23 3 24 4 22 6 5 7 6 8 7 9 21 10 8 11 4 13 2 14
REMARK SMILES IDX 1 15 3 16 9 17 10 18 11 19 12 20 13 21 14 22 15 23 16 25
REMARK SMILES IDX 17 26 20 27 18 28 19 29 27 30 28 31 29 32 30 33 31 34 32 36
REMARK SMILES IDX 33 37 34 38 86 39 35 40 85 41 36 42 37 43 38 44 79 45 39 46
REMARK SMILES IDX 84 47 78 48 80 49 40 50 83 51 77 52 76 53 41 55 67 56 50 57
REMARK SMILES IDX 66 58 51 59 54 60 65 61 81 62 52 63 53 64 64 66 82 67 55 68
REMARK SMILES IDX 42 69 43 70 48 71 44 72 45 73 47 74 49 75 46 76 68 77 69 78
REMARK SMILES IDX 74 79 70 80 71 81 73 82 75 83 72 84 56 85 57 86 62 87 58 88
REMARK SMILES IDX 59 89 61 90 63 91 60 92
REMARK H PARENT 25 5 21 12 15 24 30 35 80 54 54 65
REMARK Flexibility Score: inf
ROOT
ATOM      1  C   UNL A   1      36.442  23.385  25.425  1.00  0.00     0.116 C 
ENDROOT
BRANCH   1   2
ATOM      2  N   UNL A   1      35.688  22.756  26.485  1.00  0.00    -0.351 N 
ATOM      3  C   UNL A   1      34.366  22.518  26.655  1.00  0.00     0.268 C 
ATOM      4  O   UNL A   1      34.038  21.969  27.715  1.00  0.00    -0.268 OA
ATOM      5  H   UNL A   1      36.245  22.438  27.232  1.00  0.00     0.163 HD
BRANCH   3   6
ATOM      6  C   UNL A   1      33.292  22.739  25.625  1.00  0.00     0.119 A 
ATOM      7  C   UNL A   1      32.956  22.138  24.456  1.00  0.00     0.038 A 
ATOM      8  S   UNL A   1      31.628  23.032  23.653  1.00  0.00    -0.101 S 
ATOM      9  C   UNL A   1      31.659  24.293  24.897  1.00  0.00     0.190 A 
ATOM     10  N   UNL A   1      32.563  23.909  25.836  1.00  0.00    -0.326 N 
ATOM     11  N   UNL A   1      30.931  25.334  24.734  1.00  0.00    -0.185 NA
ATOM     12  H   UNL A   1      32.700  24.446  26.650  1.00  0.00     0.169 HD
BRANCH   7  13
ATOM     13  C   UNL A   1      33.441  20.921  23.729  1.00  0.00     0.052 C 
BRANCH  13  14
ATOM     14  C   UNL A   1      32.974  19.535  24.222  1.00  0.00    -0.012 C 
ATOM     15  C   UNL A   1      32.169  18.729  23.206  1.00  0.00     0.008 C 
ATOM     16  C   UNL A   1      34.193  18.713  24.663  1.00  0.00     0.008 C 
ENDBRANCH  13  14
ENDBRANCH   7  13
BRANCH  11  17
ATOM     17  C   UNL A   1      31.050  26.339  25.658  1.00  0.00     0.248 C 
ATOM     18  O   UNL A   1      31.077  26.181  26.878  1.00  0.00    -0.273 OA
BRANCH  17  19
ATOM     19  C   UNL A   1      31.095  27.719  25.035  1.00  0.00     0.112 C 
BRANCH  19  20
ATOM     20  C   UNL A   1      30.817  27.739  23.539  1.00  0.00     0.110 C 
BRANCH  20  21
ATOM     21  C   UNL A   1      31.661  28.742  22.777  1.00  0.00     0.226 C 
ATOM     22  O   UNL A   1      32.888  28.602  22.728  1.00  0.00    -0.275 OA
ATOM     23  N   UNL A   1      31.108  29.790  22.109  1.00  0.00    -0.302 N 
ATOM     24  H   UNL A   1      31.714  30.319  21.541  1.00  0.00     0.172 HD
BRANCH  23  25
ATOM     25  C   UNL A   1      29.806  30.186  22.141  1.00  0.00     0.189 A 
ATOM     26  N   UNL A   1      28.859  29.977  21.264  1.00  0.00    -0.229 NA
ATOM     27  S   UNL A   1      29.353  31.007  23.564  1.00  0.00    -0.105 S 
ATOM     28  C   UNL A   1      27.659  30.439  21.766  1.00  0.00     0.125 A 
ATOM     29  C   UNL A   1      27.726  31.022  23.013  1.00  0.00     0.088 A 
ENDBRANCH  23  25
ENDBRANCH  20  21
ENDBRANCH  19  20
ENDBRANCH  17  19
ENDBRANCH  11  17
ENDBRANCH   3   6
ENDBRANCH   1   2
BRANCH   1  30
ATOM     30  C   UNL A   1      36.874  22.323  24.415  1.00  0.00     0.023 C 
BRANCH  30  31
ATOM     31  C   UNL A   1      37.394  21.018  24.993  1.00  0.00     0.023 C 
BRANCH  31  32
ATOM     32  C   UNL A   1      38.718  21.182  25.719  1.00  0.00     0.116 C 
BRANCH  32  33
ATOM     33  N   UNL A   1      39.581  20.008  25.636  1.00  0.00    -0.352 N 
ATOM     34  C   UNL A   1      40.893  19.882  26.022  1.00  0.00     0.251 C 
ATOM     35  H   UNL A   1      39.168  19.199  25.255  1.00  0.00     0.163 HD
ATOM     36  O   UNL A   1      41.508  18.838  25.834  1.00  0.00    -0.269 OA
BRANCH  34  37
ATOM     37  C   UNL A   1      41.566  21.054  26.608  1.00  0.00     0.039 A 
ATOM     38  C   UNL A   1      42.102  22.017  25.751  1.00  0.00     0.014 A 
ATOM     39  C   UNL A   1      41.557  21.249  27.990  1.00  0.00     0.014 A 
ATOM     40  C   UNL A   1      42.553  23.224  26.282  1.00  0.00     0.010 A 
ATOM     41  C   UNL A   1      41.911  22.486  28.503  1.00  0.00     0.010 A 
ATOM     42  C   UNL A   1      42.412  23.484  27.654  1.00  0.00    -0.014 A 
BRANCH  42  43
ATOM     43  C   UNL A   1      42.794  24.791  28.235  1.00  0.00     0.031 A 
ATOM     44  C   UNL A   1      41.741  25.840  28.452  1.00  0.00     0.074 A 
ATOM     45  C   UNL A   1      44.090  25.060  28.480  1.00  0.00     0.049 A 
ATOM     46  N   UNL A   1      41.878  27.079  28.846  1.00  0.00    -0.248 NA
ATOM     47  C   UNL A   1      40.353  25.457  28.141  1.00  0.00     0.031 C 
ATOM     48  C   UNL A   1      45.210  24.144  28.244  1.00  0.00     0.029 A 
ATOM     49  N   UNL A   1      44.687  26.191  28.974  1.00  0.00    -0.354 N 
ATOM     50  C   UNL A   1      40.603  27.628  28.802  1.00  0.00     0.074 A 
ATOM     51  C   UNL A   1      39.716  26.608  28.289  1.00  0.00     0.031 C 
ATOM     52  C   UNL A   1      46.352  24.740  28.622  1.00  0.00     0.029 A 
ATOM     53  C   UNL A   1      46.051  26.087  29.095  1.00  0.00     0.049 A 
ATOM     54  H   UNL A   1      44.185  27.002  29.219  1.00  0.00     0.167 HD
ATOM     55  C   UNL A   1      40.203  28.861  29.183  1.00  0.00     0.037 A 
ATOM     56  C   UNL A   1      46.953  26.980  29.541  1.00  0.00     0.037 A 
ATOM     57  C   UNL A   1      41.080  29.852  29.745  1.00  0.00     0.049 A 
ATOM     58  C   UNL A   1      46.477  28.329  30.002  1.00  0.00     0.074 A 
ATOM     59  C   UNL A   1      40.764  31.104  30.240  1.00  0.00     0.029 A 
ATOM     60  N   UNL A   1      42.450  29.692  29.896  1.00  0.00    -0.354 N 
ATOM     61  N   UNL A   1      45.259  28.813  30.018  1.00  0.00    -0.248 NA
ATOM     62  C   UNL A   1      47.501  29.254  30.510  1.00  0.00     0.031 C 
ATOM     63  C   UNL A   1      41.949  31.713  30.668  1.00  0.00     0.029 A 
ATOM     64  C   UNL A   1      42.996  30.828  30.468  1.00  0.00     0.049 A 
ATOM     65  H   UNL A   1      42.957  28.891  29.634  1.00  0.00     0.167 HD
ATOM     66  C   UNL A   1      45.365  30.088  30.557  1.00  0.00     0.074 A 
ATOM     67  C   UNL A   1      46.765  30.297  30.867  1.00  0.00     0.031 C 
ATOM     68  C   UNL A   1      44.392  31.006  30.773  1.00  0.00     0.037 A 
BRANCH  55  69
ATOM     69  C   UNL A   1      38.750  29.194  29.020  1.00  0.00     0.057 A 
ATOM     70  C   UNL A   1      38.218  29.576  27.781  1.00  0.00     0.134 A 
ATOM     71  C   UNL A   1      37.873  29.126  30.108  1.00  0.00     0.134 A 
ATOM     72  F   UNL A   1      39.010  29.679  26.703  1.00  0.00    -0.206 F 
ATOM     73  C   UNL A   1      36.870  29.907  27.636  1.00  0.00     0.040 A 
ATOM     74  C   UNL A   1      36.517  29.430  29.971  1.00  0.00     0.040 A 
ATOM     75  F   UNL A   1      38.319  28.768  31.321  1.00  0.00    -0.206 F 
ATOM     76  C   UNL A   1      36.014  29.829  28.734  1.00  0.00     0.006 A 
ENDBRANCH  55  69
BRANCH  56  77
ATOM     77  C   UNL A   1      48.390  26.616  29.611  1.00  0.00     0.057 A 
ATOM     78  C   UNL A   1      48.902  25.929  30.717  1.00  0.00     0.134 A 
ATOM     79  C   UNL A   1      49.282  26.945  28.584  1.00  0.00     0.134 A 
ATOM     80  F   UNL A   1      48.097  25.601  31.739  1.00  0.00    -0.206 F 
ATOM     81  C   UNL A   1      50.254  25.598  30.811  1.00  0.00     0.040 A 
ATOM     82  C   UNL A   1      50.633  26.602  28.655  1.00  0.00     0.040 A 
ATOM     83  F   UNL A   1      48.850  27.595  27.494  1.00  0.00    -0.206 F 
ATOM     84  C   UNL A   1      51.123  25.933  29.775  1.00  0.00     0.006 A 
ENDBRANCH  56  77
BRANCH  68  85
ATOM     85  C   UNL A   1      44.806  32.304  31.394  1.00  0.00     0.057 A 
ATOM     86  C   UNL A   1      44.858  32.470  32.782  1.00  0.00     0.134 A 
ATOM     87  C   UNL A   1      45.199  33.383  30.593  1.00  0.00     0.134 A 
ATOM     88  F   UNL A   1      44.480  31.476  33.600  1.00  0.00    -0.206 F 
ATOM     89  C   UNL A   1      45.272  33.673  33.356  1.00  0.00     0.040 A 
ATOM     90  C   UNL A   1      45.636  34.583  31.154  1.00  0.00     0.040 A 
ATOM     91  F   UNL A   1      45.179  33.283  29.256  1.00  0.00    -0.206 F 
ATOM     92  C   UNL A   1      45.670  34.731  32.540  1.00  0.00     0.006 A 
ENDBRANCH  68  85
ENDBRANCH  42  43
ENDBRANCH  34  37
ENDBRANCH  32  33
ENDBRANCH  31  32
ENDBRANCH  30  31
ENDBRANCH   1  30
TORSDOF 18
ENDMDL
MODEL 2
REMARK VINA RESULT:     -11.4      1.565      6.121
REMARK SMILES CC(C)Cc1s/c(=N/C(=O)CCC(=O)Nc2nccs2)[nH]c1C(=O)NCCCCNC(=O)c1ccc(-c2c3nc(c(-c4c(F)cccc4F)c4ccc([nH]4)c(-c4c(F)cccc4F)c4nc(c(-c5c(F)cccc5F)c5ccc2[nH]5)C=C4)C=C3)cc1
REMARK SMILES IDX 26 1 25 2 23 3 24 4 22 6 5 7 6 8 7 9 21 10 8 11 4 13 2 14
REMARK SMILES IDX 1 15 3 16 9 17 10 18 11 19 12 20 13 21 14 22 15 23 16 25
REMARK SMILES IDX 17 26 20 27 18 28 19 29 27 30 28 31 29 32 30 33 31 34 32 36
REMARK SMILES IDX 33 37 34 38 86 39 35 40 85 41 36 42 37 43 38 44 79 45 39 46
REMARK SMILES IDX 84 47 78 48 80 49 40 50 83 51 77 52 76 53 41 55 67 56 50 57
REMARK SMILES IDX 66 58 51 59 54 60 65 61 81 62 52 63 53 64 64 66 82 67 55 68
REMARK SMILES IDX 42 69 43 70 48 71 44 72 45 73 47 74 49 75 46 76 68 77 69 78
REMARK SMILES IDX 74 79 70 80 71 81 73 82 75 83 72 84 56 85 57 86 62 87 58 88
REMARK SMILES IDX 59 89 61 90 63 91 60 92
REMARK H PARENT 25 5 21 12 15 24 30 35 80 54 54 65
REMARK Flexibility Score: inf
ROOT
ATOM      1  C   UNL A   1      36.736  22.572  25.258  1.00  0.00     0.116 C 
ENDROOT
BRANCH   1   2
ATOM      2  N   UNL A   1      36.145  22.924  23.988  1.00  0.00    -0.351 N 
ATOM      3  C   UNL A   1      34.866  23.136  23.597  1.00  0.00     0.268 C 
ATOM      4  O   UNL A   1      34.694  23.403  22.401  1.00  0.00    -0.268 OA
ATOM      5  H   UNL A   1      36.802  23.031  23.262  1.00  0.00     0.163 HD
BRANCH   3   6
ATOM      6  C   UNL A   1      33.668  23.204  24.504  1.00  0.00     0.119 A 
ATOM      7  C   UNL A   1      32.971  22.294  25.230  1.00  0.00     0.038 A 
ATOM      8  S   UNL A   1      31.534  23.060  25.977  1.00  0.00    -0.101 S 
ATOM      9  C   UNL A   1      31.866  24.596  25.158  1.00  0.00     0.190 A 
ATOM     10  N   UNL A   1      33.040  24.449  24.489  1.00  0.00    -0.326 N 
ATOM     11  N   UNL A   1      31.005  25.539  25.249  1.00  0.00    -0.185 NA
ATOM     12  H   UNL A   1      33.439  25.207  24.004  1.00  0.00     0.169 HD
BRANCH   7  13
ATOM     13  C   UNL A   1      33.152  20.838  25.534  1.00  0.00     0.052 C 
BRANCH  13  14
ATOM     14  C   UNL A   1      32.637  19.804  24.510  1.00  0.00    -0.012 C 
ATOM     15  C   UNL A   1      32.240  20.384  23.155  1.00  0.00     0.008 C 
ATOM     16  C   UNL A   1      33.704  18.721  24.299  1.00  0.00     0.008 C 
ENDBRANCH  13  14
ENDBRANCH   7  13
BRANCH  11  17
ATOM     17  C   UNL A   1      31.236  26.679  24.524  1.00  0.00     0.248 C 
ATOM     18  O   UNL A   1      32.065  27.542  24.805  1.00  0.00    -0.273 OA
BRANCH  17  19
ATOM     19  C   UNL A   1      30.317  26.819  23.328  1.00  0.00     0.112 C 
BRANCH  19  20
ATOM     20  C   UNL A   1      29.627  28.171  23.223  1.00  0.00     0.110 C 
BRANCH  20  21
ATOM     21  C   UNL A   1      28.114  28.087  23.260  1.00  0.00     0.226 C 
ATOM     22  O   UNL A   1      27.566  27.081  23.723  1.00  0.00    -0.275 OA
ATOM     23  N   UNL A   1      27.324  29.105  22.824  1.00  0.00    -0.302 N 
ATOM     24  H   UNL A   1      26.359  29.018  22.998  1.00  0.00     0.172 HD
BRANCH  23  25
ATOM     25  C   UNL A   1      27.725  30.232  22.174  1.00  0.00     0.189 A 
ATOM     26  N   UNL A   1      27.917  30.420  20.894  1.00  0.00    -0.229 NA
ATOM     27  S   UNL A   1      27.933  31.591  23.179  1.00  0.00    -0.105 S 
ATOM     28  C   UNL A   1      28.190  31.753  20.663  1.00  0.00     0.125 A 
ATOM     29  C   UNL A   1      28.229  32.551  21.786  1.00  0.00     0.088 A 
ENDBRANCH  23  25
ENDBRANCH  20  21
ENDBRANCH  19  20
ENDBRANCH  17  19
ENDBRANCH  11  17
ENDBRANCH   3   6
ENDBRANCH   1   2
BRANCH   1  30
ATOM     30  C   UNL A   1      36.740  21.051  25.409  1.00  0.00     0.023 C 
BRANCH  30  31
ATOM     31  C   UNL A   1      38.001  20.335  24.956  1.00  0.00     0.023 C 
BRANCH  31  32
ATOM     32  C   UNL A   1      39.120  20.410  25.980  1.00  0.00     0.116 C 
BRANCH  32  33
ATOM     33  N   UNL A   1      40.074  19.308  25.887  1.00  0.00    -0.352 N 
ATOM     34  C   UNL A   1      41.432  19.334  26.089  1.00  0.00     0.251 C 
ATOM     35  H   UNL A   1      39.693  18.431  25.651  1.00  0.00     0.163 HD
ATOM     36  O   UNL A   1      42.114  18.329  25.916  1.00  0.00    -0.269 OA
BRANCH  34  37
ATOM     37  C   UNL A   1      42.062  20.614  26.453  1.00  0.00     0.039 A 
ATOM     38  C   UNL A   1      42.430  21.494  25.434  1.00  0.00     0.014 A 
ATOM     39  C   UNL A   1      42.174  20.983  27.795  1.00  0.00     0.014 A 
ATOM     40  C   UNL A   1      42.831  22.787  25.765  1.00  0.00     0.010 A 
ATOM     41  C   UNL A   1      42.475  22.297  28.115  1.00  0.00     0.010 A 
ATOM     42  C   UNL A   1      42.806  23.210  27.103  1.00  0.00    -0.014 A 
BRANCH  42  43
ATOM     43  C   UNL A   1      43.136  24.604  27.479  1.00  0.00     0.031 A 
ATOM     44  C   UNL A   1      44.571  25.045  27.495  1.00  0.00     0.074 A 
ATOM     45  C   UNL A   1      42.159  25.435  27.887  1.00  0.00     0.049 A 
ATOM     46  N   UNL A   1      45.082  26.181  27.893  1.00  0.00    -0.248 NA
ATOM     47  C   UNL A   1      45.571  24.061  27.045  1.00  0.00     0.031 C 
ATOM     48  C   UNL A   1      40.736  25.095  27.980  1.00  0.00     0.029 A 
ATOM     49  N   UNL A   1      42.216  26.737  28.313  1.00  0.00    -0.354 N 
ATOM     50  C   UNL A   1      46.457  26.036  27.768  1.00  0.00     0.074 A 
ATOM     51  C   UNL A   1      46.706  24.686  27.314  1.00  0.00     0.031 C 
ATOM     52  C   UNL A   1      40.054  26.172  28.404  1.00  0.00     0.029 A 
ATOM     53  C   UNL A   1      40.992  27.263  28.644  1.00  0.00     0.049 A 
ATOM     54  H   UNL A   1      43.057  27.246  28.375  1.00  0.00     0.167 HD
ATOM     55  C   UNL A   1      47.425  26.956  27.984  1.00  0.00     0.037 A 
ATOM     56  C   UNL A   1      40.668  28.492  29.088  1.00  0.00     0.037 A 
ATOM     57  C   UNL A   1      47.168  28.313  28.382  1.00  0.00     0.049 A 
ATOM     58  C   UNL A   1      41.756  29.509  29.277  1.00  0.00     0.074 A 
ATOM     59  C   UNL A   1      48.068  29.349  28.549  1.00  0.00     0.029 A 
ATOM     60  N   UNL A   1      45.909  28.823  28.662  1.00  0.00    -0.354 N 
ATOM     61  N   UNL A   1      43.048  29.381  29.091  1.00  0.00    -0.248 NA
ATOM     62  C   UNL A   1      41.343  30.844  29.732  1.00  0.00     0.031 C 
ATOM     63  C   UNL A   1      47.356  30.482  28.956  1.00  0.00     0.029 A 
ATOM     64  C   UNL A   1      46.010  30.159  29.012  1.00  0.00     0.049 A 
ATOM     65  H   UNL A   1      45.069  28.312  28.620  1.00  0.00     0.167 HD
ATOM     66  C   UNL A   1      43.599  30.621  29.385  1.00  0.00     0.074 A 
ATOM     67  C   UNL A   1      42.499  31.492  29.748  1.00  0.00     0.031 C 
ATOM     68  C   UNL A   1      44.898  31.004  29.361  1.00  0.00     0.037 A 
BRANCH  55  69
ATOM     69  C   UNL A   1      48.844  26.522  27.776  1.00  0.00     0.057 A 
ATOM     70  C   UNL A   1      49.460  26.595  26.519  1.00  0.00     0.134 A 
ATOM     71  C   UNL A   1      49.607  26.030  28.841  1.00  0.00     0.134 A 
ATOM     72  F   UNL A   1      48.776  27.039  25.453  1.00  0.00    -0.206 F 
ATOM     73  C   UNL A   1      50.774  26.168  26.322  1.00  0.00     0.040 A 
ATOM     74  C   UNL A   1      50.931  25.625  28.663  1.00  0.00     0.040 A 
ATOM     75  F   UNL A   1      49.078  25.934  30.070  1.00  0.00    -0.206 F 
ATOM     76  C   UNL A   1      51.515  25.686  27.399  1.00  0.00     0.006 A 
ENDBRANCH  55  69
BRANCH  56  77
ATOM     77  C   UNL A   1      39.249  28.839  29.347  1.00  0.00     0.057 A 
ATOM     78  C   UNL A   1      38.680  28.634  30.609  1.00  0.00     0.134 A 
ATOM     79  C   UNL A   1      38.429  29.375  28.347  1.00  0.00     0.134 A 
ATOM     80  F   UNL A   1      39.412  28.108  31.602  1.00  0.00    -0.206 F 
ATOM     81  C   UNL A   1      37.341  28.933  30.865  1.00  0.00     0.040 A 
ATOM     82  C   UNL A   1      37.094  29.698  28.594  1.00  0.00     0.040 A 
ATOM     83  F   UNL A   1      38.920  29.603  27.120  1.00  0.00    -0.206 F 
ATOM     84  C   UNL A   1      36.545  29.470  29.855  1.00  0.00     0.006 A 
ENDBRANCH  56  77
BRANCH  68  85
ATOM     85  C   UNL A   1      45.194  32.430  29.712  1.00  0.00     0.057 A 
ATOM     86  C   UNL A   1      45.531  32.809  31.017  1.00  0.00     0.134 A 
ATOM     87  C   UNL A   1      45.184  33.424  28.727  1.00  0.00     0.134 A 
ATOM     88  F   UNL A   1      45.544  31.903  32.006  1.00  0.00    -0.206 F 
ATOM     89  C   UNL A   1      45.834  34.134  31.333  1.00  0.00     0.040 A 
ATOM     90  C   UNL A   1      45.506  34.747  29.026  1.00  0.00     0.040 A 
ATOM     91  F   UNL A   1      44.877  33.122  27.457  1.00  0.00    -0.206 F 
ATOM     92  C   UNL A   1      45.829  35.106  30.334  1.00  0.00     0.006 A 
ENDBRANCH  68  85
ENDBRANCH  42  43
ENDBRANCH  34  37
ENDBRANCH  32  33
ENDBRANCH  31  32
ENDBRANCH  30  31
ENDBRANCH   1  30
TORSDOF 18
ENDMDL
MODEL 3
REMARK VINA RESULT:     -11.4      3.942      9.477
REMARK SMILES CC(C)Cc1s/c(=N/C(=O)CCC(=O)Nc2nccs2)[nH]c1C(=O)NCCCCNC(=O)c1ccc(-c2c3nc(c(-c4c(F)cccc4F)c4ccc([nH]4)c(-c4c(F)cccc4F)c4nc(c(-c5c(F)cccc5F)c5ccc2[nH]5)C=C4)C=C3)cc1
REMARK SMILES IDX 26 1 25 2 23 3 24 4 22 6 5 7 6 8 7 9 21 10 8 11 4 13 2 14
REMARK SMILES IDX 1 15 3 16 9 17 10 18 11 19 12 20 13 21 14 22 15 23 16 25
REMARK SMILES IDX 17 26 20 27 18 28 19 29 27 30 28 31 29 32 30 33 31 34 32 36
REMARK SMILES IDX 33 37 34 38 86 39 35 40 85 41 36 42 37 43 38 44 79 45 39 46
REMARK SMILES IDX 84 47 78 48 80 49 40 50 83 51 77 52 76 53 41 55 67 56 50 57
REMARK SMILES IDX 66 58 51 59 54 60 65 61 81 62 52 63 53 64 64 66 82 67 55 68
REMARK SMILES IDX 42 69 43 70 48 71 44 72 45 73 47 74 49 75 46 76 68 77 69 78
REMARK SMILES IDX 74 79 70 80 71 81 73 82 75 83 72 84 56 85 57 86 62 87 58 88
REMARK SMILES IDX 59 89 61 90 63 91 60 92
REMARK H PARENT 25 5 21 12 15 24 30 35 80 54 54 65
REMARK Flexibility Score: inf
ROOT
ATOM      1  C   UNL A   1      33.012  29.912  26.122  1.00  0.00     0.116 C 
ENDROOT
BRANCH   1   2
ATOM      2  N   UNL A   1      33.545  29.704  24.795  1.00  0.00    -0.351 N 
ATOM      3  C   UNL A   1      33.114  28.980  23.736  1.00  0.00     0.268 C 
ATOM      4  O   UNL A   1      33.834  28.994  22.730  1.00  0.00    -0.268 OA
ATOM      5  H   UNL A   1      34.389  30.183  24.628  1.00  0.00     0.163 HD
BRANCH   3   6
ATOM      6  C   UNL A   1      31.787  28.278  23.630  1.00  0.00     0.119 A 
ATOM      7  C   UNL A   1      30.597  28.573  23.050  1.00  0.00     0.038 A 
ATOM      8  S   UNL A   1      29.378  27.325  23.454  1.00  0.00    -0.101 S 
ATOM      9  C   UNL A   1      30.516  26.491  24.526  1.00  0.00     0.190 A 
ATOM     10  N   UNL A   1      31.708  27.135  24.425  1.00  0.00    -0.326 N 
ATOM     11  N   UNL A   1      30.088  25.513  25.234  1.00  0.00    -0.185 NA
ATOM     12  H   UNL A   1      32.501  26.800  24.904  1.00  0.00     0.169 HD
BRANCH   7  13
ATOM     13  C   UNL A   1      30.112  29.681  22.165  1.00  0.00     0.052 C 
BRANCH  13  14
ATOM     14  C   UNL A   1      28.731  30.305  22.457  1.00  0.00    -0.012 C 
ATOM     15  C   UNL A   1      28.754  31.496  23.412  1.00  0.00     0.008 C 
ATOM     16  C   UNL A   1      28.074  30.732  21.138  1.00  0.00     0.008 C 
ENDBRANCH  13  14
ENDBRANCH   7  13
BRANCH  11  17
ATOM     17  C   UNL A   1      30.961  24.952  26.130  1.00  0.00     0.248 C 
ATOM     18  O   UNL A   1      31.396  25.506  27.137  1.00  0.00    -0.273 OA
BRANCH  17  19
ATOM     19  C   UNL A   1      31.402  23.557  25.736  1.00  0.00     0.112 C 
BRANCH  19  20
ATOM     20  C   UNL A   1      32.908  23.344  25.770  1.00  0.00     0.110 C 
BRANCH  20  21
ATOM     21  C   UNL A   1      33.381  22.536  26.963  1.00  0.00     0.226 C 
ATOM     22  O   UNL A   1      32.622  22.354  27.922  1.00  0.00    -0.275 OA
ATOM     23  N   UNL A   1      34.616  21.969  27.005  1.00  0.00    -0.302 N 
ATOM     24  H   UNL A   1      34.795  21.361  27.759  1.00  0.00     0.172 HD
BRANCH  23  25
ATOM     25  C   UNL A   1      35.632  22.151  26.117  1.00  0.00     0.189 A 
ATOM     26  N   UNL A   1      36.324  23.232  25.868  1.00  0.00    -0.229 NA
ATOM     27  S   UNL A   1      36.095  20.744  25.275  1.00  0.00    -0.105 S 
ATOM     28  C   UNL A   1      37.346  22.930  24.990  1.00  0.00     0.125 A 
ATOM     29  C   UNL A   1      37.391  21.620  24.566  1.00  0.00     0.088 A 
ENDBRANCH  23  25
ENDBRANCH  20  21
ENDBRANCH  19  20
ENDBRANCH  17  19
ENDBRANCH  11  17
ENDBRANCH   3   6
ENDBRANCH   1   2
BRANCH   1  30
ATOM     30  C   UNL A   1      31.791  30.827  26.038  1.00  0.00     0.023 C 
BRANCH  30  31
ATOM     31  C   UNL A   1      31.615  31.818  27.176  1.00  0.00     0.023 C 
BRANCH  31  32
ATOM     32  C   UNL A   1      32.787  32.774  27.310  1.00  0.00     0.116 C 
BRANCH  32  33
ATOM     33  N   UNL A   1      32.394  34.139  27.645  1.00  0.00    -0.352 N 
ATOM     34  C   UNL A   1      32.975  35.001  28.541  1.00  0.00     0.251 C 
ATOM     35  H   UNL A   1      31.609  34.489  27.164  1.00  0.00     0.163 HD
ATOM     36  O   UNL A   1      32.491  36.107  28.758  1.00  0.00    -0.269 OA
BRANCH  34  37
ATOM     37  C   UNL A   1      34.159  34.541  29.289  1.00  0.00     0.039 A 
ATOM     38  C   UNL A   1      33.968  33.851  30.486  1.00  0.00     0.014 A 
ATOM     39  C   UNL A   1      35.434  34.692  28.742  1.00  0.00     0.014 A 
ATOM     40  C   UNL A   1      35.058  33.231  31.094  1.00  0.00     0.010 A 
ATOM     41  C   UNL A   1      36.495  33.991  29.292  1.00  0.00     0.010 A 
ATOM     42  C   UNL A   1      36.317  33.255  30.473  1.00  0.00    -0.014 A 
BRANCH  42  43
ATOM     43  C   UNL A   1      37.474  32.528  31.043  1.00  0.00     0.031 A 
ATOM     44  C   UNL A   1      38.074  32.993  32.338  1.00  0.00     0.074 A 
ATOM     45  C   UNL A   1      38.032  31.515  30.353  1.00  0.00     0.049 A 
ATOM     46  N   UNL A   1      39.147  32.567  32.953  1.00  0.00    -0.248 NA
ATOM     47  C   UNL A   1      37.402  34.117  33.012  1.00  0.00     0.031 C 
ATOM     48  C   UNL A   1      37.579  31.020  29.051  1.00  0.00     0.029 A 
ATOM     49  N   UNL A   1      39.113  30.725  30.649  1.00  0.00    -0.354 N 
ATOM     50  C   UNL A   1      39.292  33.388  34.063  1.00  0.00     0.074 A 
ATOM     51  C   UNL A   1      38.234  34.372  34.009  1.00  0.00     0.031 C 
ATOM     52  C   UNL A   1      38.357  29.992  28.677  1.00  0.00     0.029 A 
ATOM     53  C   UNL A   1      39.381  29.777  29.694  1.00  0.00     0.049 A 
ATOM     54  H   UNL A   1      39.647  30.829  31.470  1.00  0.00     0.167 HD
ATOM     55  C   UNL A   1      40.207  33.310  35.055  1.00  0.00     0.037 A 
ATOM     56  C   UNL A   1      40.345  28.839  29.649  1.00  0.00     0.037 A 
ATOM     57  C   UNL A   1      41.222  32.295  35.132  1.00  0.00     0.049 A 
ATOM     58  C   UNL A   1      41.323  28.743  30.786  1.00  0.00     0.074 A 
ATOM     59  C   UNL A   1      42.149  32.075  36.135  1.00  0.00     0.029 A 
ATOM     60  N   UNL A   1      41.433  31.321  34.168  1.00  0.00    -0.354 N 
ATOM     61  N   UNL A   1      41.409  29.484  31.865  1.00  0.00    -0.248 NA
ATOM     62  C   UNL A   1      42.334  27.680  30.701  1.00  0.00     0.031 C 
ATOM     63  C   UNL A   1      42.938  30.981  35.765  1.00  0.00     0.029 A 
ATOM     64  C   UNL A   1      42.483  30.502  34.546  1.00  0.00     0.049 A 
ATOM     65  H   UNL A   1      40.914  31.227  33.337  1.00  0.00     0.167 HD
ATOM     66  C   UNL A   1      42.467  28.964  32.597  1.00  0.00     0.074 A 
ATOM     67  C   UNL A   1      42.983  27.837  31.847  1.00  0.00     0.031 C 
ATOM     68  C   UNL A   1      42.970  29.383  33.784  1.00  0.00     0.037 A 
BRANCH  55  69
ATOM     69  C   UNL A   1      40.134  34.341  36.140  1.00  0.00     0.057 A 
ATOM     70  C   UNL A   1      39.343  34.154  37.281  1.00  0.00     0.134 A 
ATOM     71  C   UNL A   1      40.866  35.530  36.048  1.00  0.00     0.134 A 
ATOM     72  F   UNL A   1      38.602  33.044  37.420  1.00  0.00    -0.206 F 
ATOM     73  C   UNL A   1      39.258  35.126  38.279  1.00  0.00     0.040 A 
ATOM     74  C   UNL A   1      40.811  36.499  37.052  1.00  0.00     0.040 A 
ATOM     75  F   UNL A   1      41.643  35.772  34.982  1.00  0.00    -0.206 F 
ATOM     76  C   UNL A   1      39.999  36.301  38.168  1.00  0.00     0.006 A 
ENDBRANCH  55  69
BRANCH  56  77
ATOM     77  C   UNL A   1      40.409  27.891  28.509  1.00  0.00     0.057 A 
ATOM     78  C   UNL A   1      41.139  28.205  27.357  1.00  0.00     0.134 A 
ATOM     79  C   UNL A   1      39.745  26.660  28.539  1.00  0.00     0.134 A 
ATOM     80  F   UNL A   1      41.784  29.378  27.265  1.00  0.00    -0.206 F 
ATOM     81  C   UNL A   1      41.192  27.336  26.265  1.00  0.00     0.040 A 
ATOM     82  C   UNL A   1      39.806  25.773  27.463  1.00  0.00     0.040 A 
ATOM     83  F   UNL A   1      39.037  26.299  29.619  1.00  0.00    -0.206 F 
ATOM     84  C   UNL A   1      40.526  26.114  26.319  1.00  0.00     0.006 A 
ENDBRANCH  56  77
BRANCH  68  85
ATOM     85  C   UNL A   1      44.118  28.605  34.350  1.00  0.00     0.057 A 
ATOM     86  C   UNL A   1      43.914  27.479  35.156  1.00  0.00     0.134 A 
ATOM     87  C   UNL A   1      45.438  28.960  34.048  1.00  0.00     0.134 A 
ATOM     88  F   UNL A   1      42.672  27.098  35.490  1.00  0.00    -0.206 F 
ATOM     89  C   UNL A   1      44.987  26.741  35.657  1.00  0.00     0.040 A 
ATOM     90  C   UNL A   1      46.518  28.218  34.525  1.00  0.00     0.040 A 
ATOM     91  F   UNL A   1      45.697  30.024  33.275  1.00  0.00    -0.206 F 
ATOM     92  C   UNL A   1      46.293  27.106  35.335  1.00  0.00     0.006 A 
ENDBRANCH  68  85
ENDBRANCH  42  43
ENDBRANCH  34  37
ENDBRANCH  32  33
ENDBRANCH  31  32
ENDBRANCH  30  31
ENDBRANCH   1  30
TORSDOF 18
ENDMDL
