MODEL 1
REMARK VINA RESULT:     -12.7      0.000      0.000
REMARK SMILES O=C(NCCCCNC(=O)c1ccc2c(=O)n(CCC[NH+]3CCOCC3)c(=O)[nH]c2c1)c1ccc(-c2c3nc(c(-c4c(F)cccc4F)c4ccc([nH]4)c(-c4c(F)cccc4F)c4nc(c(-c5c(F)cccc5F)c5ccc2[nH]5)C=C4)C=C3)cc1
REMARK SMILES IDX 6 1 5 2 4 3 3 4 1 5 2 6 32 8 33 9 85 10 34 11 84 12 35 13
REMARK SMILES IDX 36 14 37 15 78 16 38 17 83 18 77 19 79 20 39 21 82 22 76 23
REMARK SMILES IDX 75 24 40 26 66 27 49 28 65 29 50 30 53 31 64 32 80 33 51 34
REMARK SMILES IDX 52 35 63 37 81 38 54 39 41 40 42 41 47 42 43 43 44 44 46 45
REMARK SMILES IDX 48 46 45 47 67 48 68 49 73 50 69 51 70 52 72 53 74 54 71 55
REMARK SMILES IDX 55 56 56 57 61 58 57 59 58 60 60 61 62 62 59 63 7 64 8 65
REMARK SMILES IDX 9 66 10 68 11 69 12 70 31 71 13 72 30 73 14 74 29 75 15 76
REMARK SMILES IDX 27 77 16 79 17 80 28 81 18 82 19 83 20 84 21 85 22 86 26 87
REMARK SMILES IDX 23 89 25 90 24 91
REMARK H PARENT 3 7 79 25 53 36 8 67 29 78 21 88
REMARK Flexibility Score: inf
ROOT
ATOM      1  C   UNL A   1      36.487  20.814  24.631  1.00  0.00     0.023 C 
ENDROOT
BRANCH   1   2
ATOM      2  C   UNL A   1      37.510  19.743  25.004  1.00  0.00     0.023 C 
BRANCH   2   3
ATOM      3  C   UNL A   1      38.729  20.260  25.756  1.00  0.00     0.116 C 
BRANCH   3   4
ATOM      4  N   UNL A   1      39.795  19.276  25.826  1.00  0.00    -0.352 N 
ATOM      5  O   UNL A   1      41.909  18.514  25.902  1.00  0.00    -0.269 OA
ATOM      6  C   UNL A   1      41.134  19.453  26.064  1.00  0.00     0.251 C 
ATOM      7  H   UNL A   1      39.515  18.344  25.682  1.00  0.00     0.163 HD
BRANCH   6   8
ATOM      8  C   UNL A   1      41.652  20.767  26.505  1.00  0.00     0.039 A 
ATOM      9  C   UNL A   1      41.745  21.028  27.875  1.00  0.00     0.014 A 
ATOM     10  C   UNL A   1      41.995  21.760  25.583  1.00  0.00     0.014 A 
ATOM     11  C   UNL A   1      42.187  22.278  28.314  1.00  0.00     0.010 A 
ATOM     12  C   UNL A   1      42.536  22.964  26.021  1.00  0.00     0.010 A 
ATOM     13  C   UNL A   1      42.588  23.255  27.391  1.00  0.00    -0.014 A 
BRANCH  13  14
ATOM     14  C   UNL A   1      42.933  24.631  27.836  1.00  0.00     0.031 A 
ATOM     15  C   UNL A   1      44.384  25.039  27.907  1.00  0.00     0.074 A 
ATOM     16  C   UNL A   1      41.968  25.508  28.167  1.00  0.00     0.049 A 
ATOM     17  N   UNL A   1      44.910  26.173  28.298  1.00  0.00    -0.248 NA
ATOM     18  C   UNL A   1      45.379  24.028  27.509  1.00  0.00     0.031 C 
ATOM     19  C   UNL A   1      40.530  25.234  28.163  1.00  0.00     0.029 A 
ATOM     20  N   UNL A   1      42.055  26.819  28.566  1.00  0.00    -0.354 N 
ATOM     21  C   UNL A   1      46.287  26.005  28.194  1.00  0.00     0.074 A 
ATOM     22  C   UNL A   1      46.518  24.638  27.789  1.00  0.00     0.031 C 
ATOM     23  C   UNL A   1      39.870  26.351  28.513  1.00  0.00     0.029 A 
ATOM     24  C   UNL A   1      40.836  27.406  28.800  1.00  0.00     0.049 A 
ATOM     25  H   UNL A   1      42.912  27.292  28.675  1.00  0.00     0.167 HD
ATOM     26  C   UNL A   1      47.273  26.915  28.373  1.00  0.00     0.037 A 
ATOM     27  C   UNL A   1      40.538  28.656  29.203  1.00  0.00     0.037 A 
ATOM     28  C   UNL A   1      47.047  28.283  28.756  1.00  0.00     0.049 A 
ATOM     29  C   UNL A   1      41.658  29.636  29.441  1.00  0.00     0.074 A 
ATOM     30  C   UNL A   1      47.976  29.288  28.957  1.00  0.00     0.029 A 
ATOM     31  N   UNL A   1      45.798  28.836  28.991  1.00  0.00    -0.354 N 
ATOM     32  N   UNL A   1      42.951  29.473  29.301  1.00  0.00    -0.248 NA
ATOM     33  C   UNL A   1      41.269  30.983  29.885  1.00  0.00     0.031 C 
ATOM     34  C   UNL A   1      47.289  30.443  29.351  1.00  0.00     0.029 A 
ATOM     35  C   UNL A   1      45.932  30.168  29.343  1.00  0.00     0.049 A 
ATOM     36  H   UNL A   1      44.943  28.353  28.917  1.00  0.00     0.167 HD
ATOM     37  C   UNL A   1      43.525  30.702  29.604  1.00  0.00     0.074 A 
ATOM     38  C   UNL A   1      42.437  31.606  29.911  1.00  0.00     0.031 C 
ATOM     39  C   UNL A   1      44.834  31.055  29.633  1.00  0.00     0.037 A 
BRANCH  26  40
ATOM     40  C   UNL A   1      48.683  26.455  28.134  1.00  0.00     0.057 A 
ATOM     41  C   UNL A   1      49.257  26.523  26.859  1.00  0.00     0.134 A 
ATOM     42  C   UNL A   1      49.471  25.934  29.170  1.00  0.00     0.134 A 
ATOM     43  F   UNL A   1      48.559  27.007  25.822  1.00  0.00    -0.206 F 
ATOM     44  C   UNL A   1      50.564  26.092  26.625  1.00  0.00     0.040 A 
ATOM     45  C   UNL A   1      50.789  25.529  28.955  1.00  0.00     0.040 A 
ATOM     46  F   UNL A   1      48.988  25.858  30.420  1.00  0.00    -0.206 F 
ATOM     47  C   UNL A   1      51.336  25.601  27.675  1.00  0.00     0.006 A 
ENDBRANCH  26  40
BRANCH  27  48
ATOM     48  C   UNL A   1      39.126  29.072  29.410  1.00  0.00     0.057 A 
ATOM     49  C   UNL A   1      38.347  29.555  28.353  1.00  0.00     0.134 A 
ATOM     50  C   UNL A   1      38.500  28.926  30.656  1.00  0.00     0.134 A 
ATOM     51  F   UNL A   1      38.884  29.728  27.137  1.00  0.00    -0.206 F 
ATOM     52  C   UNL A   1      36.996  29.864  28.522  1.00  0.00     0.040 A 
ATOM     53  C   UNL A   1      37.143  29.200  30.831  1.00  0.00     0.040 A 
ATOM     54  F   UNL A   1      39.188  28.450  31.704  1.00  0.00    -0.206 F 
ATOM     55  C   UNL A   1      36.386  29.670  29.761  1.00  0.00     0.006 A 
ENDBRANCH  27  48
BRANCH  39  56
ATOM     56  C   UNL A   1      45.149  32.487  29.955  1.00  0.00     0.057 A 
ATOM     57  C   UNL A   1      45.391  32.882  31.277  1.00  0.00     0.134 A 
ATOM     58  C   UNL A   1      45.213  33.477  28.964  1.00  0.00     0.134 A 
ATOM     59  F   UNL A   1      45.332  31.989  32.277  1.00  0.00    -0.206 F 
ATOM     60  C   UNL A   1      45.693  34.205  31.600  1.00  0.00     0.040 A 
ATOM     61  C   UNL A   1      45.547  34.796  29.271  1.00  0.00     0.040 A 
ATOM     62  F   UNL A   1      45.003  33.163  27.676  1.00  0.00    -0.206 F 
ATOM     63  C   UNL A   1      45.785  35.163  30.594  1.00  0.00     0.006 A 
ENDBRANCH  39  56
ENDBRANCH  13  14
ENDBRANCH   6   8
ENDBRANCH   3   4
ENDBRANCH   2   3
ENDBRANCH   1   2
BRANCH   1  64
ATOM     64  C   UNL A   1      35.320  20.946  25.607  1.00  0.00     0.116 C 
BRANCH  64  65
ATOM     65  N   UNL A   1      34.308  19.926  25.381  1.00  0.00    -0.352 N 
ATOM     66  C   UNL A   1      33.010  20.091  24.982  1.00  0.00     0.251 C 
ATOM     67  H   UNL A   1      34.593  18.996  25.537  1.00  0.00     0.163 HD
ATOM     68  O   UNL A   1      32.206  19.167  25.006  1.00  0.00    -0.269 OA
BRANCH  66  69
ATOM     69  C   UNL A   1      32.585  21.420  24.523  1.00  0.00     0.041 A 
ATOM     70  C   UNL A   1      32.888  21.821  23.214  1.00  0.00     0.015 A 
ATOM     71  C   UNL A   1      31.934  22.270  25.421  1.00  0.00     0.040 A 
ATOM     72  C   UNL A   1      32.541  23.101  22.801  1.00  0.00     0.017 A 
ATOM     73  C   UNL A   1      31.635  23.563  25.010  1.00  0.00     0.056 A 
ATOM     74  C   UNL A   1      31.912  23.960  23.706  1.00  0.00     0.064 A 
ATOM     75  N   UNL A   1      31.105  24.488  25.905  1.00  0.00    -0.307 N 
ATOM     76  C   UNL A   1      31.536  25.316  23.300  1.00  0.00     0.264 A 
ATOM     77  C   UNL A   1      30.963  25.820  25.619  1.00  0.00     0.328 A 
ATOM     78  H   UNL A   1      30.819  24.168  26.790  1.00  0.00     0.171 HD
ATOM     79  O   UNL A   1      31.473  25.561  22.101  1.00  0.00    -0.268 OA
ATOM     80  N   UNL A   1      31.270  26.215  24.325  1.00  0.00    -0.260 N 
ATOM     81  O   UNL A   1      30.578  26.580  26.506  1.00  0.00    -0.248 OA
BRANCH  80  82
ATOM     82  C   UNL A   1      31.180  27.628  23.978  1.00  0.00     0.137 C 
BRANCH  82  83
ATOM     83  C   UNL A   1      29.794  28.022  23.441  1.00  0.00     0.083 C 
BRANCH  83  84
ATOM     84  C   UNL A   1      29.746  29.249  22.511  1.00  0.00     0.264 C 
BRANCH  84  85
ATOM     85  N   UNL A   1      28.423  29.625  22.002  1.00  0.00    -0.331 N 
ATOM     86  C   UNL A   1      28.492  30.791  21.095  1.00  0.00     0.291 C 
ATOM     87  C   UNL A   1      27.396  29.894  23.022  1.00  0.00     0.291 C 
ATOM     88  H   UNL A   1      28.128  28.786  21.503  1.00  0.00     0.348 HD
ATOM     89  C   UNL A   1      28.639  32.137  21.832  1.00  0.00     0.221 C 
ATOM     90  C   UNL A   1      27.612  31.222  23.753  1.00  0.00     0.221 C 
ATOM     91  O   UNL A   1      27.625  32.319  22.830  1.00  0.00    -0.370 OA
ENDBRANCH  84  85
ENDBRANCH  83  84
ENDBRANCH  82  83
ENDBRANCH  80  82
ENDBRANCH  66  69
ENDBRANCH  64  65
ENDBRANCH   1  64
TORSDOF 15
ENDMDL
MODEL 2
REMARK VINA RESULT:     -12.7      0.505      1.635
REMARK SMILES O=C(NCCCCNC(=O)c1ccc2c(=O)n(CCC[NH+]3CCOCC3)c(=O)[nH]c2c1)c1ccc(-c2c3nc(c(-c4c(F)cccc4F)c4ccc([nH]4)c(-c4c(F)cccc4F)c4nc(c(-c5c(F)cccc5F)c5ccc2[nH]5)C=C4)C=C3)cc1
REMARK SMILES IDX 6 1 5 2 4 3 3 4 1 5 2 6 32 8 33 9 85 10 34 11 84 12 35 13
REMARK SMILES IDX 36 14 37 15 78 16 38 17 83 18 77 19 79 20 39 21 82 22 76 23
REMARK SMILES IDX 75 24 40 26 66 27 49 28 65 29 50 30 53 31 64 32 80 33 51 34
REMARK SMILES IDX 52 35 63 37 81 38 54 39 41 40 42 41 47 42 43 43 44 44 46 45
REMARK SMILES IDX 48 46 45 47 67 48 68 49 73 50 69 51 70 52 72 53 74 54 71 55
REMARK SMILES IDX 55 56 56 57 61 58 57 59 58 60 60 61 62 62 59 63 7 64 8 65
REMARK SMILES IDX 9 66 10 68 11 69 12 70 31 71 13 72 30 73 14 74 29 75 15 76
REMARK SMILES IDX 27 77 16 79 17 80 28 81 18 82 19 83 20 84 21 85 22 86 26 87
REMARK SMILES IDX 23 89 25 90 24 91
REMARK H PARENT 3 7 79 25 53 36 8 67 29 78 21 88
REMARK Flexibility Score: inf
ROOT
ATOM      1  C   UNL A   1      36.605  20.878  24.522  1.00  0.00     0.023 C 
ENDROOT
BRANCH   1   2
ATOM      2  C   UNL A   1      37.630  19.789  24.833  1.00  0.00     0.023 C 
BRANCH   2   3
ATOM      3  C   UNL A   1      38.702  20.190  25.838  1.00  0.00     0.116 C 
BRANCH   3   4
ATOM      4  N   UNL A   1      39.812  19.255  25.866  1.00  0.00    -0.352 N 
ATOM      5  O   UNL A   1      41.960  18.589  25.902  1.00  0.00    -0.269 OA
ATOM      6  C   UNL A   1      41.144  19.485  26.102  1.00  0.00     0.251 C 
ATOM      7  H   UNL A   1      39.574  18.316  25.690  1.00  0.00     0.163 HD
BRANCH   6   8
ATOM      8  C   UNL A   1      41.603  20.804  26.588  1.00  0.00     0.039 A 
ATOM      9  C   UNL A   1      41.674  21.028  27.965  1.00  0.00     0.014 A 
ATOM     10  C   UNL A   1      41.914  21.838  25.699  1.00  0.00     0.014 A 
ATOM     11  C   UNL A   1      42.061  22.280  28.446  1.00  0.00     0.010 A 
ATOM     12  C   UNL A   1      42.402  23.049  26.178  1.00  0.00     0.010 A 
ATOM     13  C   UNL A   1      42.430  23.301  27.557  1.00  0.00    -0.014 A 
BRANCH  13  14
ATOM     14  C   UNL A   1      42.715  24.674  28.047  1.00  0.00     0.031 A 
ATOM     15  C   UNL A   1      44.147  25.091  28.277  1.00  0.00     0.074 A 
ATOM     16  C   UNL A   1      41.714  25.543  28.276  1.00  0.00     0.049 A 
ATOM     17  N   UNL A   1      44.619  26.226  28.731  1.00  0.00    -0.248 NA
ATOM     18  C   UNL A   1      45.186  24.090  27.983  1.00  0.00     0.031 C 
ATOM     19  C   UNL A   1      40.286  25.260  28.115  1.00  0.00     0.029 A 
ATOM     20  N   UNL A   1      41.747  26.851  28.692  1.00  0.00    -0.354 N 
ATOM     21  C   UNL A   1      46.000  26.067  28.776  1.00  0.00     0.074 A 
ATOM     22  C   UNL A   1      46.284  24.704  28.389  1.00  0.00     0.031 C 
ATOM     23  C   UNL A   1      39.584  26.370  28.399  1.00  0.00     0.029 A 
ATOM     24  C   UNL A   1      40.506  27.429  28.796  1.00  0.00     0.049 A 
ATOM     25  H   UNL A   1      42.584  27.329  28.897  1.00  0.00     0.167 HD
ATOM     26  C   UNL A   1      46.954  26.982  29.067  1.00  0.00     0.037 A 
ATOM     27  C   UNL A   1      40.157  28.674  29.174  1.00  0.00     0.037 A 
ATOM     28  C   UNL A   1      46.679  28.345  29.433  1.00  0.00     0.049 A 
ATOM     29  C   UNL A   1      41.237  29.659  29.538  1.00  0.00     0.074 A 
ATOM     30  C   UNL A   1      47.573  29.355  29.741  1.00  0.00     0.029 A 
ATOM     31  N   UNL A   1      45.408  28.888  29.535  1.00  0.00    -0.354 N 
ATOM     32  N   UNL A   1      42.539  29.506  29.538  1.00  0.00    -0.248 NA
ATOM     33  C   UNL A   1      40.794  31.000  29.947  1.00  0.00     0.031 C 
ATOM     34  C   UNL A   1      46.840  30.502  30.066  1.00  0.00     0.029 A 
ATOM     35  C   UNL A   1      45.493  30.219  29.909  1.00  0.00     0.049 A 
ATOM     36  H   UNL A   1      44.569  28.401  29.365  1.00  0.00     0.167 HD
ATOM     37  C   UNL A   1      43.068  30.736  29.911  1.00  0.00     0.074 A 
ATOM     38  C   UNL A   1      41.947  31.630  30.104  1.00  0.00     0.031 C 
ATOM     39  C   UNL A   1      44.364  31.096  30.083  1.00  0.00     0.037 A 
BRANCH  26  40
ATOM     40  C   UNL A   1      48.385  26.532  28.979  1.00  0.00     0.057 A 
ATOM     41  C   UNL A   1      49.035  25.976  30.088  1.00  0.00     0.134 A 
ATOM     42  C   UNL A   1      49.124  26.658  27.794  1.00  0.00     0.134 A 
ATOM     43  F   UNL A   1      48.389  25.830  31.254  1.00  0.00    -0.206 F 
ATOM     44  C   UNL A   1      50.366  25.561  30.020  1.00  0.00     0.040 A 
ATOM     45  C   UNL A   1      50.445  26.218  27.705  1.00  0.00     0.040 A 
ATOM     46  F   UNL A   1      48.556  27.166  26.689  1.00  0.00    -0.206 F 
ATOM     47  C   UNL A   1      51.072  25.674  28.824  1.00  0.00     0.006 A 
ENDBRANCH  26  40
BRANCH  27  48
ATOM     48  C   UNL A   1      38.728  29.079  29.229  1.00  0.00     0.057 A 
ATOM     49  C   UNL A   1      37.991  28.989  30.416  1.00  0.00     0.134 A 
ATOM     50  C   UNL A   1      38.087  29.637  28.115  1.00  0.00     0.134 A 
ATOM     51  F   UNL A   1      38.541  28.458  31.517  1.00  0.00    -0.206 F 
ATOM     52  C   UNL A   1      36.676  29.450  30.497  1.00  0.00     0.040 A 
ATOM     53  C   UNL A   1      36.783  30.131  28.191  1.00  0.00     0.040 A 
ATOM     54  F   UNL A   1      38.745  29.769  26.954  1.00  0.00    -0.206 F 
ATOM     55  C   UNL A   1      36.074  30.040  29.386  1.00  0.00     0.006 A 
ENDBRANCH  27  48
BRANCH  39  56
ATOM     56  C   UNL A   1      44.632  32.528  30.448  1.00  0.00     0.057 A 
ATOM     57  C   UNL A   1      44.748  33.506  29.452  1.00  0.00     0.134 A 
ATOM     58  C   UNL A   1      44.774  32.944  31.779  1.00  0.00     0.134 A 
ATOM     59  F   UNL A   1      44.636  33.176  28.155  1.00  0.00    -0.206 F 
ATOM     60  C   UNL A   1      44.988  34.844  29.765  1.00  0.00     0.040 A 
ATOM     61  C   UNL A   1      44.981  34.284  32.107  1.00  0.00     0.040 A 
ATOM     62  F   UNL A   1      44.662  32.060  32.782  1.00  0.00    -0.206 F 
ATOM     63  C   UNL A   1      45.092  35.238  31.097  1.00  0.00     0.006 A 
ENDBRANCH  39  56
ENDBRANCH  13  14
ENDBRANCH   6   8
ENDBRANCH   3   4
ENDBRANCH   2   3
ENDBRANCH   1   2
BRANCH   1  64
ATOM     64  C   UNL A   1      35.469  20.990  25.534  1.00  0.00     0.116 C 
BRANCH  64  65
ATOM     65  N   UNL A   1      34.456  19.967  25.325  1.00  0.00    -0.352 N 
ATOM     66  C   UNL A   1      33.150  20.130  24.947  1.00  0.00     0.251 C 
ATOM     67  H   UNL A   1      34.745  19.039  25.477  1.00  0.00     0.163 HD
ATOM     68  O   UNL A   1      32.349  19.203  24.983  1.00  0.00    -0.269 OA
BRANCH  66  69
ATOM     69  C   UNL A   1      32.716  21.457  24.493  1.00  0.00     0.041 A 
ATOM     70  C   UNL A   1      33.034  21.875  23.193  1.00  0.00     0.015 A 
ATOM     71  C   UNL A   1      32.040  22.290  25.389  1.00  0.00     0.040 A 
ATOM     72  C   UNL A   1      32.677  23.154  22.787  1.00  0.00     0.017 A 
ATOM     73  C   UNL A   1      31.730  23.583  24.985  1.00  0.00     0.056 A 
ATOM     74  C   UNL A   1      32.022  23.996  23.690  1.00  0.00     0.064 A 
ATOM     75  N   UNL A   1      31.174  24.492  25.881  1.00  0.00    -0.307 N 
ATOM     76  C   UNL A   1      31.635  25.351  23.291  1.00  0.00     0.264 A 
ATOM     77  C   UNL A   1      31.019  25.825  25.606  1.00  0.00     0.328 A 
ATOM     78  H   UNL A   1      30.878  24.160  26.758  1.00  0.00     0.171 HD
ATOM     79  O   UNL A   1      31.588  25.608  22.093  1.00  0.00    -0.268 OA
ATOM     80  N   UNL A   1      31.341  26.236  24.321  1.00  0.00    -0.260 N 
ATOM     81  O   UNL A   1      30.610  26.571  26.494  1.00  0.00    -0.248 OA
BRANCH  80  82
ATOM     82  C   UNL A   1      31.238  27.652  23.986  1.00  0.00     0.137 C 
BRANCH  82  83
ATOM     83  C   UNL A   1      29.851  28.036  23.442  1.00  0.00     0.083 C 
BRANCH  83  84
ATOM     84  C   UNL A   1      29.794  29.281  22.539  1.00  0.00     0.264 C 
BRANCH  84  85
ATOM     85  N   UNL A   1      28.474  29.634  22.004  1.00  0.00    -0.331 N 
ATOM     86  C   UNL A   1      28.538  30.809  21.109  1.00  0.00     0.291 C 
ATOM     87  C   UNL A   1      27.419  29.871  23.003  1.00  0.00     0.291 C 
ATOM     88  H   UNL A   1      28.209  28.793  21.491  1.00  0.00     0.348 HD
ATOM     89  C   UNL A   1      28.639  32.151  21.861  1.00  0.00     0.221 C 
ATOM     90  C   UNL A   1      27.591  31.197  23.750  1.00  0.00     0.221 C 
ATOM     91  O   UNL A   1      27.600  32.302  22.838  1.00  0.00    -0.370 OA
ENDBRANCH  84  85
ENDBRANCH  83  84
ENDBRANCH  82  83
ENDBRANCH  80  82
ENDBRANCH  66  69
ENDBRANCH  64  65
ENDBRANCH   1  64
TORSDOF 15
ENDMDL
MODEL 3
REMARK VINA RESULT:     -12.6      4.440     10.229
REMARK SMILES O=C(NCCCCNC(=O)c1ccc2c(=O)n(CCC[NH+]3CCOCC3)c(=O)[nH]c2c1)c1ccc(-c2c3nc(c(-c4c(F)cccc4F)c4ccc([nH]4)c(-c4c(F)cccc4F)c4nc(c(-c5c(F)cccc5F)c5ccc2[nH]5)C=C4)C=C3)cc1
REMARK SMILES IDX 6 1 5 2 4 3 3 4 1 5 2 6 32 8 33 9 85 10 34 11 84 12 35 13
REMARK SMILES IDX 36 14 37 15 78 16 38 17 83 18 77 19 79 20 39 21 82 22 76 23
REMARK SMILES IDX 75 24 40 26 66 27 49 28 65 29 50 30 53 31 64 32 80 33 51 34
REMARK SMILES IDX 52 35 63 37 81 38 54 39 41 40 42 41 47 42 43 43 44 44 46 45
REMARK SMILES IDX 48 46 45 47 67 48 68 49 73 50 69 51 70 52 72 53 74 54 71 55
REMARK SMILES IDX 55 56 56 57 61 58 57 59 58 60 60 61 62 62 59 63 7 64 8 65
REMARK SMILES IDX 9 66 10 68 11 69 12 70 31 71 13 72 30 73 14 74 29 75 15 76
REMARK SMILES IDX 27 77 16 79 17 80 28 81 18 82 19 83 20 84 21 85 22 86 26 87
REMARK SMILES IDX 23 89 25 90 24 91
REMARK H PARENT 3 7 79 25 53 36 8 67 29 78 21 88
REMARK Flexibility Score: inf
ROOT
ATOM      1  C   UNL A   1      31.987  30.513  27.003  1.00  0.00     0.023 C 
ENDROOT
BRANCH   1   2
ATOM      2  C   UNL A   1      31.540  31.961  27.197  1.00  0.00     0.023 C 
BRANCH   2   3
ATOM      3  C   UNL A   1      32.573  33.005  26.795  1.00  0.00     0.116 C 
BRANCH   3   4
ATOM      4  N   UNL A   1      32.487  34.209  27.603  1.00  0.00    -0.352 N 
ATOM      5  O   UNL A   1      32.866  35.552  29.366  1.00  0.00    -0.269 OA
ATOM      6  C   UNL A   1      33.211  34.573  28.709  1.00  0.00     0.251 C 
ATOM      7  H   UNL A   1      31.808  34.860  27.314  1.00  0.00     0.163 HD
BRANCH   6   8
ATOM      8  C   UNL A   1      34.398  33.792  29.121  1.00  0.00     0.039 A 
ATOM      9  C   UNL A   1      34.210  32.614  29.850  1.00  0.00     0.014 A 
ATOM     10  C   UNL A   1      35.694  34.236  28.842  1.00  0.00     0.014 A 
ATOM     11  C   UNL A   1      35.316  31.885  30.289  1.00  0.00     0.010 A 
ATOM     12  C   UNL A   1      36.791  33.454  29.186  1.00  0.00     0.010 A 
ATOM     13  C   UNL A   1      36.616  32.298  29.960  1.00  0.00    -0.014 A 
BRANCH  13  14
ATOM     14  C   UNL A   1      37.804  31.609  30.529  1.00  0.00     0.031 A 
ATOM     15  C   UNL A   1      38.225  31.918  31.945  1.00  0.00     0.074 A 
ATOM     16  C   UNL A   1      38.495  30.715  29.799  1.00  0.00     0.049 A 
ATOM     17  N   UNL A   1      39.245  31.460  32.627  1.00  0.00    -0.248 NA
ATOM     18  C   UNL A   1      37.404  32.892  32.685  1.00  0.00     0.031 C 
ATOM     19  C   UNL A   1      38.207  30.343  28.412  1.00  0.00     0.029 A 
ATOM     20  N   UNL A   1      39.586  29.949  30.128  1.00  0.00    -0.354 N 
ATOM     21  C   UNL A   1      39.184  32.091  33.865  1.00  0.00     0.074 A 
ATOM     22  C   UNL A   1      38.084  33.026  33.811  1.00  0.00     0.031 C 
ATOM     23  C   UNL A   1      39.080  29.399  28.022  1.00  0.00     0.029 A 
ATOM     24  C   UNL A   1      40.008  29.126  29.114  1.00  0.00     0.049 A 
ATOM     25  H   UNL A   1      40.023  29.988  31.010  1.00  0.00     0.167 HD
ATOM     26  C   UNL A   1      39.943  31.882  34.966  1.00  0.00     0.037 A 
ATOM     27  C   UNL A   1      41.033  28.253  29.074  1.00  0.00     0.037 A 
ATOM     28  C   UNL A   1      41.025  30.938  35.032  1.00  0.00     0.049 A 
ATOM     29  C   UNL A   1      41.891  28.074  30.300  1.00  0.00     0.074 A 
ATOM     30  C   UNL A   1      41.852  30.645  36.102  1.00  0.00     0.029 A 
ATOM     31  N   UNL A   1      41.427  30.130  33.980  1.00  0.00    -0.354 N 
ATOM     32  N   UNL A   1      41.797  28.650  31.474  1.00  0.00    -0.248 NA
ATOM     33  C   UNL A   1      42.997  27.112  30.193  1.00  0.00     0.031 C 
ATOM     34  C   UNL A   1      42.780  29.684  35.685  1.00  0.00     0.029 A 
ATOM     35  C   UNL A   1      42.495  29.342  34.373  1.00  0.00     0.049 A 
ATOM     36  H   UNL A   1      41.012  30.117  33.087  1.00  0.00     0.167 HD
ATOM     37  C   UNL A   1      42.805  28.095  32.253  1.00  0.00     0.074 A 
ATOM     38  C   UNL A   1      43.482  27.119  31.425  1.00  0.00     0.031 C 
ATOM     39  C   UNL A   1      43.147  28.367  33.536  1.00  0.00     0.037 A 
BRANCH  26  40
ATOM     40  C   UNL A   1      39.606  32.683  36.192  1.00  0.00     0.057 A 
ATOM     41  C   UNL A   1      40.294  33.865  36.493  1.00  0.00     0.134 A 
ATOM     42  C   UNL A   1      38.602  32.277  37.083  1.00  0.00     0.134 A 
ATOM     43  F   UNL A   1      41.269  34.310  35.686  1.00  0.00    -0.206 F 
ATOM     44  C   UNL A   1      39.994  34.614  37.632  1.00  0.00     0.040 A 
ATOM     45  C   UNL A   1      38.272  33.032  38.208  1.00  0.00     0.040 A 
ATOM     46  F   UNL A   1      37.892  31.163  36.844  1.00  0.00    -0.206 F 
ATOM     47  C   UNL A   1      38.975  34.202  38.489  1.00  0.00     0.006 A 
ENDBRANCH  26  40
BRANCH  27  48
ATOM     48  C   UNL A   1      41.318  27.470  27.843  1.00  0.00     0.057 A 
ATOM     49  C   UNL A   1      40.748  26.209  27.634  1.00  0.00     0.134 A 
ATOM     50  C   UNL A   1      42.108  27.997  26.813  1.00  0.00     0.134 A 
ATOM     51  F   UNL A   1      39.988  25.642  28.582  1.00  0.00    -0.206 F 
ATOM     52  C   UNL A   1      40.941  25.507  26.443  1.00  0.00     0.040 A 
ATOM     53  C   UNL A   1      42.284  27.321  25.604  1.00  0.00     0.040 A 
ATOM     54  F   UNL A   1      42.667  29.209  26.944  1.00  0.00    -0.206 F 
ATOM     55  C   UNL A   1      41.697  26.072  25.417  1.00  0.00     0.006 A 
ENDBRANCH  27  48
BRANCH  39  56
ATOM     56  C   UNL A   1      44.266  27.561  34.131  1.00  0.00     0.057 A 
ATOM     57  C   UNL A   1      45.584  28.034  34.089  1.00  0.00     0.134 A 
ATOM     58  C   UNL A   1      44.045  26.319  34.744  1.00  0.00     0.134 A 
ATOM     59  F   UNL A   1      45.869  29.209  33.506  1.00  0.00    -0.206 F 
ATOM     60  C   UNL A   1      46.639  27.307  34.642  1.00  0.00     0.040 A 
ATOM     61  C   UNL A   1      45.087  25.599  35.329  1.00  0.00     0.040 A 
ATOM     62  F   UNL A   1      42.805  25.815  34.828  1.00  0.00    -0.206 F 
ATOM     63  C   UNL A   1      46.389  26.093  35.276  1.00  0.00     0.006 A 
ENDBRANCH  39  56
ENDBRANCH  13  14
ENDBRANCH   6   8
ENDBRANCH   3   4
ENDBRANCH   2   3
ENDBRANCH   1   2
BRANCH   1  64
ATOM     64  C   UNL A   1      32.539  30.198  25.615  1.00  0.00     0.116 C 
BRANCH  64  65
ATOM     65  N   UNL A   1      31.475  29.994  24.644  1.00  0.00    -0.352 N 
ATOM     66  C   UNL A   1      31.160  28.852  23.958  1.00  0.00     0.251 C 
ATOM     67  H   UNL A   1      30.911  30.777  24.454  1.00  0.00     0.163 HD
ATOM     68  O   UNL A   1      30.358  28.859  23.032  1.00  0.00    -0.269 OA
BRANCH  66  69
ATOM     69  C   UNL A   1      31.814  27.598  24.352  1.00  0.00     0.041 A 
ATOM     70  C   UNL A   1      32.924  27.146  23.626  1.00  0.00     0.015 A 
ATOM     71  C   UNL A   1      31.278  26.861  25.412  1.00  0.00     0.040 A 
ATOM     72  C   UNL A   1      33.503  25.929  23.961  1.00  0.00     0.017 A 
ATOM     73  C   UNL A   1      31.837  25.624  25.707  1.00  0.00     0.056 A 
ATOM     74  C   UNL A   1      32.953  25.180  25.005  1.00  0.00     0.064 A 
ATOM     75  N   UNL A   1      31.261  24.794  26.665  1.00  0.00    -0.307 N 
ATOM     76  C   UNL A   1      33.540  23.891  25.379  1.00  0.00     0.264 A 
ATOM     77  C   UNL A   1      31.647  23.496  26.870  1.00  0.00     0.328 A 
ATOM     78  H   UNL A   1      30.539  25.159  27.223  1.00  0.00     0.171 HD
ATOM     79  O   UNL A   1      34.682  23.649  25.007  1.00  0.00    -0.268 OA
ATOM     80  N   UNL A   1      32.742  23.050  26.144  1.00  0.00    -0.260 N 
ATOM     81  O   UNL A   1      31.015  22.808  27.670  1.00  0.00    -0.248 OA
BRANCH  80  82
ATOM     82  C   UNL A   1      33.168  21.663  26.290  1.00  0.00     0.137 C 
BRANCH  82  83
ATOM     83  C   UNL A   1      32.670  20.764  25.146  1.00  0.00     0.083 C 
BRANCH  83  84
ATOM     84  C   UNL A   1      33.366  19.398  24.999  1.00  0.00     0.264 C 
BRANCH  84  85
ATOM     85  N   UNL A   1      32.517  18.279  24.578  1.00  0.00    -0.331 N 
ATOM     86  C   UNL A   1      32.547  17.166  25.553  1.00  0.00     0.291 C 
ATOM     87  C   UNL A   1      32.796  17.730  23.242  1.00  0.00     0.291 C 
ATOM     88  H   UNL A   1      31.591  18.705  24.533  1.00  0.00     0.348 HD
ATOM     89  C   UNL A   1      33.816  16.296  25.454  1.00  0.00     0.221 C 
ATOM     90  C   UNL A   1      34.088  16.910  23.189  1.00  0.00     0.221 C 
ATOM     91  O   UNL A   1      34.043  15.821  24.120  1.00  0.00    -0.370 OA
ENDBRANCH  84  85
ENDBRANCH  83  84
ENDBRANCH  82  83
ENDBRANCH  80  82
ENDBRANCH  66  69
ENDBRANCH  64  65
ENDBRANCH   1  64
TORSDOF 15
ENDMDL
