MODEL 1
REMARK VINA RESULT:     -13.0      0.000      0.000
REMARK SMILES O=C(NCCCCNC(=O)[C@@H]1[C@H](C(=O)Nc2ccc(Cn3cncn3)cc2)[C@@H]2C=C[C@H]1CC2)c1ccc(-c2c3nc(c(-c4c(F)cccc4F)c4ccc([nH]4)c(-c4c(F)cccc4F)c4nc(c(-c5c(F)cccc5F)c5ccc2[nH]5)C=C4)C=C3)cc1
REMARK SMILES IDX 6 1 5 2 4 3 3 4 1 5 2 6 34 8 35 9 87 10 36 11 86 12 37 13
REMARK SMILES IDX 38 14 39 15 80 16 40 17 85 18 79 19 81 20 41 21 84 22 78 23
REMARK SMILES IDX 77 24 42 26 68 27 51 28 67 29 52 30 55 31 66 32 82 33 53 34
REMARK SMILES IDX 54 35 65 37 83 38 56 39 43 40 44 41 49 42 45 43 46 44 48 45
REMARK SMILES IDX 50 46 47 47 69 48 70 49 75 50 71 51 72 52 74 53 76 54 73 55
REMARK SMILES IDX 57 56 58 57 63 58 59 59 60 60 62 61 64 62 61 63 7 64 8 65
REMARK SMILES IDX 9 66 10 68 11 69 12 70 31 71 28 72 30 73 32 74 29 75 33 76
REMARK SMILES IDX 13 77 14 78 15 79 16 81 17 82 27 83 18 84 26 85 19 86 20 87
REMARK SMILES IDX 21 88 22 89 25 90 23 91 24 92
REMARK H PARENT 3 7 81 25 55 36 8 67 15 80
REMARK Flexibility Score: inf
ROOT
ATOM      1  C   UNL A   1      32.252  27.856  26.784  1.00  0.00     0.023 C 
ENDROOT
BRANCH   1   2
ATOM      2  C   UNL A   1      33.049  29.157  26.705  1.00  0.00     0.023 C 
BRANCH   2   3
ATOM      3  C   UNL A   1      34.482  29.080  27.226  1.00  0.00     0.116 C 
BRANCH   3   4
ATOM      4  N   UNL A   1      34.778  29.950  28.345  1.00  0.00    -0.352 N 
ATOM      5  O   UNL A   1      35.774  31.161  29.899  1.00  0.00    -0.269 OA
ATOM      6  C   UNL A   1      35.910  30.303  29.034  1.00  0.00     0.251 C 
ATOM      7  H   UNL A   1      33.973  30.397  28.695  1.00  0.00     0.163 HD
BRANCH   6   8
ATOM      8  C   UNL A   1      37.257  29.698  28.831  1.00  0.00     0.039 A 
ATOM      9  C   UNL A   1      38.073  29.886  27.718  1.00  0.00     0.014 A 
ATOM     10  C   UNL A   1      37.738  28.896  29.886  1.00  0.00     0.014 A 
ATOM     11  C   UNL A   1      39.309  29.249  27.627  1.00  0.00     0.010 A 
ATOM     12  C   UNL A   1      38.986  28.282  29.814  1.00  0.00     0.010 A 
ATOM     13  C   UNL A   1      39.770  28.448  28.674  1.00  0.00    -0.014 A 
BRANCH  13  14
ATOM     14  C   UNL A   1      41.156  27.975  28.617  1.00  0.00     0.031 A 
ATOM     15  C   UNL A   1      41.357  26.660  27.934  1.00  0.00     0.074 A 
ATOM     16  C   UNL A   1      42.230  28.719  28.950  1.00  0.00     0.049 A 
ATOM     17  N   UNL A   1      41.978  25.610  28.370  1.00  0.00    -0.248 NA
ATOM     18  C   UNL A   1      40.747  26.488  26.605  1.00  0.00     0.031 C 
ATOM     19  C   UNL A   1      42.246  30.134  29.318  1.00  0.00     0.029 A 
ATOM     20  N   UNL A   1      43.557  28.386  28.907  1.00  0.00    -0.354 N 
ATOM     21  C   UNL A   1      41.998  24.710  27.303  1.00  0.00     0.074 A 
ATOM     22  C   UNL A   1      41.132  25.252  26.290  1.00  0.00     0.031 C 
ATOM     23  C   UNL A   1      43.516  30.590  29.256  1.00  0.00     0.029 A 
ATOM     24  C   UNL A   1      44.409  29.481  28.952  1.00  0.00     0.049 A 
ATOM     25  H   UNL A   1      43.879  27.458  28.848  1.00  0.00     0.167 HD
ATOM     26  C   UNL A   1      42.899  23.692  27.236  1.00  0.00     0.037 A 
ATOM     27  C   UNL A   1      45.738  29.500  28.692  1.00  0.00     0.037 A 
ATOM     28  C   UNL A   1      43.429  23.351  28.528  1.00  0.00     0.049 A 
ATOM     29  C   UNL A   1      46.258  28.118  28.784  1.00  0.00     0.074 A 
ATOM     30  C   UNL A   1      42.898  22.955  29.740  1.00  0.00     0.029 A 
ATOM     31  N   UNL A   1      44.742  23.651  28.788  1.00  0.00    -0.354 N 
ATOM     32  N   UNL A   1      46.421  27.454  29.891  1.00  0.00    -0.248 NA
ATOM     33  C   UNL A   1      46.335  27.325  27.566  1.00  0.00     0.031 C 
ATOM     34  C   UNL A   1      43.779  23.483  30.729  1.00  0.00     0.029 A 
ATOM     35  C   UNL A   1      44.797  24.157  30.058  1.00  0.00     0.049 A 
ATOM     36  H   UNL A   1      45.502  23.526  28.175  1.00  0.00     0.167 HD
ATOM     37  C   UNL A   1      46.191  26.133  29.544  1.00  0.00     0.074 A 
ATOM     38  C   UNL A   1      46.298  26.100  28.092  1.00  0.00     0.031 C 
ATOM     39  C   UNL A   1      45.647  25.258  30.439  1.00  0.00     0.037 A 
BRANCH  26  40
ATOM     40  C   UNL A   1      43.584  23.269  25.953  1.00  0.00     0.057 A 
ATOM     41  C   UNL A   1      43.655  21.900  25.629  1.00  0.00     0.134 A 
ATOM     42  C   UNL A   1      44.447  24.102  25.212  1.00  0.00     0.134 A 
ATOM     43  F   UNL A   1      42.893  21.001  26.270  1.00  0.00    -0.206 F 
ATOM     44  C   UNL A   1      44.581  21.391  24.710  1.00  0.00     0.040 A 
ATOM     45  C   UNL A   1      45.338  23.610  24.253  1.00  0.00     0.040 A 
ATOM     46  F   UNL A   1      44.549  25.416  25.442  1.00  0.00    -0.206 F 
ATOM     47  C   UNL A   1      45.436  22.246  24.027  1.00  0.00     0.006 A 
ENDBRANCH  26  40
BRANCH  27  48
ATOM     48  C   UNL A   1      46.577  30.610  28.182  1.00  0.00     0.057 A 
ATOM     49  C   UNL A   1      46.360  31.160  26.909  1.00  0.00     0.134 A 
ATOM     50  C   UNL A   1      47.449  31.326  29.021  1.00  0.00     0.134 A 
ATOM     51  F   UNL A   1      45.512  30.580  26.049  1.00  0.00    -0.206 F 
ATOM     52  C   UNL A   1      46.963  32.356  26.502  1.00  0.00     0.040 A 
ATOM     53  C   UNL A   1      48.070  32.514  28.619  1.00  0.00     0.040 A 
ATOM     54  F   UNL A   1      47.662  30.947  30.288  1.00  0.00    -0.206 F 
ATOM     55  C   UNL A   1      47.817  33.040  27.360  1.00  0.00     0.006 A 
ENDBRANCH  27  48
BRANCH  39  56
ATOM     56  C   UNL A   1      45.683  25.625  31.892  1.00  0.00     0.057 A 
ATOM     57  C   UNL A   1      46.782  25.404  32.735  1.00  0.00     0.134 A 
ATOM     58  C   UNL A   1      44.601  26.331  32.430  1.00  0.00     0.134 A 
ATOM     59  F   UNL A   1      47.907  24.836  32.277  1.00  0.00    -0.206 F 
ATOM     60  C   UNL A   1      46.773  25.811  34.071  1.00  0.00     0.040 A 
ATOM     61  C   UNL A   1      44.595  26.777  33.753  1.00  0.00     0.040 A 
ATOM     62  F   UNL A   1      43.540  26.632  31.663  1.00  0.00    -0.206 F 
ATOM     63  C   UNL A   1      45.678  26.503  34.583  1.00  0.00     0.006 A 
ENDBRANCH  39  56
ENDBRANCH  13  14
ENDBRANCH   6   8
ENDBRANCH   3   4
ENDBRANCH   2   3
ENDBRANCH   1   2
BRANCH   1  64
ATOM     64  C   UNL A   1      32.881  26.636  26.123  1.00  0.00     0.116 C 
BRANCH  64  65
ATOM     65  N   UNL A   1      32.210  25.379  26.420  1.00  0.00    -0.356 N 
ATOM     66  C   UNL A   1      32.748  24.122  26.471  1.00  0.00     0.224 C 
ATOM     67  H   UNL A   1      31.247  25.441  26.609  1.00  0.00     0.163 HD
ATOM     68  O   UNL A   1      32.240  23.315  27.251  1.00  0.00    -0.275 OA
BRANCH  66  69
ATOM     69  C   UNL A   1      33.995  23.803  25.669  1.00  0.00     0.098 C 
ATOM     70  C   UNL A   1      33.834  23.277  24.221  1.00  0.00     0.098 C 
ATOM     71  C   UNL A   1      35.073  22.941  26.411  1.00  0.00     0.025 C 
ATOM     72  C   UNL A   1      35.033  22.347  23.875  1.00  0.00     0.025 C 
ATOM     73  C   UNL A   1      34.955  21.462  26.094  1.00  0.00    -0.027 C 
ATOM     74  C   UNL A   1      36.435  23.326  25.774  1.00  0.00     0.009 C 
ATOM     75  C   UNL A   1      34.981  21.153  24.787  1.00  0.00    -0.027 C 
ATOM     76  C   UNL A   1      36.354  23.094  24.238  1.00  0.00     0.009 C 
BRANCH  70  77
ATOM     77  C   UNL A   1      32.494  22.789  23.637  1.00  0.00     0.228 C 
ATOM     78  O   UNL A   1      32.148  21.627  23.916  1.00  0.00    -0.274 OA
ATOM     79  N   UNL A   1      31.583  23.478  22.891  1.00  0.00    -0.326 N 
ATOM     80  H   UNL A   1      31.072  22.949  22.238  1.00  0.00     0.169 HD
BRANCH  79  81
ATOM     81  C   UNL A   1      31.287  24.843  22.940  1.00  0.00     0.041 A 
ATOM     82  C   UNL A   1      30.153  25.264  23.635  1.00  0.00     0.026 A 
ATOM     83  C   UNL A   1      32.035  25.773  22.232  1.00  0.00     0.026 A 
ATOM     84  C   UNL A   1      29.916  26.629  23.816  1.00  0.00     0.008 A 
ATOM     85  C   UNL A   1      31.814  27.138  22.418  1.00  0.00     0.008 A 
ATOM     86  C   UNL A   1      30.796  27.576  23.273  1.00  0.00    -0.026 A 
BRANCH  86  87
ATOM     87  C   UNL A   1      30.695  29.031  23.648  1.00  0.00     0.181 C 
BRANCH  87  88
ATOM     88  N   UNL A   1      29.615  29.704  22.963  1.00  0.00    -0.249 N 
ATOM     89  C   UNL A   1      28.718  30.579  23.492  1.00  0.00     0.220 A 
ATOM     90  N   UNL A   1      29.470  29.612  21.626  1.00  0.00    -0.160 NA
ATOM     91  N   UNL A   1      27.958  31.060  22.536  1.00  0.00    -0.224 NA
ATOM     92  C   UNL A   1      28.445  30.442  21.419  1.00  0.00     0.246 A 
ENDBRANCH  87  88
ENDBRANCH  86  87
ENDBRANCH  79  81
ENDBRANCH  70  77
ENDBRANCH  66  69
ENDBRANCH  64  65
ENDBRANCH   1  64
TORSDOF 15
ENDMDL
MODEL 2
REMARK VINA RESULT:     -13.0      1.746      5.919
REMARK SMILES O=C(NCCCCNC(=O)[C@@H]1[C@H](C(=O)Nc2ccc(Cn3cncn3)cc2)[C@@H]2C=C[C@H]1CC2)c1ccc(-c2c3nc(c(-c4c(F)cccc4F)c4ccc([nH]4)c(-c4c(F)cccc4F)c4nc(c(-c5c(F)cccc5F)c5ccc2[nH]5)C=C4)C=C3)cc1
REMARK SMILES IDX 6 1 5 2 4 3 3 4 1 5 2 6 34 8 35 9 87 10 36 11 86 12 37 13
REMARK SMILES IDX 38 14 39 15 80 16 40 17 85 18 79 19 81 20 41 21 84 22 78 23
REMARK SMILES IDX 77 24 42 26 68 27 51 28 67 29 52 30 55 31 66 32 82 33 53 34
REMARK SMILES IDX 54 35 65 37 83 38 56 39 43 40 44 41 49 42 45 43 46 44 48 45
REMARK SMILES IDX 50 46 47 47 69 48 70 49 75 50 71 51 72 52 74 53 76 54 73 55
REMARK SMILES IDX 57 56 58 57 63 58 59 59 60 60 62 61 64 62 61 63 7 64 8 65
REMARK SMILES IDX 9 66 10 68 11 69 12 70 31 71 28 72 30 73 32 74 29 75 33 76
REMARK SMILES IDX 13 77 14 78 15 79 16 81 17 82 27 83 18 84 26 85 19 86 20 87
REMARK SMILES IDX 21 88 22 89 25 90 23 91 24 92
REMARK H PARENT 3 7 81 25 55 36 8 67 15 80
REMARK Flexibility Score: inf
ROOT
ATOM      1  C   UNL A   1      32.727  28.041  26.552  1.00  0.00     0.023 C 
ENDROOT
BRANCH   1   2
ATOM      2  C   UNL A   1      33.554  29.326  26.577  1.00  0.00     0.023 C 
BRANCH   2   3
ATOM      3  C   UNL A   1      34.917  29.213  27.255  1.00  0.00     0.116 C 
BRANCH   3   4
ATOM      4  N   UNL A   1      35.223  30.267  28.201  1.00  0.00    -0.352 N 
ATOM      5  O   UNL A   1      36.222  31.652  29.598  1.00  0.00    -0.269 OA
ATOM      6  C   UNL A   1      36.312  30.611  28.960  1.00  0.00     0.251 C 
ATOM      7  H   UNL A   1      34.468  30.885  28.329  1.00  0.00     0.163 HD
BRANCH   6   8
ATOM      8  C   UNL A   1      37.557  29.799  29.085  1.00  0.00     0.039 A 
ATOM      9  C   UNL A   1      37.784  28.802  30.031  1.00  0.00     0.014 A 
ATOM     10  C   UNL A   1      38.561  30.060  28.132  1.00  0.00     0.014 A 
ATOM     11  C   UNL A   1      39.000  28.121  30.067  1.00  0.00     0.010 A 
ATOM     12  C   UNL A   1      39.766  29.361  28.143  1.00  0.00     0.010 A 
ATOM     13  C   UNL A   1      39.992  28.396  29.123  1.00  0.00    -0.014 A 
BRANCH  13  14
ATOM     14  C   UNL A   1      41.160  27.511  29.078  1.00  0.00     0.031 A 
ATOM     15  C   UNL A   1      42.060  27.576  30.270  1.00  0.00     0.074 A 
ATOM     16  C   UNL A   1      41.348  26.544  28.159  1.00  0.00     0.049 A 
ATOM     17  N   UNL A   1      43.341  27.760  30.306  1.00  0.00    -0.248 NA
ATOM     18  C   UNL A   1      41.433  27.459  31.598  1.00  0.00     0.031 C 
ATOM     19  C   UNL A   1      40.412  26.116  27.119  1.00  0.00     0.029 A 
ATOM     20  N   UNL A   1      42.380  25.651  28.043  1.00  0.00    -0.354 N 
ATOM     21  C   UNL A   1      43.712  27.598  31.642  1.00  0.00     0.074 A 
ATOM     22  C   UNL A   1      42.492  27.531  32.403  1.00  0.00     0.031 C 
ATOM     23  C   UNL A   1      40.817  24.926  26.625  1.00  0.00     0.029 A 
ATOM     24  C   UNL A   1      42.089  24.564  27.232  1.00  0.00     0.049 A 
ATOM     25  H   UNL A   1      43.247  25.769  28.495  1.00  0.00     0.167 HD
ATOM     26  C   UNL A   1      44.991  27.308  32.005  1.00  0.00     0.037 A 
ATOM     27  C   UNL A   1      42.797  23.415  27.112  1.00  0.00     0.037 A 
ATOM     28  C   UNL A   1      45.941  27.683  30.994  1.00  0.00     0.049 A 
ATOM     29  C   UNL A   1      44.165  23.647  27.626  1.00  0.00     0.074 A 
ATOM     30  C   UNL A   1      46.271  28.851  30.335  1.00  0.00     0.029 A 
ATOM     31  N   UNL A   1      46.581  26.685  30.306  1.00  0.00    -0.354 N 
ATOM     32  N   UNL A   1      45.081  24.346  27.023  1.00  0.00    -0.248 NA
ATOM     33  C   UNL A   1      44.446  23.322  29.017  1.00  0.00     0.031 C 
ATOM     34  C   UNL A   1      46.696  28.445  29.035  1.00  0.00     0.029 A 
ATOM     35  C   UNL A   1      46.609  27.054  28.989  1.00  0.00     0.049 A 
ATOM     36  H   UNL A   1      46.951  25.857  30.689  1.00  0.00     0.167 HD
ATOM     37  C   UNL A   1      45.825  24.907  28.047  1.00  0.00     0.074 A 
ATOM     38  C   UNL A   1      45.490  24.126  29.229  1.00  0.00     0.031 C 
ATOM     39  C   UNL A   1      46.411  26.131  27.900  1.00  0.00     0.037 A 
BRANCH  26  40
ATOM     40  C   UNL A   1      45.342  26.333  33.110  1.00  0.00     0.057 A 
ATOM     41  C   UNL A   1      46.319  26.691  34.061  1.00  0.00     0.134 A 
ATOM     42  C   UNL A   1      45.013  24.962  33.082  1.00  0.00     0.134 A 
ATOM     43  F   UNL A   1      46.728  27.963  34.180  1.00  0.00    -0.206 F 
ATOM     44  C   UNL A   1      46.983  25.744  34.850  1.00  0.00     0.040 A 
ATOM     45  C   UNL A   1      45.632  24.016  33.905  1.00  0.00     0.040 A 
ATOM     46  F   UNL A   1      44.153  24.449  32.195  1.00  0.00    -0.206 F 
ATOM     47  C   UNL A   1      46.649  24.400  34.765  1.00  0.00     0.006 A 
ENDBRANCH  26  40
BRANCH  27  48
ATOM     48  C   UNL A   1      42.326  22.057  26.752  1.00  0.00     0.057 A 
ATOM     49  C   UNL A   1      43.057  21.242  25.875  1.00  0.00     0.134 A 
ATOM     50  C   UNL A   1      41.280  21.427  27.448  1.00  0.00     0.134 A 
ATOM     51  F   UNL A   1      44.104  21.734  25.196  1.00  0.00    -0.206 F 
ATOM     52  C   UNL A   1      42.774  19.881  25.711  1.00  0.00     0.040 A 
ATOM     53  C   UNL A   1      40.976  20.072  27.281  1.00  0.00     0.040 A 
ATOM     54  F   UNL A   1      40.570  22.081  28.378  1.00  0.00    -0.206 F 
ATOM     55  C   UNL A   1      41.734  19.290  26.420  1.00  0.00     0.006 A 
ENDBRANCH  27  48
BRANCH  39  56
ATOM     56  C   UNL A   1      46.584  26.664  26.509  1.00  0.00     0.057 A 
ATOM     57  C   UNL A   1      45.609  27.399  25.819  1.00  0.00     0.134 A 
ATOM     58  C   UNL A   1      47.830  26.519  25.888  1.00  0.00     0.134 A 
ATOM     59  F   UNL A   1      44.425  27.684  26.381  1.00  0.00    -0.206 F 
ATOM     60  C   UNL A   1      45.845  27.910  24.540  1.00  0.00     0.040 A 
ATOM     61  C   UNL A   1      48.092  27.058  24.627  1.00  0.00     0.040 A 
ATOM     62  F   UNL A   1      48.830  25.879  26.515  1.00  0.00    -0.206 F 
ATOM     63  C   UNL A   1      47.091  27.743  23.942  1.00  0.00     0.006 A 
ENDBRANCH  39  56
ENDBRANCH  13  14
ENDBRANCH   6   8
ENDBRANCH   3   4
ENDBRANCH   2   3
ENDBRANCH   1   2
BRANCH   1  64
ATOM     64  C   UNL A   1      33.414  26.805  25.986  1.00  0.00     0.116 C 
BRANCH  64  65
ATOM     65  N   UNL A   1      32.660  25.571  26.148  1.00  0.00    -0.356 N 
ATOM     66  C   UNL A   1      33.127  24.285  26.148  1.00  0.00     0.224 C 
ATOM     67  H   UNL A   1      31.689  25.675  26.273  1.00  0.00     0.163 HD
ATOM     68  O   UNL A   1      32.522  23.459  26.833  1.00  0.00    -0.275 OA
BRANCH  66  69
ATOM     69  C   UNL A   1      34.411  23.949  25.416  1.00  0.00     0.098 C 
ATOM     70  C   UNL A   1      34.319  23.271  24.026  1.00  0.00     0.098 C 
ATOM     71  C   UNL A   1      35.505  23.224  26.270  1.00  0.00     0.025 C 
ATOM     72  C   UNL A   1      35.572  22.373  23.808  1.00  0.00     0.025 C 
ATOM     73  C   UNL A   1      35.469  21.716  26.104  1.00  0.00    -0.027 C 
ATOM     74  C   UNL A   1      36.867  23.610  25.630  1.00  0.00     0.009 C 
ATOM     75  C   UNL A   1      35.548  21.277  24.838  1.00  0.00    -0.027 C 
ATOM     76  C   UNL A   1      36.843  23.218  24.125  1.00  0.00     0.009 C 
BRANCH  70  77
ATOM     77  C   UNL A   1      33.022  22.658  23.462  1.00  0.00     0.228 C 
ATOM     78  O   UNL A   1      32.796  21.467  23.738  1.00  0.00    -0.274 OA
ATOM     79  N   UNL A   1      32.035  23.260  22.738  1.00  0.00    -0.326 N 
ATOM     80  H   UNL A   1      31.566  22.688  22.090  1.00  0.00     0.169 HD
BRANCH  79  81
ATOM     81  C   UNL A   1      31.608  24.589  22.804  1.00  0.00     0.041 A 
ATOM     82  C   UNL A   1      30.435  24.889  23.495  1.00  0.00     0.026 A 
ATOM     83  C   UNL A   1      32.269  25.597  22.116  1.00  0.00     0.026 A 
ATOM     84  C   UNL A   1      30.066  26.222  23.692  1.00  0.00     0.008 A 
ATOM     85  C   UNL A   1      31.916  26.932  22.319  1.00  0.00     0.008 A 
ATOM     86  C   UNL A   1      30.855  27.257  23.171  1.00  0.00    -0.026 A 
BRANCH  86  87
ATOM     87  C   UNL A   1      30.612  28.691  23.565  1.00  0.00     0.181 C 
BRANCH  87  88
ATOM     88  N   UNL A   1      29.575  29.313  22.773  1.00  0.00    -0.249 N 
ATOM     89  C   UNL A   1      28.258  29.445  23.089  1.00  0.00     0.220 A 
ATOM     90  N   UNL A   1      29.866  29.969  21.632  1.00  0.00    -0.160 NA
ATOM     91  N   UNL A   1      27.657  30.161  22.169  1.00  0.00    -0.224 NA
ATOM     92  C   UNL A   1      28.668  30.455  21.299  1.00  0.00     0.246 A 
ENDBRANCH  87  88
ENDBRANCH  86  87
ENDBRANCH  79  81
ENDBRANCH  70  77
ENDBRANCH  66  69
ENDBRANCH  64  65
ENDBRANCH   1  64
TORSDOF 15
ENDMDL
MODEL 3
REMARK VINA RESULT:     -12.9      1.876      5.749
REMARK SMILES O=C(NCCCCNC(=O)[C@@H]1[C@H](C(=O)Nc2ccc(Cn3cncn3)cc2)[C@@H]2C=C[C@H]1CC2)c1ccc(-c2c3nc(c(-c4c(F)cccc4F)c4ccc([nH]4)c(-c4c(F)cccc4F)c4nc(c(-c5c(F)cccc5F)c5ccc2[nH]5)C=C4)C=C3)cc1
REMARK SMILES IDX 6 1 5 2 4 3 3 4 1 5 2 6 34 8 35 9 87 10 36 11 86 12 37 13
REMARK SMILES IDX 38 14 39 15 80 16 40 17 85 18 79 19 81 20 41 21 84 22 78 23
REMARK SMILES IDX 77 24 42 26 68 27 51 28 67 29 52 30 55 31 66 32 82 33 53 34
REMARK SMILES IDX 54 35 65 37 83 38 56 39 43 40 44 41 49 42 45 43 46 44 48 45
REMARK SMILES IDX 50 46 47 47 69 48 70 49 75 50 71 51 72 52 74 53 76 54 73 55
REMARK SMILES IDX 57 56 58 57 63 58 59 59 60 60 62 61 64 62 61 63 7 64 8 65
REMARK SMILES IDX 9 66 10 68 11 69 12 70 31 71 28 72 30 73 32 74 29 75 33 76
REMARK SMILES IDX 13 77 14 78 15 79 16 81 17 82 27 83 18 84 26 85 19 86 20 87
REMARK SMILES IDX 21 88 22 89 25 90 23 91 24 92
REMARK H PARENT 3 7 81 25 55 36 8 67 15 80
REMARK Flexibility Score: inf
ROOT
ATOM      1  C   UNL A   1      31.496  27.729  27.291  1.00  0.00     0.023 C 
ENDROOT
BRANCH   1   2
ATOM      2  C   UNL A   1      31.791  29.165  26.862  1.00  0.00     0.023 C 
BRANCH   2   3
ATOM      3  C   UNL A   1      33.262  29.571  26.903  1.00  0.00     0.116 C 
BRANCH   3   4
ATOM      4  N   UNL A   1      33.514  30.930  27.336  1.00  0.00    -0.352 N 
ATOM      5  O   UNL A   1      34.441  32.809  28.028  1.00  0.00    -0.269 OA
ATOM      6  C   UNL A   1      34.587  31.605  27.858  1.00  0.00     0.251 C 
ATOM      7  H   UNL A   1      32.724  31.509  27.228  1.00  0.00     0.163 HD
BRANCH   6   8
ATOM      8  C   UNL A   1      35.878  30.976  28.260  1.00  0.00     0.039 A 
ATOM      9  C   UNL A   1      36.180  29.618  28.178  1.00  0.00     0.014 A 
ATOM     10  C   UNL A   1      36.873  31.855  28.729  1.00  0.00     0.014 A 
ATOM     11  C   UNL A   1      37.417  29.138  28.606  1.00  0.00     0.010 A 
ATOM     12  C   UNL A   1      38.122  31.386  29.128  1.00  0.00     0.010 A 
ATOM     13  C   UNL A   1      38.391  30.020  29.079  1.00  0.00    -0.014 A 
BRANCH  13  14
ATOM     14  C   UNL A   1      39.738  29.491  29.316  1.00  0.00     0.031 A 
ATOM     15  C   UNL A   1      40.175  29.468  30.745  1.00  0.00     0.074 A 
ATOM     16  C   UNL A   1      40.487  28.868  28.385  1.00  0.00     0.049 A 
ATOM     17  N   UNL A   1      41.261  29.945  31.266  1.00  0.00    -0.248 NA
ATOM     18  C   UNL A   1      39.255  28.866  31.725  1.00  0.00     0.031 C 
ATOM     19  C   UNL A   1      40.087  28.503  27.026  1.00  0.00     0.029 A 
ATOM     20  N   UNL A   1      41.734  28.316  28.507  1.00  0.00    -0.354 N 
ATOM     21  C   UNL A   1      41.250  29.544  32.603  1.00  0.00     0.074 A 
ATOM     22  C   UNL A   1      39.948  28.988  32.856  1.00  0.00     0.031 C 
ATOM     23  C   UNL A   1      40.976  27.616  26.528  1.00  0.00     0.029 A 
ATOM     24  C   UNL A   1      42.057  27.435  27.485  1.00  0.00     0.049 A 
ATOM     25  H   UNL A   1      42.344  28.523  29.251  1.00  0.00     0.167 HD
ATOM     26  C   UNL A   1      42.387  29.494  33.349  1.00  0.00     0.037 A 
ATOM     27  C   UNL A   1      43.096  26.565  27.447  1.00  0.00     0.037 A 
ATOM     28  C   UNL A   1      43.423  30.337  32.817  1.00  0.00     0.049 A 
ATOM     29  C   UNL A   1      44.102  26.987  28.446  1.00  0.00     0.074 A 
ATOM     30  C   UNL A   1      43.545  31.679  32.513  1.00  0.00     0.029 A 
ATOM     31  N   UNL A   1      44.520  29.737  32.256  1.00  0.00    -0.354 N 
ATOM     32  N   UNL A   1      44.884  28.020  28.329  1.00  0.00    -0.248 NA
ATOM     33  C   UNL A   1      44.047  26.397  29.776  1.00  0.00     0.031 C 
ATOM     34  C   UNL A   1      44.441  31.735  31.405  1.00  0.00     0.029 A 
ATOM     35  C   UNL A   1      44.818  30.425  31.112  1.00  0.00     0.049 A 
ATOM     36  H   UNL A   1      45.004  28.956  32.611  1.00  0.00     0.167 HD
ATOM     37  C   UNL A   1      45.072  28.465  29.626  1.00  0.00     0.074 A 
ATOM     38  C   UNL A   1      44.669  27.350  30.471  1.00  0.00     0.031 C 
ATOM     39  C   UNL A   1      45.256  29.791  29.893  1.00  0.00     0.037 A 
BRANCH  26  40
ATOM     40  C   UNL A   1      42.687  28.386  34.338  1.00  0.00     0.057 A 
ATOM     41  C   UNL A   1      42.733  27.053  33.885  1.00  0.00     0.134 A 
ATOM     42  C   UNL A   1      42.600  28.538  35.737  1.00  0.00     0.134 A 
ATOM     43  F   UNL A   1      42.805  26.774  32.575  1.00  0.00    -0.206 F 
ATOM     44  C   UNL A   1      42.604  25.960  34.750  1.00  0.00     0.040 A 
ATOM     45  C   UNL A   1      42.526  27.451  36.614  1.00  0.00     0.040 A 
ATOM     46  F   UNL A   1      42.482  29.734  36.324  1.00  0.00    -0.206 F 
ATOM     47  C   UNL A   1      42.488  26.157  36.120  1.00  0.00     0.006 A 
ENDBRANCH  26  40
BRANCH  27  48
ATOM     48  C   UNL A   1      43.209  25.272  26.733  1.00  0.00     0.057 A 
ATOM     49  C   UNL A   1      42.415  24.172  27.091  1.00  0.00     0.134 A 
ATOM     50  C   UNL A   1      43.916  25.153  25.523  1.00  0.00     0.134 A 
ATOM     51  F   UNL A   1      41.666  24.201  28.202  1.00  0.00    -0.206 F 
ATOM     52  C   UNL A   1      42.320  23.029  26.288  1.00  0.00     0.040 A 
ATOM     53  C   UNL A   1      43.842  24.010  24.721  1.00  0.00     0.040 A 
ATOM     54  F   UNL A   1      44.635  26.172  25.035  1.00  0.00    -0.206 F 
ATOM     55  C   UNL A   1      43.030  22.947  25.095  1.00  0.00     0.006 A 
ENDBRANCH  27  48
BRANCH  39  56
ATOM     56  C   UNL A   1      45.653  30.688  28.759  1.00  0.00     0.057 A 
ATOM     57  C   UNL A   1      46.981  30.952  28.391  1.00  0.00     0.134 A 
ATOM     58  C   UNL A   1      44.649  31.215  27.939  1.00  0.00     0.134 A 
ATOM     59  F   UNL A   1      48.009  30.399  29.049  1.00  0.00    -0.206 F 
ATOM     60  C   UNL A   1      47.289  31.761  27.294  1.00  0.00     0.040 A 
ATOM     61  C   UNL A   1      44.944  31.992  26.818  1.00  0.00     0.040 A 
ATOM     62  F   UNL A   1      43.357  30.952  28.197  1.00  0.00    -0.206 F 
ATOM     63  C   UNL A   1      46.268  32.281  26.501  1.00  0.00     0.006 A 
ENDBRANCH  39  56
ENDBRANCH  13  14
ENDBRANCH   6   8
ENDBRANCH   3   4
ENDBRANCH   2   3
ENDBRANCH   1   2
BRANCH   1  64
ATOM     64  C   UNL A   1      32.075  26.627  26.413  1.00  0.00     0.116 C 
BRANCH  64  65
ATOM     65  N   UNL A   1      31.549  25.299  26.689  1.00  0.00    -0.356 N 
ATOM     66  C   UNL A   1      32.228  24.112  26.745  1.00  0.00     0.224 C 
ATOM     67  H   UNL A   1      30.581  25.248  26.858  1.00  0.00     0.163 HD
ATOM     68  O   UNL A   1      31.801  23.246  27.510  1.00  0.00    -0.275 OA
BRANCH  66  69
ATOM     69  C   UNL A   1      33.520  23.946  25.969  1.00  0.00     0.098 C 
ATOM     70  C   UNL A   1      33.442  23.576  24.466  1.00  0.00     0.098 C 
ATOM     71  C   UNL A   1      34.613  23.063  26.659  1.00  0.00     0.025 C 
ATOM     72  C   UNL A   1      34.702  22.750  24.074  1.00  0.00     0.025 C 
ATOM     73  C   UNL A   1      34.588  21.623  26.179  1.00  0.00    -0.027 C 
ATOM     74  C   UNL A   1      35.976  23.582  26.127  1.00  0.00     0.009 C 
ATOM     75  C   UNL A   1      34.679  21.462  24.849  1.00  0.00    -0.027 C 
ATOM     76  C   UNL A   1      35.965  23.517  24.573  1.00  0.00     0.009 C 
BRANCH  70  77
ATOM     77  C   UNL A   1      32.153  23.088  23.775  1.00  0.00     0.228 C 
ATOM     78  O   UNL A   1      31.781  21.929  24.030  1.00  0.00    -0.274 OA
ATOM     79  N   UNL A   1      31.309  23.777  22.953  1.00  0.00    -0.326 N 
ATOM     80  H   UNL A   1      30.852  23.246  22.262  1.00  0.00     0.169 HD
BRANCH  79  81
ATOM     81  C   UNL A   1      31.015  25.143  22.971  1.00  0.00     0.041 A 
ATOM     82  C   UNL A   1      29.859  25.576  23.620  1.00  0.00     0.026 A 
ATOM     83  C   UNL A   1      31.790  26.061  22.277  1.00  0.00     0.026 A 
ATOM     84  C   UNL A   1      29.619  26.944  23.772  1.00  0.00     0.008 A 
ATOM     85  C   UNL A   1      31.565  27.429  22.434  1.00  0.00     0.008 A 
ATOM     86  C   UNL A   1      30.519  27.881  23.246  1.00  0.00    -0.026 A 
BRANCH  86  87
ATOM     87  C   UNL A   1      30.408  29.342  23.595  1.00  0.00     0.181 C 
BRANCH  87  88
ATOM     88  N   UNL A   1      29.294  29.985  22.935  1.00  0.00    -0.249 N 
ATOM     89  C   UNL A   1      28.457  30.925  23.452  1.00  0.00     0.220 A 
ATOM     90  N   UNL A   1      29.049  29.786  21.625  1.00  0.00    -0.160 NA
ATOM     91  N   UNL A   1      27.639  31.344  22.515  1.00  0.00    -0.224 NA
ATOM     92  C   UNL A   1      28.029  30.623  21.422  1.00  0.00     0.246 A 
ENDBRANCH  87  88
ENDBRANCH  86  87
ENDBRANCH  79  81
ENDBRANCH  70  77
ENDBRANCH  66  69
ENDBRANCH  64  65
ENDBRANCH   1  64
TORSDOF 15
ENDMDL
