MODEL 1
REMARK VINA RESULT:     -11.9      0.000      0.000
REMARK SMILES Cc1cc(NCC(=O)NCCCCNC(=O)c2ccc(-c3c4nc(c(-c5c(F)cccc5F)c5ccc([nH]5)c(-c5c(F)cccc5F)c5nc(c(-c6c(F)cccc6F)c6ccc3[nH]6)C=C5)C=C4)cc2)c2cc(S(=O)(=O)N(C)C)ccc2n1
REMARK SMILES IDX 10 1 9 2 7 3 8 4 6 6 5 7 4 9 1 10 2 11 3 12 83 13 82 14
REMARK SMILES IDX 71 15 81 16 72 17 80 18 73 19 74 20 75 21 76 22 77 23 78 24
REMARK SMILES IDX 79 25 11 26 12 27 13 28 14 29 15 30 16 32 17 33 18 34 70 35
REMARK SMILES IDX 19 36 69 37 20 38 21 39 22 40 63 41 23 42 68 43 62 44 64 45
REMARK SMILES IDX 24 46 67 47 61 48 60 49 25 51 51 52 34 53 50 54 35 55 38 56
REMARK SMILES IDX 49 57 65 58 36 59 37 60 48 62 66 63 39 64 26 65 27 66 32 67
REMARK SMILES IDX 28 68 29 69 31 70 33 71 30 72 52 73 53 74 58 75 54 76 55 77
REMARK SMILES IDX 57 78 59 79 56 80 40 81 41 82 46 83 42 84 43 85 45 86 47 87
REMARK SMILES IDX 44 88
REMARK H PARENT 9 5 5 8 14 31 64 50 38 61
REMARK Flexibility Score: inf
ROOT
ATOM      1  C   UNL A   1      31.100  26.976  25.261  1.00  0.00     0.116 C 
ENDROOT
BRANCH   1   2
ATOM      2  N   UNL A   1      30.763  25.966  26.238  1.00  0.00    -0.355 N 
ATOM      3  C   UNL A   1      31.148  24.660  26.320  1.00  0.00     0.239 C 
ATOM      4  O   UNL A   1      30.702  24.006  27.270  1.00  0.00    -0.273 OA
ATOM      5  H   UNL A   1      30.160  26.267  26.956  1.00  0.00     0.163 HD
BRANCH   3   6
ATOM      6  C   UNL A   1      32.138  24.014  25.334  1.00  0.00     0.213 C 
BRANCH   6   7
ATOM      7  N   UNL A   1      32.928  22.928  25.902  1.00  0.00    -0.376 N 
ATOM      8  H   UNL A   1      32.438  22.405  26.576  1.00  0.00     0.161 HD
BRANCH   7   9
ATOM      9  C   UNL A   1      34.222  22.473  25.694  1.00  0.00     0.046 A 
ATOM     10  C   UNL A   1      37.624  24.073  26.294  1.00  0.00     0.067 C 
ATOM     11  C   UNL A   1      36.563  23.087  25.906  1.00  0.00     0.040 A 
ATOM     12  C   UNL A   1      35.221  23.415  26.000  1.00  0.00     0.049 A 
ATOM     13  N   UNL A   1      36.977  21.869  25.510  1.00  0.00    -0.253 NA
ATOM     14  C   UNL A   1      36.059  20.944  25.211  1.00  0.00     0.073 A 
ATOM     15  C   UNL A   1      34.659  21.173  25.286  1.00  0.00     0.025 A 
ATOM     16  C   UNL A   1      36.544  19.690  24.841  1.00  0.00     0.030 A 
ATOM     17  C   UNL A   1      33.835  20.055  24.999  1.00  0.00     0.034 A 
ATOM     18  C   UNL A   1      35.708  18.608  24.554  1.00  0.00     0.024 A 
ATOM     19  C   UNL A   1      34.344  18.794  24.661  1.00  0.00     0.083 A 
BRANCH  19  20
ATOM     20  S   UNL A   1      33.152  17.501  24.414  1.00  0.00     0.242 S 
ATOM     21  O   UNL A   1      31.864  18.042  24.816  1.00  0.00    -0.207 OA
ATOM     22  O   UNL A   1      33.371  17.010  23.076  1.00  0.00    -0.207 OA
BRANCH  20  23
ATOM     23  N   UNL A   1      33.530  16.249  25.517  1.00  0.00    -0.204 NA
ATOM     24  C   UNL A   1      32.437  15.281  25.782  1.00  0.00     0.124 C 
ATOM     25  C   UNL A   1      34.772  15.528  25.124  1.00  0.00     0.124 C 
ENDBRANCH  20  23
ENDBRANCH  19  20
ENDBRANCH   7   9
ENDBRANCH   6   7
ENDBRANCH   3   6
ENDBRANCH   1   2
BRANCH   1  26
ATOM     26  C   UNL A   1      31.672  28.240  25.903  1.00  0.00     0.023 C 
BRANCH  26  27
ATOM     27  C   UNL A   1      32.602  27.970  27.086  1.00  0.00     0.023 C 
BRANCH  27  28
ATOM     28  C   UNL A   1      33.923  28.729  27.049  1.00  0.00     0.116 C 
BRANCH  28  29
ATOM     29  N   UNL A   1      33.852  30.049  27.659  1.00  0.00    -0.352 N 
ATOM     30  C   UNL A   1      34.829  30.699  28.380  1.00  0.00     0.251 C 
ATOM     31  H   UNL A   1      33.004  30.536  27.542  1.00  0.00     0.163 HD
ATOM     32  O   UNL A   1      34.607  31.775  28.922  1.00  0.00    -0.269 OA
BRANCH  30  33
ATOM     33  C   UNL A   1      36.148  30.049  28.525  1.00  0.00     0.039 A 
ATOM     34  C   UNL A   1      37.073  30.153  27.483  1.00  0.00     0.014 A 
ATOM     35  C   UNL A   1      36.488  29.409  29.718  1.00  0.00     0.014 A 
ATOM     36  C   UNL A   1      38.376  29.686  27.672  1.00  0.00     0.010 A 
ATOM     37  C   UNL A   1      37.800  29.002  29.927  1.00  0.00     0.010 A 
ATOM     38  C   UNL A   1      38.760  29.148  28.911  1.00  0.00    -0.014 A 
BRANCH  38  39
ATOM     39  C   UNL A   1      40.158  28.738  29.189  1.00  0.00     0.031 A 
ATOM     40  C   UNL A   1      41.112  29.718  29.808  1.00  0.00     0.074 A 
ATOM     41  C   UNL A   1      40.596  27.529  28.788  1.00  0.00     0.049 A 
ATOM     42  N   UNL A   1      42.406  29.625  29.971  1.00  0.00    -0.248 NA
ATOM     43  C   UNL A   1      40.535  30.988  30.278  1.00  0.00     0.031 C 
ATOM     44  C   UNL A   1      39.777  26.497  28.148  1.00  0.00     0.029 A 
ATOM     45  N   UNL A   1      41.851  26.972  28.836  1.00  0.00    -0.354 N 
ATOM     46  C   UNL A   1      42.802  30.830  30.534  1.00  0.00     0.074 A 
ATOM     47  C   UNL A   1      41.617  31.653  30.653  1.00  0.00     0.031 C 
ATOM     48  C   UNL A   1      40.548  25.434  27.869  1.00  0.00     0.029 A 
ATOM     49  C   UNL A   1      41.922  25.723  28.267  1.00  0.00     0.049 A 
ATOM     50  H   UNL A   1      42.626  27.426  29.239  1.00  0.00     0.167 HD
ATOM     51  C   UNL A   1      44.039  31.211  30.930  1.00  0.00     0.037 A 
ATOM     52  C   UNL A   1      42.979  24.912  28.072  1.00  0.00     0.037 A 
ATOM     53  C   UNL A   1      45.209  30.378  30.842  1.00  0.00     0.049 A 
ATOM     54  C   UNL A   1      44.344  25.359  28.515  1.00  0.00     0.074 A 
ATOM     55  C   UNL A   1      46.497  30.655  31.265  1.00  0.00     0.029 A 
ATOM     56  N   UNL A   1      45.230  29.104  30.296  1.00  0.00    -0.354 N 
ATOM     57  N   UNL A   1      44.698  26.486  29.086  1.00  0.00    -0.248 NA
ATOM     58  C   UNL A   1      45.457  24.426  28.288  1.00  0.00     0.031 C 
ATOM     59  C   UNL A   1      47.305  29.559  30.947  1.00  0.00     0.029 A 
ATOM     60  C   UNL A   1      46.512  28.586  30.361  1.00  0.00     0.049 A 
ATOM     61  H   UNL A   1      44.450  28.638  29.917  1.00  0.00     0.167 HD
ATOM     62  C   UNL A   1      46.064  26.381  29.319  1.00  0.00     0.074 A 
ATOM     63  C   UNL A   1      46.476  25.084  28.826  1.00  0.00     0.031 C 
ATOM     64  C   UNL A   1      46.899  27.281  29.891  1.00  0.00     0.037 A 
BRANCH  51  65
ATOM     65  C   UNL A   1      44.188  32.590  31.498  1.00  0.00     0.057 A 
ATOM     66  C   UNL A   1      44.057  32.840  32.870  1.00  0.00     0.134 A 
ATOM     67  C   UNL A   1      44.499  33.674  30.669  1.00  0.00     0.134 A 
ATOM     68  F   UNL A   1      43.747  31.846  33.716  1.00  0.00    -0.206 F 
ATOM     69  C   UNL A   1      44.205  34.125  33.395  1.00  0.00     0.040 A 
ATOM     70  C   UNL A   1      44.675  34.960  31.185  1.00  0.00     0.040 A 
ATOM     71  F   UNL A   1      44.645  33.502  29.347  1.00  0.00    -0.206 F 
ATOM     72  C   UNL A   1      44.522  35.188  32.551  1.00  0.00     0.006 A 
ENDBRANCH  51  65
BRANCH  52  73
ATOM     73  C   UNL A   1      42.789  23.585  27.436  1.00  0.00     0.057 A 
ATOM     74  C   UNL A   1      42.386  22.478  28.191  1.00  0.00     0.134 A 
ATOM     75  C   UNL A   1      43.009  23.388  26.068  1.00  0.00     0.134 A 
ATOM     76  F   UNL A   1      42.180  22.601  29.510  1.00  0.00    -0.206 F 
ATOM     77  C   UNL A   1      42.224  21.218  27.613  1.00  0.00     0.040 A 
ATOM     78  C   UNL A   1      42.828  22.138  25.471  1.00  0.00     0.040 A 
ATOM     79  F   UNL A   1      43.390  24.411  25.288  1.00  0.00    -0.206 F 
ATOM     80  C   UNL A   1      42.440  21.047  26.247  1.00  0.00     0.006 A 
ENDBRANCH  52  73
BRANCH  64  81
ATOM     81  C   UNL A   1      48.331  26.878  30.074  1.00  0.00     0.057 A 
ATOM     82  C   UNL A   1      48.751  26.124  31.175  1.00  0.00     0.134 A 
ATOM     83  C   UNL A   1      49.284  27.189  29.095  1.00  0.00     0.134 A 
ATOM     84  F   UNL A   1      47.888  25.806  32.151  1.00  0.00    -0.206 F 
ATOM     85  C   UNL A   1      50.075  25.697  31.300  1.00  0.00     0.040 A 
ATOM     86  C   UNL A   1      50.603  26.751  29.199  1.00  0.00     0.040 A 
ATOM     87  F   UNL A   1      48.940  27.902  28.013  1.00  0.00    -0.206 F 
ATOM     88  C   UNL A   1      51.002  26.003  30.305  1.00  0.00     0.006 A 
ENDBRANCH  64  81
ENDBRANCH  38  39
ENDBRANCH  30  33
ENDBRANCH  28  29
ENDBRANCH  27  28
ENDBRANCH  26  27
ENDBRANCH   1  26
TORSDOF 15
ENDMDL
MODEL 2
REMARK VINA RESULT:     -11.8      5.473      8.284
REMARK SMILES Cc1cc(NCC(=O)NCCCCNC(=O)c2ccc(-c3c4nc(c(-c5c(F)cccc5F)c5ccc([nH]5)c(-c5c(F)cccc5F)c5nc(c(-c6c(F)cccc6F)c6ccc3[nH]6)C=C5)C=C4)cc2)c2cc(S(=O)(=O)N(C)C)ccc2n1
REMARK SMILES IDX 10 1 9 2 7 3 8 4 6 6 5 7 4 9 1 10 2 11 3 12 83 13 82 14
REMARK SMILES IDX 71 15 81 16 72 17 80 18 73 19 74 20 75 21 76 22 77 23 78 24
REMARK SMILES IDX 79 25 11 26 12 27 13 28 14 29 15 30 16 32 17 33 18 34 70 35
REMARK SMILES IDX 19 36 69 37 20 38 21 39 22 40 63 41 23 42 68 43 62 44 64 45
REMARK SMILES IDX 24 46 67 47 61 48 60 49 25 51 51 52 34 53 50 54 35 55 38 56
REMARK SMILES IDX 49 57 65 58 36 59 37 60 48 62 66 63 39 64 26 65 27 66 32 67
REMARK SMILES IDX 28 68 29 69 31 70 33 71 30 72 52 73 53 74 58 75 54 76 55 77
REMARK SMILES IDX 57 78 59 79 56 80 40 81 41 82 46 83 42 84 43 85 45 86 47 87
REMARK SMILES IDX 44 88
REMARK H PARENT 9 5 5 8 14 31 64 50 38 61
REMARK Flexibility Score: inf
ROOT
ATOM      1  C   UNL A   1      34.726  32.336  28.221  1.00  0.00     0.116 C 
ENDROOT
BRANCH   1   2
ATOM      2  N   UNL A   1      33.431  32.052  27.645  1.00  0.00    -0.355 N 
ATOM      3  C   UNL A   1      32.916  30.879  27.176  1.00  0.00     0.239 C 
ATOM      4  O   UNL A   1      31.766  30.917  26.724  1.00  0.00    -0.273 OA
ATOM      5  H   UNL A   1      32.827  32.826  27.580  1.00  0.00     0.163 HD
BRANCH   3   6
ATOM      6  C   UNL A   1      33.675  29.542  27.249  1.00  0.00     0.213 C 
BRANCH   6   7
ATOM      7  N   UNL A   1      32.905  28.389  26.797  1.00  0.00    -0.376 N 
ATOM      8  H   UNL A   1      32.317  28.018  27.495  1.00  0.00     0.161 HD
BRANCH   7   9
ATOM      9  C   UNL A   1      32.821  27.704  25.593  1.00  0.00     0.046 A 
ATOM     10  C   UNL A   1      34.476  24.511  24.346  1.00  0.00     0.067 C 
ATOM     11  C   UNL A   1      33.634  25.751  24.400  1.00  0.00     0.040 A 
ATOM     12  C   UNL A   1      33.654  26.574  25.513  1.00  0.00     0.049 A 
ATOM     13  N   UNL A   1      32.836  25.993  23.344  1.00  0.00    -0.253 NA
ATOM     14  C   UNL A   1      32.027  27.058  23.380  1.00  0.00     0.073 A 
ATOM     15  C   UNL A   1      31.961  27.958  24.477  1.00  0.00     0.025 A 
ATOM     16  C   UNL A   1      31.197  27.240  22.275  1.00  0.00     0.030 A 
ATOM     17  C   UNL A   1      30.995  28.990  24.371  1.00  0.00     0.034 A 
ATOM     18  C   UNL A   1      30.261  28.274  22.192  1.00  0.00     0.024 A 
ATOM     19  C   UNL A   1      30.148  29.137  23.264  1.00  0.00     0.083 A 
BRANCH  19  20
ATOM     20  S   UNL A   1      28.952  30.446  23.353  1.00  0.00     0.242 S 
ATOM     21  O   UNL A   1      27.651  29.812  23.487  1.00  0.00    -0.207 OA
ATOM     22  O   UNL A   1      29.443  31.364  24.352  1.00  0.00    -0.207 OA
BRANCH  20  23
ATOM     23  N   UNL A   1      28.962  31.242  21.838  1.00  0.00    -0.204 NA
ATOM     24  C   UNL A   1      28.032  30.690  20.822  1.00  0.00     0.124 C 
ATOM     25  C   UNL A   1      28.751  32.708  21.988  1.00  0.00     0.124 C 
ENDBRANCH  20  23
ENDBRANCH  19  20
ENDBRANCH   7   9
ENDBRANCH   6   7
ENDBRANCH   3   6
ENDBRANCH   1   2
BRANCH   1  26
ATOM     26  C   UNL A   1      34.697  33.546  29.153  1.00  0.00     0.023 C 
BRANCH  26  27
ATOM     27  C   UNL A   1      33.448  34.416  29.004  1.00  0.00     0.023 C 
BRANCH  27  28
ATOM     28  C   UNL A   1      33.592  35.839  29.531  1.00  0.00     0.116 C 
BRANCH  28  29
ATOM     29  N   UNL A   1      32.544  36.221  30.466  1.00  0.00    -0.352 N 
ATOM     30  C   UNL A   1      32.460  35.918  31.808  1.00  0.00     0.251 C 
ATOM     31  H   UNL A   1      31.807  36.759  30.097  1.00  0.00     0.163 HD
ATOM     32  O   UNL A   1      31.472  36.223  32.466  1.00  0.00    -0.269 OA
BRANCH  30  33
ATOM     33  C   UNL A   1      33.573  35.176  32.434  1.00  0.00     0.039 A 
ATOM     34  C   UNL A   1      33.353  33.868  32.873  1.00  0.00     0.014 A 
ATOM     35  C   UNL A   1      34.844  35.750  32.512  1.00  0.00     0.014 A 
ATOM     36  C   UNL A   1      34.433  33.101  33.315  1.00  0.00     0.010 A 
ATOM     37  C   UNL A   1      35.926  34.965  32.894  1.00  0.00     0.010 A 
ATOM     38  C   UNL A   1      35.733  33.630  33.287  1.00  0.00    -0.014 A 
BRANCH  38  39
ATOM     39  C   UNL A   1      36.920  32.816  33.647  1.00  0.00     0.031 A 
ATOM     40  C   UNL A   1      37.656  33.099  34.925  1.00  0.00     0.074 A 
ATOM     41  C   UNL A   1      37.396  31.902  32.780  1.00  0.00     0.049 A 
ATOM     42  N   UNL A   1      38.805  32.631  35.340  1.00  0.00    -0.248 NA
ATOM     43  C   UNL A   1      37.030  34.063  35.844  1.00  0.00     0.031 C 
ATOM     44  C   UNL A   1      36.791  31.556  31.493  1.00  0.00     0.029 A 
ATOM     45  N   UNL A   1      38.520  31.114  32.840  1.00  0.00    -0.354 N 
ATOM     46  C   UNL A   1      39.052  33.262  36.552  1.00  0.00     0.074 A 
ATOM     47  C   UNL A   1      37.952  34.173  36.789  1.00  0.00     0.031 C 
ATOM     48  C   UNL A   1      37.545  30.623  30.889  1.00  0.00     0.029 A 
ATOM     49  C   UNL A   1      38.708  30.338  31.722  1.00  0.00     0.049 A 
ATOM     50  H   UNL A   1      39.132  31.108  33.611  1.00  0.00     0.167 HD
ATOM     51  C   UNL A   1      40.095  33.087  37.397  1.00  0.00     0.037 A 
ATOM     52  C   UNL A   1      39.716  29.505  31.397  1.00  0.00     0.037 A 
ATOM     53  C   UNL A   1      41.169  32.157  37.175  1.00  0.00     0.049 A 
ATOM     54  C   UNL A   1      40.866  29.333  32.351  1.00  0.00     0.074 A 
ATOM     55  C   UNL A   1      42.243  31.870  37.999  1.00  0.00     0.029 A 
ATOM     56  N   UNL A   1      41.302  31.361  36.049  1.00  0.00    -0.354 N 
ATOM     57  N   UNL A   1      41.067  29.904  33.514  1.00  0.00    -0.248 NA
ATOM     58  C   UNL A   1      41.930  28.402  31.948  1.00  0.00     0.031 C 
ATOM     59  C   UNL A   1      43.044  30.921  37.356  1.00  0.00     0.029 A 
ATOM     60  C   UNL A   1      42.447  30.590  36.150  1.00  0.00     0.049 A 
ATOM     61  H   UNL A   1      40.676  31.346  35.289  1.00  0.00     0.167 HD
ATOM     62  C   UNL A   1      42.257  29.375  33.997  1.00  0.00     0.074 A 
ATOM     63  C   UNL A   1      42.735  28.439  33.001  1.00  0.00     0.031 C 
ATOM     64  C   UNL A   1      42.893  29.642  35.162  1.00  0.00     0.037 A 
BRANCH  51  65
ATOM     65  C   UNL A   1      40.120  33.920  38.643  1.00  0.00     0.057 A 
ATOM     66  C   UNL A   1      40.791  35.148  38.696  1.00  0.00     0.134 A 
ATOM     67  C   UNL A   1      39.437  33.506  39.794  1.00  0.00     0.134 A 
ATOM     68  F   UNL A   1      41.475  35.595  37.631  1.00  0.00    -0.206 F 
ATOM     69  C   UNL A   1      40.803  35.924  39.856  1.00  0.00     0.040 A 
ATOM     70  C   UNL A   1      39.421  34.284  40.952  1.00  0.00     0.040 A 
ATOM     71  F   UNL A   1      38.769  32.342  39.808  1.00  0.00    -0.206 F 
ATOM     72  C   UNL A   1      40.110  35.495  40.987  1.00  0.00     0.006 A 
ENDBRANCH  51  65
BRANCH  52  73
ATOM     73  C   UNL A   1      39.680  28.760  30.116  1.00  0.00     0.057 A 
ATOM     74  C   UNL A   1      39.072  27.502  30.034  1.00  0.00     0.134 A 
ATOM     75  C   UNL A   1      40.252  29.278  28.947  1.00  0.00     0.134 A 
ATOM     76  F   UNL A   1      38.525  26.946  31.124  1.00  0.00    -0.206 F 
ATOM     77  C   UNL A   1      39.048  26.778  28.841  1.00  0.00     0.040 A 
ATOM     78  C   UNL A   1      40.214  28.575  27.741  1.00  0.00     0.040 A 
ATOM     79  F   UNL A   1      40.843  30.482  28.959  1.00  0.00    -0.206 F 
ATOM     80  C   UNL A   1      39.616  27.317  27.689  1.00  0.00     0.006 A 
ENDBRANCH  52  73
BRANCH  64  81
ATOM     81  C   UNL A   1      44.145  28.873  35.459  1.00  0.00     0.057 A 
ATOM     82  C   UNL A   1      45.410  29.353  35.098  1.00  0.00     0.134 A 
ATOM     83  C   UNL A   1      44.085  27.674  36.180  1.00  0.00     0.134 A 
ATOM     84  F   UNL A   1      45.532  30.488  34.395  1.00  0.00    -0.206 F 
ATOM     85  C   UNL A   1      46.573  28.661  35.441  1.00  0.00     0.040 A 
ATOM     86  C   UNL A   1      45.240  26.985  36.546  1.00  0.00     0.040 A 
ATOM     87  F   UNL A   1      42.903  27.168  36.562  1.00  0.00    -0.206 F 
ATOM     88  C   UNL A   1      46.490  27.479  36.175  1.00  0.00     0.006 A 
ENDBRANCH  64  81
ENDBRANCH  38  39
ENDBRANCH  30  33
ENDBRANCH  28  29
ENDBRANCH  27  28
ENDBRANCH  26  27
ENDBRANCH   1  26
TORSDOF 15
ENDMDL
MODEL 3
REMARK VINA RESULT:     -11.7      2.187      3.537
REMARK SMILES Cc1cc(NCC(=O)NCCCCNC(=O)c2ccc(-c3c4nc(c(-c5c(F)cccc5F)c5ccc([nH]5)c(-c5c(F)cccc5F)c5nc(c(-c6c(F)cccc6F)c6ccc3[nH]6)C=C5)C=C4)cc2)c2cc(S(=O)(=O)N(C)C)ccc2n1
REMARK SMILES IDX 10 1 9 2 7 3 8 4 6 6 5 7 4 9 1 10 2 11 3 12 83 13 82 14
REMARK SMILES IDX 71 15 81 16 72 17 80 18 73 19 74 20 75 21 76 22 77 23 78 24
REMARK SMILES IDX 79 25 11 26 12 27 13 28 14 29 15 30 16 32 17 33 18 34 70 35
REMARK SMILES IDX 19 36 69 37 20 38 21 39 22 40 63 41 23 42 68 43 62 44 64 45
REMARK SMILES IDX 24 46 67 47 61 48 60 49 25 51 51 52 34 53 50 54 35 55 38 56
REMARK SMILES IDX 49 57 65 58 36 59 37 60 48 62 66 63 39 64 26 65 27 66 32 67
REMARK SMILES IDX 28 68 29 69 31 70 33 71 30 72 52 73 53 74 58 75 54 76 55 77
REMARK SMILES IDX 57 78 59 79 56 80 40 81 41 82 46 83 42 84 43 85 45 86 47 87
REMARK SMILES IDX 44 88
REMARK H PARENT 9 5 5 8 14 31 64 50 38 61
REMARK Flexibility Score: inf
ROOT
ATOM      1  C   UNL A   1      31.451  29.681  25.024  1.00  0.00     0.116 C 
ENDROOT
BRANCH   1   2
ATOM      2  N   UNL A   1      32.659  29.619  24.232  1.00  0.00    -0.355 N 
ATOM      3  C   UNL A   1      33.043  28.716  23.284  1.00  0.00     0.239 C 
ATOM      4  O   UNL A   1      34.146  28.898  22.756  1.00  0.00    -0.273 OA
ATOM      5  H   UNL A   1      33.306  30.341  24.403  1.00  0.00     0.163 HD
BRANCH   3   6
ATOM      6  C   UNL A   1      32.148  27.552  22.824  1.00  0.00     0.213 C 
BRANCH   6   7
ATOM      7  N   UNL A   1      32.531  26.251  23.359  1.00  0.00    -0.376 N 
ATOM      8  H   UNL A   1      33.121  25.743  22.756  1.00  0.00     0.161 HD
BRANCH   7   9
ATOM      9  C   UNL A   1      32.244  25.576  24.537  1.00  0.00     0.046 A 
ATOM     10  C   UNL A   1      29.015  25.115  26.499  1.00  0.00     0.067 C 
ATOM     11  C   UNL A   1      30.454  25.031  26.086  1.00  0.00     0.040 A 
ATOM     12  C   UNL A   1      30.909  25.701  24.963  1.00  0.00     0.049 A 
ATOM     13  N   UNL A   1      31.257  24.247  26.827  1.00  0.00    -0.253 NA
ATOM     14  C   UNL A   1      32.534  24.101  26.457  1.00  0.00     0.073 A 
ATOM     15  C   UNL A   1      33.098  24.732  25.316  1.00  0.00     0.025 A 
ATOM     16  C   UNL A   1      33.311  23.249  27.240  1.00  0.00     0.030 A 
ATOM     17  C   UNL A   1      34.450  24.407  25.036  1.00  0.00     0.034 A 
ATOM     18  C   UNL A   1      34.645  22.954  26.946  1.00  0.00     0.024 A 
ATOM     19  C   UNL A   1      35.203  23.523  25.819  1.00  0.00     0.083 A 
BRANCH  19  20
ATOM     20  S   UNL A   1      36.855  23.183  25.260  1.00  0.00     0.242 S 
ATOM     21  O   UNL A   1      36.809  23.183  23.807  1.00  0.00    -0.207 OA
ATOM     22  O   UNL A   1      37.711  24.093  25.981  1.00  0.00    -0.207 OA
BRANCH  20  23
ATOM     23  N   UNL A   1      37.234  21.587  25.746  1.00  0.00    -0.204 NA
ATOM     24  C   UNL A   1      36.536  20.512  24.999  1.00  0.00     0.124 C 
ATOM     25  C   UNL A   1      38.703  21.347  25.742  1.00  0.00     0.124 C 
ENDBRANCH  20  23
ENDBRANCH  19  20
ENDBRANCH   7   9
ENDBRANCH   6   7
ENDBRANCH   3   6
ENDBRANCH   1   2
BRANCH   1  26
ATOM     26  C   UNL A   1      31.723  29.498  26.516  1.00  0.00     0.023 C 
BRANCH  26  27
ATOM     27  C   UNL A   1      32.699  28.367  26.837  1.00  0.00     0.023 C 
BRANCH  27  28
ATOM     28  C   UNL A   1      34.077  28.822  27.304  1.00  0.00     0.116 C 
BRANCH  28  29
ATOM     29  N   UNL A   1      34.062  30.104  27.994  1.00  0.00    -0.352 N 
ATOM     30  C   UNL A   1      35.093  30.702  28.683  1.00  0.00     0.251 C 
ATOM     31  H   UNL A   1      33.214  30.603  27.964  1.00  0.00     0.163 HD
ATOM     32  O   UNL A   1      34.921  31.746  29.302  1.00  0.00    -0.269 OA
BRANCH  30  33
ATOM     33  C   UNL A   1      36.411  30.036  28.700  1.00  0.00     0.039 A 
ATOM     34  C   UNL A   1      37.239  30.141  27.579  1.00  0.00     0.014 A 
ATOM     35  C   UNL A   1      36.851  29.378  29.850  1.00  0.00     0.014 A 
ATOM     36  C   UNL A   1      38.547  29.657  27.643  1.00  0.00     0.010 A 
ATOM     37  C   UNL A   1      38.172  28.953  29.933  1.00  0.00     0.010 A 
ATOM     38  C   UNL A   1      39.036  29.099  28.835  1.00  0.00    -0.014 A 
BRANCH  38  39
ATOM     39  C   UNL A   1      40.449  28.670  28.979  1.00  0.00     0.031 A 
ATOM     40  C   UNL A   1      41.486  29.660  29.425  1.00  0.00     0.074 A 
ATOM     41  C   UNL A   1      40.815  27.428  28.606  1.00  0.00     0.049 A 
ATOM     42  N   UNL A   1      42.788  29.542  29.448  1.00  0.00    -0.248 NA
ATOM     43  C   UNL A   1      40.990  30.970  29.878  1.00  0.00     0.031 C 
ATOM     44  C   UNL A   1      39.909  26.383  28.126  1.00  0.00     0.029 A 
ATOM     45  N   UNL A   1      42.056  26.842  28.547  1.00  0.00    -0.354 N 
ATOM     46  C   UNL A   1      43.268  30.768  29.888  1.00  0.00     0.074 A 
ATOM     47  C   UNL A   1      42.121  31.627  30.088  1.00  0.00     0.031 C 
ATOM     48  C   UNL A   1      40.622  25.285  27.828  1.00  0.00     0.029 A 
ATOM     49  C   UNL A   1      42.038  25.561  28.052  1.00  0.00     0.049 A 
ATOM     50  H   UNL A   1      42.881  27.299  28.832  1.00  0.00     0.167 HD
ATOM     51  C   UNL A   1      44.550  31.138  30.119  1.00  0.00     0.037 A 
ATOM     52  C   UNL A   1      43.050  24.712  27.790  1.00  0.00     0.037 A 
ATOM     53  C   UNL A   1      45.686  30.271  29.951  1.00  0.00     0.049 A 
ATOM     54  C   UNL A   1      44.465  25.149  28.049  1.00  0.00     0.074 A 
ATOM     55  C   UNL A   1      47.018  30.538  30.210  1.00  0.00     0.029 A 
ATOM     56  N   UNL A   1      45.620  28.968  29.486  1.00  0.00    -0.354 N 
ATOM     57  N   UNL A   1      44.903  26.297  28.506  1.00  0.00    -0.248 NA
ATOM     58  C   UNL A   1      45.526  24.175  27.756  1.00  0.00     0.031 C 
ATOM     59  C   UNL A   1      47.764  29.405  29.870  1.00  0.00     0.029 A 
ATOM     60  C   UNL A   1      46.890  28.420  29.438  1.00  0.00     0.049 A 
ATOM     61  H   UNL A   1      44.793  28.501  29.226  1.00  0.00     0.167 HD
ATOM     62  C   UNL A   1      46.284  26.171  28.590  1.00  0.00     0.074 A 
ATOM     63  C   UNL A   1      46.612  24.836  28.134  1.00  0.00     0.031 C 
ATOM     64  C   UNL A   1      47.196  27.080  29.008  1.00  0.00     0.037 A 
BRANCH  51  65
ATOM     65  C   UNL A   1      44.789  32.544  30.581  1.00  0.00     0.057 A 
ATOM     66  C   UNL A   1      44.982  33.595  29.675  1.00  0.00     0.134 A 
ATOM     67  C   UNL A   1      44.793  32.857  31.946  1.00  0.00     0.134 A 
ATOM     68  F   UNL A   1      45.003  33.359  28.354  1.00  0.00    -0.206 F 
ATOM     69  C   UNL A   1      45.196  34.903  30.110  1.00  0.00     0.040 A 
ATOM     70  C   UNL A   1      44.981  34.166  32.393  1.00  0.00     0.040 A 
ATOM     71  F   UNL A   1      44.608  31.898  32.866  1.00  0.00    -0.206 F 
ATOM     72  C   UNL A   1      45.188  35.192  31.474  1.00  0.00     0.006 A 
ENDBRANCH  51  65
BRANCH  52  73
ATOM     73  C   UNL A   1      42.763  23.356  27.262  1.00  0.00     0.057 A 
ATOM     74  C   UNL A   1      42.846  23.087  25.891  1.00  0.00     0.134 A 
ATOM     75  C   UNL A   1      42.396  22.301  28.106  1.00  0.00     0.134 A 
ATOM     76  F   UNL A   1      43.173  24.062  25.031  1.00  0.00    -0.206 F 
ATOM     77  C   UNL A   1      42.559  21.822  25.375  1.00  0.00     0.040 A 
ATOM     78  C   UNL A   1      42.129  21.024  27.606  1.00  0.00     0.040 A 
ATOM     79  F   UNL A   1      42.306  22.493  29.430  1.00  0.00    -0.206 F 
ATOM     80  C   UNL A   1      42.204  20.785  26.234  1.00  0.00     0.006 A 
ENDBRANCH  52  73
BRANCH  64  81
ATOM     81  C   UNL A   1      48.631  26.652  29.054  1.00  0.00     0.057 A 
ATOM     82  C   UNL A   1      49.518  26.930  28.007  1.00  0.00     0.134 A 
ATOM     83  C   UNL A   1      49.145  26.017  30.192  1.00  0.00     0.134 A 
ATOM     84  F   UNL A   1      49.084  27.523  26.886  1.00  0.00    -0.206 F 
ATOM     85  C   UNL A   1      50.869  26.585  28.090  1.00  0.00     0.040 A 
ATOM     86  C   UNL A   1      50.496  25.688  30.294  1.00  0.00     0.040 A 
ATOM     87  F   UNL A   1      48.346  25.732  31.231  1.00  0.00    -0.206 F 
ATOM     88  C   UNL A   1      51.362  25.971  29.240  1.00  0.00     0.006 A 
ENDBRANCH  64  81
ENDBRANCH  38  39
ENDBRANCH  30  33
ENDBRANCH  28  29
ENDBRANCH  27  28
ENDBRANCH  26  27
ENDBRANCH   1  26
TORSDOF 15
ENDMDL
