MODEL 1
REMARK VINA RESULT:     -12.9      0.000      0.000
REMARK SMILES Cc1ccc(-c2cc([C@@H](C)C(=O)NCCCCNC(=O)c3ccc(-c4c5nc(c(-c6c(F)cccc6F)c6ccc([nH]6)c(-c6c(F)cccc6F)c6nc(c(-c7c(F)cccc7F)c7ccc4[nH]7)C=C6)C=C5)cc3)ccc2C[C@H]2CCCC2=O)cc1
REMARK SMILES IDX 15 1 14 2 13 3 11 4 12 5 9 7 10 8 8 9 6 10 7 11 77 12 76 13
REMARK SMILES IDX 75 14 5 15 1 16 2 17 3 18 86 19 4 20 85 21 78 22 79 23 80 24
REMARK SMILES IDX 83 25 81 26 82 27 84 28 16 29 17 30 18 31 19 32 20 34 21 35
REMARK SMILES IDX 22 36 74 37 23 38 73 39 24 40 25 41 26 42 67 43 27 44 72 45
REMARK SMILES IDX 66 46 68 47 28 48 71 49 65 50 64 51 29 53 55 54 38 55 54 56
REMARK SMILES IDX 39 57 42 58 53 59 69 60 40 61 41 62 52 64 70 65 43 66 30 67
REMARK SMILES IDX 31 68 36 69 32 70 33 71 35 72 37 73 34 74 56 75 57 76 62 77
REMARK SMILES IDX 58 78 59 79 61 80 63 81 60 82 44 83 45 84 50 85 46 86 47 87
REMARK SMILES IDX 49 88 51 89 48 90
REMARK H PARENT 13 6 18 33 68 52 42 63
REMARK Flexibility Score: inf
ROOT
ATOM      1  C   UNL A   1      37.501  23.246  25.717  1.00  0.00     0.023 C 
ENDROOT
BRANCH   1   2
ATOM      2  C   UNL A   1      36.697  23.204  24.410  1.00  0.00     0.116 C 
BRANCH   2   3
ATOM      3  N   UNL A   1      35.835  22.038  24.339  1.00  0.00    -0.356 N 
ATOM      4  C   UNL A   1      34.847  21.577  25.154  1.00  0.00     0.227 C 
ATOM      5  O   UNL A   1      34.378  20.470  24.861  1.00  0.00    -0.274 OA
ATOM      6  H   UNL A   1      35.995  21.473  23.548  1.00  0.00     0.163 HD
BRANCH   4   7
ATOM      7  C   UNL A   1      34.286  22.350  26.360  1.00  0.00     0.105 C 
ATOM      8  C   UNL A   1      33.956  21.452  27.551  1.00  0.00     0.023 C 
BRANCH   7   9
ATOM      9  C   UNL A   1      33.235  23.386  25.993  1.00  0.00    -0.035 A 
ATOM     10  C   UNL A   1      32.622  25.762  25.734  1.00  0.00    -0.015 A 
ATOM     11  C   UNL A   1      33.532  24.756  26.125  1.00  0.00     0.013 A 
ATOM     12  C   UNL A   1      31.449  25.378  25.047  1.00  0.00    -0.039 A 
ATOM     13  C   UNL A   1      31.111  24.018  25.004  1.00  0.00     0.004 A 
ATOM     14  C   UNL A   1      31.967  23.046  25.524  1.00  0.00     0.005 A 
BRANCH  10  15
ATOM     15  C   UNL A   1      32.850  27.149  26.182  1.00  0.00    -0.018 A 
ATOM     16  C   UNL A   1      33.311  31.228  27.554  1.00  0.00     0.044 C 
ATOM     17  C   UNL A   1      33.173  29.807  27.095  1.00  0.00    -0.051 A 
ATOM     18  C   UNL A   1      31.942  29.163  27.226  1.00  0.00     0.004 A 
ATOM     19  C   UNL A   1      34.245  29.112  26.523  1.00  0.00     0.004 A 
ATOM     20  C   UNL A   1      31.790  27.849  26.790  1.00  0.00     0.009 A 
ATOM     21  C   UNL A   1      34.087  27.793  26.075  1.00  0.00     0.009 A 
ENDBRANCH  10  15
BRANCH  12  22
ATOM     22  C   UNL A   1      30.530  26.369  24.354  1.00  0.00     0.047 C 
BRANCH  22  23
ATOM     23  C   UNL A   1      30.989  26.894  22.987  1.00  0.00     0.060 C 
ATOM     24  C   UNL A   1      31.448  28.356  22.908  1.00  0.00     0.012 C 
ATOM     25  C   UNL A   1      32.189  26.154  22.439  1.00  0.00     0.136 C 
ATOM     26  C   UNL A   1      32.971  28.321  22.878  1.00  0.00     0.009 C 
ATOM     27  C   UNL A   1      33.305  27.083  22.063  1.00  0.00     0.076 C 
ATOM     28  O   UNL A   1      32.238  24.941  22.278  1.00  0.00    -0.299 OA
ENDBRANCH  22  23
ENDBRANCH  12  22
ENDBRANCH   7   9
ENDBRANCH   4   7
ENDBRANCH   2   3
ENDBRANCH   1   2
BRANCH   1  29
ATOM     29  C   UNL A   1      38.744  22.361  25.716  1.00  0.00     0.023 C 
BRANCH  29  30
ATOM     30  C   UNL A   1      39.608  22.529  26.952  1.00  0.00     0.116 C 
BRANCH  30  31
ATOM     31  N   UNL A   1      40.983  22.959  26.716  1.00  0.00    -0.352 N 
ATOM     32  C   UNL A   1      41.472  24.251  26.557  1.00  0.00     0.251 C 
ATOM     33  H   UNL A   1      41.652  22.238  26.662  1.00  0.00     0.163 HD
ATOM     34  O   UNL A   1      42.655  24.442  26.321  1.00  0.00    -0.269 OA
BRANCH  32  35
ATOM     35  C   UNL A   1      40.571  25.405  26.827  1.00  0.00     0.039 A 
ATOM     36  C   UNL A   1      40.813  26.598  26.140  1.00  0.00     0.014 A 
ATOM     37  C   UNL A   1      39.715  25.397  27.921  1.00  0.00     0.014 A 
ATOM     38  C   UNL A   1      40.444  27.806  26.728  1.00  0.00     0.010 A 
ATOM     39  C   UNL A   1      39.480  26.588  28.578  1.00  0.00     0.010 A 
ATOM     40  C   UNL A   1      39.907  27.793  28.015  1.00  0.00    -0.014 A 
BRANCH  40  41
ATOM     41  C   UNL A   1      39.913  28.961  28.892  1.00  0.00     0.031 A 
ATOM     42  C   UNL A   1      38.846  29.982  28.812  1.00  0.00     0.074 A 
ATOM     43  C   UNL A   1      40.877  29.093  29.834  1.00  0.00     0.049 A 
ATOM     44  N   UNL A   1      39.011  31.213  29.163  1.00  0.00    -0.248 NA
ATOM     45  C   UNL A   1      37.508  29.708  28.298  1.00  0.00     0.031 C 
ATOM     46  C   UNL A   1      40.900  30.041  30.946  1.00  0.00     0.029 A 
ATOM     47  N   UNL A   1      42.155  28.516  29.846  1.00  0.00    -0.354 N 
ATOM     48  C   UNL A   1      37.779  31.821  29.163  1.00  0.00     0.074 A 
ATOM     49  C   UNL A   1      36.879  30.854  28.580  1.00  0.00     0.031 C 
ATOM     50  C   UNL A   1      42.168  30.207  31.349  1.00  0.00     0.029 A 
ATOM     51  C   UNL A   1      43.016  29.467  30.433  1.00  0.00     0.049 A 
ATOM     52  H   UNL A   1      42.403  27.623  29.511  1.00  0.00     0.167 HD
ATOM     53  C   UNL A   1      37.623  33.036  29.758  1.00  0.00     0.037 A 
ATOM     54  C   UNL A   1      44.085  29.983  29.765  1.00  0.00     0.037 A 
ATOM     55  C   UNL A   1      38.873  33.525  30.325  1.00  0.00     0.049 A 
ATOM     56  C   UNL A   1      44.056  31.485  29.611  1.00  0.00     0.074 A 
ATOM     57  C   UNL A   1      39.404  33.479  31.604  1.00  0.00     0.029 A 
ATOM     58  N   UNL A   1      39.912  33.893  29.480  1.00  0.00    -0.354 N 
ATOM     59  N   UNL A   1      42.992  32.216  29.794  1.00  0.00    -0.248 NA
ATOM     60  C   UNL A   1      45.210  32.281  29.202  1.00  0.00     0.031 C 
ATOM     61  C   UNL A   1      40.777  33.811  31.525  1.00  0.00     0.029 A 
ATOM     62  C   UNL A   1      41.077  34.067  30.198  1.00  0.00     0.049 A 
ATOM     63  H   UNL A   1      39.828  34.012  28.507  1.00  0.00     0.167 HD
ATOM     64  C   UNL A   1      43.274  33.528  29.499  1.00  0.00     0.074 A 
ATOM     65  C   UNL A   1      44.686  33.519  29.170  1.00  0.00     0.031 C 
ATOM     66  C   UNL A   1      42.302  34.489  29.535  1.00  0.00     0.037 A 
BRANCH  53  67
ATOM     67  C   UNL A   1      36.276  33.644  30.048  1.00  0.00     0.057 A 
ATOM     68  C   UNL A   1      35.421  34.059  29.009  1.00  0.00     0.134 A 
ATOM     69  C   UNL A   1      35.780  33.874  31.342  1.00  0.00     0.134 A 
ATOM     70  F   UNL A   1      35.708  33.827  27.722  1.00  0.00    -0.206 F 
ATOM     71  C   UNL A   1      34.224  34.748  29.239  1.00  0.00     0.040 A 
ATOM     72  C   UNL A   1      34.613  34.609  31.588  1.00  0.00     0.040 A 
ATOM     73  F   UNL A   1      36.391  33.364  32.421  1.00  0.00    -0.206 F 
ATOM     74  C   UNL A   1      33.834  35.062  30.532  1.00  0.00     0.006 A 
ENDBRANCH  53  67
BRANCH  54  75
ATOM     75  C   UNL A   1      44.694  29.034  28.802  1.00  0.00     0.057 A 
ATOM     76  C   UNL A   1      45.587  28.064  29.291  1.00  0.00     0.134 A 
ATOM     77  C   UNL A   1      44.145  28.816  27.536  1.00  0.00     0.134 A 
ATOM     78  F   UNL A   1      46.146  28.213  30.503  1.00  0.00    -0.206 F 
ATOM     79  C   UNL A   1      45.836  26.876  28.601  1.00  0.00     0.040 A 
ATOM     80  C   UNL A   1      44.393  27.631  26.832  1.00  0.00     0.040 A 
ATOM     81  F   UNL A   1      43.265  29.682  27.016  1.00  0.00    -0.206 F 
ATOM     82  C   UNL A   1      45.210  26.642  27.381  1.00  0.00     0.006 A 
ENDBRANCH  54  75
BRANCH  66  83
ATOM     83  C   UNL A   1      42.388  35.919  29.037  1.00  0.00     0.057 A 
ATOM     84  C   UNL A   1      43.093  36.952  29.671  1.00  0.00     0.134 A 
ATOM     85  C   UNL A   1      41.851  36.268  27.772  1.00  0.00     0.134 A 
ATOM     86  F   UNL A   1      43.752  36.756  30.820  1.00  0.00    -0.206 F 
ATOM     87  C   UNL A   1      43.212  38.238  29.119  1.00  0.00     0.040 A 
ATOM     88  C   UNL A   1      42.012  37.528  27.187  1.00  0.00     0.040 A 
ATOM     89  F   UNL A   1      41.162  35.390  27.028  1.00  0.00    -0.206 F 
ATOM     90  C   UNL A   1      42.684  38.526  27.867  1.00  0.00     0.006 A 
ENDBRANCH  66  83
ENDBRANCH  40  41
ENDBRANCH  32  35
ENDBRANCH  30  31
ENDBRANCH  29  30
ENDBRANCH   1  29
TORSDOF 15
ENDMDL
MODEL 2
REMARK VINA RESULT:     -12.4      1.468      2.201
REMARK SMILES Cc1ccc(-c2cc([C@@H](C)C(=O)NCCCCNC(=O)c3ccc(-c4c5nc(c(-c6c(F)cccc6F)c6ccc([nH]6)c(-c6c(F)cccc6F)c6nc(c(-c7c(F)cccc7F)c7ccc4[nH]7)C=C6)C=C5)cc3)ccc2C[C@H]2CCCC2=O)cc1
REMARK SMILES IDX 15 1 14 2 13 3 11 4 12 5 9 7 10 8 8 9 6 10 7 11 77 12 76 13
REMARK SMILES IDX 75 14 5 15 1 16 2 17 3 18 86 19 4 20 85 21 78 22 79 23 80 24
REMARK SMILES IDX 83 25 81 26 82 27 84 28 16 29 17 30 18 31 19 32 20 34 21 35
REMARK SMILES IDX 22 36 74 37 23 38 73 39 24 40 25 41 26 42 67 43 27 44 72 45
REMARK SMILES IDX 66 46 68 47 28 48 71 49 65 50 64 51 29 53 55 54 38 55 54 56
REMARK SMILES IDX 39 57 42 58 53 59 69 60 40 61 41 62 52 64 70 65 43 66 30 67
REMARK SMILES IDX 31 68 36 69 32 70 33 71 35 72 37 73 34 74 56 75 57 76 62 77
REMARK SMILES IDX 58 78 59 79 61 80 63 81 60 82 44 83 45 84 50 85 46 86 47 87
REMARK SMILES IDX 49 88 51 89 48 90
REMARK H PARENT 13 6 18 33 68 52 42 63
REMARK Flexibility Score: inf
ROOT
ATOM      1  C   UNL A   1      39.172  19.374  25.733  1.00  0.00     0.023 C 
ENDROOT
BRANCH   1   2
ATOM      2  C   UNL A   1      38.313  20.295  24.853  1.00  0.00     0.116 C 
BRANCH   2   3
ATOM      3  N   UNL A   1      36.969  20.449  25.377  1.00  0.00    -0.356 N 
ATOM      4  C   UNL A   1      36.174  21.540  25.553  1.00  0.00     0.227 C 
ATOM      5  O   UNL A   1      35.104  21.340  26.142  1.00  0.00    -0.274 OA
ATOM      6  H   UNL A   1      36.551  19.603  25.658  1.00  0.00     0.163 HD
BRANCH   4   7
ATOM      7  C   UNL A   1      36.514  22.953  25.049  1.00  0.00     0.105 C 
ATOM      8  C   UNL A   1      37.316  23.777  26.056  1.00  0.00     0.023 C 
BRANCH   7   9
ATOM      9  C   UNL A   1      35.348  23.666  24.380  1.00  0.00    -0.035 A 
ATOM     10  C   UNL A   1      33.985  25.708  24.146  1.00  0.00    -0.015 A 
ATOM     11  C   UNL A   1      35.011  24.973  24.778  1.00  0.00     0.013 A 
ATOM     12  C   UNL A   1      33.392  25.172  22.981  1.00  0.00    -0.039 A 
ATOM     13  C   UNL A   1      33.660  23.837  22.645  1.00  0.00     0.004 A 
ATOM     14  C   UNL A   1      34.579  23.082  23.374  1.00  0.00     0.005 A 
BRANCH  10  15
ATOM     15  C   UNL A   1      33.468  26.926  24.798  1.00  0.00    -0.018 A 
ATOM     16  C   UNL A   1      31.888  30.377  26.878  1.00  0.00     0.044 C 
ATOM     17  C   UNL A   1      32.459  29.195  26.155  1.00  0.00    -0.051 A 
ATOM     18  C   UNL A   1      32.407  27.936  26.755  1.00  0.00     0.004 A 
ATOM     19  C   UNL A   1      33.033  29.318  24.884  1.00  0.00     0.004 A 
ATOM     20  C   UNL A   1      32.919  26.824  26.091  1.00  0.00     0.009 A 
ATOM     21  C   UNL A   1      33.537  28.195  24.212  1.00  0.00     0.009 A 
ENDBRANCH  10  15
BRANCH  12  22
ATOM     22  C   UNL A   1      32.475  25.971  22.072  1.00  0.00     0.047 C 
BRANCH  22  23
ATOM     23  C   UNL A   1      30.967  25.839  22.328  1.00  0.00     0.060 C 
ATOM     24  C   UNL A   1      30.521  24.914  23.468  1.00  0.00     0.012 C 
ATOM     25  C   UNL A   1      30.313  27.149  22.706  1.00  0.00     0.136 C 
ATOM     26  C   UNL A   1      30.161  25.824  24.636  1.00  0.00     0.009 C 
ATOM     27  C   UNL A   1      29.535  27.046  23.985  1.00  0.00     0.076 C 
ATOM     28  O   UNL A   1      30.371  28.171  22.033  1.00  0.00    -0.299 OA
ENDBRANCH  22  23
ENDBRANCH  12  22
ENDBRANCH   7   9
ENDBRANCH   4   7
ENDBRANCH   2   3
ENDBRANCH   1   2
BRANCH   1  29
ATOM     29  C   UNL A   1      40.412  20.046  26.315  1.00  0.00     0.023 C 
BRANCH  29  30
ATOM     30  C   UNL A   1      40.455  21.544  26.081  1.00  0.00     0.116 C 
BRANCH  30  31
ATOM     31  N   UNL A   1      41.780  22.121  25.877  1.00  0.00    -0.352 N 
ATOM     32  C   UNL A   1      42.160  23.459  25.921  1.00  0.00     0.251 C 
ATOM     33  H   UNL A   1      42.500  21.479  25.680  1.00  0.00     0.163 HD
ATOM     34  O   UNL A   1      43.312  23.785  25.683  1.00  0.00    -0.269 OA
BRANCH  32  35
ATOM     35  C   UNL A   1      41.185  24.472  26.411  1.00  0.00     0.039 A 
ATOM     36  C   UNL A   1      41.200  25.735  25.812  1.00  0.00     0.014 A 
ATOM     37  C   UNL A   1      40.494  24.277  27.600  1.00  0.00     0.014 A 
ATOM     38  C   UNL A   1      40.787  26.841  26.552  1.00  0.00     0.010 A 
ATOM     39  C   UNL A   1      40.224  25.377  28.389  1.00  0.00     0.010 A 
ATOM     40  C   UNL A   1      40.437  26.664  27.890  1.00  0.00    -0.014 A 
BRANCH  40  41
ATOM     41  C   UNL A   1      40.438  27.753  28.863  1.00  0.00     0.031 A 
ATOM     42  C   UNL A   1      39.401  28.807  28.832  1.00  0.00     0.074 A 
ATOM     43  C   UNL A   1      41.367  27.777  29.849  1.00  0.00     0.049 A 
ATOM     44  N   UNL A   1      39.583  29.999  29.293  1.00  0.00    -0.248 NA
ATOM     45  C   UNL A   1      38.078  28.616  28.247  1.00  0.00     0.031 C 
ATOM     46  C   UNL A   1      41.369  28.626  31.038  1.00  0.00     0.029 A 
ATOM     47  N   UNL A   1      42.628  27.165  29.860  1.00  0.00    -0.354 N 
ATOM     48  C   UNL A   1      38.367  30.640  29.299  1.00  0.00     0.074 A 
ATOM     49  C   UNL A   1      37.468  29.752  28.602  1.00  0.00     0.031 C 
ATOM     50  C   UNL A   1      42.624  28.722  31.502  1.00  0.00     0.029 A 
ATOM     51  C   UNL A   1      43.489  28.038  30.558  1.00  0.00     0.049 A 
ATOM     52  H   UNL A   1      42.866  26.297  29.459  1.00  0.00     0.167 HD
ATOM     53  C   UNL A   1      38.218  31.804  29.990  1.00  0.00     0.037 A 
ATOM     54  C   UNL A   1      44.596  28.578  29.977  1.00  0.00     0.037 A 
ATOM     55  C   UNL A   1      39.457  32.207  30.643  1.00  0.00     0.049 A 
ATOM     56  C   UNL A   1      44.611  30.088  29.951  1.00  0.00     0.074 A 
ATOM     57  C   UNL A   1      39.935  32.038  31.933  1.00  0.00     0.029 A 
ATOM     58  N   UNL A   1      40.537  32.616  29.873  1.00  0.00    -0.354 N 
ATOM     59  N   UNL A   1      43.560  30.831  30.157  1.00  0.00    -0.248 NA
ATOM     60  C   UNL A   1      45.800  30.882  29.656  1.00  0.00     0.031 C 
ATOM     61  C   UNL A   1      41.318  32.336  31.933  1.00  0.00     0.029 A 
ATOM     62  C   UNL A   1      41.677  32.695  30.646  1.00  0.00     0.049 A 
ATOM     63  H   UNL A   1      40.495  32.819  28.910  1.00  0.00     0.167 HD
ATOM     64  C   UNL A   1      43.886  32.154  29.986  1.00  0.00     0.074 A 
ATOM     65  C   UNL A   1      45.309  32.133  29.711  1.00  0.00     0.031 C 
ATOM     66  C   UNL A   1      42.938  33.136  30.068  1.00  0.00     0.037 A 
BRANCH  53  67
ATOM     67  C   UNL A   1      36.876  32.423  30.281  1.00  0.00     0.057 A 
ATOM     68  C   UNL A   1      36.240  33.262  29.345  1.00  0.00     0.134 A 
ATOM     69  C   UNL A   1      36.175  32.250  31.485  1.00  0.00     0.134 A 
ATOM     70  F   UNL A   1      36.734  33.455  28.116  1.00  0.00    -0.206 F 
ATOM     71  C   UNL A   1      35.061  33.961  29.632  1.00  0.00     0.040 A 
ATOM     72  C   UNL A   1      35.026  32.983  31.806  1.00  0.00     0.040 A 
ATOM     73  F   UNL A   1      36.561  31.336  32.387  1.00  0.00    -0.206 F 
ATOM     74  C   UNL A   1      34.469  33.854  30.881  1.00  0.00     0.006 A 
ENDBRANCH  53  67
BRANCH  54  75
ATOM     75  C   UNL A   1      45.219  27.697  28.960  1.00  0.00     0.057 A 
ATOM     76  C   UNL A   1      44.892  27.899  27.607  1.00  0.00     0.134 A 
ATOM     77  C   UNL A   1      46.371  26.956  29.234  1.00  0.00     0.134 A 
ATOM     78  F   UNL A   1      43.799  28.606  27.277  1.00  0.00    -0.206 F 
ATOM     79  C   UNL A   1      45.733  27.480  26.574  1.00  0.00     0.040 A 
ATOM     80  C   UNL A   1      47.218  26.525  28.205  1.00  0.00     0.040 A 
ATOM     81  F   UNL A   1      46.761  26.746  30.499  1.00  0.00    -0.206 F 
ATOM     82  C   UNL A   1      46.919  26.820  26.876  1.00  0.00     0.006 A 
ENDBRANCH  54  75
BRANCH  66  83
ATOM     83  C   UNL A   1      43.080  34.601  29.698  1.00  0.00     0.057 A 
ATOM     84  C   UNL A   1      43.266  35.648  30.611  1.00  0.00     0.134 A 
ATOM     85  C   UNL A   1      43.176  34.986  28.337  1.00  0.00     0.134 A 
ATOM     86  F   UNL A   1      43.312  35.434  31.932  1.00  0.00    -0.206 F 
ATOM     87  C   UNL A   1      43.479  36.976  30.208  1.00  0.00     0.040 A 
ATOM     88  C   UNL A   1      43.446  36.295  27.924  1.00  0.00     0.040 A 
ATOM     89  F   UNL A   1      43.039  34.103  27.338  1.00  0.00    -0.206 F 
ATOM     90  C   UNL A   1      43.585  37.302  28.862  1.00  0.00     0.006 A 
ENDBRANCH  66  83
ENDBRANCH  40  41
ENDBRANCH  32  35
ENDBRANCH  30  31
ENDBRANCH  29  30
ENDBRANCH   1  29
TORSDOF 15
ENDMDL
MODEL 3
REMARK VINA RESULT:     -12.4      2.695      4.452
REMARK SMILES Cc1ccc(-c2cc([C@@H](C)C(=O)NCCCCNC(=O)c3ccc(-c4c5nc(c(-c6c(F)cccc6F)c6ccc([nH]6)c(-c6c(F)cccc6F)c6nc(c(-c7c(F)cccc7F)c7ccc4[nH]7)C=C6)C=C5)cc3)ccc2C[C@H]2CCCC2=O)cc1
REMARK SMILES IDX 15 1 14 2 13 3 11 4 12 5 9 7 10 8 8 9 6 10 7 11 77 12 76 13
REMARK SMILES IDX 75 14 5 15 1 16 2 17 3 18 86 19 4 20 85 21 78 22 79 23 80 24
REMARK SMILES IDX 83 25 81 26 82 27 84 28 16 29 17 30 18 31 19 32 20 34 21 35
REMARK SMILES IDX 22 36 74 37 23 38 73 39 24 40 25 41 26 42 67 43 27 44 72 45
REMARK SMILES IDX 66 46 68 47 28 48 71 49 65 50 64 51 29 53 55 54 38 55 54 56
REMARK SMILES IDX 39 57 42 58 53 59 69 60 40 61 41 62 52 64 70 65 43 66 30 67
REMARK SMILES IDX 31 68 36 69 32 70 33 71 35 72 37 73 34 74 56 75 57 76 62 77
REMARK SMILES IDX 58 78 59 79 61 80 63 81 60 82 44 83 45 84 50 85 46 86 47 87
REMARK SMILES IDX 49 88 51 89 48 90
REMARK H PARENT 13 6 18 33 68 52 42 63
REMARK Flexibility Score: inf
ROOT
ATOM      1  C   UNL A   1      39.486  22.611  26.609  1.00  0.00     0.023 C 
ENDROOT
BRANCH   1   2
ATOM      2  C   UNL A   1      38.180  22.021  26.057  1.00  0.00     0.116 C 
BRANCH   2   3
ATOM      3  N   UNL A   1      37.848  22.559  24.751  1.00  0.00    -0.356 N 
ATOM      4  C   UNL A   1      36.663  22.729  24.103  1.00  0.00     0.227 C 
ATOM      5  O   UNL A   1      36.739  23.118  22.931  1.00  0.00    -0.274 OA
ATOM      6  H   UNL A   1      38.631  22.861  24.235  1.00  0.00     0.163 HD
BRANCH   4   7
ATOM      7  C   UNL A   1      35.284  22.498  24.743  1.00  0.00     0.105 C 
ATOM      8  C   UNL A   1      34.813  21.047  24.656  1.00  0.00     0.023 C 
BRANCH   7   9
ATOM      9  C   UNL A   1      34.252  23.558  24.384  1.00  0.00    -0.035 A 
ATOM     10  C   UNL A   1      33.485  25.895  24.567  1.00  0.00    -0.015 A 
ATOM     11  C   UNL A   1      34.371  24.854  24.919  1.00  0.00     0.013 A 
ATOM     12  C   UNL A   1      32.555  25.665  23.529  1.00  0.00    -0.039 A 
ATOM     13  C   UNL A   1      32.375  24.352  23.068  1.00  0.00     0.004 A 
ATOM     14  C   UNL A   1      33.174  23.309  23.536  1.00  0.00     0.005 A 
BRANCH  10  15
ATOM     15  C   UNL A   1      33.458  27.122  25.385  1.00  0.00    -0.018 A 
ATOM     16  C   UNL A   1      33.513  30.814  27.644  1.00  0.00     0.044 C 
ATOM     17  C   UNL A   1      33.467  29.536  26.861  1.00  0.00    -0.051 A 
ATOM     18  C   UNL A   1      34.176  29.442  25.663  1.00  0.00     0.004 A 
ATOM     19  C   UNL A   1      32.739  28.426  27.308  1.00  0.00     0.004 A 
ATOM     20  C   UNL A   1      34.157  28.256  24.931  1.00  0.00     0.009 A 
ATOM     21  C   UNL A   1      32.731  27.231  26.576  1.00  0.00     0.009 A 
ENDBRANCH  10  15
BRANCH  12  22
ATOM     22  C   UNL A   1      31.735  26.770  22.888  1.00  0.00     0.047 C 
BRANCH  22  23
ATOM     23  C   UNL A   1      30.747  27.513  23.799  1.00  0.00     0.060 C 
ATOM     24  C   UNL A   1      30.682  29.041  23.673  1.00  0.00     0.012 C 
ATOM     25  C   UNL A   1      29.308  27.112  23.566  1.00  0.00     0.136 C 
ATOM     26  C   UNL A   1      29.429  29.345  22.860  1.00  0.00     0.009 C 
ATOM     27  C   UNL A   1      28.424  28.295  23.304  1.00  0.00     0.076 C 
ATOM     28  O   UNL A   1      28.894  25.960  23.623  1.00  0.00    -0.299 OA
ENDBRANCH  22  23
ENDBRANCH  12  22
ENDBRANCH   7   9
ENDBRANCH   4   7
ENDBRANCH   2   3
ENDBRANCH   1   2
BRANCH   1  29
ATOM     29  C   UNL A   1      40.725  22.257  25.792  1.00  0.00     0.023 C 
BRANCH  29  30
ATOM     30  C   UNL A   1      41.708  21.374  26.538  1.00  0.00     0.116 C 
BRANCH  30  31
ATOM     31  N   UNL A   1      42.584  20.552  25.708  1.00  0.00    -0.352 N 
ATOM     32  C   UNL A   1      43.777  20.909  25.089  1.00  0.00     0.251 C 
ATOM     33  H   UNL A   1      42.291  19.622  25.569  1.00  0.00     0.163 HD
ATOM     34  O   UNL A   1      44.375  20.109  24.386  1.00  0.00    -0.269 OA
BRANCH  32  35
ATOM     35  C   UNL A   1      44.395  22.224  25.412  1.00  0.00     0.039 A 
ATOM     36  C   UNL A   1      45.182  22.310  26.565  1.00  0.00     0.014 A 
ATOM     37  C   UNL A   1      43.977  23.382  24.770  1.00  0.00     0.014 A 
ATOM     38  C   UNL A   1      45.285  23.533  27.225  1.00  0.00     0.010 A 
ATOM     39  C   UNL A   1      43.950  24.559  25.493  1.00  0.00     0.010 A 
ATOM     40  C   UNL A   1      44.544  24.617  26.755  1.00  0.00    -0.014 A 
BRANCH  40  41
ATOM     41  C   UNL A   1      44.209  25.771  27.586  1.00  0.00     0.031 A 
ATOM     42  C   UNL A   1      42.848  26.349  27.578  1.00  0.00     0.074 A 
ATOM     43  C   UNL A   1      45.138  26.295  28.421  1.00  0.00     0.049 A 
ATOM     44  N   UNL A   1      42.596  27.581  27.867  1.00  0.00    -0.248 NA
ATOM     45  C   UNL A   1      41.656  25.592  27.211  1.00  0.00     0.031 C 
ATOM     46  C   UNL A   1      44.916  27.264  29.491  1.00  0.00     0.029 A 
ATOM     47  N   UNL A   1      46.535  26.200  28.325  1.00  0.00    -0.354 N 
ATOM     48  C   UNL A   1      41.233  27.721  27.970  1.00  0.00     0.074 A 
ATOM     49  C   UNL A   1      40.688  26.465  27.514  1.00  0.00     0.031 C 
ATOM     50  C   UNL A   1      46.072  27.889  29.759  1.00  0.00     0.029 A 
ATOM     51  C   UNL A   1      47.049  27.429  28.789  1.00  0.00     0.049 A 
ATOM     52  H   UNL A   1      47.052  25.429  27.999  1.00  0.00     0.167 HD
ATOM     53  C   UNL A   1      40.708  28.844  28.534  1.00  0.00     0.037 A 
ATOM     54  C   UNL A   1      47.809  28.238  27.999  1.00  0.00     0.037 A 
ATOM     55  C   UNL A   1      41.747  29.775  28.955  1.00  0.00     0.049 A 
ATOM     56  C   UNL A   1      47.239  29.622  27.796  1.00  0.00     0.074 A 
ATOM     57  C   UNL A   1      42.362  30.004  30.175  1.00  0.00     0.029 A 
ATOM     58  N   UNL A   1      42.516  30.423  27.998  1.00  0.00    -0.354 N 
ATOM     59  N   UNL A   1      46.005  29.948  28.060  1.00  0.00    -0.248 NA
ATOM     60  C   UNL A   1      48.001  30.740  27.246  1.00  0.00     0.031 C 
ATOM     61  C   UNL A   1      43.518  30.787  29.947  1.00  0.00     0.029 A 
ATOM     62  C   UNL A   1      43.600  31.040  28.588  1.00  0.00     0.049 A 
ATOM     63  H   UNL A   1      42.316  30.438  27.034  1.00  0.00     0.167 HD
ATOM     64  C   UNL A   1      45.781  31.252  27.691  1.00  0.00     0.074 A 
ATOM     65  C   UNL A   1      47.073  31.713  27.223  1.00  0.00     0.031 C 
ATOM     66  C   UNL A   1      44.538  31.815  27.792  1.00  0.00     0.037 A 
BRANCH  53  67
ATOM     67  C   UNL A   1      39.261  28.963  28.937  1.00  0.00     0.057 A 
ATOM     68  C   UNL A   1      38.292  29.463  28.045  1.00  0.00     0.134 A 
ATOM     69  C   UNL A   1      38.769  28.627  30.209  1.00  0.00     0.134 A 
ATOM     70  F   UNL A   1      38.583  29.741  26.768  1.00  0.00    -0.206 F 
ATOM     71  C   UNL A   1      36.968  29.714  28.425  1.00  0.00     0.040 A 
ATOM     72  C   UNL A   1      37.463  28.923  30.619  1.00  0.00     0.040 A 
ATOM     73  F   UNL A   1      39.529  27.967  31.094  1.00  0.00    -0.206 F 
ATOM     74  C   UNL A   1      36.557  29.481  29.728  1.00  0.00     0.006 A 
ENDBRANCH  53  67
BRANCH  54  75
ATOM     75  C   UNL A   1      48.633  27.497  27.014  1.00  0.00     0.057 A 
ATOM     76  C   UNL A   1      48.146  27.358  25.702  1.00  0.00     0.134 A 
ATOM     77  C   UNL A   1      49.997  27.273  27.215  1.00  0.00     0.134 A 
ATOM     78  F   UNL A   1      46.844  27.563  25.442  1.00  0.00    -0.206 F 
ATOM     79  C   UNL A   1      48.996  27.118  24.621  1.00  0.00     0.040 A 
ATOM     80  C   UNL A   1      50.858  27.026  26.139  1.00  0.00     0.040 A 
ATOM     81  F   UNL A   1      50.539  27.415  28.433  1.00  0.00    -0.206 F 
ATOM     82  C   UNL A   1      50.364  26.985  24.835  1.00  0.00     0.006 A 
ENDBRANCH  54  75
BRANCH  66  83
ATOM     83  C   UNL A   1      44.073  33.149  27.237  1.00  0.00     0.057 A 
ATOM     84  C   UNL A   1      43.895  33.438  25.877  1.00  0.00     0.134 A 
ATOM     85  C   UNL A   1      43.641  34.175  28.116  1.00  0.00     0.134 A 
ATOM     86  F   UNL A   1      44.152  32.534  24.923  1.00  0.00    -0.206 F 
ATOM     87  C   UNL A   1      43.378  34.662  25.424  1.00  0.00     0.040 A 
ATOM     88  C   UNL A   1      43.071  35.375  27.678  1.00  0.00     0.040 A 
ATOM     89  F   UNL A   1      43.727  34.051  29.448  1.00  0.00    -0.206 F 
ATOM     90  C   UNL A   1      42.950  35.630  26.324  1.00  0.00     0.006 A 
ENDBRANCH  66  83
ENDBRANCH  40  41
ENDBRANCH  32  35
ENDBRANCH  30  31
ENDBRANCH  29  30
ENDBRANCH   1  29
TORSDOF 15
ENDMDL
