MODEL 1
REMARK VINA RESULT:     -12.8      0.000      0.000
REMARK SMILES O=C1[NH+]=C(Nc2ccc(C(=O)NCCCCNC(=O)c3ccc(-c4c5nc(c(-c6c(F)cccc6F)c6ccc([nH]6)c(-c6c(F)cccc6F)c6nc(c(-c7c(F)cccc7F)c7ccc4[nH]7)C=C6)C=C5)cc3)c(O)c2)S/C1=C\c1ccc[nH]1
REMARK SMILES IDX 14 1 13 2 12 3 10 4 11 5 9 7 6 8 7 9 76 10 8 11 74 12 5 13
REMARK SMILES IDX 1 14 2 15 3 16 78 17 4 18 77 20 79 21 80 23 81 24 84 25
REMARK SMILES IDX 82 26 83 27 75 29 15 31 16 32 17 33 18 34 19 36 20 37 21 38
REMARK SMILES IDX 73 39 22 40 72 41 23 42 24 43 25 44 66 45 26 46 71 47 65 48
REMARK SMILES IDX 67 49 27 50 70 51 64 52 63 53 28 55 54 56 37 57 53 58 38 59
REMARK SMILES IDX 41 60 52 61 68 62 39 63 40 64 51 66 69 67 42 68 29 69 30 70
REMARK SMILES IDX 35 71 31 72 32 73 34 74 36 75 33 76 55 77 56 78 61 79 57 80
REMARK SMILES IDX 58 81 60 82 62 83 59 84 43 85 44 86 49 87 45 88 46 89 48 90
REMARK SMILES IDX 50 91 47 92
REMARK H PARENT 12 6 3 19 5 22 84 28 75 30 17 35 67 54 41 65
REMARK Flexibility Score: inf
ROOT
ATOM      1  C   UNL A   1      32.914  29.645  24.920  1.00  0.00     0.023 C 
ENDROOT
BRANCH   1   2
ATOM      2  C   UNL A   1      31.395  29.743  25.031  1.00  0.00     0.116 C 
BRANCH   2   3
ATOM      3  N   UNL A   1      30.689  29.756  23.761  1.00  0.00    -0.352 N 
ATOM      4  C   UNL A   1      30.352  28.712  22.928  1.00  0.00     0.255 C 
ATOM      5  O   UNL A   1      29.740  28.955  21.890  1.00  0.00    -0.269 OA
ATOM      6  H   UNL A   1      30.406  30.646  23.448  1.00  0.00     0.163 HD
BRANCH   4   7
ATOM      7  C   UNL A   1      30.759  27.316  23.219  1.00  0.00     0.081 A 
ATOM      8  C   UNL A   1      31.201  24.577  23.757  1.00  0.00     0.129 A 
ATOM      9  C   UNL A   1      30.309  25.323  24.533  1.00  0.00     0.053 A 
ATOM     10  C   UNL A   1      31.922  25.237  22.756  1.00  0.00     0.098 A 
ATOM     11  C   UNL A   1      30.093  26.679  24.274  1.00  0.00     0.022 A 
ATOM     12  C   UNL A   1      31.734  26.601  22.520  1.00  0.00     0.132 A 
BRANCH   8  13
ATOM     13  N   UNL A   1      31.332  23.190  23.890  1.00  0.00    -0.234 N 
ATOM     14  O   UNL A   1      35.697  22.152  25.169  1.00  0.00    -0.240 OA
ATOM     15  C   UNL A   1      34.545  21.964  24.799  1.00  0.00     0.346 C 
ATOM     16  N   UNL A   1      33.641  22.957  24.502  1.00  0.00    -0.199 N 
ATOM     17  C   UNL A   1      33.952  20.607  24.626  1.00  0.00     0.111 C 
ATOM     18  C   UNL A   1      32.474  22.507  24.181  1.00  0.00     0.322 C 
ATOM     19  H   UNL A   1      33.861  23.916  24.531  1.00  0.00     0.316 HD
ATOM     20  S   UNL A   1      32.304  20.766  24.163  1.00  0.00     0.006 SA
ATOM     21  C   UNL A   1      34.655  19.487  24.844  1.00  0.00     0.050 C 
ATOM     22  H   UNL A   1      30.516  22.654  23.761  1.00  0.00     0.313 HD
BRANCH  21  23
ATOM     23  C   UNL A   1      34.119  18.197  24.622  1.00  0.00     0.039 A 
ATOM     24  C   UNL A   1      34.033  17.379  23.512  1.00  0.00     0.027 A 
ATOM     25  N   UNL A   1      33.540  17.529  25.674  1.00  0.00    -0.362 N 
ATOM     26  C   UNL A   1      33.347  16.204  23.897  1.00  0.00     0.020 A 
ATOM     27  C   UNL A   1      33.045  16.326  25.234  1.00  0.00     0.083 A 
ATOM     28  H   UNL A   1      33.488  17.861  26.599  1.00  0.00     0.166 HD
ENDBRANCH  21  23
ENDBRANCH   8  13
BRANCH  12  29
ATOM     29  O   UNL A   1      32.576  27.160  21.598  1.00  0.00    -0.507 OA
ATOM     30  H   UNL A   1      33.337  27.628  21.882  1.00  0.00     0.293 HD
ENDBRANCH  12  29
ENDBRANCH   4   7
ENDBRANCH   2   3
ENDBRANCH   1   2
BRANCH   1  31
ATOM     31  C   UNL A   1      33.587  28.549  25.744  1.00  0.00     0.023 C 
BRANCH  31  32
ATOM     32  C   UNL A   1      33.506  28.700  27.259  1.00  0.00     0.116 C 
BRANCH  32  33
ATOM     33  N   UNL A   1      33.592  30.079  27.716  1.00  0.00    -0.352 N 
ATOM     34  C   UNL A   1      34.650  30.764  28.270  1.00  0.00     0.251 C 
ATOM     35  H   UNL A   1      32.766  30.603  27.614  1.00  0.00     0.163 HD
ATOM     36  O   UNL A   1      34.488  31.905  28.695  1.00  0.00    -0.269 OA
BRANCH  34  37
ATOM     37  C   UNL A   1      35.973  30.116  28.396  1.00  0.00     0.039 A 
ATOM     38  C   UNL A   1      36.857  30.166  27.316  1.00  0.00     0.014 A 
ATOM     39  C   UNL A   1      36.355  29.488  29.583  1.00  0.00     0.014 A 
ATOM     40  C   UNL A   1      38.157  29.674  27.462  1.00  0.00     0.010 A 
ATOM     41  C   UNL A   1      37.677  29.092  29.760  1.00  0.00     0.010 A 
ATOM     42  C   UNL A   1      38.595  29.184  28.703  1.00  0.00    -0.014 A 
BRANCH  42  43
ATOM     43  C   UNL A   1      40.009  28.775  28.920  1.00  0.00     0.031 A 
ATOM     44  C   UNL A   1      41.000  29.747  29.500  1.00  0.00     0.074 A 
ATOM     45  C   UNL A   1      40.420  27.553  28.526  1.00  0.00     0.049 A 
ATOM     46  N   UNL A   1      42.285  29.601  29.696  1.00  0.00    -0.248 NA
ATOM     47  C   UNL A   1      40.482  31.071  29.883  1.00  0.00     0.031 C 
ATOM     48  C   UNL A   1      39.574  26.535  27.898  1.00  0.00     0.029 A 
ATOM     49  N   UNL A   1      41.659  26.962  28.583  1.00  0.00    -0.354 N 
ATOM     50  C   UNL A   1      42.730  30.814  30.208  1.00  0.00     0.074 A 
ATOM     51  C   UNL A   1      41.591  31.705  30.233  1.00  0.00     0.031 C 
ATOM     52  C   UNL A   1      40.309  25.439  27.656  1.00  0.00     0.029 A 
ATOM     53  C   UNL A   1      41.688  25.690  28.064  1.00  0.00     0.049 A 
ATOM     54  H   UNL A   1      42.451  27.408  28.960  1.00  0.00     0.167 HD
ATOM     55  C   UNL A   1      43.969  31.149  30.640  1.00  0.00     0.037 A 
ATOM     56  C   UNL A   1      42.710  24.824  27.923  1.00  0.00     0.037 A 
ATOM     57  C   UNL A   1      45.097  30.254  30.630  1.00  0.00     0.049 A 
ATOM     58  C   UNL A   1      44.081  25.225  28.397  1.00  0.00     0.074 A 
ATOM     59  C   UNL A   1      46.377  30.478  31.105  1.00  0.00     0.029 A 
ATOM     60  N   UNL A   1      45.083  28.968  30.111  1.00  0.00    -0.354 N 
ATOM     61  N   UNL A   1      44.471  26.347  28.951  1.00  0.00    -0.248 NA
ATOM     62  C   UNL A   1      45.155  24.234  28.233  1.00  0.00     0.031 C 
ATOM     63  C   UNL A   1      47.153  29.351  30.817  1.00  0.00     0.029 A 
ATOM     64  C   UNL A   1      46.339  28.398  30.226  1.00  0.00     0.049 A 
ATOM     65  H   UNL A   1      44.295  28.526  29.717  1.00  0.00     0.167 HD
ATOM     66  C   UNL A   1      45.822  26.188  29.230  1.00  0.00     0.074 A 
ATOM     67  C   UNL A   1      46.182  24.854  28.797  1.00  0.00     0.031 C 
ATOM     68  C   UNL A   1      46.686  27.066  29.797  1.00  0.00     0.037 A 
BRANCH  55  69
ATOM     69  C   UNL A   1      44.170  32.545  31.159  1.00  0.00     0.057 A 
ATOM     70  C   UNL A   1      44.541  33.603  30.318  1.00  0.00     0.134 A 
ATOM     71  C   UNL A   1      43.959  32.841  32.511  1.00  0.00     0.134 A 
ATOM     72  F   UNL A   1      44.770  33.388  29.013  1.00  0.00    -0.206 F 
ATOM     73  C   UNL A   1      44.728  34.897  30.809  1.00  0.00     0.040 A 
ATOM     74  C   UNL A   1      44.109  34.138  33.008  1.00  0.00     0.040 A 
ATOM     75  F   UNL A   1      43.595  31.879  33.372  1.00  0.00    -0.206 F 
ATOM     76  C   UNL A   1      44.503  35.169  32.156  1.00  0.00     0.006 A 
ENDBRANCH  55  69
BRANCH  56  77
ATOM     77  C   UNL A   1      42.478  23.487  27.318  1.00  0.00     0.057 A 
ATOM     78  C   UNL A   1      42.074  22.398  28.100  1.00  0.00     0.134 A 
ATOM     79  C   UNL A   1      42.662  23.260  25.949  1.00  0.00     0.134 A 
ATOM     80  F   UNL A   1      41.898  22.545  29.422  1.00  0.00    -0.206 F 
ATOM     81  C   UNL A   1      41.883  21.129  27.549  1.00  0.00     0.040 A 
ATOM     82  C   UNL A   1      42.446  22.006  25.378  1.00  0.00     0.040 A 
ATOM     83  F   UNL A   1      43.040  24.262  25.141  1.00  0.00    -0.206 F 
ATOM     84  C   UNL A   1      42.065  20.933  26.181  1.00  0.00     0.006 A 
ENDBRANCH  56  77
BRANCH  68  85
ATOM     85  C   UNL A   1      48.096  26.600  30.024  1.00  0.00     0.057 A 
ATOM     86  C   UNL A   1      48.486  25.955  31.203  1.00  0.00     0.134 A 
ATOM     87  C   UNL A   1      49.065  26.763  29.025  1.00  0.00     0.134 A 
ATOM     88  F   UNL A   1      47.612  25.779  32.205  1.00  0.00    -0.206 F 
ATOM     89  C   UNL A   1      49.797  25.511  31.391  1.00  0.00     0.040 A 
ATOM     90  C   UNL A   1      50.369  26.294  29.188  1.00  0.00     0.040 A 
ATOM     91  F   UNL A   1      48.756  27.363  27.865  1.00  0.00    -0.206 F 
ATOM     92  C   UNL A   1      50.739  25.672  30.378  1.00  0.00     0.006 A 
ENDBRANCH  68  85
ENDBRANCH  42  43
ENDBRANCH  34  37
ENDBRANCH  32  33
ENDBRANCH  31  32
ENDBRANCH   1  31
TORSDOF 14
ENDMDL
MODEL 2
REMARK VINA RESULT:     -12.7      3.735      7.633
REMARK SMILES O=C1[NH+]=C(Nc2ccc(C(=O)NCCCCNC(=O)c3ccc(-c4c5nc(c(-c6c(F)cccc6F)c6ccc([nH]6)c(-c6c(F)cccc6F)c6nc(c(-c7c(F)cccc7F)c7ccc4[nH]7)C=C6)C=C5)cc3)c(O)c2)S/C1=C\c1ccc[nH]1
REMARK SMILES IDX 14 1 13 2 12 3 10 4 11 5 9 7 6 8 7 9 76 10 8 11 74 12 5 13
REMARK SMILES IDX 1 14 2 15 3 16 78 17 4 18 77 20 79 21 80 23 81 24 84 25
REMARK SMILES IDX 82 26 83 27 75 29 15 31 16 32 17 33 18 34 19 36 20 37 21 38
REMARK SMILES IDX 73 39 22 40 72 41 23 42 24 43 25 44 66 45 26 46 71 47 65 48
REMARK SMILES IDX 67 49 27 50 70 51 64 52 63 53 28 55 54 56 37 57 53 58 38 59
REMARK SMILES IDX 41 60 52 61 68 62 39 63 40 64 51 66 69 67 42 68 29 69 30 70
REMARK SMILES IDX 35 71 31 72 32 73 34 74 36 75 33 76 55 77 56 78 61 79 57 80
REMARK SMILES IDX 58 81 60 82 62 83 59 84 43 85 44 86 49 87 45 88 46 89 48 90
REMARK SMILES IDX 50 91 47 92
REMARK H PARENT 12 6 3 19 5 22 84 28 75 30 17 35 67 54 41 65
REMARK Flexibility Score: inf
ROOT
ATOM      1  C   UNL A   1      31.714  30.423  26.538  1.00  0.00     0.023 C 
ENDROOT
BRANCH   1   2
ATOM      2  C   UNL A   1      31.955  29.778  25.176  1.00  0.00     0.116 C 
BRANCH   2   3
ATOM      3  N   UNL A   1      30.819  29.816  24.270  1.00  0.00    -0.352 N 
ATOM      4  C   UNL A   1      30.166  28.787  23.630  1.00  0.00     0.255 C 
ATOM      5  O   UNL A   1      29.211  29.052  22.903  1.00  0.00    -0.269 OA
ATOM      6  H   UNL A   1      30.461  30.715  24.087  1.00  0.00     0.163 HD
BRANCH   4   7
ATOM      7  C   UNL A   1      30.620  27.379  23.747  1.00  0.00     0.081 A 
ATOM      8  C   UNL A   1      31.187  24.638  24.133  1.00  0.00     0.129 A 
ATOM      9  C   UNL A   1      30.856  25.458  25.215  1.00  0.00     0.053 A 
ATOM     10  C   UNL A   1      31.301  25.223  22.867  1.00  0.00     0.098 A 
ATOM     11  C   UNL A   1      30.581  26.816  25.029  1.00  0.00     0.022 A 
ATOM     12  C   UNL A   1      31.062  26.588  22.685  1.00  0.00     0.132 A 
BRANCH   8  13
ATOM     13  N   UNL A   1      31.323  23.251  24.258  1.00  0.00    -0.234 N 
ATOM     14  O   UNL A   1      35.817  22.176  24.898  1.00  0.00    -0.240 OA
ATOM     15  C   UNL A   1      34.622  21.997  24.701  1.00  0.00     0.346 C 
ATOM     16  N   UNL A   1      33.694  22.998  24.530  1.00  0.00    -0.199 N 
ATOM     17  C   UNL A   1      33.998  20.645  24.629  1.00  0.00     0.111 C 
ATOM     18  C   UNL A   1      32.489  22.557  24.386  1.00  0.00     0.322 C 
ATOM     19  H   UNL A   1      33.926  23.954  24.518  1.00  0.00     0.316 HD
ATOM     20  S   UNL A   1      32.302  20.818  24.408  1.00  0.00     0.006 SA
ATOM     21  C   UNL A   1      34.714  19.520  24.752  1.00  0.00     0.050 C 
ATOM     22  H   UNL A   1      30.492  22.723  24.253  1.00  0.00     0.313 HD
BRANCH  21  23
ATOM     23  C   UNL A   1      34.139  18.234  24.621  1.00  0.00     0.039 A 
ATOM     24  C   UNL A   1      33.993  17.358  23.564  1.00  0.00     0.027 A 
ATOM     25  N   UNL A   1      33.582  17.641  25.729  1.00  0.00    -0.362 N 
ATOM     26  C   UNL A   1      33.293  16.224  24.037  1.00  0.00     0.020 A 
ATOM     27  C   UNL A   1      33.042  16.429  25.375  1.00  0.00     0.083 A 
ATOM     28  H   UNL A   1      33.572  18.024  26.635  1.00  0.00     0.166 HD
ENDBRANCH  21  23
ENDBRANCH   8  13
BRANCH  12  29
ATOM     29  O   UNL A   1      31.317  27.067  21.430  1.00  0.00    -0.507 OA
ATOM     30  H   UNL A   1      30.733  27.686  21.038  1.00  0.00     0.293 HD
ENDBRANCH  12  29
ENDBRANCH   4   7
ENDBRANCH   2   3
ENDBRANCH   1   2
BRANCH   1  31
ATOM     31  C   UNL A   1      31.595  31.946  26.558  1.00  0.00     0.023 C 
BRANCH  31  32
ATOM     32  C   UNL A   1      32.683  32.696  27.316  1.00  0.00     0.116 C 
BRANCH  32  33
ATOM     33  N   UNL A   1      32.340  34.078  27.620  1.00  0.00    -0.352 N 
ATOM     34  C   UNL A   1      32.911  34.956  28.513  1.00  0.00     0.251 C 
ATOM     35  H   UNL A   1      31.583  34.441  27.107  1.00  0.00     0.163 HD
ATOM     36  O   UNL A   1      32.402  36.058  28.703  1.00  0.00    -0.269 OA
BRANCH  34  37
ATOM     37  C   UNL A   1      34.112  34.562  29.281  1.00  0.00     0.039 A 
ATOM     38  C   UNL A   1      33.953  34.041  30.567  1.00  0.00     0.014 A 
ATOM     39  C   UNL A   1      35.388  34.676  28.726  1.00  0.00     0.014 A 
ATOM     40  C   UNL A   1      35.063  33.543  31.254  1.00  0.00     0.010 A 
ATOM     41  C   UNL A   1      36.474  34.088  29.368  1.00  0.00     0.010 A 
ATOM     42  C   UNL A   1      36.324  33.511  30.637  1.00  0.00    -0.014 A 
BRANCH  42  43
ATOM     43  C   UNL A   1      37.494  32.870  31.296  1.00  0.00     0.031 A 
ATOM     44  C   UNL A   1      38.158  31.675  30.667  1.00  0.00     0.074 A 
ATOM     45  C   UNL A   1      37.913  33.315  32.497  1.00  0.00     0.049 A 
ATOM     46  N   UNL A   1      39.139  30.938  31.123  1.00  0.00    -0.248 NA
ATOM     47  C   UNL A   1      37.629  31.231  29.367  1.00  0.00     0.031 C 
ATOM     48  C   UNL A   1      37.321  34.430  33.242  1.00  0.00     0.029 A 
ATOM     49  N   UNL A   1      38.929  32.877  33.312  1.00  0.00    -0.354 N 
ATOM     50  C   UNL A   1      39.332  29.939  30.177  1.00  0.00     0.074 A 
ATOM     51  C   UNL A   1      38.327  30.126  29.153  1.00  0.00     0.031 C 
ATOM     52  C   UNL A   1      38.001  34.605  34.386  1.00  0.00     0.029 A 
ATOM     53  C   UNL A   1      39.044  33.589  34.482  1.00  0.00     0.049 A 
ATOM     54  H   UNL A   1      39.519  32.125  33.079  1.00  0.00     0.167 HD
ATOM     55  C   UNL A   1      40.276  28.968  30.149  1.00  0.00     0.037 A 
ATOM     56  C   UNL A   1      39.887  33.435  35.521  1.00  0.00     0.037 A 
ATOM     57  C   UNL A   1      41.287  28.796  31.160  1.00  0.00     0.049 A 
ATOM     58  C   UNL A   1      40.918  32.339  35.474  1.00  0.00     0.074 A 
ATOM     59  C   UNL A   1      42.326  27.882  31.191  1.00  0.00     0.029 A 
ATOM     60  N   UNL A   1      41.379  29.546  32.322  1.00  0.00    -0.354 N 
ATOM     61  N   UNL A   1      41.139  31.451  34.536  1.00  0.00    -0.248 NA
ATOM     62  C   UNL A   1      41.822  32.230  36.628  1.00  0.00     0.031 C 
ATOM     63  C   UNL A   1      43.010  28.040  32.400  1.00  0.00     0.029 A 
ATOM     64  C   UNL A   1      42.439  29.096  33.091  1.00  0.00     0.049 A 
ATOM     65  H   UNL A   1      40.779  30.288  32.565  1.00  0.00     0.167 HD
ATOM     66  C   UNL A   1      42.224  30.699  34.970  1.00  0.00     0.074 A 
ATOM     67  C   UNL A   1      42.625  31.246  36.249  1.00  0.00     0.031 C 
ATOM     68  C   UNL A   1      42.834  29.652  34.361  1.00  0.00     0.037 A 
BRANCH  55  69
ATOM     69  C   UNL A   1      40.257  28.014  28.987  1.00  0.00     0.057 A 
ATOM     70  C   UNL A   1      40.968  28.269  27.807  1.00  0.00     0.134 A 
ATOM     71  C   UNL A   1      39.544  26.811  29.063  1.00  0.00     0.134 A 
ATOM     72  F   UNL A   1      41.663  29.407  27.661  1.00  0.00    -0.206 F 
ATOM     73  C   UNL A   1      40.943  27.378  26.731  1.00  0.00     0.040 A 
ATOM     74  C   UNL A   1      39.540  25.897  28.008  1.00  0.00     0.040 A 
ATOM     75  F   UNL A   1      38.848  26.499  30.166  1.00  0.00    -0.206 F 
ATOM     76  C   UNL A   1      40.234  26.184  26.834  1.00  0.00     0.006 A 
ENDBRANCH  55  69
BRANCH  56  77
ATOM     77  C   UNL A   1      39.804  34.349  36.690  1.00  0.00     0.057 A 
ATOM     78  C   UNL A   1      39.034  34.020  37.813  1.00  0.00     0.134 A 
ATOM     79  C   UNL A   1      40.482  35.574  36.713  1.00  0.00     0.134 A 
ATOM     80  F   UNL A   1      38.346  32.869  37.846  1.00  0.00    -0.206 F 
ATOM     81  C   UNL A   1      38.923  34.885  38.904  1.00  0.00     0.040 A 
ATOM     82  C   UNL A   1      40.404  36.434  37.808  1.00  0.00     0.040 A 
ATOM     83  F   UNL A   1      41.244  35.945  35.674  1.00  0.00    -0.206 F 
ATOM     84  C   UNL A   1      39.614  36.094  38.905  1.00  0.00     0.006 A 
ENDBRANCH  56  77
BRANCH  68  85
ATOM     85  C   UNL A   1      44.029  29.054  35.048  1.00  0.00     0.057 A 
ATOM     86  C   UNL A   1      43.917  27.979  35.937  1.00  0.00     0.134 A 
ATOM     87  C   UNL A   1      45.317  29.537  34.777  1.00  0.00     0.134 A 
ATOM     88  F   UNL A   1      42.713  27.477  36.250  1.00  0.00    -0.206 F 
ATOM     89  C   UNL A   1      45.040  27.422  36.553  1.00  0.00     0.040 A 
ATOM     90  C   UNL A   1      46.449  28.968  35.361  1.00  0.00     0.040 A 
ATOM     91  F   UNL A   1      45.498  30.559  33.926  1.00  0.00    -0.206 F 
ATOM     92  C   UNL A   1      46.311  27.911  36.258  1.00  0.00     0.006 A 
ENDBRANCH  68  85
ENDBRANCH  42  43
ENDBRANCH  34  37
ENDBRANCH  32  33
ENDBRANCH  31  32
ENDBRANCH   1  31
TORSDOF 14
ENDMDL
MODEL 3
REMARK VINA RESULT:     -12.7      3.005      8.492
REMARK SMILES O=C1[NH+]=C(Nc2ccc(C(=O)NCCCCNC(=O)c3ccc(-c4c5nc(c(-c6c(F)cccc6F)c6ccc([nH]6)c(-c6c(F)cccc6F)c6nc(c(-c7c(F)cccc7F)c7ccc4[nH]7)C=C6)C=C5)cc3)c(O)c2)S/C1=C\c1ccc[nH]1
REMARK SMILES IDX 14 1 13 2 12 3 10 4 11 5 9 7 6 8 7 9 76 10 8 11 74 12 5 13
REMARK SMILES IDX 1 14 2 15 3 16 78 17 4 18 77 20 79 21 80 23 81 24 84 25
REMARK SMILES IDX 82 26 83 27 75 29 15 31 16 32 17 33 18 34 19 36 20 37 21 38
REMARK SMILES IDX 73 39 22 40 72 41 23 42 24 43 25 44 66 45 26 46 71 47 65 48
REMARK SMILES IDX 67 49 27 50 70 51 64 52 63 53 28 55 54 56 37 57 53 58 38 59
REMARK SMILES IDX 41 60 52 61 68 62 39 63 40 64 51 66 69 67 42 68 29 69 30 70
REMARK SMILES IDX 35 71 31 72 32 73 34 74 36 75 33 76 55 77 56 78 61 79 57 80
REMARK SMILES IDX 58 81 60 82 62 83 59 84 43 85 44 86 49 87 45 88 46 89 48 90
REMARK SMILES IDX 50 91 47 92
REMARK H PARENT 12 6 3 19 5 22 84 28 75 30 17 35 67 54 41 65
REMARK Flexibility Score: inf
ROOT
ATOM      1  C   UNL A   1      36.857  21.159  24.792  1.00  0.00     0.023 C 
ENDROOT
BRANCH   1   2
ATOM      2  C   UNL A   1      35.670  21.149  25.751  1.00  0.00     0.116 C 
BRANCH   2   3
ATOM      3  N   UNL A   1      34.511  20.408  25.282  1.00  0.00    -0.352 N 
ATOM      4  C   UNL A   1      33.365  20.860  24.667  1.00  0.00     0.255 C 
ATOM      5  O   UNL A   1      32.503  20.044  24.346  1.00  0.00    -0.269 OA
ATOM      6  H   UNL A   1      34.551  19.434  25.426  1.00  0.00     0.163 HD
BRANCH   4   7
ATOM      7  C   UNL A   1      33.117  22.304  24.436  1.00  0.00     0.081 A 
ATOM      8  C   UNL A   1      32.418  24.957  23.760  1.00  0.00     0.129 A 
ATOM      9  C   UNL A   1      32.838  24.056  22.777  1.00  0.00     0.053 A 
ATOM     10  C   UNL A   1      32.422  24.534  25.094  1.00  0.00     0.098 A 
ATOM     11  C   UNL A   1      33.191  22.745  23.109  1.00  0.00     0.022 A 
ATOM     12  C   UNL A   1      32.809  23.235  25.431  1.00  0.00     0.132 A 
BRANCH   8  13
ATOM     13  N   UNL A   1      31.917  26.226  23.448  1.00  0.00    -0.234 N 
ATOM     14  O   UNL A   1      27.322  26.328  24.251  1.00  0.00    -0.240 OA
ATOM     15  C   UNL A   1      28.418  26.713  23.863  1.00  0.00     0.346 C 
ATOM     16  N   UNL A   1      29.576  25.972  23.910  1.00  0.00    -0.199 N 
ATOM     17  C   UNL A   1      28.652  28.068  23.285  1.00  0.00     0.111 C 
ATOM     18  C   UNL A   1      30.612  26.616  23.488  1.00  0.00     0.322 C 
ATOM     19  H   UNL A   1      29.611  25.043  24.234  1.00  0.00     0.316 HD
ATOM     20  S   UNL A   1      30.324  28.248  22.928  1.00  0.00     0.006 SA
ATOM     21  C   UNL A   1      27.663  28.957  23.127  1.00  0.00     0.050 C 
ATOM     22  H   UNL A   1      32.574  26.906  23.174  1.00  0.00     0.313 HD
BRANCH  21  23
ATOM     23  C   UNL A   1      27.864  30.220  22.521  1.00  0.00     0.039 A 
ATOM     24  C   UNL A   1      28.079  31.491  23.016  1.00  0.00     0.027 A 
ATOM     25  N   UNL A   1      27.866  30.304  21.150  1.00  0.00    -0.362 N 
ATOM     26  C   UNL A   1      28.173  32.372  21.914  1.00  0.00     0.020 A 
ATOM     27  C   UNL A   1      28.028  31.615  20.773  1.00  0.00     0.083 A 
ATOM     28  H   UNL A   1      27.769  29.544  20.533  1.00  0.00     0.166 HD
ENDBRANCH  21  23
ENDBRANCH   8  13
BRANCH  12  29
ATOM     29  O   UNL A   1      32.885  22.973  26.771  1.00  0.00    -0.507 OA
ATOM     30  H   UNL A   1      33.720  22.945  27.196  1.00  0.00     0.293 HD
ENDBRANCH  12  29
ENDBRANCH   4   7
ENDBRANCH   2   3
ENDBRANCH   1   2
BRANCH   1  31
ATOM     31  C   UNL A   1      37.858  20.013  24.936  1.00  0.00     0.023 C 
BRANCH  31  32
ATOM     32  C   UNL A   1      39.110  20.311  25.751  1.00  0.00     0.116 C 
BRANCH  32  33
ATOM     33  N   UNL A   1      40.047  19.198  25.815  1.00  0.00    -0.352 N 
ATOM     34  C   UNL A   1      41.401  19.193  26.064  1.00  0.00     0.251 C 
ATOM     35  H   UNL A   1      39.651  18.312  25.656  1.00  0.00     0.163 HD
ATOM     36  O   UNL A   1      42.040  18.149  25.967  1.00  0.00    -0.269 OA
BRANCH  34  37
ATOM     37  C   UNL A   1      42.099  20.451  26.406  1.00  0.00     0.039 A 
ATOM     38  C   UNL A   1      42.624  21.236  25.376  1.00  0.00     0.014 A 
ATOM     39  C   UNL A   1      42.211  20.873  27.732  1.00  0.00     0.014 A 
ATOM     40  C   UNL A   1      43.171  22.487  25.669  1.00  0.00     0.010 A 
ATOM     41  C   UNL A   1      42.662  22.160  28.011  1.00  0.00     0.010 A 
ATOM     42  C   UNL A   1      43.143  22.984  26.983  1.00  0.00    -0.014 A 
BRANCH  42  43
ATOM     43  C   UNL A   1      43.600  24.364  27.300  1.00  0.00     0.031 A 
ATOM     44  C   UNL A   1      42.610  25.411  27.732  1.00  0.00     0.074 A 
ATOM     45  C   UNL A   1      44.895  24.696  27.128  1.00  0.00     0.049 A 
ATOM     46  N   UNL A   1      42.803  26.681  27.981  1.00  0.00    -0.248 NA
ATOM     47  C   UNL A   1      41.209  24.979  27.874  1.00  0.00     0.031 C 
ATOM     48  C   UNL A   1      45.948  23.791  26.660  1.00  0.00     0.029 A 
ATOM     49  N   UNL A   1      45.547  25.891  27.314  1.00  0.00    -0.354 N 
ATOM     50  C   UNL A   1      41.553  27.200  28.292  1.00  0.00     0.074 A 
ATOM     51  C   UNL A   1      40.598  26.124  28.139  1.00  0.00     0.031 C 
ATOM     52  C   UNL A   1      47.115  24.453  26.625  1.00  0.00     0.029 A 
ATOM     53  C   UNL A   1      46.888  25.840  27.018  1.00  0.00     0.049 A 
ATOM     54  H   UNL A   1      45.096  26.706  27.630  1.00  0.00     0.167 HD
ATOM     55  C   UNL A   1      41.230  28.453  28.692  1.00  0.00     0.037 A 
ATOM     56  C   UNL A   1      47.829  26.803  27.050  1.00  0.00     0.037 A 
ATOM     57  C   UNL A   1      42.185  29.518  28.861  1.00  0.00     0.049 A 
ATOM     58  C   UNL A   1      47.444  28.192  27.483  1.00  0.00     0.074 A 
ATOM     59  C   UNL A   1      41.967  30.804  29.322  1.00  0.00     0.029 A 
ATOM     60  N   UNL A   1      43.537  29.423  28.565  1.00  0.00    -0.354 N 
ATOM     61  N   UNL A   1      46.271  28.649  27.849  1.00  0.00    -0.248 NA
ATOM     62  C   UNL A   1      48.516  29.198  27.515  1.00  0.00     0.031 C 
ATOM     63  C   UNL A   1      43.175  31.505  29.248  1.00  0.00     0.029 A 
ATOM     64  C   UNL A   1      44.159  30.636  28.806  1.00  0.00     0.049 A 
ATOM     65  H   UNL A   1      43.987  28.612  28.233  1.00  0.00     0.167 HD
ATOM     66  C   UNL A   1      46.468  29.983  28.185  1.00  0.00     0.074 A 
ATOM     67  C   UNL A   1      47.877  30.257  27.992  1.00  0.00     0.031 C 
ATOM     68  C   UNL A   1      45.564  30.897  28.616  1.00  0.00     0.037 A 
BRANCH  55  69
ATOM     69  C   UNL A   1      39.782  28.742  28.973  1.00  0.00     0.057 A 
ATOM     70  C   UNL A   1      39.236  28.617  30.257  1.00  0.00     0.134 A 
ATOM     71  C   UNL A   1      38.930  29.179  27.951  1.00  0.00     0.134 A 
ATOM     72  F   UNL A   1      39.992  28.192  31.281  1.00  0.00    -0.206 F 
ATOM     73  C   UNL A   1      37.889  28.886  30.509  1.00  0.00     0.040 A 
ATOM     74  C   UNL A   1      37.590  29.483  28.197  1.00  0.00     0.040 A 
ATOM     75  F   UNL A   1      39.388  29.328  26.699  1.00  0.00    -0.206 F 
ATOM     76  C   UNL A   1      37.064  29.328  29.478  1.00  0.00     0.006 A 
ENDBRANCH  55  69
BRANCH  56  77
ATOM     77  C   UNL A   1      49.232  26.489  26.673  1.00  0.00     0.057 A 
ATOM     78  C   UNL A   1      49.688  26.670  25.361  1.00  0.00     0.134 A 
ATOM     79  C   UNL A   1      50.148  25.991  27.608  1.00  0.00     0.134 A 
ATOM     80  F   UNL A   1      48.855  27.127  24.414  1.00  0.00    -0.206 F 
ATOM     81  C   UNL A   1      50.994  26.348  24.988  1.00  0.00     0.040 A 
ATOM     82  C   UNL A   1      51.464  25.692  27.257  1.00  0.00     0.040 A 
ATOM     83  F   UNL A   1      49.778  25.801  28.883  1.00  0.00    -0.206 F 
ATOM     84  C   UNL A   1      51.888  25.862  25.940  1.00  0.00     0.006 A 
ENDBRANCH  56  77
BRANCH  68  85
ATOM     85  C   UNL A   1      46.075  32.269  28.953  1.00  0.00     0.057 A 
ATOM     86  C   UNL A   1      46.098  33.307  28.014  1.00  0.00     0.134 A 
ATOM     87  C   UNL A   1      46.509  32.564  30.253  1.00  0.00     0.134 A 
ATOM     88  F   UNL A   1      45.708  33.089  26.749  1.00  0.00    -0.206 F 
ATOM     89  C   UNL A   1      46.558  34.582  28.348  1.00  0.00     0.040 A 
ATOM     90  C   UNL A   1      46.940  33.843  30.608  1.00  0.00     0.040 A 
ATOM     91  F   UNL A   1      46.503  31.619  31.205  1.00  0.00    -0.206 F 
ATOM     92  C   UNL A   1      46.972  34.855  29.650  1.00  0.00     0.006 A 
ENDBRANCH  68  85
ENDBRANCH  42  43
ENDBRANCH  34  37
ENDBRANCH  32  33
ENDBRANCH  31  32
ENDBRANCH   1  31
TORSDOF 14
ENDMDL
