MODEL 1
REMARK VINA RESULT:     -10.8      0.000      0.000
REMARK SMILES Cc1[nH]c2ccccc2c1CC(=O)N(C)CCCC(=O)NCCCCNC(=O)c1ccc(-c2c3nc(c(-c4c(F)cccc4F)c4ccc([nH]4)c(-c4c(F)cccc4F)c4nc(c(-c5c(F)cccc5F)c5ccc2[nH]5)C=C4)C=C3)cc1
REMARK SMILES IDX 19 1 20 2 21 3 18 5 17 6 16 7 14 8 15 9 12 10 13 11 11 12
REMARK SMILES IDX 10 13 1 14 2 15 3 16 4 17 9 19 5 20 8 21 6 22 7 23 22 24
REMARK SMILES IDX 23 25 24 26 25 27 26 28 27 29 28 31 29 32 30 33 82 34 31 35
REMARK SMILES IDX 81 36 32 37 33 38 34 39 75 40 35 41 80 42 74 43 76 44 36 45
REMARK SMILES IDX 79 46 73 47 72 48 37 50 63 51 46 52 62 53 47 54 50 55 61 56
REMARK SMILES IDX 77 57 48 58 49 59 60 61 78 62 51 63 38 64 39 65 44 66 40 67
REMARK SMILES IDX 41 68 43 69 45 70 42 71 64 72 65 73 70 74 66 75 67 76 69 77
REMARK SMILES IDX 71 78 68 79 52 80 53 81 58 82 54 83 55 84 57 85 59 86 56 87
REMARK H PARENT 21 4 3 18 26 30 76 49 50 60
REMARK Flexibility Score: inf
ROOT
ATOM      1  C   UNL A   1      33.496  27.959  24.826  1.00  0.00     0.220 C 
ATOM      2  O   UNL A   1      34.117  27.881  23.761  1.00  0.00    -0.275 OA
ATOM      3  N   UNL A   1      32.819  29.114  25.057  1.00  0.00    -0.356 N 
ATOM      4  H   UNL A   1      32.855  29.764  24.319  1.00  0.00     0.163 HD
ENDROOT
BRANCH   1   5
ATOM      5  C   UNL A   1      33.433  26.764  25.764  1.00  0.00     0.102 C 
BRANCH   5   6
ATOM      6  C   UNL A   1      34.069  25.432  25.358  1.00  0.00     0.031 C 
BRANCH   6   7
ATOM      7  C   UNL A   1      34.170  24.240  26.315  1.00  0.00     0.119 C 
BRANCH   7   8
ATOM      8  N   UNL A   1      33.112  23.217  26.436  1.00  0.00    -0.345 N 
ATOM      9  C   UNL A   1      33.624  21.866  26.660  1.00  0.00     0.146 C 
BRANCH   8  10
ATOM     10  C   UNL A   1      31.747  23.492  26.449  1.00  0.00     0.226 C 
ATOM     11  O   UNL A   1      31.185  24.082  27.371  1.00  0.00    -0.275 OA
BRANCH  10  12
ATOM     12  C   UNL A   1      30.871  23.048  25.283  1.00  0.00     0.138 C 
BRANCH  12  13
ATOM     13  C   UNL A   1      31.184  23.814  24.040  1.00  0.00    -0.010 A 
ATOM     14  C   UNL A   1      32.629  22.094  22.694  1.00  0.00     0.064 C 
ATOM     15  C   UNL A   1      31.952  23.388  22.967  1.00  0.00     0.016 A 
ATOM     16  N   UNL A   1      32.047  24.439  22.088  1.00  0.00    -0.358 N 
ATOM     17  C   UNL A   1      31.359  25.533  22.557  1.00  0.00     0.046 A 
ATOM     18  H   UNL A   1      32.542  24.413  21.237  1.00  0.00     0.166 HD
ATOM     19  C   UNL A   1      30.761  25.156  23.755  1.00  0.00     0.003 A 
ATOM     20  C   UNL A   1      31.223  26.818  22.018  1.00  0.00     0.026 A 
ATOM     21  C   UNL A   1      29.953  26.098  24.430  1.00  0.00     0.010 A 
ATOM     22  C   UNL A   1      30.442  27.740  22.721  1.00  0.00     0.002 A 
ATOM     23  C   UNL A   1      29.805  27.385  23.907  1.00  0.00     0.001 A 
ENDBRANCH  12  13
ENDBRANCH  10  12
ENDBRANCH   8  10
ENDBRANCH   7   8
ENDBRANCH   6   7
ENDBRANCH   5   6
ENDBRANCH   1   5
BRANCH   3  24
ATOM     24  C   UNL A   1      32.055  29.546  26.203  1.00  0.00     0.116 C 
BRANCH  24  25
ATOM     25  C   UNL A   1      31.337  30.867  25.913  1.00  0.00     0.023 C 
BRANCH  25  26
ATOM     26  C   UNL A   1      31.450  31.887  27.034  1.00  0.00     0.023 C 
BRANCH  26  27
ATOM     27  C   UNL A   1      32.475  32.981  26.767  1.00  0.00     0.116 C 
BRANCH  27  28
ATOM     28  N   UNL A   1      32.298  34.169  27.592  1.00  0.00    -0.352 N 
ATOM     29  C   UNL A   1      33.091  34.608  28.634  1.00  0.00     0.251 C 
ATOM     30  H   UNL A   1      31.516  34.729  27.380  1.00  0.00     0.163 HD
ATOM     31  O   UNL A   1      32.793  35.587  29.288  1.00  0.00    -0.269 OA
BRANCH  29  32
ATOM     32  C   UNL A   1      34.292  33.809  28.966  1.00  0.00     0.039 A 
ATOM     33  C   UNL A   1      35.552  34.350  28.707  1.00  0.00     0.014 A 
ATOM     34  C   UNL A   1      34.156  32.600  29.651  1.00  0.00     0.014 A 
ATOM     35  C   UNL A   1      36.683  33.719  29.227  1.00  0.00     0.010 A 
ATOM     36  C   UNL A   1      35.275  32.026  30.241  1.00  0.00     0.010 A 
ATOM     37  C   UNL A   1      36.548  32.583  30.044  1.00  0.00    -0.014 A 
BRANCH  37  38
ATOM     38  C   UNL A   1      37.720  31.966  30.713  1.00  0.00     0.031 A 
ATOM     39  C   UNL A   1      38.497  30.886  30.014  1.00  0.00     0.074 A 
ATOM     40  C   UNL A   1      38.031  32.314  31.977  1.00  0.00     0.049 A 
ATOM     41  N   UNL A   1      39.492  30.163  30.461  1.00  0.00    -0.248 NA
ATOM     42  C   UNL A   1      38.076  30.551  28.645  1.00  0.00     0.031 C 
ATOM     43  C   UNL A   1      37.315  33.299  32.790  1.00  0.00     0.029 A 
ATOM     44  N   UNL A   1      39.029  31.866  32.806  1.00  0.00    -0.354 N 
ATOM     45  C   UNL A   1      39.795  29.273  29.439  1.00  0.00     0.074 A 
ATOM     46  C   UNL A   1      38.846  29.508  28.375  1.00  0.00     0.031 C 
ATOM     47  C   UNL A   1      37.914  33.401  33.989  1.00  0.00     0.029 A 
ATOM     48  C   UNL A   1      39.033  32.466  34.042  1.00  0.00     0.049 A 
ATOM     49  H   UNL A   1      39.682  31.177  32.540  1.00  0.00     0.167 HD
ATOM     50  C   UNL A   1      40.794  28.360  29.381  1.00  0.00     0.037 A 
ATOM     51  C   UNL A   1      39.847  32.281  35.099  1.00  0.00     0.037 A 
ATOM     52  C   UNL A   1      41.764  28.157  30.422  1.00  0.00     0.049 A 
ATOM     53  C   UNL A   1      40.965  31.280  35.000  1.00  0.00     0.074 A 
ATOM     54  C   UNL A   1      42.859  27.312  30.427  1.00  0.00     0.029 A 
ATOM     55  N   UNL A   1      41.755  28.810  31.645  1.00  0.00    -0.354 N 
ATOM     56  N   UNL A   1      41.287  30.499  33.999  1.00  0.00    -0.248 NA
ATOM     57  C   UNL A   1      41.835  31.141  36.177  1.00  0.00     0.031 C 
ATOM     58  C   UNL A   1      43.497  27.431  31.667  1.00  0.00     0.029 A 
ATOM     59  C   UNL A   1      42.819  28.377  32.418  1.00  0.00     0.049 A 
ATOM     60  H   UNL A   1      41.091  29.483  31.922  1.00  0.00     0.167 HD
ATOM     61  C   UNL A   1      42.408  29.792  34.414  1.00  0.00     0.074 A 
ATOM     62  C   UNL A   1      42.718  30.249  35.753  1.00  0.00     0.031 C 
ATOM     63  C   UNL A   1      43.116  28.849  33.746  1.00  0.00     0.037 A 
BRANCH  50  64
ATOM     64  C   UNL A   1      40.888  27.526  28.139  1.00  0.00     0.057 A 
ATOM     65  C   UNL A   1      41.628  27.943  27.025  1.00  0.00     0.134 A 
ATOM     66  C   UNL A   1      40.242  26.286  28.058  1.00  0.00     0.134 A 
ATOM     67  F   UNL A   1      42.256  29.130  27.032  1.00  0.00    -0.206 F 
ATOM     68  C   UNL A   1      41.699  27.173  25.864  1.00  0.00     0.040 A 
ATOM     69  C   UNL A   1      40.328  25.493  26.912  1.00  0.00     0.040 A 
ATOM     70  F   UNL A   1      39.521  25.825  29.090  1.00  0.00    -0.206 F 
ATOM     71  C   UNL A   1      41.051  25.941  25.808  1.00  0.00     0.006 A 
ENDBRANCH  50  64
BRANCH  51  72
ATOM     72  C   UNL A   1      39.660  33.085  36.332  1.00  0.00     0.057 A 
ATOM     73  C   UNL A   1      40.345  34.293  36.513  1.00  0.00     0.134 A 
ATOM     74  C   UNL A   1      38.806  32.668  37.359  1.00  0.00     0.134 A 
ATOM     75  F   UNL A   1      41.192  34.734  35.571  1.00  0.00    -0.206 F 
ATOM     76  C   UNL A   1      40.203  35.048  37.678  1.00  0.00     0.040 A 
ATOM     77  C   UNL A   1      38.636  33.424  38.520  1.00  0.00     0.040 A 
ATOM     78  F   UNL A   1      38.116  31.524  37.242  1.00  0.00    -0.206 F 
ATOM     79  C   UNL A   1      39.342  34.615  38.684  1.00  0.00     0.006 A 
ENDBRANCH  51  72
BRANCH  63  80
ATOM     80  C   UNL A   1      44.311  28.270  34.442  1.00  0.00     0.057 A 
ATOM     81  C   UNL A   1      44.224  27.099  35.204  1.00  0.00     0.134 A 
ATOM     82  C   UNL A   1      45.571  28.867  34.310  1.00  0.00     0.134 A 
ATOM     83  F   UNL A   1      43.042  26.487  35.377  1.00  0.00    -0.206 F 
ATOM     84  C   UNL A   1      45.346  26.551  35.826  1.00  0.00     0.040 A 
ATOM     85  C   UNL A   1      46.705  28.317  34.909  1.00  0.00     0.040 A 
ATOM     86  F   UNL A   1      45.722  29.988  33.587  1.00  0.00    -0.206 F 
ATOM     87  C   UNL A   1      46.592  27.157  35.673  1.00  0.00     0.006 A 
ENDBRANCH  63  80
ENDBRANCH  37  38
ENDBRANCH  29  32
ENDBRANCH  27  28
ENDBRANCH  26  27
ENDBRANCH  25  26
ENDBRANCH  24  25
ENDBRANCH   3  24
TORSDOF 17
ENDMDL
MODEL 2
REMARK VINA RESULT:     -10.8      0.549      6.296
REMARK SMILES Cc1[nH]c2ccccc2c1CC(=O)N(C)CCCC(=O)NCCCCNC(=O)c1ccc(-c2c3nc(c(-c4c(F)cccc4F)c4ccc([nH]4)c(-c4c(F)cccc4F)c4nc(c(-c5c(F)cccc5F)c5ccc2[nH]5)C=C4)C=C3)cc1
REMARK SMILES IDX 19 1 20 2 21 3 18 5 17 6 16 7 14 8 15 9 12 10 13 11 11 12
REMARK SMILES IDX 10 13 1 14 2 15 3 16 4 17 9 19 5 20 8 21 6 22 7 23 22 24
REMARK SMILES IDX 23 25 24 26 25 27 26 28 27 29 28 31 29 32 30 33 82 34 31 35
REMARK SMILES IDX 81 36 32 37 33 38 34 39 75 40 35 41 80 42 74 43 76 44 36 45
REMARK SMILES IDX 79 46 73 47 72 48 37 50 63 51 46 52 62 53 47 54 50 55 61 56
REMARK SMILES IDX 77 57 48 58 49 59 60 61 78 62 51 63 38 64 39 65 44 66 40 67
REMARK SMILES IDX 41 68 43 69 45 70 42 71 64 72 65 73 70 74 66 75 67 76 69 77
REMARK SMILES IDX 71 78 68 79 52 80 53 81 58 82 54 83 55 84 57 85 59 86 56 87
REMARK H PARENT 21 4 3 18 26 30 76 49 50 60
REMARK Flexibility Score: inf
ROOT
ATOM      1  C   UNL A   1      33.763  27.702  24.608  1.00  0.00     0.220 C 
ATOM      2  O   UNL A   1      34.072  27.489  23.431  1.00  0.00    -0.275 OA
ATOM      3  N   UNL A   1      33.462  28.985  24.939  1.00  0.00    -0.356 N 
ATOM      4  H   UNL A   1      33.476  29.617  24.185  1.00  0.00     0.163 HD
ENDROOT
BRANCH   1   5
ATOM      5  C   UNL A   1      33.639  26.547  25.588  1.00  0.00     0.102 C 
BRANCH   5   6
ATOM      6  C   UNL A   1      34.229  25.177  25.242  1.00  0.00     0.031 C 
BRANCH   6   7
ATOM      7  C   UNL A   1      34.288  24.025  26.250  1.00  0.00     0.119 C 
BRANCH   7   8
ATOM      8  N   UNL A   1      33.212  23.022  26.385  1.00  0.00    -0.345 N 
ATOM      9  C   UNL A   1      33.698  21.647  26.468  1.00  0.00     0.146 C 
BRANCH   8  10
ATOM     10  C   UNL A   1      31.862  23.330  26.533  1.00  0.00     0.226 C 
ATOM     11  O   UNL A   1      31.401  23.895  27.524  1.00  0.00    -0.275 OA
BRANCH  10  12
ATOM     12  C   UNL A   1      30.873  22.955  25.435  1.00  0.00     0.138 C 
BRANCH  12  13
ATOM     13  C   UNL A   1      31.189  23.652  24.152  1.00  0.00    -0.010 A 
ATOM     14  C   UNL A   1      32.523  21.813  22.851  1.00  0.00     0.064 C 
ATOM     15  C   UNL A   1      31.910  23.146  23.082  1.00  0.00     0.016 A 
ATOM     16  N   UNL A   1      32.030  24.154  22.155  1.00  0.00    -0.358 N 
ATOM     17  C   UNL A   1      31.402  25.296  22.591  1.00  0.00     0.046 A 
ATOM     18  H   UNL A   1      32.502  24.068  21.295  1.00  0.00     0.166 HD
ATOM     19  C   UNL A   1      30.817  24.998  23.818  1.00  0.00     0.003 A 
ATOM     20  C   UNL A   1      31.309  26.562  21.999  1.00  0.00     0.026 A 
ATOM     21  C   UNL A   1      30.068  26.004  24.468  1.00  0.00     0.010 A 
ATOM     22  C   UNL A   1      30.586  27.547  22.678  1.00  0.00     0.002 A 
ATOM     23  C   UNL A   1      29.964  27.273  23.892  1.00  0.00     0.001 A 
ENDBRANCH  12  13
ENDBRANCH  10  12
ENDBRANCH   8  10
ENDBRANCH   7   8
ENDBRANCH   6   7
ENDBRANCH   5   6
ENDBRANCH   1   5
BRANCH   3  24
ATOM     24  C   UNL A   1      33.124  29.576  26.213  1.00  0.00     0.116 C 
BRANCH  24  25
ATOM     25  C   UNL A   1      31.960  30.560  26.065  1.00  0.00     0.023 C 
BRANCH  25  26
ATOM     26  C   UNL A   1      31.832  31.538  27.223  1.00  0.00     0.023 C 
BRANCH  26  27
ATOM     27  C   UNL A   1      32.963  32.555  27.296  1.00  0.00     0.116 C 
BRANCH  27  28
ATOM     28  N   UNL A   1      32.519  33.908  27.605  1.00  0.00    -0.352 N 
ATOM     29  C   UNL A   1      33.037  34.780  28.543  1.00  0.00     0.251 C 
ATOM     30  H   UNL A   1      31.757  34.242  27.080  1.00  0.00     0.163 HD
ATOM     31  O   UNL A   1      32.529  35.864  28.748  1.00  0.00    -0.269 OA
BRANCH  29  32
ATOM     32  C   UNL A   1      34.202  34.325  29.333  1.00  0.00     0.039 A 
ATOM     33  C   UNL A   1      33.980  33.598  30.503  1.00  0.00     0.014 A 
ATOM     34  C   UNL A   1      35.494  34.506  28.835  1.00  0.00     0.014 A 
ATOM     35  C   UNL A   1      35.056  32.963  31.126  1.00  0.00     0.010 A 
ATOM     36  C   UNL A   1      36.546  33.801  29.406  1.00  0.00     0.010 A 
ATOM     37  C   UNL A   1      36.337  33.015  30.551  1.00  0.00    -0.014 A 
BRANCH  37  38
ATOM     38  C   UNL A   1      37.473  32.248  31.119  1.00  0.00     0.031 A 
ATOM     39  C   UNL A   1      38.022  32.615  32.469  1.00  0.00     0.074 A 
ATOM     40  C   UNL A   1      38.064  31.283  30.388  1.00  0.00     0.049 A 
ATOM     41  N   UNL A   1      39.062  32.129  33.098  1.00  0.00    -0.248 NA
ATOM     42  C   UNL A   1      37.333  33.697  33.190  1.00  0.00     0.031 C 
ATOM     43  C   UNL A   1      37.671  30.876  29.037  1.00  0.00     0.029 A 
ATOM     44  N   UNL A   1      39.134  30.473  30.677  1.00  0.00    -0.354 N 
ATOM     45  C   UNL A   1      39.164  32.863  34.273  1.00  0.00     0.074 A 
ATOM     46  C   UNL A   1      38.119  33.861  34.243  1.00  0.00     0.031 C 
ATOM     47  C   UNL A   1      38.469  29.876  28.628  1.00  0.00     0.029 A 
ATOM     48  C   UNL A   1      39.451  29.594  29.670  1.00  0.00     0.049 A 
ATOM     49  H   UNL A   1      39.630  30.519  31.527  1.00  0.00     0.167 HD
ATOM     50  C   UNL A   1      40.033  32.701  35.299  1.00  0.00     0.037 A 
ATOM     51  C   UNL A   1      40.423  28.665  29.596  1.00  0.00     0.037 A 
ATOM     52  C   UNL A   1      41.044  31.681  35.347  1.00  0.00     0.049 A 
ATOM     53  C   UNL A   1      41.360  28.488  30.759  1.00  0.00     0.074 A 
ATOM     54  C   UNL A   1      41.923  31.385  36.374  1.00  0.00     0.029 A 
ATOM     55  N   UNL A   1      41.310  30.786  34.322  1.00  0.00    -0.354 N 
ATOM     56  N   UNL A   1      41.397  29.138  31.896  1.00  0.00    -0.248 NA
ATOM     57  C   UNL A   1      42.385  27.442  30.629  1.00  0.00     0.031 C 
ATOM     58  C   UNL A   1      42.742  30.330  35.958  1.00  0.00     0.029 A 
ATOM     59  C   UNL A   1      42.348  29.946  34.687  1.00  0.00     0.049 A 
ATOM     60  H   UNL A   1      40.830  30.752  33.462  1.00  0.00     0.167 HD
ATOM     61  C   UNL A   1      42.431  28.568  32.626  1.00  0.00     0.074 A 
ATOM     62  C   UNL A   1      42.987  27.509  31.808  1.00  0.00     0.031 C 
ATOM     63  C   UNL A   1      42.881  28.893  33.863  1.00  0.00     0.037 A 
BRANCH  50  64
ATOM     64  C   UNL A   1      39.911  33.647  36.456  1.00  0.00     0.057 A 
ATOM     65  C   UNL A   1      39.077  33.371  37.548  1.00  0.00     0.134 A 
ATOM     66  C   UNL A   1      40.642  34.841  36.487  1.00  0.00     0.134 A 
ATOM     67  F   UNL A   1      38.336  32.252  37.571  1.00  0.00    -0.206 F 
ATOM     68  C   UNL A   1      38.952  34.261  38.615  1.00  0.00     0.040 A 
ATOM     69  C   UNL A   1      40.546  35.727  37.561  1.00  0.00     0.040 A 
ATOM     70  F   UNL A   1      41.461  35.164  35.476  1.00  0.00    -0.206 F 
ATOM     71  C   UNL A   1      39.693  35.441  38.625  1.00  0.00     0.006 A 
ENDBRANCH  50  64
BRANCH  51  72
ATOM     72  C   UNL A   1      40.543  27.807  28.392  1.00  0.00     0.057 A 
ATOM     73  C   UNL A   1      39.867  26.583  28.312  1.00  0.00     0.134 A 
ATOM     74  C   UNL A   1      41.336  28.177  27.301  1.00  0.00     0.134 A 
ATOM     75  F   UNL A   1      39.107  26.166  29.336  1.00  0.00    -0.206 F 
ATOM     76  C   UNL A   1      39.989  25.750  27.200  1.00  0.00     0.040 A 
ATOM     77  C   UNL A   1      41.451  27.364  26.171  1.00  0.00     0.040 A 
ATOM     78  F   UNL A   1      42.003  29.340  27.313  1.00  0.00    -0.206 F 
ATOM     79  C   UNL A   1      40.781  26.143  26.123  1.00  0.00     0.006 A 
ENDBRANCH  51  72
BRANCH  63  80
ATOM     80  C   UNL A   1      44.011  28.077  34.416  1.00  0.00     0.057 A 
ATOM     81  C   UNL A   1      45.344  28.480  34.286  1.00  0.00     0.134 A 
ATOM     82  C   UNL A   1      43.755  26.897  35.126  1.00  0.00     0.134 A 
ATOM     83  F   UNL A   1      45.654  29.595  33.605  1.00  0.00    -0.206 F 
ATOM     84  C   UNL A   1      46.388  27.729  34.827  1.00  0.00     0.040 A 
ATOM     85  C   UNL A   1      44.788  26.148  35.692  1.00  0.00     0.040 A 
ATOM     86  F   UNL A   1      42.498  26.460  35.292  1.00  0.00    -0.206 F 
ATOM     87  C   UNL A   1      46.110  26.563  35.539  1.00  0.00     0.006 A 
ENDBRANCH  63  80
ENDBRANCH  37  38
ENDBRANCH  29  32
ENDBRANCH  27  28
ENDBRANCH  26  27
ENDBRANCH  25  26
ENDBRANCH  24  25
ENDBRANCH   3  24
TORSDOF 17
ENDMDL
MODEL 3
REMARK VINA RESULT:     -10.6      4.062      8.688
REMARK SMILES Cc1[nH]c2ccccc2c1CC(=O)N(C)CCCC(=O)NCCCCNC(=O)c1ccc(-c2c3nc(c(-c4c(F)cccc4F)c4ccc([nH]4)c(-c4c(F)cccc4F)c4nc(c(-c5c(F)cccc5F)c5ccc2[nH]5)C=C4)C=C3)cc1
REMARK SMILES IDX 19 1 20 2 21 3 18 5 17 6 16 7 14 8 15 9 12 10 13 11 11 12
REMARK SMILES IDX 10 13 1 14 2 15 3 16 4 17 9 19 5 20 8 21 6 22 7 23 22 24
REMARK SMILES IDX 23 25 24 26 25 27 26 28 27 29 28 31 29 32 30 33 82 34 31 35
REMARK SMILES IDX 81 36 32 37 33 38 34 39 75 40 35 41 80 42 74 43 76 44 36 45
REMARK SMILES IDX 79 46 73 47 72 48 37 50 63 51 46 52 62 53 47 54 50 55 61 56
REMARK SMILES IDX 77 57 48 58 49 59 60 61 78 62 51 63 38 64 39 65 44 66 40 67
REMARK SMILES IDX 41 68 43 69 45 70 42 71 64 72 65 73 70 74 66 75 67 76 69 77
REMARK SMILES IDX 71 78 68 79 52 80 53 81 58 82 54 83 55 84 57 85 59 86 56 87
REMARK H PARENT 21 4 3 18 26 30 76 49 50 60
REMARK Flexibility Score: inf
ROOT
ATOM      1  C   UNL A   1      34.689  23.643  23.671  1.00  0.00     0.220 C 
ATOM      2  O   UNL A   1      34.382  23.970  22.519  1.00  0.00    -0.275 OA
ATOM      3  N   UNL A   1      34.710  22.312  23.944  1.00  0.00    -0.356 N 
ATOM      4  H   UNL A   1      34.520  21.732  23.173  1.00  0.00     0.163 HD
ENDROOT
BRANCH   1   5
ATOM      5  C   UNL A   1      35.113  24.699  24.678  1.00  0.00     0.102 C 
BRANCH   5   6
ATOM      6  C   UNL A   1      34.064  25.410  25.537  1.00  0.00     0.031 C 
BRANCH   6   7
ATOM      7  C   UNL A   1      32.900  24.668  26.202  1.00  0.00     0.119 C 
BRANCH   7   8
ATOM      8  N   UNL A   1      31.500  24.812  25.757  1.00  0.00    -0.345 N 
ATOM      9  C   UNL A   1      30.658  23.663  26.085  1.00  0.00     0.146 C 
BRANCH   8  10
ATOM     10  C   UNL A   1      30.971  25.962  25.176  1.00  0.00     0.226 C 
ATOM     11  O   UNL A   1      30.818  27.019  25.786  1.00  0.00    -0.275 OA
BRANCH  10  12
ATOM     12  C   UNL A   1      30.540  25.945  23.714  1.00  0.00     0.138 C 
BRANCH  12  13
ATOM     13  C   UNL A   1      30.640  27.303  23.098  1.00  0.00    -0.010 A 
ATOM     14  C   UNL A   1      33.193  27.457  22.539  1.00  0.00     0.064 C 
ATOM     15  C   UNL A   1      31.786  27.925  22.628  1.00  0.00     0.016 A 
ATOM     16  N   UNL A   1      31.431  29.190  22.228  1.00  0.00    -0.358 N 
ATOM     17  C   UNL A   1      30.087  29.405  22.420  1.00  0.00     0.046 A 
ATOM     18  H   UNL A   1      32.055  29.854  21.854  1.00  0.00     0.166 HD
ATOM     19  C   UNL A   1      29.550  28.220  22.915  1.00  0.00     0.003 A 
ATOM     20  C   UNL A   1      29.310  30.548  22.197  1.00  0.00     0.026 A 
ATOM     21  C   UNL A   1      28.161  28.162  23.163  1.00  0.00     0.010 A 
ATOM     22  C   UNL A   1      27.942  30.473  22.479  1.00  0.00     0.002 A 
ATOM     23  C   UNL A   1      27.370  29.293  22.946  1.00  0.00     0.001 A 
ENDBRANCH  12  13
ENDBRANCH  10  12
ENDBRANCH   8  10
ENDBRANCH   7   8
ENDBRANCH   6   7
ENDBRANCH   5   6
ENDBRANCH   1   5
BRANCH   3  24
ATOM     24  C   UNL A   1      34.965  21.608  25.179  1.00  0.00     0.116 C 
BRANCH  24  25
ATOM     25  C   UNL A   1      36.202  20.714  25.050  1.00  0.00     0.023 C 
BRANCH  25  26
ATOM     26  C   UNL A   1      37.477  21.474  24.718  1.00  0.00     0.023 C 
BRANCH  26  27
ATOM     27  C   UNL A   1      38.566  21.336  25.773  1.00  0.00     0.116 C 
BRANCH  27  28
ATOM     28  N   UNL A   1      39.356  20.118  25.647  1.00  0.00    -0.352 N 
ATOM     29  C   UNL A   1      40.679  19.923  25.991  1.00  0.00     0.251 C 
ATOM     30  H   UNL A   1      38.889  19.337  25.271  1.00  0.00     0.163 HD
ATOM     31  O   UNL A   1      41.242  18.869  25.773  1.00  0.00    -0.269 OA
BRANCH  29  32
ATOM     32  C   UNL A   1      41.409  21.064  26.587  1.00  0.00     0.039 A 
ATOM     33  C   UNL A   1      41.981  22.014  25.739  1.00  0.00     0.014 A 
ATOM     34  C   UNL A   1      41.400  21.251  27.970  1.00  0.00     0.014 A 
ATOM     35  C   UNL A   1      42.460  23.208  26.279  1.00  0.00     0.010 A 
ATOM     36  C   UNL A   1      41.796  22.475  28.493  1.00  0.00     0.010 A 
ATOM     37  C   UNL A   1      42.321  23.470  27.652  1.00  0.00    -0.014 A 
BRANCH  37  38
ATOM     38  C   UNL A   1      42.706  24.780  28.234  1.00  0.00     0.031 A 
ATOM     39  C   UNL A   1      41.662  25.842  28.439  1.00  0.00     0.074 A 
ATOM     40  C   UNL A   1      44.000  25.044  28.496  1.00  0.00     0.049 A 
ATOM     41  N   UNL A   1      41.809  27.077  28.848  1.00  0.00    -0.248 NA
ATOM     42  C   UNL A   1      40.276  25.479  28.105  1.00  0.00     0.031 C 
ATOM     43  C   UNL A   1      45.119  24.124  28.278  1.00  0.00     0.029 A 
ATOM     44  N   UNL A   1      44.598  26.176  28.994  1.00  0.00    -0.354 N 
ATOM     45  C   UNL A   1      40.541  27.641  28.795  1.00  0.00     0.074 A 
ATOM     46  C   UNL A   1      39.650  26.635  28.263  1.00  0.00     0.031 C 
ATOM     47  C   UNL A   1      46.260  24.717  28.667  1.00  0.00     0.029 A 
ATOM     48  C   UNL A   1      45.961  26.069  29.128  1.00  0.00     0.049 A 
ATOM     49  H   UNL A   1      44.096  26.989  29.232  1.00  0.00     0.167 HD
ATOM     50  C   UNL A   1      40.148  28.878  29.182  1.00  0.00     0.037 A 
ATOM     51  C   UNL A   1      46.866  26.960  29.573  1.00  0.00     0.037 A 
ATOM     52  C   UNL A   1      41.027  29.863  29.751  1.00  0.00     0.049 A 
ATOM     53  C   UNL A   1      46.402  28.318  30.022  1.00  0.00     0.074 A 
ATOM     54  C   UNL A   1      40.712  31.115  30.246  1.00  0.00     0.029 A 
ATOM     55  N   UNL A   1      42.396  29.702  29.904  1.00  0.00    -0.354 N 
ATOM     56  N   UNL A   1      45.188  28.812  30.037  1.00  0.00    -0.248 NA
ATOM     57  C   UNL A   1      47.434  29.240  30.520  1.00  0.00     0.031 C 
ATOM     58  C   UNL A   1      41.897  31.727  30.671  1.00  0.00     0.029 A 
ATOM     59  C   UNL A   1      42.942  30.839  30.474  1.00  0.00     0.049 A 
ATOM     60  H   UNL A   1      42.903  28.898  29.647  1.00  0.00     0.167 HD
ATOM     61  C   UNL A   1      45.305  30.091  30.566  1.00  0.00     0.074 A 
ATOM     62  C   UNL A   1      46.706  30.290  30.872  1.00  0.00     0.031 C 
ATOM     63  C   UNL A   1      44.338  31.017  30.779  1.00  0.00     0.037 A 
BRANCH  50  64
ATOM     64  C   UNL A   1      38.698  29.221  29.011  1.00  0.00     0.057 A 
ATOM     65  C   UNL A   1      38.172  29.597  27.768  1.00  0.00     0.134 A 
ATOM     66  C   UNL A   1      37.816  29.165  30.097  1.00  0.00     0.134 A 
ATOM     67  F   UNL A   1      38.969  29.687  26.692  1.00  0.00    -0.206 F 
ATOM     68  C   UNL A   1      36.826  29.932  27.616  1.00  0.00     0.040 A 
ATOM     69  C   UNL A   1      36.462  29.473  29.952  1.00  0.00     0.040 A 
ATOM     70  F   UNL A   1      38.254  28.809  31.313  1.00  0.00    -0.206 F 
ATOM     71  C   UNL A   1      35.966  29.866  28.711  1.00  0.00     0.006 A 
ENDBRANCH  50  64
BRANCH  51  72
ATOM     72  C   UNL A   1      48.301  26.589  29.651  1.00  0.00     0.057 A 
ATOM     73  C   UNL A   1      49.180  26.896  28.606  1.00  0.00     0.134 A 
ATOM     74  C   UNL A   1      48.827  25.915  30.759  1.00  0.00     0.134 A 
ATOM     75  F   UNL A   1      48.729  27.524  27.510  1.00  0.00    -0.206 F 
ATOM     76  C   UNL A   1      50.526  26.530  28.649  1.00  0.00     0.040 A 
ATOM     77  C   UNL A   1      50.176  25.562  30.827  1.00  0.00     0.040 A 
ATOM     78  F   UNL A   1      48.037  25.599  31.796  1.00  0.00    -0.206 F 
ATOM     79  C   UNL A   1      51.028  25.864  29.766  1.00  0.00     0.006 A 
ENDBRANCH  51  72
BRANCH  63  80
ATOM     80  C   UNL A   1      44.759  32.317  31.395  1.00  0.00     0.057 A 
ATOM     81  C   UNL A   1      44.804  32.494  32.783  1.00  0.00     0.134 A 
ATOM     82  C   UNL A   1      45.166  33.388  30.590  1.00  0.00     0.134 A 
ATOM     83  F   UNL A   1      44.415  31.508  33.607  1.00  0.00    -0.206 F 
ATOM     84  C   UNL A   1      45.223  33.698  33.350  1.00  0.00     0.040 A 
ATOM     85  C   UNL A   1      45.608  34.590  31.145  1.00  0.00     0.040 A 
ATOM     86  F   UNL A   1      45.152  33.279  29.253  1.00  0.00    -0.206 F 
ATOM     87  C   UNL A   1      45.633  34.748  32.529  1.00  0.00     0.006 A 
ENDBRANCH  63  80
ENDBRANCH  37  38
ENDBRANCH  29  32
ENDBRANCH  27  28
ENDBRANCH  26  27
ENDBRANCH  25  26
ENDBRANCH  24  25
ENDBRANCH   3  24
TORSDOF 17
ENDMDL
