MODEL 1
REMARK VINA RESULT:     -12.4      0.000      0.000
REMARK SMILES Cc1nc(-c2ccc(S(=O)(=O)N3CC[NH2+][C@H](C(=O)NCCCCNC(=O)c4ccc(-c5c6nc(c(-c7c(F)cccc7F)c7ccc([nH]7)c(-c7c(F)cccc7F)c7nc(c(-c8c(F)cccc8F)c8ccc5[nH]8)C=C7)C=C6)cc4)C3)s2)cs1
REMARK SMILES IDX 21 1 20 2 19 3 17 4 18 5 16 7 12 8 13 9 81 10 14 11 15 12
REMARK SMILES IDX 9 15 10 16 11 17 8 18 5 19 6 20 82 21 7 22 4 23 1 24 2 25
REMARK SMILES IDX 3 26 84 27 83 28 22 29 23 30 24 31 25 32 26 34 27 35 28 36
REMARK SMILES IDX 80 37 29 38 79 39 30 40 31 41 32 42 73 43 33 44 78 45 72 46
REMARK SMILES IDX 74 47 34 48 77 49 71 50 70 51 35 53 61 54 44 55 60 56 45 57
REMARK SMILES IDX 48 58 59 59 75 60 46 61 47 62 58 64 76 65 49 66 36 67 37 68
REMARK SMILES IDX 42 69 38 70 39 71 41 72 43 73 40 74 62 75 63 76 68 77 64 78
REMARK SMILES IDX 65 79 67 80 69 81 66 82 50 83 51 84 56 85 52 86 53 87 55 88
REMARK SMILES IDX 57 89 54 90
REMARK H PARENT 19 6 15 13 15 14 24 33 74 52 48 63
REMARK Flexibility Score: inf
ROOT
ATOM      1  C   UNL A   1      31.766  28.169  26.959  1.00  0.00     0.023 C 
ENDROOT
BRANCH   1   2
ATOM      2  C   UNL A   1      31.167  27.018  26.146  1.00  0.00     0.116 C 
BRANCH   2   3
ATOM      3  N   UNL A   1      31.242  25.798  26.918  1.00  0.00    -0.351 N 
ATOM      4  C   UNL A   1      31.315  24.505  26.497  1.00  0.00     0.279 C 
ATOM      5  O   UNL A   1      30.855  23.663  27.279  1.00  0.00    -0.268 OA
ATOM      6  H   UNL A   1      31.239  25.920  27.895  1.00  0.00     0.163 HD
BRANCH   4   7
ATOM      7  C   UNL A   1      32.058  24.075  25.199  1.00  0.00     0.287 C 
ATOM      8  N   UNL A   1      32.210  23.709  22.770  1.00  0.00    -0.185 NA
ATOM      9  C   UNL A   1      32.685  22.321  22.877  1.00  0.00     0.164 C 
ATOM     10  C   UNL A   1      31.291  24.057  23.880  1.00  0.00     0.178 C 
ATOM     11  C   UNL A   1      33.199  21.990  24.293  1.00  0.00     0.278 C 
ATOM     12  N   UNL A   1      32.702  22.746  25.454  1.00  0.00    -0.334 N 
ATOM     13  H   UNL A   1      33.495  22.907  26.075  1.00  0.00     0.347 HD
ATOM     14  H   UNL A   1      31.954  22.167  25.837  1.00  0.00     0.347 HD
BRANCH   8  15
ATOM     15  S   UNL A   1      33.188  24.909  22.081  1.00  0.00     0.253 S 
ATOM     16  O   UNL A   1      33.012  24.809  20.643  1.00  0.00    -0.206 OA
ATOM     17  O   UNL A   1      34.493  24.799  22.692  1.00  0.00    -0.206 OA
BRANCH  15  18
ATOM     18  C   UNL A   1      32.665  26.576  22.481  1.00  0.00     0.135 A 
ATOM     19  C   UNL A   1      31.162  28.541  22.675  1.00  0.00     0.055 A 
ATOM     20  C   UNL A   1      32.466  28.855  22.967  1.00  0.00     0.023 A 
ATOM     21  S   UNL A   1      30.964  26.882  22.347  1.00  0.00    -0.121 S 
ATOM     22  C   UNL A   1      33.315  27.729  22.872  1.00  0.00     0.034 A 
BRANCH  19  23
ATOM     23  C   UNL A   1      30.124  29.616  22.636  1.00  0.00     0.091 A 
ATOM     24  C   UNL A   1      27.941  31.501  20.414  1.00  0.00     0.079 C 
ATOM     25  C   UNL A   1      28.708  30.929  21.553  1.00  0.00     0.090 A 
ATOM     26  N   UNL A   1      29.689  30.071  21.402  1.00  0.00    -0.241 NA
ATOM     27  S   UNL A   1      28.355  31.352  23.179  1.00  0.00    -0.127 S 
ATOM     28  C   UNL A   1      29.523  30.211  23.723  1.00  0.00     0.096 A 
ENDBRANCH  19  23
ENDBRANCH  15  18
ENDBRANCH   8  15
ENDBRANCH   4   7
ENDBRANCH   2   3
ENDBRANCH   1   2
BRANCH   1  29
ATOM     29  C   UNL A   1      33.297  28.106  27.067  1.00  0.00     0.023 C 
BRANCH  29  30
ATOM     30  C   UNL A   1      34.018  29.217  26.313  1.00  0.00     0.116 C 
BRANCH  30  31
ATOM     31  N   UNL A   1      33.833  30.520  26.928  1.00  0.00    -0.352 N 
ATOM     32  C   UNL A   1      34.601  31.125  27.889  1.00  0.00     0.251 C 
ATOM     33  H   UNL A   1      33.055  31.035  26.614  1.00  0.00     0.163 HD
ATOM     34  O   UNL A   1      34.243  32.181  28.398  1.00  0.00    -0.269 OA
BRANCH  32  35
ATOM     35  C   UNL A   1      35.840  30.464  28.341  1.00  0.00     0.039 A 
ATOM     36  C   UNL A   1      37.010  30.673  27.609  1.00  0.00     0.014 A 
ATOM     37  C   UNL A   1      35.853  29.670  29.491  1.00  0.00     0.014 A 
ATOM     38  C   UNL A   1      38.209  30.123  28.059  1.00  0.00     0.010 A 
ATOM     39  C   UNL A   1      37.060  29.178  29.976  1.00  0.00     0.010 A 
ATOM     40  C   UNL A   1      38.248  29.396  29.261  1.00  0.00    -0.014 A 
BRANCH  40  41
ATOM     41  C   UNL A   1      39.529  28.860  29.775  1.00  0.00     0.031 A 
ATOM     42  C   UNL A   1      40.165  29.460  30.997  1.00  0.00     0.074 A 
ATOM     43  C   UNL A   1      40.138  27.858  29.114  1.00  0.00     0.049 A 
ATOM     44  N   UNL A   1      41.277  29.122  31.597  1.00  0.00    -0.248 NA
ATOM     45  C   UNL A   1      39.477  30.609  31.606  1.00  0.00     0.031 C 
ATOM     46  C   UNL A   1      39.651  27.240  27.878  1.00  0.00     0.029 A 
ATOM     47  N   UNL A   1      41.299  27.181  29.389  1.00  0.00    -0.354 N 
ATOM     48  C   UNL A   1      41.427  30.019  32.646  1.00  0.00     0.074 A 
ATOM     49  C   UNL A   1      40.323  30.951  32.567  1.00  0.00     0.031 C 
ATOM     50  C   UNL A   1      40.489  26.253  27.521  1.00  0.00     0.029 A 
ATOM     51  C   UNL A   1      41.580  26.184  28.488  1.00  0.00     0.049 A 
ATOM     52  H   UNL A   1      41.875  27.392  30.159  1.00  0.00     0.167 HD
ATOM     53  C   UNL A   1      42.383  30.048  33.605  1.00  0.00     0.037 A 
ATOM     54  C   UNL A   1      42.597  25.303  28.457  1.00  0.00     0.037 A 
ATOM     55  C   UNL A   1      43.463  29.102  33.696  1.00  0.00     0.049 A 
ATOM     56  C   UNL A   1      43.620  25.328  29.557  1.00  0.00     0.074 A 
ATOM     57  C   UNL A   1      44.454  29.011  34.659  1.00  0.00     0.029 A 
ATOM     58  N   UNL A   1      43.691  28.078  32.789  1.00  0.00    -0.354 N 
ATOM     59  N   UNL A   1      43.709  26.134  30.586  1.00  0.00    -0.248 NA
ATOM     60  C   UNL A   1      44.677  24.307  29.498  1.00  0.00     0.031 C 
ATOM     61  C   UNL A   1      45.297  27.948  34.318  1.00  0.00     0.029 A 
ATOM     62  C   UNL A   1      44.810  27.354  33.165  1.00  0.00     0.049 A 
ATOM     63  H   UNL A   1      43.139  27.894  31.994  1.00  0.00     0.167 HD
ATOM     64  C   UNL A   1      44.807  25.701  31.316  1.00  0.00     0.074 A 
ATOM     65  C   UNL A   1      45.347  24.553  30.615  1.00  0.00     0.031 C 
ATOM     66  C   UNL A   1      45.324  26.207  32.462  1.00  0.00     0.037 A 
BRANCH  53  67
ATOM     67  C   UNL A   1      42.290  31.133  34.637  1.00  0.00     0.057 A 
ATOM     68  C   UNL A   1      42.923  32.371  34.464  1.00  0.00     0.134 A 
ATOM     69  C   UNL A   1      41.545  30.947  35.807  1.00  0.00     0.134 A 
ATOM     70  F   UNL A   1      43.665  32.608  33.371  1.00  0.00    -0.206 F 
ATOM     71  C   UNL A   1      42.839  33.376  35.428  1.00  0.00     0.040 A 
ATOM     72  C   UNL A   1      41.432  31.954  36.768  1.00  0.00     0.040 A 
ATOM     73  F   UNL A   1      40.911  29.787  36.035  1.00  0.00    -0.206 F 
ATOM     74  C   UNL A   1      42.086  33.170  36.583  1.00  0.00     0.006 A 
ENDBRANCH  53  67
BRANCH  54  75
ATOM     75  C   UNL A   1      42.663  24.287  27.379  1.00  0.00     0.057 A 
ATOM     76  C   UNL A   1      43.263  24.580  26.149  1.00  0.00     0.134 A 
ATOM     77  C   UNL A   1      42.129  23.004  27.548  1.00  0.00     0.134 A 
ATOM     78  F   UNL A   1      43.778  25.797  25.923  1.00  0.00    -0.206 F 
ATOM     79  C   UNL A   1      43.312  23.642  25.117  1.00  0.00     0.040 A 
ATOM     80  C   UNL A   1      42.191  22.049  26.533  1.00  0.00     0.040 A 
ATOM     81  F   UNL A   1      41.551  22.659  28.708  1.00  0.00    -0.206 F 
ATOM     82  C   UNL A   1      42.778  22.369  25.311  1.00  0.00     0.006 A 
ENDBRANCH  54  75
BRANCH  66  83
ATOM     83  C   UNL A   1      46.506  25.495  33.048  1.00  0.00     0.057 A 
ATOM     84  C   UNL A   1      46.358  24.455  33.973  1.00  0.00     0.134 A 
ATOM     85  C   UNL A   1      47.807  25.841  32.661  1.00  0.00     0.134 A 
ATOM     86  F   UNL A   1      45.139  24.085  34.393  1.00  0.00    -0.206 F 
ATOM     87  C   UNL A   1      47.467  23.800  34.514  1.00  0.00     0.040 A 
ATOM     88  C   UNL A   1      48.920  25.179  33.177  1.00  0.00     0.040 A 
ATOM     89  F   UNL A   1      48.015  26.824  31.772  1.00  0.00    -0.206 F 
ATOM     90  C   UNL A   1      48.751  24.159  34.112  1.00  0.00     0.006 A 
ENDBRANCH  66  83
ENDBRANCH  40  41
ENDBRANCH  32  35
ENDBRANCH  30  31
ENDBRANCH  29  30
ENDBRANCH   1  29
TORSDOF 14
ENDMDL
MODEL 2
REMARK VINA RESULT:     -12.3      3.306      6.622
REMARK SMILES Cc1nc(-c2ccc(S(=O)(=O)N3CC[NH2+][C@H](C(=O)NCCCCNC(=O)c4ccc(-c5c6nc(c(-c7c(F)cccc7F)c7ccc([nH]7)c(-c7c(F)cccc7F)c7nc(c(-c8c(F)cccc8F)c8ccc5[nH]8)C=C7)C=C6)cc4)C3)s2)cs1
REMARK SMILES IDX 21 1 20 2 19 3 17 4 18 5 16 7 12 8 13 9 81 10 14 11 15 12
REMARK SMILES IDX 9 15 10 16 11 17 8 18 5 19 6 20 82 21 7 22 4 23 1 24 2 25
REMARK SMILES IDX 3 26 84 27 83 28 22 29 23 30 24 31 25 32 26 34 27 35 28 36
REMARK SMILES IDX 80 37 29 38 79 39 30 40 31 41 32 42 73 43 33 44 78 45 72 46
REMARK SMILES IDX 74 47 34 48 77 49 71 50 70 51 35 53 61 54 44 55 60 56 45 57
REMARK SMILES IDX 48 58 59 59 75 60 46 61 47 62 58 64 76 65 49 66 36 67 37 68
REMARK SMILES IDX 42 69 38 70 39 71 41 72 43 73 40 74 62 75 63 76 68 77 64 78
REMARK SMILES IDX 65 79 67 80 69 81 66 82 50 83 51 84 56 85 52 86 53 87 55 88
REMARK SMILES IDX 57 89 54 90
REMARK H PARENT 19 6 15 13 15 14 24 33 74 52 48 63
REMARK Flexibility Score: inf
ROOT
ATOM      1  C   UNL A   1      32.077  28.156  27.079  1.00  0.00     0.023 C 
ENDROOT
BRANCH   1   2
ATOM      2  C   UNL A   1      31.477  27.058  26.196  1.00  0.00     0.116 C 
BRANCH   2   3
ATOM      3  N   UNL A   1      31.435  25.818  26.938  1.00  0.00    -0.351 N 
ATOM      4  C   UNL A   1      31.381  24.534  26.486  1.00  0.00     0.279 C 
ATOM      5  O   UNL A   1      30.842  23.723  27.250  1.00  0.00    -0.268 OA
ATOM      6  H   UNL A   1      31.448  25.916  27.918  1.00  0.00     0.163 HD
BRANCH   4   7
ATOM      7  C   UNL A   1      32.073  24.066  25.173  1.00  0.00     0.287 C 
ATOM      8  N   UNL A   1      32.145  23.661  22.748  1.00  0.00    -0.185 NA
ATOM      9  C   UNL A   1      32.586  22.262  22.862  1.00  0.00     0.164 C 
ATOM     10  C   UNL A   1      31.268  24.049  23.878  1.00  0.00     0.178 C 
ATOM     11  C   UNL A   1      33.132  21.938  24.267  1.00  0.00     0.278 C 
ATOM     12  N   UNL A   1      32.689  22.724  25.431  1.00  0.00    -0.334 N 
ATOM     13  H   UNL A   1      33.504  22.872  26.026  1.00  0.00     0.347 HD
ATOM     14  H   UNL A   1      31.937  22.171  25.843  1.00  0.00     0.347 HD
BRANCH   8  15
ATOM     15  S   UNL A   1      33.135  24.825  22.013  1.00  0.00     0.253 S 
ATOM     16  O   UNL A   1      32.906  24.715  20.583  1.00  0.00    -0.206 OA
ATOM     17  O   UNL A   1      34.456  24.681  22.580  1.00  0.00    -0.206 OA
BRANCH  15  18
ATOM     18  C   UNL A   1      32.675  26.510  22.411  1.00  0.00     0.135 A 
ATOM     19  C   UNL A   1      31.233  28.515  22.654  1.00  0.00     0.055 A 
ATOM     20  C   UNL A   1      32.558  28.801  22.867  1.00  0.00     0.023 A 
ATOM     21  S   UNL A   1      30.977  26.856  22.366  1.00  0.00    -0.121 S 
ATOM     22  C   UNL A   1      33.374  27.653  22.745  1.00  0.00     0.034 A 
BRANCH  19  23
ATOM     23  C   UNL A   1      30.221  29.615  22.654  1.00  0.00     0.091 A 
ATOM     24  C   UNL A   1      28.024  31.574  20.511  1.00  0.00     0.079 C 
ATOM     25  C   UNL A   1      28.808  30.973  21.622  1.00  0.00     0.090 A 
ATOM     26  N   UNL A   1      29.764  30.093  21.437  1.00  0.00    -0.241 NA
ATOM     27  S   UNL A   1      28.510  31.387  23.261  1.00  0.00    -0.127 S 
ATOM     28  C   UNL A   1      29.664  30.213  23.762  1.00  0.00     0.096 A 
ENDBRANCH  19  23
ENDBRANCH  15  18
ENDBRANCH   8  15
ENDBRANCH   4   7
ENDBRANCH   2   3
ENDBRANCH   1   2
BRANCH   1  29
ATOM     29  C   UNL A   1      33.294  28.848  26.447  1.00  0.00     0.023 C 
BRANCH  29  30
ATOM     30  C   UNL A   1      34.522  28.889  27.348  1.00  0.00     0.116 C 
BRANCH  30  31
ATOM     31  N   UNL A   1      34.512  30.023  28.256  1.00  0.00    -0.352 N 
ATOM     32  C   UNL A   1      35.546  30.525  29.003  1.00  0.00     0.251 C 
ATOM     33  H   UNL A   1      33.650  30.490  28.348  1.00  0.00     0.163 HD
ATOM     34  O   UNL A   1      35.348  31.417  29.820  1.00  0.00    -0.269 OA
BRANCH  32  35
ATOM     35  C   UNL A   1      36.893  29.945  28.848  1.00  0.00     0.039 A 
ATOM     36  C   UNL A   1      37.535  30.073  27.615  1.00  0.00     0.014 A 
ATOM     37  C   UNL A   1      37.528  29.305  29.916  1.00  0.00     0.014 A 
ATOM     38  C   UNL A   1      38.838  29.602  27.467  1.00  0.00     0.010 A 
ATOM     39  C   UNL A   1      38.851  28.897  29.788  1.00  0.00     0.010 A 
ATOM     40  C   UNL A   1      39.515  29.036  28.560  1.00  0.00    -0.014 A 
BRANCH  40  41
ATOM     41  C   UNL A   1      40.921  28.589  28.425  1.00  0.00     0.031 A 
ATOM     42  C   UNL A   1      41.231  27.157  28.092  1.00  0.00     0.074 A 
ATOM     43  C   UNL A   1      41.917  29.467  28.643  1.00  0.00     0.049 A 
ATOM     44  N   UNL A   1      42.395  26.583  27.926  1.00  0.00    -0.248 NA
ATOM     45  C   UNL A   1      40.085  26.244  27.957  1.00  0.00     0.031 C 
ATOM     46  C   UNL A   1      41.740  30.867  29.038  1.00  0.00     0.029 A 
ATOM     47  N   UNL A   1      43.277  29.314  28.561  1.00  0.00    -0.354 N 
ATOM     48  C   UNL A   1      42.123  25.244  27.677  1.00  0.00     0.074 A 
ATOM     49  C   UNL A   1      40.688  25.079  27.770  1.00  0.00     0.031 C 
ATOM     50  C   UNL A   1      42.945  31.452  29.132  1.00  0.00     0.029 A 
ATOM     51  C   UNL A   1      43.977  30.466  28.826  1.00  0.00     0.049 A 
ATOM     52  H   UNL A   1      43.710  28.459  28.336  1.00  0.00     0.167 HD
ATOM     53  C   UNL A   1      42.988  24.248  27.373  1.00  0.00     0.037 A 
ATOM     54  C   UNL A   1      45.302  30.702  28.806  1.00  0.00     0.037 A 
ATOM     55  C   UNL A   1      44.411  24.422  27.254  1.00  0.00     0.049 A 
ATOM     56  C   UNL A   1      46.237  29.590  28.422  1.00  0.00     0.074 A 
ATOM     57  C   UNL A   1      45.370  23.490  26.897  1.00  0.00     0.029 A 
ATOM     58  N   UNL A   1      45.080  25.615  27.486  1.00  0.00    -0.354 N 
ATOM     59  N   UNL A   1      45.961  28.346  28.115  1.00  0.00    -0.248 NA
ATOM     60  C   UNL A   1      47.668  29.921  28.366  1.00  0.00     0.031 C 
ATOM     61  C   UNL A   1      46.622  24.112  26.941  1.00  0.00     0.029 A 
ATOM     62  C   UNL A   1      46.439  25.441  27.288  1.00  0.00     0.049 A 
ATOM     63  H   UNL A   1      44.651  26.460  27.754  1.00  0.00     0.167 HD
ATOM     64  C   UNL A   1      47.175  27.755  27.797  1.00  0.00     0.074 A 
ATOM     65  C   UNL A   1      48.189  28.780  27.940  1.00  0.00     0.031 C 
ATOM     66  C   UNL A   1      47.430  26.477  27.422  1.00  0.00     0.037 A 
BRANCH  53  67
ATOM     67  C   UNL A   1      42.410  22.884  27.134  1.00  0.00     0.057 A 
ATOM     68  C   UNL A   1      42.285  22.352  25.844  1.00  0.00     0.134 A 
ATOM     69  C   UNL A   1      41.992  22.085  28.205  1.00  0.00     0.134 A 
ATOM     70  F   UNL A   1      42.653  23.072  24.774  1.00  0.00    -0.206 F 
ATOM     71  C   UNL A   1      41.742  21.086  25.625  1.00  0.00     0.040 A 
ATOM     72  C   UNL A   1      41.471  20.806  28.001  1.00  0.00     0.040 A 
ATOM     73  F   UNL A   1      42.087  22.532  29.467  1.00  0.00    -0.206 F 
ATOM     74  C   UNL A   1      41.338  20.306  26.707  1.00  0.00     0.006 A 
ENDBRANCH  53  67
BRANCH  54  75
ATOM     75  C   UNL A   1      45.816  32.060  29.103  1.00  0.00     0.057 A 
ATOM     76  C   UNL A   1      46.140  32.437  30.412  1.00  0.00     0.134 A 
ATOM     77  C   UNL A   1      45.994  33.013  28.093  1.00  0.00     0.134 A 
ATOM     78  F   UNL A   1      45.976  31.573  31.423  1.00  0.00    -0.206 F 
ATOM     79  C   UNL A   1      46.603  33.720  30.710  1.00  0.00     0.040 A 
ATOM     80  C   UNL A   1      46.478  34.291  28.374  1.00  0.00     0.040 A 
ATOM     81  F   UNL A   1      45.712  32.708  26.818  1.00  0.00    -0.206 F 
ATOM     82  C   UNL A   1      46.778  34.650  29.687  1.00  0.00     0.006 A 
ENDBRANCH  54  75
BRANCH  66  83
ATOM     83  C   UNL A   1      48.854  26.134  27.099  1.00  0.00     0.057 A 
ATOM     84  C   UNL A   1      49.731  25.632  28.067  1.00  0.00     0.134 A 
ATOM     85  C   UNL A   1      49.342  26.285  25.795  1.00  0.00     0.134 A 
ATOM     86  F   UNL A   1      49.327  25.476  29.337  1.00  0.00    -0.206 F 
ATOM     87  C   UNL A   1      51.056  25.318  27.755  1.00  0.00     0.040 A 
ATOM     88  C   UNL A   1      50.656  25.953  25.466  1.00  0.00     0.040 A 
ATOM     89  F   UNL A   1      48.548  26.754  24.820  1.00  0.00    -0.206 F 
ATOM     90  C   UNL A   1      51.518  25.473  26.450  1.00  0.00     0.006 A 
ENDBRANCH  66  83
ENDBRANCH  40  41
ENDBRANCH  32  35
ENDBRANCH  30  31
ENDBRANCH  29  30
ENDBRANCH   1  29
TORSDOF 14
ENDMDL
MODEL 3
REMARK VINA RESULT:     -12.2      2.929      5.671
REMARK SMILES Cc1nc(-c2ccc(S(=O)(=O)N3CC[NH2+][C@H](C(=O)NCCCCNC(=O)c4ccc(-c5c6nc(c(-c7c(F)cccc7F)c7ccc([nH]7)c(-c7c(F)cccc7F)c7nc(c(-c8c(F)cccc8F)c8ccc5[nH]8)C=C7)C=C6)cc4)C3)s2)cs1
REMARK SMILES IDX 21 1 20 2 19 3 17 4 18 5 16 7 12 8 13 9 81 10 14 11 15 12
REMARK SMILES IDX 9 15 10 16 11 17 8 18 5 19 6 20 82 21 7 22 4 23 1 24 2 25
REMARK SMILES IDX 3 26 84 27 83 28 22 29 23 30 24 31 25 32 26 34 27 35 28 36
REMARK SMILES IDX 80 37 29 38 79 39 30 40 31 41 32 42 73 43 33 44 78 45 72 46
REMARK SMILES IDX 74 47 34 48 77 49 71 50 70 51 35 53 61 54 44 55 60 56 45 57
REMARK SMILES IDX 48 58 59 59 75 60 46 61 47 62 58 64 76 65 49 66 36 67 37 68
REMARK SMILES IDX 42 69 38 70 39 71 41 72 43 73 40 74 62 75 63 76 68 77 64 78
REMARK SMILES IDX 65 79 67 80 69 81 66 82 50 83 51 84 56 85 52 86 53 87 55 88
REMARK SMILES IDX 57 89 54 90
REMARK H PARENT 19 6 15 13 15 14 24 33 74 52 48 63
REMARK Flexibility Score: inf
ROOT
ATOM      1  C   UNL A   1      31.584  30.157  26.355  1.00  0.00     0.023 C 
ENDROOT
BRANCH   1   2
ATOM      2  C   UNL A   1      33.005  29.707  26.003  1.00  0.00     0.116 C 
BRANCH   2   3
ATOM      3  N   UNL A   1      33.175  29.740  24.567  1.00  0.00    -0.351 N 
ATOM      4  C   UNL A   1      33.377  28.716  23.692  1.00  0.00     0.279 C 
ATOM      5  O   UNL A   1      33.992  29.012  22.660  1.00  0.00    -0.268 OA
ATOM      6  H   UNL A   1      33.140  30.636  24.162  1.00  0.00     0.163 HD
BRANCH   4   7
ATOM      7  C   UNL A   1      32.755  27.302  23.881  1.00  0.00     0.287 C 
ATOM      8  N   UNL A   1      32.454  24.934  23.283  1.00  0.00    -0.185 NA
ATOM      9  C   UNL A   1      30.984  25.000  23.230  1.00  0.00     0.164 C 
ATOM     10  C   UNL A   1      33.071  26.214  22.859  1.00  0.00     0.178 C 
ATOM     11  C   UNL A   1      30.434  26.263  23.921  1.00  0.00     0.278 C 
ATOM     12  N   UNL A   1      31.273  27.466  24.038  1.00  0.00    -0.334 N 
ATOM     13  H   UNL A   1      31.108  27.865  24.962  1.00  0.00     0.347 HD
ATOM     14  H   UNL A   1      30.995  28.052  23.250  1.00  0.00     0.347 HD
BRANCH   8  15
ATOM     15  S   UNL A   1      33.237  23.961  24.429  1.00  0.00     0.253 S 
ATOM     16  O   UNL A   1      32.615  24.251  25.709  1.00  0.00    -0.206 OA
ATOM     17  O   UNL A   1      34.658  24.121  24.225  1.00  0.00    -0.206 OA
BRANCH  15  18
ATOM     18  C   UNL A   1      32.961  22.207  24.185  1.00  0.00     0.135 A 
ATOM     19  C   UNL A   1      33.248  19.760  24.482  1.00  0.00     0.055 A 
ATOM     20  C   UNL A   1      32.427  20.061  23.424  1.00  0.00     0.023 A 
ATOM     21  S   UNL A   1      33.753  21.158  25.314  1.00  0.00    -0.121 S 
ATOM     22  C   UNL A   1      32.252  21.455  23.270  1.00  0.00     0.034 A 
BRANCH  19  23
ATOM     23  C   UNL A   1      33.625  18.341  24.757  1.00  0.00     0.091 A 
ATOM     24  C   UNL A   1      32.306  15.103  25.775  1.00  0.00     0.079 C 
ATOM     25  C   UNL A   1      33.134  16.268  25.365  1.00  0.00     0.090 A 
ATOM     26  N   UNL A   1      32.668  17.493  25.291  1.00  0.00    -0.241 NA
ATOM     27  S   UNL A   1      34.788  16.093  24.942  1.00  0.00    -0.127 S 
ATOM     28  C   UNL A   1      34.850  17.759  24.515  1.00  0.00     0.096 A 
ENDBRANCH  19  23
ENDBRANCH  15  18
ENDBRANCH   8  15
ENDBRANCH   4   7
ENDBRANCH   2   3
ENDBRANCH   1   2
BRANCH   1  29
ATOM     29  C   UNL A   1      31.441  31.681  26.479  1.00  0.00     0.023 C 
BRANCH  29  30
ATOM     30  C   UNL A   1      32.648  32.368  27.104  1.00  0.00     0.116 C 
BRANCH  30  31
ATOM     31  N   UNL A   1      32.362  33.731  27.520  1.00  0.00    -0.352 N 
ATOM     32  C   UNL A   1      33.049  34.509  28.415  1.00  0.00     0.251 C 
ATOM     33  H   UNL A   1      31.572  34.148  27.106  1.00  0.00     0.163 HD
ATOM     34  O   UNL A   1      32.609  35.602  28.754  1.00  0.00    -0.269 OA
BRANCH  32  35
ATOM     35  C   UNL A   1      34.299  33.996  29.004  1.00  0.00     0.039 A 
ATOM     36  C   UNL A   1      34.213  33.087  30.060  1.00  0.00     0.014 A 
ATOM     37  C   UNL A   1      35.544  34.387  28.503  1.00  0.00     0.014 A 
ATOM     38  C   UNL A   1      35.379  32.529  30.582  1.00  0.00     0.010 A 
ATOM     39  C   UNL A   1      36.701  33.780  28.978  1.00  0.00     0.010 A 
ATOM     40  C   UNL A   1      36.629  32.850  30.026  1.00  0.00    -0.014 A 
BRANCH  40  41
ATOM     41  C   UNL A   1      37.865  32.214  30.538  1.00  0.00     0.031 A 
ATOM     42  C   UNL A   1      38.540  32.753  31.767  1.00  0.00     0.074 A 
ATOM     43  C   UNL A   1      38.399  31.176  29.868  1.00  0.00     0.049 A 
ATOM     44  N   UNL A   1      39.622  32.325  32.367  1.00  0.00    -0.248 NA
ATOM     45  C   UNL A   1      37.939  33.943  32.387  1.00  0.00     0.031 C 
ATOM     46  C   UNL A   1      37.871  30.610  28.624  1.00  0.00     0.029 A 
ATOM     47  N   UNL A   1      39.505  30.412  30.139  1.00  0.00    -0.354 N 
ATOM     48  C   UNL A   1      39.836  33.199  33.425  1.00  0.00     0.074 A 
ATOM     49  C   UNL A   1      38.805  34.212  33.353  1.00  0.00     0.031 C 
ATOM     50  C   UNL A   1      38.633  29.566  28.259  1.00  0.00     0.029 A 
ATOM     51  C   UNL A   1      39.713  29.405  29.227  1.00  0.00     0.049 A 
ATOM     52  H   UNL A   1      40.093  30.570  30.912  1.00  0.00     0.167 HD
ATOM     53  C   UNL A   1      40.788  33.146  34.386  1.00  0.00     0.037 A 
ATOM     54  C   UNL A   1      40.662  28.451  29.190  1.00  0.00     0.037 A 
ATOM     55  C   UNL A   1      41.794  32.121  34.470  1.00  0.00     0.049 A 
ATOM     56  C   UNL A   1      41.680  28.387  30.292  1.00  0.00     0.074 A 
ATOM     57  C   UNL A   1      42.772  31.945  35.434  1.00  0.00     0.029 A 
ATOM     58  N   UNL A   1      41.948  31.092  33.553  1.00  0.00    -0.354 N 
ATOM     59  N   UNL A   1      41.826  29.175  31.330  1.00  0.00    -0.248 NA
ATOM     60  C   UNL A   1      42.657  27.291  30.226  1.00  0.00     0.031 C 
ATOM     61  C   UNL A   1      43.534  30.826  35.084  1.00  0.00     0.029 A 
ATOM     62  C   UNL A   1      43.008  30.282  33.924  1.00  0.00     0.049 A 
ATOM     63  H   UNL A   1      41.386  30.958  32.755  1.00  0.00     0.167 HD
ATOM     64  C   UNL A   1      42.886  28.653  32.057  1.00  0.00     0.074 A 
ATOM     65  C   UNL A   1      43.341  27.475  31.346  1.00  0.00     0.031 C 
ATOM     66  C   UNL A   1      43.436  29.107  33.210  1.00  0.00     0.037 A 
BRANCH  53  67
ATOM     67  C   UNL A   1      40.774  34.224  35.429  1.00  0.00     0.057 A 
ATOM     68  C   UNL A   1      41.503  35.410  35.273  1.00  0.00     0.134 A 
ATOM     69  C   UNL A   1      40.008  34.086  36.593  1.00  0.00     0.134 A 
ATOM     70  F   UNL A   1      42.269  35.599  34.187  1.00  0.00    -0.206 F 
ATOM     71  C   UNL A   1      41.492  36.409  36.247  1.00  0.00     0.040 A 
ATOM     72  C   UNL A   1      39.969  35.088  37.564  1.00  0.00     0.040 A 
ATOM     73  F   UNL A   1      39.283  32.977  36.804  1.00  0.00    -0.206 F 
ATOM     74  C   UNL A   1      40.718  36.251  37.396  1.00  0.00     0.006 A 
ENDBRANCH  53  67
BRANCH  54  75
ATOM     75  C   UNL A   1      40.654  27.444  28.101  1.00  0.00     0.057 A 
ATOM     76  C   UNL A   1      41.355  27.666  26.910  1.00  0.00     0.134 A 
ATOM     77  C   UNL A   1      39.949  26.240  28.222  1.00  0.00     0.134 A 
ATOM     78  F   UNL A   1      42.036  28.806  26.731  1.00  0.00    -0.206 F 
ATOM     79  C   UNL A   1      41.338  26.737  25.868  1.00  0.00     0.040 A 
ATOM     80  C   UNL A   1      39.943  25.293  27.197  1.00  0.00     0.040 A 
ATOM     81  F   UNL A   1      39.268  25.965  29.344  1.00  0.00    -0.206 F 
ATOM     82  C   UNL A   1      40.634  25.544  26.013  1.00  0.00     0.006 A 
ENDBRANCH  54  75
BRANCH  66  83
ATOM     83  C   UNL A   1      44.560  28.302  33.792  1.00  0.00     0.057 A 
ATOM     84  C   UNL A   1      44.329  27.235  34.666  1.00  0.00     0.134 A 
ATOM     85  C   UNL A   1      45.888  28.587  33.450  1.00  0.00     0.134 A 
ATOM     86  F   UNL A   1      43.079  26.920  35.041  1.00  0.00    -0.206 F 
ATOM     87  C   UNL A   1      45.383  26.493  35.204  1.00  0.00     0.040 A 
ATOM     88  C   UNL A   1      46.948  27.839  33.962  1.00  0.00     0.040 A 
ATOM     89  F   UNL A   1      46.175  29.594  32.610  1.00  0.00    -0.206 F 
ATOM     90  C   UNL A   1      46.696  26.792  34.847  1.00  0.00     0.006 A 
ENDBRANCH  66  83
ENDBRANCH  40  41
ENDBRANCH  32  35
ENDBRANCH  30  31
ENDBRANCH  29  30
ENDBRANCH   1  29
TORSDOF 14
ENDMDL
