MODEL 1
REMARK VINA RESULT:     -12.8      0.000      0.000
REMARK SMILES Cc1ccc(C(=O)NCCCCNC(=O)c2ccc(-c3c4nc(c(-c5c(F)cccc5F)c5ccc([nH]5)c(-c5c(F)cccc5F)c5nc(c(-c6c(F)cccc6F)c6ccc3[nH]6)C=C5)C=C4)cc2)c(Oc2cccc(F)c2C(N)=O)c1
REMARK SMILES IDX 10 1 9 2 8 3 6 4 7 5 5 7 1 8 2 9 3 10 82 11 4 12 70 13 71 14
REMARK SMILES IDX 72 15 73 16 78 17 74 18 76 19 75 20 77 21 79 22 80 23 81 24
REMARK SMILES IDX 11 27 12 28 13 29 14 30 15 32 16 33 17 34 69 35 18 36 68 37
REMARK SMILES IDX 19 38 20 39 21 40 62 41 22 42 67 43 61 44 63 45 23 46 66 47
REMARK SMILES IDX 60 48 59 49 24 51 50 52 33 53 49 54 34 55 37 56 48 57 64 58
REMARK SMILES IDX 35 59 36 60 47 62 65 63 38 64 25 65 26 66 31 67 27 68 28 69
REMARK SMILES IDX 30 70 32 71 29 72 51 73 52 74 57 75 53 76 54 77 56 78 58 79
REMARK SMILES IDX 55 80 39 81 40 82 45 83 41 84 42 85 44 86 46 87 43 88
REMARK H PARENT 8 6 80 25 80 26 13 31 63 50 37 61
REMARK Flexibility Score: inf
ROOT
ATOM      1  C   UNL A   1      31.922  28.919  27.211  1.00  0.00     0.023 C 
ENDROOT
BRANCH   1   2
ATOM      2  C   UNL A   1      32.619  27.613  26.840  1.00  0.00     0.116 C 
BRANCH   2   3
ATOM      3  N   UNL A   1      31.801  26.421  26.885  1.00  0.00    -0.352 N 
ATOM      4  C   UNL A   1      31.976  25.122  26.460  1.00  0.00     0.255 C 
ATOM      5  O   UNL A   1      31.095  24.327  26.805  1.00  0.00    -0.269 OA
ATOM      6  H   UNL A   1      30.926  26.571  27.313  1.00  0.00     0.163 HD
BRANCH   4   7
ATOM      7  C   UNL A   1      33.056  24.606  25.553  1.00  0.00     0.082 A 
ATOM      8  C   UNL A   1      36.475  23.037  23.376  1.00  0.00     0.044 C 
ATOM      9  C   UNL A   1      35.313  23.600  24.139  1.00  0.00    -0.047 A 
ATOM     10  C   UNL A   1      35.311  23.628  25.531  1.00  0.00     0.004 A 
ATOM     11  C   UNL A   1      34.223  24.143  23.458  1.00  0.00     0.051 A 
ATOM     12  C   UNL A   1      34.204  24.133  26.225  1.00  0.00     0.018 A 
ATOM     13  C   UNL A   1      33.088  24.606  24.151  1.00  0.00     0.140 A 
BRANCH  13  14
ATOM     14  O   UNL A   1      32.065  25.162  23.438  1.00  0.00    -0.456 OA
BRANCH  14  15
ATOM     15  C   UNL A   1      31.897  26.535  23.372  1.00  0.00     0.143 A 
ATOM     16  C   UNL A   1      33.129  27.171  23.122  1.00  0.00     0.048 A 
ATOM     17  C   UNL A   1      30.749  27.316  23.623  1.00  0.00     0.117 A 
ATOM     18  C   UNL A   1      33.236  28.559  23.097  1.00  0.00     0.007 A 
ATOM     19  C   UNL A   1      30.892  28.713  23.616  1.00  0.00     0.139 A 
ATOM     20  C   UNL A   1      32.113  29.332  23.354  1.00  0.00     0.040 A 
ATOM     21  F   UNL A   1      29.852  29.512  23.902  1.00  0.00    -0.206 F 
BRANCH  17  22
ATOM     22  C   UNL A   1      29.354  26.855  23.839  1.00  0.00     0.255 C 
ATOM     23  N   UNL A   1      29.101  25.749  24.596  1.00  0.00    -0.365 N 
ATOM     24  O   UNL A   1      28.412  27.476  23.357  1.00  0.00    -0.269 OA
ATOM     25  H   UNL A   1      29.847  25.240  24.989  1.00  0.00     0.159 HD
ATOM     26  H   UNL A   1      28.173  25.459  24.751  1.00  0.00     0.159 HD
ENDBRANCH  17  22
ENDBRANCH  14  15
ENDBRANCH  13  14
ENDBRANCH   4   7
ENDBRANCH   2   3
ENDBRANCH   1   2
BRANCH   1  27
ATOM     27  C   UNL A   1      32.744  30.194  27.084  1.00  0.00     0.023 C 
BRANCH  27  28
ATOM     28  C   UNL A   1      34.247  29.996  27.036  1.00  0.00     0.116 C 
BRANCH  28  29
ATOM     29  N   UNL A   1      35.072  31.103  27.499  1.00  0.00    -0.352 N 
ATOM     30  C   UNL A   1      36.307  31.094  28.127  1.00  0.00     0.251 C 
ATOM     31  H   UNL A   1      34.693  31.999  27.342  1.00  0.00     0.163 HD
ATOM     32  O   UNL A   1      36.766  32.133  28.547  1.00  0.00    -0.269 OA
BRANCH  30  33
ATOM     33  C   UNL A   1      37.159  29.855  28.152  1.00  0.00     0.039 A 
ATOM     34  C   UNL A   1      37.085  29.033  29.290  1.00  0.00     0.014 A 
ATOM     35  C   UNL A   1      38.158  29.617  27.221  1.00  0.00     0.014 A 
ATOM     36  C   UNL A   1      38.156  28.202  29.615  1.00  0.00     0.010 A 
ATOM     37  C   UNL A   1      39.276  28.920  27.601  1.00  0.00     0.010 A 
ATOM     38  C   UNL A   1      39.299  28.268  28.833  1.00  0.00    -0.014 A 
BRANCH  38  39
ATOM     39  C   UNL A   1      40.609  27.766  29.206  1.00  0.00     0.031 A 
ATOM     40  C   UNL A   1      41.036  26.440  28.723  1.00  0.00     0.074 A 
ATOM     41  C   UNL A   1      41.487  28.659  29.715  1.00  0.00     0.049 A 
ATOM     42  N   UNL A   1      42.141  25.873  29.056  1.00  0.00    -0.248 NA
ATOM     43  C   UNL A   1      40.212  25.612  27.840  1.00  0.00     0.031 C 
ATOM     44  C   UNL A   1      42.946  28.588  29.729  1.00  0.00     0.029 A 
ATOM     45  N   UNL A   1      41.189  29.758  30.537  1.00  0.00    -0.354 N 
ATOM     46  C   UNL A   1      42.328  24.815  28.200  1.00  0.00     0.074 A 
ATOM     47  C   UNL A   1      41.049  24.604  27.575  1.00  0.00     0.031 C 
ATOM     48  C   UNL A   1      43.408  29.373  30.719  1.00  0.00     0.029 A 
ATOM     49  C   UNL A   1      42.247  29.810  31.476  1.00  0.00     0.049 A 
ATOM     50  H   UNL A   1      40.414  30.361  30.474  1.00  0.00     0.167 HD
ATOM     51  C   UNL A   1      43.593  24.357  28.011  1.00  0.00     0.037 A 
ATOM     52  C   UNL A   1      42.024  29.494  32.788  1.00  0.00     0.037 A 
ATOM     53  C   UNL A   1      44.481  24.865  29.056  1.00  0.00     0.049 A 
ATOM     54  C   UNL A   1      42.839  28.313  33.272  1.00  0.00     0.074 A 
ATOM     55  C   UNL A   1      45.475  25.826  29.081  1.00  0.00     0.029 A 
ATOM     56  N   UNL A   1      44.182  24.572  30.386  1.00  0.00    -0.354 N 
ATOM     57  N   UNL A   1      43.341  27.400  32.486  1.00  0.00    -0.248 NA
ATOM     58  C   UNL A   1      43.149  28.071  34.678  1.00  0.00     0.031 C 
ATOM     59  C   UNL A   1      45.664  26.213  30.438  1.00  0.00     0.029 A 
ATOM     60  C   UNL A   1      44.832  25.443  31.236  1.00  0.00     0.049 A 
ATOM     61  H   UNL A   1      43.588  23.843  30.679  1.00  0.00     0.167 HD
ATOM     62  C   UNL A   1      44.007  26.466  33.235  1.00  0.00     0.074 A 
ATOM     63  C   UNL A   1      43.869  26.938  34.600  1.00  0.00     0.031 C 
ATOM     64  C   UNL A   1      44.611  25.376  32.675  1.00  0.00     0.037 A 
BRANCH  51  65
ATOM     65  C   UNL A   1      44.077  23.621  26.781  1.00  0.00     0.057 A 
ATOM     66  C   UNL A   1      44.769  24.317  25.771  1.00  0.00     0.134 A 
ATOM     67  C   UNL A   1      43.777  22.280  26.454  1.00  0.00     0.134 A 
ATOM     68  F   UNL A   1      45.106  25.606  25.920  1.00  0.00    -0.206 F 
ATOM     69  C   UNL A   1      45.127  23.731  24.546  1.00  0.00     0.040 A 
ATOM     70  C   UNL A   1      44.176  21.670  25.257  1.00  0.00     0.040 A 
ATOM     71  F   UNL A   1      43.027  21.498  27.238  1.00  0.00    -0.206 F 
ATOM     72  C   UNL A   1      44.842  22.399  24.289  1.00  0.00     0.006 A 
ENDBRANCH  51  65
BRANCH  52  73
ATOM     73  C   UNL A   1      40.636  29.812  33.230  1.00  0.00     0.057 A 
ATOM     74  C   UNL A   1      40.316  31.151  33.530  1.00  0.00     0.134 A 
ATOM     75  C   UNL A   1      39.568  28.948  32.973  1.00  0.00     0.134 A 
ATOM     76  F   UNL A   1      41.292  32.037  33.787  1.00  0.00    -0.206 F 
ATOM     77  C   UNL A   1      39.008  31.635  33.443  1.00  0.00     0.040 A 
ATOM     78  C   UNL A   1      38.251  29.421  32.904  1.00  0.00     0.040 A 
ATOM     79  F   UNL A   1      39.787  27.663  32.663  1.00  0.00    -0.206 F 
ATOM     80  C   UNL A   1      37.974  30.775  33.092  1.00  0.00     0.006 A 
ENDBRANCH  52  73
BRANCH  64  81
ATOM     81  C   UNL A   1      45.111  24.172  33.438  1.00  0.00     0.057 A 
ATOM     82  C   UNL A   1      46.357  24.108  34.080  1.00  0.00     0.134 A 
ATOM     83  C   UNL A   1      44.256  23.074  33.682  1.00  0.00     0.134 A 
ATOM     84  F   UNL A   1      47.222  25.131  34.040  1.00  0.00    -0.206 F 
ATOM     85  C   UNL A   1      46.753  23.004  34.847  1.00  0.00     0.040 A 
ATOM     86  C   UNL A   1      44.619  21.994  34.492  1.00  0.00     0.040 A 
ATOM     87  F   UNL A   1      43.020  23.015  33.164  1.00  0.00    -0.206 F 
ATOM     88  C   UNL A   1      45.879  21.946  35.065  1.00  0.00     0.006 A 
ENDBRANCH  64  81
ENDBRANCH  38  39
ENDBRANCH  30  33
ENDBRANCH  28  29
ENDBRANCH  27  28
ENDBRANCH   1  27
TORSDOF 14
ENDMDL
MODEL 2
REMARK VINA RESULT:     -12.6      1.558      2.714
REMARK SMILES Cc1ccc(C(=O)NCCCCNC(=O)c2ccc(-c3c4nc(c(-c5c(F)cccc5F)c5ccc([nH]5)c(-c5c(F)cccc5F)c5nc(c(-c6c(F)cccc6F)c6ccc3[nH]6)C=C5)C=C4)cc2)c(Oc2cccc(F)c2C(N)=O)c1
REMARK SMILES IDX 10 1 9 2 8 3 6 4 7 5 5 7 1 8 2 9 3 10 82 11 4 12 70 13 71 14
REMARK SMILES IDX 72 15 73 16 78 17 74 18 76 19 75 20 77 21 79 22 80 23 81 24
REMARK SMILES IDX 11 27 12 28 13 29 14 30 15 32 16 33 17 34 69 35 18 36 68 37
REMARK SMILES IDX 19 38 20 39 21 40 62 41 22 42 67 43 61 44 63 45 23 46 66 47
REMARK SMILES IDX 60 48 59 49 24 51 50 52 33 53 49 54 34 55 37 56 48 57 64 58
REMARK SMILES IDX 35 59 36 60 47 62 65 63 38 64 25 65 26 66 31 67 27 68 28 69
REMARK SMILES IDX 30 70 32 71 29 72 51 73 52 74 57 75 53 76 54 77 56 78 58 79
REMARK SMILES IDX 55 80 39 81 40 82 45 83 41 84 42 85 44 86 46 87 43 88
REMARK H PARENT 8 6 80 25 80 26 13 31 63 50 37 61
REMARK Flexibility Score: inf
ROOT
ATOM      1  C   UNL A   1      32.017  29.493  26.649  1.00  0.00     0.023 C 
ENDROOT
BRANCH   1   2
ATOM      2  C   UNL A   1      32.142  28.177  27.413  1.00  0.00     0.116 C 
BRANCH   2   3
ATOM      3  N   UNL A   1      31.045  27.247  27.257  1.00  0.00    -0.352 N 
ATOM      4  C   UNL A   1      30.732  26.283  26.323  1.00  0.00     0.255 C 
ATOM      5  O   UNL A   1      29.762  25.569  26.602  1.00  0.00    -0.269 OA
ATOM      6  H   UNL A   1      30.375  27.317  27.976  1.00  0.00     0.163 HD
BRANCH   4   7
ATOM      7  C   UNL A   1      31.376  26.081  24.981  1.00  0.00     0.082 A 
ATOM      8  C   UNL A   1      32.744  25.559  20.889  1.00  0.00     0.044 C 
ATOM      9  C   UNL A   1      32.253  25.716  22.298  1.00  0.00    -0.047 A 
ATOM     10  C   UNL A   1      30.926  26.042  22.565  1.00  0.00     0.004 A 
ATOM     11  C   UNL A   1      33.117  25.499  23.371  1.00  0.00     0.051 A 
ATOM     12  C   UNL A   1      30.494  26.211  23.887  1.00  0.00     0.018 A 
ATOM     13  C   UNL A   1      32.700  25.715  24.698  1.00  0.00     0.140 A 
BRANCH  13  14
ATOM     14  O   UNL A   1      33.575  25.452  25.713  1.00  0.00    -0.456 OA
BRANCH  14  15
ATOM     15  C   UNL A   1      34.227  24.234  25.802  1.00  0.00     0.143 A 
ATOM     16  C   UNL A   1      35.516  24.324  25.240  1.00  0.00     0.048 A 
ATOM     17  C   UNL A   1      33.748  22.985  26.249  1.00  0.00     0.117 A 
ATOM     18  C   UNL A   1      36.338  23.206  25.132  1.00  0.00     0.007 A 
ATOM     19  C   UNL A   1      34.590  21.870  26.105  1.00  0.00     0.139 A 
ATOM     20  C   UNL A   1      35.869  21.973  25.558  1.00  0.00     0.040 A 
ATOM     21  F   UNL A   1      34.174  20.644  26.457  1.00  0.00    -0.206 F 
BRANCH  17  22
ATOM     22  C   UNL A   1      32.461  22.684  26.927  1.00  0.00     0.255 C 
ATOM     23  N   UNL A   1      31.352  22.370  26.198  1.00  0.00    -0.365 N 
ATOM     24  O   UNL A   1      32.387  22.693  28.152  1.00  0.00    -0.269 OA
ATOM     25  H   UNL A   1      31.397  22.359  25.214  1.00  0.00     0.159 HD
ATOM     26  H   UNL A   1      30.508  22.153  26.654  1.00  0.00     0.159 HD
ENDBRANCH  17  22
ENDBRANCH  14  15
ENDBRANCH  13  14
ENDBRANCH   4   7
ENDBRANCH   2   3
ENDBRANCH   1   2
BRANCH   1  27
ATOM     27  C   UNL A   1      32.902  30.641  27.115  1.00  0.00     0.023 C 
BRANCH  27  28
ATOM     28  C   UNL A   1      34.381  30.321  27.216  1.00  0.00     0.116 C 
BRANCH  28  29
ATOM     29  N   UNL A   1      35.258  31.396  27.661  1.00  0.00    -0.352 N 
ATOM     30  C   UNL A   1      36.493  31.339  28.287  1.00  0.00     0.251 C 
ATOM     31  H   UNL A   1      34.921  32.306  27.490  1.00  0.00     0.163 HD
ATOM     32  O   UNL A   1      37.000  32.362  28.690  1.00  0.00    -0.269 OA
BRANCH  30  33
ATOM     33  C   UNL A   1      37.285  30.062  28.330  1.00  0.00     0.039 A 
ATOM     34  C   UNL A   1      37.216  29.287  29.501  1.00  0.00     0.014 A 
ATOM     35  C   UNL A   1      38.237  29.742  27.374  1.00  0.00     0.014 A 
ATOM     36  C   UNL A   1      38.258  28.418  29.820  1.00  0.00     0.010 A 
ATOM     37  C   UNL A   1      39.334  29.006  27.742  1.00  0.00     0.010 A 
ATOM     38  C   UNL A   1      39.373  28.400  28.996  1.00  0.00    -0.014 A 
BRANCH  38  39
ATOM     39  C   UNL A   1      40.670  27.849  29.342  1.00  0.00     0.031 A 
ATOM     40  C   UNL A   1      41.040  26.511  28.847  1.00  0.00     0.074 A 
ATOM     41  C   UNL A   1      41.591  28.708  29.836  1.00  0.00     0.049 A 
ATOM     42  N   UNL A   1      42.130  25.903  29.156  1.00  0.00    -0.248 NA
ATOM     43  C   UNL A   1      40.169  25.716  27.977  1.00  0.00     0.031 C 
ATOM     44  C   UNL A   1      43.046  28.585  29.821  1.00  0.00     0.029 A 
ATOM     45  N   UNL A   1      41.349  29.815  30.667  1.00  0.00    -0.354 N 
ATOM     46  C   UNL A   1      42.262  24.842  28.293  1.00  0.00     0.074 A 
ATOM     47  C   UNL A   1      40.964  24.680  27.693  1.00  0.00     0.031 C 
ATOM     48  C   UNL A   1      43.555  29.349  30.804  1.00  0.00     0.029 A 
ATOM     49  C   UNL A   1      42.425  29.825  31.586  1.00  0.00     0.049 A 
ATOM     50  H   UNL A   1      40.595  30.445  30.621  1.00  0.00     0.167 HD
ATOM     51  C   UNL A   1      43.506  24.339  28.078  1.00  0.00     0.037 A 
ATOM     52  C   UNL A   1      42.217  29.512  32.900  1.00  0.00     0.037 A 
ATOM     53  C   UNL A   1      44.431  24.812  29.107  1.00  0.00     0.049 A 
ATOM     54  C   UNL A   1      42.998  28.301  33.364  1.00  0.00     0.074 A 
ATOM     55  C   UNL A   1      45.460  25.735  29.115  1.00  0.00     0.029 A 
ATOM     56  N   UNL A   1      44.148  24.524  30.442  1.00  0.00    -0.354 N 
ATOM     57  N   UNL A   1      43.452  27.373  32.566  1.00  0.00    -0.248 NA
ATOM     58  C   UNL A   1      43.327  28.042  34.764  1.00  0.00     0.031 C 
ATOM     59  C   UNL A   1      45.689  26.110  30.470  1.00  0.00     0.029 A 
ATOM     60  C   UNL A   1      44.846  25.368  31.281  1.00  0.00     0.049 A 
ATOM     61  H   UNL A   1      43.534  23.817  30.744  1.00  0.00     0.167 HD
ATOM     62  C   UNL A   1      44.097  26.413  33.299  1.00  0.00     0.074 A 
ATOM     63  C   UNL A   1      44.004  26.885  34.668  1.00  0.00     0.031 C 
ATOM     64  C   UNL A   1      44.651  25.304  32.725  1.00  0.00     0.037 A 
BRANCH  51  65
ATOM     65  C   UNL A   1      43.938  23.591  26.836  1.00  0.00     0.057 A 
ATOM     66  C   UNL A   1      44.616  24.270  25.805  1.00  0.00     0.134 A 
ATOM     67  C   UNL A   1      43.601  22.256  26.522  1.00  0.00     0.134 A 
ATOM     68  F   UNL A   1      44.984  25.552  25.942  1.00  0.00    -0.206 F 
ATOM     69  C   UNL A   1      44.926  23.675  24.572  1.00  0.00     0.040 A 
ATOM     70  C   UNL A   1      43.952  21.635  25.315  1.00  0.00     0.040 A 
ATOM     71  F   UNL A   1      42.857  21.492  27.329  1.00  0.00    -0.206 F 
ATOM     72  C   UNL A   1      44.606  22.348  24.327  1.00  0.00     0.006 A 
ENDBRANCH  51  65
BRANCH  52  73
ATOM     73  C   UNL A   1      40.851  29.879  33.371  1.00  0.00     0.057 A 
ATOM     74  C   UNL A   1      40.584  31.227  33.677  1.00  0.00     0.134 A 
ATOM     75  C   UNL A   1      39.747  29.053  33.135  1.00  0.00     0.134 A 
ATOM     76  F   UNL A   1      41.596  32.078  33.915  1.00  0.00    -0.206 F 
ATOM     77  C   UNL A   1      39.293  31.758  33.617  1.00  0.00     0.040 A 
ATOM     78  C   UNL A   1      38.446  29.572  33.093  1.00  0.00     0.040 A 
ATOM     79  F   UNL A   1      39.915  27.762  32.820  1.00  0.00    -0.206 F 
ATOM     80  C   UNL A   1      38.222  30.935  33.287  1.00  0.00     0.006 A 
ENDBRANCH  52  73
BRANCH  64  81
ATOM     81  C   UNL A   1      45.121  24.080  33.474  1.00  0.00     0.057 A 
ATOM     82  C   UNL A   1      46.388  23.957  34.064  1.00  0.00     0.134 A 
ATOM     83  C   UNL A   1      44.224  23.027  33.759  1.00  0.00     0.134 A 
ATOM     84  F   UNL A   1      47.301  24.935  33.983  1.00  0.00    -0.206 F 
ATOM     85  C   UNL A   1      46.760  22.838  34.822  1.00  0.00     0.040 A 
ATOM     86  C   UNL A   1      44.566  21.933  34.560  1.00  0.00     0.040 A 
ATOM     87  F   UNL A   1      42.967  23.027  33.293  1.00  0.00    -0.206 F 
ATOM     88  C   UNL A   1      45.845  21.825  35.081  1.00  0.00     0.006 A 
ENDBRANCH  64  81
ENDBRANCH  38  39
ENDBRANCH  30  33
ENDBRANCH  28  29
ENDBRANCH  27  28
ENDBRANCH   1  27
TORSDOF 14
ENDMDL
MODEL 3
REMARK VINA RESULT:     -12.5      0.917      1.871
REMARK SMILES Cc1ccc(C(=O)NCCCCNC(=O)c2ccc(-c3c4nc(c(-c5c(F)cccc5F)c5ccc([nH]5)c(-c5c(F)cccc5F)c5nc(c(-c6c(F)cccc6F)c6ccc3[nH]6)C=C5)C=C4)cc2)c(Oc2cccc(F)c2C(N)=O)c1
REMARK SMILES IDX 10 1 9 2 8 3 6 4 7 5 5 7 1 8 2 9 3 10 82 11 4 12 70 13 71 14
REMARK SMILES IDX 72 15 73 16 78 17 74 18 76 19 75 20 77 21 79 22 80 23 81 24
REMARK SMILES IDX 11 27 12 28 13 29 14 30 15 32 16 33 17 34 69 35 18 36 68 37
REMARK SMILES IDX 19 38 20 39 21 40 62 41 22 42 67 43 61 44 63 45 23 46 66 47
REMARK SMILES IDX 60 48 59 49 24 51 50 52 33 53 49 54 34 55 37 56 48 57 64 58
REMARK SMILES IDX 35 59 36 60 47 62 65 63 38 64 25 65 26 66 31 67 27 68 28 69
REMARK SMILES IDX 30 70 32 71 29 72 51 73 52 74 57 75 53 76 54 77 56 78 58 79
REMARK SMILES IDX 55 80 39 81 40 82 45 83 41 84 42 85 44 86 46 87 43 88
REMARK H PARENT 8 6 80 25 80 26 13 31 63 50 37 61
REMARK Flexibility Score: inf
ROOT
ATOM      1  C   UNL A   1      31.880  29.227  26.083  1.00  0.00     0.023 C 
ENDROOT
BRANCH   1   2
ATOM      2  C   UNL A   1      32.681  27.935  26.218  1.00  0.00     0.116 C 
BRANCH   2   3
ATOM      3  N   UNL A   1      31.923  26.752  26.565  1.00  0.00    -0.352 N 
ATOM      4  C   UNL A   1      32.110  25.402  26.362  1.00  0.00     0.255 C 
ATOM      5  O   UNL A   1      31.305  24.663  26.939  1.00  0.00    -0.269 OA
ATOM      6  H   UNL A   1      31.093  26.957  27.054  1.00  0.00     0.163 HD
BRANCH   4   7
ATOM      7  C   UNL A   1      33.110  24.755  25.447  1.00  0.00     0.082 A 
ATOM      8  C   UNL A   1      36.368  22.975  23.187  1.00  0.00     0.044 C 
ATOM      9  C   UNL A   1      35.259  23.615  23.969  1.00  0.00    -0.047 A 
ATOM     10  C   UNL A   1      35.459  24.056  25.274  1.00  0.00     0.004 A 
ATOM     11  C   UNL A   1      34.010  23.814  23.381  1.00  0.00     0.051 A 
ATOM     12  C   UNL A   1      34.403  24.626  25.996  1.00  0.00     0.018 A 
ATOM     13  C   UNL A   1      32.933  24.341  24.119  1.00  0.00     0.140 A 
BRANCH  13  14
ATOM     14  O   UNL A   1      31.742  24.549  23.484  1.00  0.00    -0.456 OA
BRANCH  14  15
ATOM     15  C   UNL A   1      31.219  25.823  23.334  1.00  0.00     0.143 A 
ATOM     16  C   UNL A   1      29.876  25.858  23.759  1.00  0.00     0.048 A 
ATOM     17  C   UNL A   1      31.793  26.969  22.744  1.00  0.00     0.117 A 
ATOM     18  C   UNL A   1      29.105  27.008  23.627  1.00  0.00     0.007 A 
ATOM     19  C   UNL A   1      30.982  28.108  22.602  1.00  0.00     0.139 A 
ATOM     20  C   UNL A   1      29.659  28.134  23.037  1.00  0.00     0.040 A 
ATOM     21  F   UNL A   1      31.449  29.212  21.998  1.00  0.00    -0.206 F 
BRANCH  17  22
ATOM     22  C   UNL A   1      33.194  27.167  22.295  1.00  0.00     0.255 C 
ATOM     23  N   UNL A   1      34.043  27.962  23.008  1.00  0.00    -0.365 N 
ATOM     24  O   UNL A   1      33.610  26.602  21.288  1.00  0.00    -0.269 OA
ATOM     25  H   UNL A   1      33.723  28.422  23.818  1.00  0.00     0.159 HD
ATOM     26  H   UNL A   1      34.976  28.075  22.714  1.00  0.00     0.159 HD
ENDBRANCH  17  22
ENDBRANCH  14  15
ENDBRANCH  13  14
ENDBRANCH   4   7
ENDBRANCH   2   3
ENDBRANCH   1   2
BRANCH   1  27
ATOM     27  C   UNL A   1      32.418  30.446  26.819  1.00  0.00     0.023 C 
BRANCH  27  28
ATOM     28  C   UNL A   1      33.681  30.212  27.626  1.00  0.00     0.116 C 
BRANCH  28  29
ATOM     29  N   UNL A   1      34.575  31.350  27.795  1.00  0.00    -0.352 N 
ATOM     30  C   UNL A   1      35.895  31.392  28.212  1.00  0.00     0.251 C 
ATOM     31  H   UNL A   1      34.179  32.226  27.578  1.00  0.00     0.163 HD
ATOM     32  O   UNL A   1      36.420  32.466  28.407  1.00  0.00    -0.269 OA
BRANCH  30  33
ATOM     33  C   UNL A   1      36.734  30.145  28.270  1.00  0.00     0.039 A 
ATOM     34  C   UNL A   1      36.735  29.412  29.469  1.00  0.00     0.014 A 
ATOM     35  C   UNL A   1      37.661  29.823  27.291  1.00  0.00     0.014 A 
ATOM     36  C   UNL A   1      37.818  28.592  29.780  1.00  0.00     0.010 A 
ATOM     37  C   UNL A   1      38.796  29.140  27.642  1.00  0.00     0.010 A 
ATOM     38  C   UNL A   1      38.902  28.582  28.915  1.00  0.00    -0.014 A 
BRANCH  38  39
ATOM     39  C   UNL A   1      40.230  28.088  29.231  1.00  0.00     0.031 A 
ATOM     40  C   UNL A   1      40.633  26.751  28.760  1.00  0.00     0.074 A 
ATOM     41  C   UNL A   1      41.134  28.994  29.669  1.00  0.00     0.049 A 
ATOM     42  N   UNL A   1      41.755  26.192  29.048  1.00  0.00    -0.248 NA
ATOM     43  C   UNL A   1      39.764  25.900  27.943  1.00  0.00     0.031 C 
ATOM     44  C   UNL A   1      42.591  28.923  29.608  1.00  0.00     0.029 A 
ATOM     45  N   UNL A   1      40.879  30.115  30.477  1.00  0.00    -0.354 N 
ATOM     46  C   UNL A   1      41.897  25.113  28.211  1.00  0.00     0.074 A 
ATOM     47  C   UNL A   1      40.587  24.886  27.660  1.00  0.00     0.031 C 
ATOM     48  C   UNL A   1      43.104  29.734  30.551  1.00  0.00     0.029 A 
ATOM     49  C   UNL A   1      41.984  30.191  31.358  1.00  0.00     0.049 A 
ATOM     50  H   UNL A   1      40.100  30.716  30.440  1.00  0.00     0.167 HD
ATOM     51  C   UNL A   1      43.151  24.649  27.967  1.00  0.00     0.037 A 
ATOM     52  C   UNL A   1      41.832  29.908  32.687  1.00  0.00     0.037 A 
ATOM     53  C   UNL A   1      44.092  25.184  28.950  1.00  0.00     0.049 A 
ATOM     54  C   UNL A   1      42.673  28.740  33.157  1.00  0.00     0.074 A 
ATOM     55  C   UNL A   1      45.085  26.145  28.897  1.00  0.00     0.029 A 
ATOM     56  N   UNL A   1      43.865  24.925  30.301  1.00  0.00    -0.354 N 
ATOM     57  N   UNL A   1      43.134  27.806  32.369  1.00  0.00    -0.248 NA
ATOM     58  C   UNL A   1      43.058  28.534  34.550  1.00  0.00     0.031 C 
ATOM     59  C   UNL A   1      45.345  26.567  30.232  1.00  0.00     0.029 A 
ATOM     60  C   UNL A   1      44.558  25.818  31.092  1.00  0.00     0.049 A 
ATOM     61  H   UNL A   1      43.288  24.205  30.643  1.00  0.00     0.167 HD
ATOM     62  C   UNL A   1      43.839  26.892  33.105  1.00  0.00     0.074 A 
ATOM     63  C   UNL A   1      43.774  27.399  34.464  1.00  0.00     0.031 C 
ATOM     64  C   UNL A   1      44.414  25.788  32.543  1.00  0.00     0.037 A 
BRANCH  51  65
ATOM     65  C   UNL A   1      43.569  23.882  26.732  1.00  0.00     0.057 A 
ATOM     66  C   UNL A   1      43.367  22.489  26.666  1.00  0.00     0.134 A 
ATOM     67  C   UNL A   1      44.297  24.410  25.643  1.00  0.00     0.134 A 
ATOM     68  F   UNL A   1      42.713  21.835  27.636  1.00  0.00    -0.206 F 
ATOM     69  C   UNL A   1      43.851  21.695  25.614  1.00  0.00     0.040 A 
ATOM     70  C   UNL A   1      44.739  23.635  24.562  1.00  0.00     0.040 A 
ATOM     71  F   UNL A   1      44.685  25.688  25.589  1.00  0.00    -0.206 F 
ATOM     72  C   UNL A   1      44.529  22.268  24.549  1.00  0.00     0.006 A 
ENDBRANCH  51  65
BRANCH  52  73
ATOM     73  C   UNL A   1      40.470  30.238  33.194  1.00  0.00     0.057 A 
ATOM     74  C   UNL A   1      40.146  31.589  33.423  1.00  0.00     0.134 A 
ATOM     75  C   UNL A   1      39.402  29.345  33.063  1.00  0.00     0.134 A 
ATOM     76  F   UNL A   1      41.121  32.503  33.558  1.00  0.00    -0.206 F 
ATOM     77  C   UNL A   1      38.827  32.050  33.387  1.00  0.00     0.040 A 
ATOM     78  C   UNL A   1      38.075  29.795  33.047  1.00  0.00     0.040 A 
ATOM     79  F   UNL A   1      39.623  28.045  32.827  1.00  0.00    -0.206 F 
ATOM     80  C   UNL A   1      37.788  31.155  33.161  1.00  0.00     0.006 A 
ENDBRANCH  52  73
BRANCH  64  81
ATOM     81  C   UNL A   1      44.955  24.604  33.309  1.00  0.00     0.057 A 
ATOM     82  C   UNL A   1      44.298  23.369  33.417  1.00  0.00     0.134 A 
ATOM     83  C   UNL A   1      46.263  24.634  33.841  1.00  0.00     0.134 A 
ATOM     84  F   UNL A   1      43.102  23.156  32.851  1.00  0.00    -0.206 F 
ATOM     85  C   UNL A   1      44.869  22.267  34.068  1.00  0.00     0.040 A 
ATOM     86  C   UNL A   1      46.864  23.524  34.442  1.00  0.00     0.040 A 
ATOM     87  F   UNL A   1      47.025  25.736  33.777  1.00  0.00    -0.206 F 
ATOM     88  C   UNL A   1      46.161  22.338  34.575  1.00  0.00     0.006 A 
ENDBRANCH  64  81
ENDBRANCH  38  39
ENDBRANCH  30  33
ENDBRANCH  28  29
ENDBRANCH  27  28
ENDBRANCH   1  27
TORSDOF 14
ENDMDL
