MODEL 1
REMARK VINA RESULT:     -12.8      0.000      0.000
REMARK SMILES C[C@@]1(C(=O)NCCCCNC(=O)c2ccc(-c3c4nc(c(-c5c(F)cccc5F)c5ccc([nH]5)c(-c5c(F)cccc5F)c5nc(c(-c6c(F)cccc6F)c6ccc3[nH]6)C=C5)C=C4)cc2)[C@@H]2C=C[C@@]3(CN(c4ccccc4)C(=O)[C@H]13)O2
REMARK SMILES IDX 8 1 7 2 6 3 5 4 3 5 4 6 2 8 1 9 67 10 81 11 68 12 82 13
REMARK SMILES IDX 70 14 79 15 69 16 71 17 72 18 80 19 73 20 74 21 78 22 75 23
REMARK SMILES IDX 77 24 76 25 9 26 10 27 11 28 12 30 13 31 14 32 66 33 15 34
REMARK SMILES IDX 65 35 16 36 17 37 18 38 59 39 19 40 64 41 58 42 60 43 20 44
REMARK SMILES IDX 63 45 57 46 56 47 21 49 47 50 30 51 46 52 31 53 34 54 45 55
REMARK SMILES IDX 61 56 32 57 33 58 44 60 62 61 35 62 22 63 23 64 28 65 24 66
REMARK SMILES IDX 25 67 27 68 29 69 26 70 48 71 49 72 54 73 50 74 51 75 53 76
REMARK SMILES IDX 55 77 52 78 36 79 37 80 42 81 38 82 39 83 41 84 43 85 40 86
REMARK H PARENT 5 7 10 29 60 48 34 59
REMARK Flexibility Score: inf
ROOT
ATOM      1  C   UNL A   1      33.604  28.471  27.262  1.00  0.00     0.023 C 
ENDROOT
BRANCH   1   2
ATOM      2  C   UNL A   1      32.143  28.192  27.542  1.00  0.00     0.023 C 
BRANCH   2   3
ATOM      3  C   UNL A   1      31.402  27.298  26.561  1.00  0.00     0.116 C 
BRANCH   3   4
ATOM      4  N   UNL A   1      31.412  25.894  26.897  1.00  0.00    -0.356 N 
ATOM      5  C   UNL A   1      31.647  24.741  26.227  1.00  0.00     0.229 C 
ATOM      6  O   UNL A   1      31.738  23.764  26.989  1.00  0.00    -0.274 OA
ATOM      7  H   UNL A   1      31.194  25.736  27.845  1.00  0.00     0.163 HD
BRANCH   5   8
ATOM      8  C   UNL A   1      31.853  24.528  24.706  1.00  0.00     0.091 C 
ATOM      9  C   UNL A   1      31.488  23.035  24.435  1.00  0.00     0.026 C 
ATOM     10  C   UNL A   1      33.299  24.724  24.139  1.00  0.00     0.158 C 
ATOM     11  C   UNL A   1      31.088  25.372  23.688  1.00  0.00     0.135 C 
ATOM     12  C   UNL A   1      33.874  26.053  24.493  1.00  0.00     0.004 C 
ATOM     13  O   UNL A   1      33.009  25.016  22.685  1.00  0.00    -0.360 OA
ATOM     14  C   UNL A   1      32.187  26.158  22.960  1.00  0.00     0.118 C 
ATOM     15  C   UNL A   1      29.998  26.369  23.852  1.00  0.00     0.234 C 
ATOM     16  C   UNL A   1      33.191  26.940  23.762  1.00  0.00     0.009 C 
ATOM     17  C   UNL A   1      31.357  26.979  21.994  1.00  0.00     0.166 C 
ATOM     18  N   UNL A   1      30.198  27.335  22.834  1.00  0.00    -0.309 N 
ATOM     19  O   UNL A   1      29.055  26.221  24.609  1.00  0.00    -0.274 OA
BRANCH  18  20
ATOM     20  C   UNL A   1      29.420  28.509  22.648  1.00  0.00     0.044 A 
ATOM     21  C   UNL A   1      29.977  29.664  22.086  1.00  0.00     0.026 A 
ATOM     22  C   UNL A   1      28.081  28.572  23.064  1.00  0.00     0.026 A 
ATOM     23  C   UNL A   1      29.231  30.844  21.974  1.00  0.00     0.002 A 
ATOM     24  C   UNL A   1      27.343  29.758  22.981  1.00  0.00     0.002 A 
ATOM     25  C   UNL A   1      27.920  30.896  22.437  1.00  0.00     0.000 A 
ENDBRANCH  18  20
ENDBRANCH   5   8
ENDBRANCH   3   4
ENDBRANCH   2   3
ENDBRANCH   1   2
BRANCH   1  26
ATOM     26  C   UNL A   1      33.942  29.895  26.870  1.00  0.00     0.116 C 
BRANCH  26  27
ATOM     27  N   UNL A   1      33.963  30.856  27.968  1.00  0.00    -0.352 N 
ATOM     28  C   UNL A   1      34.971  31.096  28.879  1.00  0.00     0.251 C 
ATOM     29  H   UNL A   1      33.151  31.403  28.073  1.00  0.00     0.163 HD
ATOM     30  O   UNL A   1      34.843  31.932  29.761  1.00  0.00    -0.269 OA
BRANCH  28  31
ATOM     31  C   UNL A   1      36.191  30.263  28.805  1.00  0.00     0.039 A 
ATOM     32  C   UNL A   1      37.003  30.357  27.674  1.00  0.00     0.014 A 
ATOM     33  C   UNL A   1      36.602  29.533  29.920  1.00  0.00     0.014 A 
ATOM     34  C   UNL A   1      38.290  29.818  27.713  1.00  0.00     0.010 A 
ATOM     35  C   UNL A   1      37.921  29.110  30.000  1.00  0.00     0.010 A 
ATOM     36  C   UNL A   1      38.784  29.254  28.900  1.00  0.00    -0.014 A 
BRANCH  36  37
ATOM     37  C   UNL A   1      40.194  28.806  29.029  1.00  0.00     0.031 A 
ATOM     38  C   UNL A   1      41.233  29.766  29.543  1.00  0.00     0.074 A 
ATOM     39  C   UNL A   1      40.562  27.585  28.592  1.00  0.00     0.049 A 
ATOM     40  N   UNL A   1      42.533  29.628  29.599  1.00  0.00    -0.248 NA
ATOM     41  C   UNL A   1      40.749  31.078  30.003  1.00  0.00     0.031 C 
ATOM     42  C   UNL A   1      39.670  26.586  27.996  1.00  0.00     0.029 A 
ATOM     43  N   UNL A   1      41.794  26.978  28.573  1.00  0.00    -0.354 N 
ATOM     44  C   UNL A   1      43.019  30.847  30.053  1.00  0.00     0.074 A 
ATOM     45  C   UNL A   1      41.884  31.730  30.204  1.00  0.00     0.031 C 
ATOM     46  C   UNL A   1      40.378  25.481  27.704  1.00  0.00     0.029 A 
ATOM     47  C   UNL A   1      41.774  25.703  28.060  1.00  0.00     0.049 A 
ATOM     48  H   UNL A   1      42.613  27.416  28.897  1.00  0.00     0.167 HD
ATOM     49  C   UNL A   1      44.293  31.193  30.349  1.00  0.00     0.037 A 
ATOM     50  C   UNL A   1      42.773  24.815  27.899  1.00  0.00     0.037 A 
ATOM     51  C   UNL A   1      45.409  30.292  30.279  1.00  0.00     0.049 A 
ATOM     52  C   UNL A   1      44.166  25.193  28.316  1.00  0.00     0.074 A 
ATOM     53  C   UNL A   1      46.723  30.514  30.647  1.00  0.00     0.029 A 
ATOM     54  N   UNL A   1      45.333  28.984  29.826  1.00  0.00    -0.354 N 
ATOM     55  N   UNL A   1      44.601  26.328  28.806  1.00  0.00    -0.248 NA
ATOM     56  C   UNL A   1      45.207  24.165  28.165  1.00  0.00     0.031 C 
ATOM     57  C   UNL A   1      47.448  29.343  30.404  1.00  0.00     0.029 A 
ATOM     58  C   UNL A   1      46.578  28.386  29.907  1.00  0.00     0.049 A 
ATOM     59  H   UNL A   1      44.515  28.545  29.496  1.00  0.00     0.167 HD
ATOM     60  C   UNL A   1      45.957  26.145  29.043  1.00  0.00     0.074 A 
ATOM     61  C   UNL A   1      46.271  24.786  28.656  1.00  0.00     0.031 C 
ATOM     62  C   UNL A   1      46.863  27.026  29.533  1.00  0.00     0.037 A 
BRANCH  49  63
ATOM     63  C   UNL A   1      44.534  32.601  30.805  1.00  0.00     0.057 A 
ATOM     64  C   UNL A   1      44.519  32.949  32.161  1.00  0.00     0.134 A 
ATOM     65  C   UNL A   1      44.791  33.618  29.878  1.00  0.00     0.134 A 
ATOM     66  F   UNL A   1      44.258  32.023  33.097  1.00  0.00    -0.206 F 
ATOM     67  C   UNL A   1      44.722  34.264  32.580  1.00  0.00     0.040 A 
ATOM     68  C   UNL A   1      45.022  34.933  30.286  1.00  0.00     0.040 A 
ATOM     69  F   UNL A   1      44.821  33.352  28.564  1.00  0.00    -0.206 F 
ATOM     70  C   UNL A   1      44.981  35.260  31.640  1.00  0.00     0.006 A 
ENDBRANCH  49  63
BRANCH  50  71
ATOM     71  C   UNL A   1      42.490  23.462  27.357  1.00  0.00     0.057 A 
ATOM     72  C   UNL A   1      42.108  22.417  28.207  1.00  0.00     0.134 A 
ATOM     73  C   UNL A   1      42.607  23.176  25.993  1.00  0.00     0.134 A 
ATOM     74  F   UNL A   1      41.997  22.627  29.527  1.00  0.00    -0.206 F 
ATOM     75  C   UNL A   1      41.872  21.129  27.723  1.00  0.00     0.040 A 
ATOM     76  C   UNL A   1      42.355  21.897  25.492  1.00  0.00     0.040 A 
ATOM     77  F   UNL A   1      42.964  24.136  25.128  1.00  0.00    -0.206 F 
ATOM     78  C   UNL A   1      41.994  20.867  26.360  1.00  0.00     0.006 A 
ENDBRANCH  50  71
BRANCH  62  79
ATOM     79  C   UNL A   1      48.266  26.534  29.710  1.00  0.00     0.057 A 
ATOM     80  C   UNL A   1      49.231  26.692  28.709  1.00  0.00     0.134 A 
ATOM     81  C   UNL A   1      48.665  25.940  30.914  1.00  0.00     0.134 A 
ATOM     82  F   UNL A   1      48.904  27.244  27.530  1.00  0.00    -0.206 F 
ATOM     83  C   UNL A   1      50.545  26.261  28.893  1.00  0.00     0.040 A 
ATOM     84  C   UNL A   1      49.981  25.523  31.117  1.00  0.00     0.040 A 
ATOM     85  F   UNL A   1      47.786  25.768  31.912  1.00  0.00    -0.206 F 
ATOM     86  C   UNL A   1      50.923  25.680  30.103  1.00  0.00     0.006 A 
ENDBRANCH  62  79
ENDBRANCH  36  37
ENDBRANCH  28  31
ENDBRANCH  26  27
ENDBRANCH   1  26
TORSDOF 12
ENDMDL
MODEL 2
REMARK VINA RESULT:     -12.8      1.752      4.100
REMARK SMILES C[C@@]1(C(=O)NCCCCNC(=O)c2ccc(-c3c4nc(c(-c5c(F)cccc5F)c5ccc([nH]5)c(-c5c(F)cccc5F)c5nc(c(-c6c(F)cccc6F)c6ccc3[nH]6)C=C5)C=C4)cc2)[C@@H]2C=C[C@@]3(CN(c4ccccc4)C(=O)[C@H]13)O2
REMARK SMILES IDX 8 1 7 2 6 3 5 4 3 5 4 6 2 8 1 9 67 10 81 11 68 12 82 13
REMARK SMILES IDX 70 14 79 15 69 16 71 17 72 18 80 19 73 20 74 21 78 22 75 23
REMARK SMILES IDX 77 24 76 25 9 26 10 27 11 28 12 30 13 31 14 32 66 33 15 34
REMARK SMILES IDX 65 35 16 36 17 37 18 38 59 39 19 40 64 41 58 42 60 43 20 44
REMARK SMILES IDX 63 45 57 46 56 47 21 49 47 50 30 51 46 52 31 53 34 54 45 55
REMARK SMILES IDX 61 56 32 57 33 58 44 60 62 61 35 62 22 63 23 64 28 65 24 66
REMARK SMILES IDX 25 67 27 68 29 69 26 70 48 71 49 72 54 73 50 74 51 75 53 76
REMARK SMILES IDX 55 77 52 78 36 79 37 80 42 81 38 82 39 83 41 84 43 85 40 86
REMARK H PARENT 5 7 10 29 60 48 34 59
REMARK Flexibility Score: inf
ROOT
ATOM      1  C   UNL A   1      32.959  28.938  25.826  1.00  0.00     0.023 C 
ENDROOT
BRANCH   1   2
ATOM      2  C   UNL A   1      33.884  28.361  24.776  1.00  0.00     0.023 C 
BRANCH   2   3
ATOM      3  C   UNL A   1      33.264  27.936  23.454  1.00  0.00     0.116 C 
BRANCH   3   4
ATOM      4  N   UNL A   1      33.679  26.635  22.984  1.00  0.00    -0.356 N 
ATOM      5  C   UNL A   1      33.208  25.371  23.096  1.00  0.00     0.229 C 
ATOM      6  O   UNL A   1      33.801  24.579  22.343  1.00  0.00    -0.274 OA
ATOM      7  H   UNL A   1      34.508  26.678  22.452  1.00  0.00     0.163 HD
BRANCH   5   8
ATOM      8  C   UNL A   1      32.044  24.843  23.972  1.00  0.00     0.091 C 
ATOM      9  C   UNL A   1      30.754  25.524  23.416  1.00  0.00     0.026 C 
ATOM     10  C   UNL A   1      32.080  25.181  25.500  1.00  0.00     0.158 C 
ATOM     11  C   UNL A   1      31.758  23.346  24.071  1.00  0.00     0.135 C 
ATOM     12  C   UNL A   1      33.358  24.765  26.145  1.00  0.00     0.004 C 
ATOM     13  O   UNL A   1      31.208  24.084  26.065  1.00  0.00    -0.360 OA
ATOM     14  C   UNL A   1      32.015  23.019  25.548  1.00  0.00     0.118 C 
ATOM     15  C   UNL A   1      32.334  22.181  23.350  1.00  0.00     0.234 C 
ATOM     16  C   UNL A   1      33.318  23.429  26.179  1.00  0.00     0.009 C 
ATOM     17  C   UNL A   1      31.737  21.529  25.562  1.00  0.00     0.166 C 
ATOM     18  N   UNL A   1      32.328  21.109  24.278  1.00  0.00    -0.309 N 
ATOM     19  O   UNL A   1      32.566  22.173  22.155  1.00  0.00    -0.274 OA
BRANCH  18  20
ATOM     20  C   UNL A   1      32.846  19.808  24.036  1.00  0.00     0.044 A 
ATOM     21  C   UNL A   1      34.004  19.359  24.682  1.00  0.00     0.026 A 
ATOM     22  C   UNL A   1      32.246  18.944  23.107  1.00  0.00     0.026 A 
ATOM     23  C   UNL A   1      34.558  18.107  24.385  1.00  0.00     0.002 A 
ATOM     24  C   UNL A   1      32.812  17.705  22.787  1.00  0.00     0.002 A 
ATOM     25  C   UNL A   1      33.971  17.288  23.426  1.00  0.00     0.000 A 
ENDBRANCH  18  20
ENDBRANCH   5   8
ENDBRANCH   3   4
ENDBRANCH   2   3
ENDBRANCH   1   2
BRANCH   1  26
ATOM     26  C   UNL A   1      33.489  28.939  27.245  1.00  0.00     0.116 C 
BRANCH  26  27
ATOM     27  N   UNL A   1      33.620  30.255  27.860  1.00  0.00    -0.352 N 
ATOM     28  C   UNL A   1      34.746  30.842  28.401  1.00  0.00     0.251 C 
ATOM     29  H   UNL A   1      32.797  30.795  27.894  1.00  0.00     0.163 HD
ATOM     30  O   UNL A   1      34.704  31.958  28.897  1.00  0.00    -0.269 OA
BRANCH  28  31
ATOM     31  C   UNL A   1      35.998  30.055  28.428  1.00  0.00     0.039 A 
ATOM     32  C   UNL A   1      36.870  30.138  27.342  1.00  0.00     0.014 A 
ATOM     33  C   UNL A   1      36.371  29.383  29.593  1.00  0.00     0.014 A 
ATOM     34  C   UNL A   1      38.171  29.651  27.474  1.00  0.00     0.010 A 
ATOM     35  C   UNL A   1      37.697  29.014  29.762  1.00  0.00     0.010 A 
ATOM     36  C   UNL A   1      38.616  29.150  28.708  1.00  0.00    -0.014 A 
BRANCH  36  37
ATOM     37  C   UNL A   1      40.032  28.762  28.934  1.00  0.00     0.031 A 
ATOM     38  C   UNL A   1      40.983  29.753  29.548  1.00  0.00     0.074 A 
ATOM     39  C   UNL A   1      40.487  27.571  28.497  1.00  0.00     0.049 A 
ATOM     40  N   UNL A   1      42.280  29.671  29.701  1.00  0.00    -0.248 NA
ATOM     41  C   UNL A   1      40.406  31.029  30.002  1.00  0.00     0.031 C 
ATOM     42  C   UNL A   1      39.691  26.550  27.810  1.00  0.00     0.029 A 
ATOM     43  N   UNL A   1      41.744  27.020  28.557  1.00  0.00    -0.354 N 
ATOM     44  C   UNL A   1      42.674  30.898  30.219  1.00  0.00     0.074 A 
ATOM     45  C   UNL A   1      41.491  31.725  30.304  1.00  0.00     0.031 C 
ATOM     46  C   UNL A   1      40.468  25.487  27.547  1.00  0.00     0.029 A 
ATOM     47  C   UNL A   1      41.822  25.760  28.014  1.00  0.00     0.049 A 
ATOM     48  H   UNL A   1      42.516  27.485  28.954  1.00  0.00     0.167 HD
ATOM     49  C   UNL A   1      43.904  31.292  30.620  1.00  0.00     0.037 A 
ATOM     50  C   UNL A   1      42.871  24.922  27.907  1.00  0.00     0.037 A 
ATOM     51  C   UNL A   1      45.063  30.443  30.614  1.00  0.00     0.049 A 
ATOM     52  C   UNL A   1      44.210  25.350  28.439  1.00  0.00     0.074 A 
ATOM     53  C   UNL A   1      46.334  30.714  31.087  1.00  0.00     0.029 A 
ATOM     54  N   UNL A   1      45.083  29.146  30.125  1.00  0.00    -0.354 N 
ATOM     55  N   UNL A   1      44.554  26.490  28.988  1.00  0.00    -0.248 NA
ATOM     56  C   UNL A   1      45.305  24.374  28.343  1.00  0.00     0.031 C 
ATOM     57  C   UNL A   1      47.129  29.583  30.872  1.00  0.00     0.029 A 
ATOM     58  C   UNL A   1      46.344  28.602  30.286  1.00  0.00     0.049 A 
ATOM     59  H   UNL A   1      44.313  28.681  29.722  1.00  0.00     0.167 HD
ATOM     60  C   UNL A   1      45.894  26.361  29.323  1.00  0.00     0.074 A 
ATOM     61  C   UNL A   1      46.299  25.028  28.929  1.00  0.00     0.031 C 
ATOM     62  C   UNL A   1      46.719  27.267  29.902  1.00  0.00     0.037 A 
BRANCH  49  63
ATOM     63  C   UNL A   1      44.044  32.696  31.127  1.00  0.00     0.057 A 
ATOM     64  C   UNL A   1      44.360  33.760  30.273  1.00  0.00     0.134 A 
ATOM     65  C   UNL A   1      43.853  32.989  32.483  1.00  0.00     0.134 A 
ATOM     66  F   UNL A   1      44.575  33.540  28.967  1.00  0.00    -0.206 F 
ATOM     67  C   UNL A   1      44.511  35.061  30.752  1.00  0.00     0.040 A 
ATOM     68  C   UNL A   1      43.975  34.291  32.970  1.00  0.00     0.040 A 
ATOM     69  F   UNL A   1      43.546  32.016  33.354  1.00  0.00    -0.206 F 
ATOM     70  C   UNL A   1      44.312  35.330  32.104  1.00  0.00     0.006 A 
ENDBRANCH  49  63
BRANCH  50  71
ATOM     71  C   UNL A   1      42.693  23.574  27.313  1.00  0.00     0.057 A 
ATOM     72  C   UNL A   1      42.276  22.494  28.102  1.00  0.00     0.134 A 
ATOM     73  C   UNL A   1      42.945  23.326  25.960  1.00  0.00     0.134 A 
ATOM     74  F   UNL A   1      42.037  22.667  29.409  1.00  0.00    -0.206 F 
ATOM     75  C   UNL A   1      42.137  21.211  27.570  1.00  0.00     0.040 A 
ATOM     76  C   UNL A   1      42.791  22.052  25.411  1.00  0.00     0.040 A 
ATOM     77  F   UNL A   1      43.341  24.321  25.152  1.00  0.00    -0.206 F 
ATOM     78  C   UNL A   1      42.393  20.987  26.219  1.00  0.00     0.006 A 
ENDBRANCH  50  71
BRANCH  62  79
ATOM     79  C   UNL A   1      48.126  26.833  30.174  1.00  0.00     0.057 A 
ATOM     80  C   UNL A   1      48.470  26.154  31.348  1.00  0.00     0.134 A 
ATOM     81  C   UNL A   1      49.136  27.058  29.230  1.00  0.00     0.134 A 
ATOM     82  F   UNL A   1      47.548  25.921  32.295  1.00  0.00    -0.206 F 
ATOM     83  C   UNL A   1      49.777  25.724  31.582  1.00  0.00     0.040 A 
ATOM     84  C   UNL A   1      50.441  26.615  29.443  1.00  0.00     0.040 A 
ATOM     85  F   UNL A   1      48.864  27.697  28.083  1.00  0.00    -0.206 F 
ATOM     86  C   UNL A   1      50.765  25.950  30.624  1.00  0.00     0.006 A 
ENDBRANCH  62  79
ENDBRANCH  36  37
ENDBRANCH  28  31
ENDBRANCH  26  27
ENDBRANCH   1  26
TORSDOF 12
ENDMDL
MODEL 3
REMARK VINA RESULT:     -12.7      2.427      7.330
REMARK SMILES C[C@@]1(C(=O)NCCCCNC(=O)c2ccc(-c3c4nc(c(-c5c(F)cccc5F)c5ccc([nH]5)c(-c5c(F)cccc5F)c5nc(c(-c6c(F)cccc6F)c6ccc3[nH]6)C=C5)C=C4)cc2)[C@@H]2C=C[C@@]3(CN(c4ccccc4)C(=O)[C@H]13)O2
REMARK SMILES IDX 8 1 7 2 6 3 5 4 3 5 4 6 2 8 1 9 67 10 81 11 68 12 82 13
REMARK SMILES IDX 70 14 79 15 69 16 71 17 72 18 80 19 73 20 74 21 78 22 75 23
REMARK SMILES IDX 77 24 76 25 9 26 10 27 11 28 12 30 13 31 14 32 66 33 15 34
REMARK SMILES IDX 65 35 16 36 17 37 18 38 59 39 19 40 64 41 58 42 60 43 20 44
REMARK SMILES IDX 63 45 57 46 56 47 21 49 47 50 30 51 46 52 31 53 34 54 45 55
REMARK SMILES IDX 61 56 32 57 33 58 44 60 62 61 35 62 22 63 23 64 28 65 24 66
REMARK SMILES IDX 25 67 27 68 29 69 26 70 48 71 49 72 54 73 50 74 51 75 53 76
REMARK SMILES IDX 55 77 52 78 36 79 37 80 42 81 38 82 39 83 41 84 43 85 40 86
REMARK H PARENT 5 7 10 29 60 48 34 59
REMARK Flexibility Score: inf
ROOT
ATOM      1  C   UNL A   1      37.755  21.149  24.916  1.00  0.00     0.023 C 
ENDROOT
BRANCH   1   2
ATOM      2  C   UNL A   1      36.744  20.023  24.905  1.00  0.00     0.023 C 
BRANCH   2   3
ATOM      3  C   UNL A   1      35.273  20.402  24.979  1.00  0.00     0.116 C 
BRANCH   3   4
ATOM      4  N   UNL A   1      34.921  21.600  24.254  1.00  0.00    -0.356 N 
ATOM      5  C   UNL A   1      34.366  22.793  24.570  1.00  0.00     0.229 C 
ATOM      6  O   UNL A   1      34.437  23.609  23.635  1.00  0.00    -0.274 OA
ATOM      7  H   UNL A   1      35.136  21.532  23.295  1.00  0.00     0.163 HD
BRANCH   5   8
ATOM      8  C   UNL A   1      33.734  23.244  25.912  1.00  0.00     0.091 C 
ATOM      9  C   UNL A   1      34.902  23.253  26.947  1.00  0.00     0.026 C 
ATOM     10  C   UNL A   1      32.622  22.332  26.528  1.00  0.00     0.158 C 
ATOM     11  C   UNL A   1      33.020  24.590  26.025  1.00  0.00     0.135 C 
ATOM     12  C   UNL A   1      31.512  22.061  25.571  1.00  0.00     0.004 C 
ATOM     13  O   UNL A   1      31.888  23.316  27.409  1.00  0.00    -0.360 OA
ATOM     14  C   UNL A   1      31.566  24.211  26.337  1.00  0.00     0.118 C 
ATOM     15  C   UNL A   1      32.887  25.721  25.069  1.00  0.00     0.234 C 
ATOM     16  C   UNL A   1      30.855  23.221  25.455  1.00  0.00     0.009 C 
ATOM     17  C   UNL A   1      30.924  25.582  26.410  1.00  0.00     0.166 C 
ATOM     18  N   UNL A   1      31.608  26.284  25.310  1.00  0.00    -0.309 N 
ATOM     19  O   UNL A   1      33.803  26.136  24.382  1.00  0.00    -0.274 OA
BRANCH  18  20
ATOM     20  C   UNL A   1      31.032  27.360  24.581  1.00  0.00     0.044 A 
ATOM     21  C   UNL A   1      31.317  28.690  24.910  1.00  0.00     0.026 A 
ATOM     22  C   UNL A   1      30.120  27.131  23.539  1.00  0.00     0.026 A 
ATOM     23  C   UNL A   1      30.690  29.750  24.242  1.00  0.00     0.002 A 
ATOM     24  C   UNL A   1      29.469  28.186  22.890  1.00  0.00     0.002 A 
ATOM     25  C   UNL A   1      29.753  29.497  23.244  1.00  0.00     0.000 A 
ENDBRANCH  18  20
ENDBRANCH   5   8
ENDBRANCH   3   4
ENDBRANCH   2   3
ENDBRANCH   1   2
BRANCH   1  26
ATOM     26  C   UNL A   1      38.880  21.017  25.922  1.00  0.00     0.116 C 
BRANCH  26  27
ATOM     27  N   UNL A   1      39.763  19.873  25.723  1.00  0.00    -0.352 N 
ATOM     28  C   UNL A   1      41.107  19.766  26.017  1.00  0.00     0.251 C 
ATOM     29  H   UNL A   1      39.345  19.074  25.327  1.00  0.00     0.163 HD
ATOM     30  O   UNL A   1      41.727  18.739  25.783  1.00  0.00    -0.269 OA
BRANCH  28  31
ATOM     31  C   UNL A   1      41.800  20.953  26.561  1.00  0.00     0.039 A 
ATOM     32  C   UNL A   1      42.285  21.915  25.675  1.00  0.00     0.014 A 
ATOM     33  C   UNL A   1      41.810  21.181  27.938  1.00  0.00     0.014 A 
ATOM     34  C   UNL A   1      42.667  23.164  26.167  1.00  0.00     0.010 A 
ATOM     35  C   UNL A   1      42.070  22.460  28.407  1.00  0.00     0.010 A 
ATOM     36  C   UNL A   1      42.495  23.470  27.526  1.00  0.00    -0.014 A 
BRANCH  36  37
ATOM     37  C   UNL A   1      42.746  24.832  28.062  1.00  0.00     0.031 A 
ATOM     38  C   UNL A   1      44.135  25.213  28.500  1.00  0.00     0.074 A 
ATOM     39  C   UNL A   1      41.721  25.687  28.254  1.00  0.00     0.049 A 
ATOM     40  N   UNL A   1      44.542  26.289  29.122  1.00  0.00    -0.248 NA
ATOM     41  C   UNL A   1      45.199  24.225  28.252  1.00  0.00     0.031 C 
ATOM     42  C   UNL A   1      40.313  25.414  27.951  1.00  0.00     0.029 A 
ATOM     43  N   UNL A   1      41.706  26.962  28.764  1.00  0.00    -0.354 N 
ATOM     44  C   UNL A   1      45.891  26.084  29.381  1.00  0.00     0.074 A 
ATOM     45  C   UNL A   1      46.221  24.762  28.899  1.00  0.00     0.031 C 
ATOM     46  C   UNL A   1      39.580  26.501  28.247  1.00  0.00     0.029 A 
ATOM     47  C   UNL A   1      40.456  27.533  28.789  1.00  0.00     0.049 A 
ATOM     48  H   UNL A   1      42.516  27.423  29.080  1.00  0.00     0.167 HD
ATOM     49  C   UNL A   1      46.784  26.933  29.940  1.00  0.00     0.037 A 
ATOM     50  C   UNL A   1      40.065  28.753  29.204  1.00  0.00     0.037 A 
ATOM     51  C   UNL A   1      46.475  28.276  30.342  1.00  0.00     0.049 A 
ATOM     52  C   UNL A   1      41.091  29.709  29.742  1.00  0.00     0.074 A 
ATOM     53  C   UNL A   1      47.328  29.250  30.831  1.00  0.00     0.029 A 
ATOM     54  N   UNL A   1      45.211  28.843  30.281  1.00  0.00    -0.354 N 
ATOM     55  N   UNL A   1      42.377  29.526  29.920  1.00  0.00    -0.248 NA
ATOM     56  C   UNL A   1      40.614  31.045  30.130  1.00  0.00     0.031 C 
ATOM     57  C   UNL A   1      46.577  30.403  31.079  1.00  0.00     0.029 A 
ATOM     58  C   UNL A   1      45.261  30.153  30.721  1.00  0.00     0.049 A 
ATOM     59  H   UNL A   1      44.398  28.381  29.970  1.00  0.00     0.167 HD
ATOM     60  C   UNL A   1      42.867  30.725  30.417  1.00  0.00     0.074 A 
ATOM     61  C   UNL A   1      41.743  31.635  30.501  1.00  0.00     0.031 C 
ATOM     62  C   UNL A   1      44.133  31.045  30.778  1.00  0.00     0.037 A 
BRANCH  49  63
ATOM     63  C   UNL A   1      48.186  26.434  30.118  1.00  0.00     0.057 A 
ATOM     64  C   UNL A   1      49.156  26.590  29.120  1.00  0.00     0.134 A 
ATOM     65  C   UNL A   1      48.574  25.798  31.304  1.00  0.00     0.134 A 
ATOM     66  F   UNL A   1      48.841  27.173  27.953  1.00  0.00    -0.206 F 
ATOM     67  C   UNL A   1      50.454  26.104  29.281  1.00  0.00     0.040 A 
ATOM     68  C   UNL A   1      49.876  25.332  31.487  1.00  0.00     0.040 A 
ATOM     69  F   UNL A   1      47.694  25.618  32.300  1.00  0.00    -0.206 F 
ATOM     70  C   UNL A   1      50.819  25.479  30.471  1.00  0.00     0.006 A 
ENDBRANCH  49  63
BRANCH  50  71
ATOM     71  C   UNL A   1      38.643  29.161  29.087  1.00  0.00     0.057 A 
ATOM     72  C   UNL A   1      38.127  29.613  27.866  1.00  0.00     0.134 A 
ATOM     73  C   UNL A   1      37.773  29.126  30.182  1.00  0.00     0.134 A 
ATOM     74  F   UNL A   1      38.918  29.685  26.785  1.00  0.00    -0.206 F 
ATOM     75  C   UNL A   1      36.802  30.036  27.742  1.00  0.00     0.040 A 
ATOM     76  C   UNL A   1      36.441  29.528  30.068  1.00  0.00     0.040 A 
ATOM     77  F   UNL A   1      38.207  28.698  31.377  1.00  0.00    -0.206 F 
ATOM     78  C   UNL A   1      35.954  29.992  28.847  1.00  0.00     0.006 A 
ENDBRANCH  50  71
BRANCH  62  79
ATOM     79  C   UNL A   1      44.374  32.442  31.260  1.00  0.00     0.057 A 
ATOM     80  C   UNL A   1      44.298  32.774  32.617  1.00  0.00     0.134 A 
ATOM     81  C   UNL A   1      44.732  33.453  30.359  1.00  0.00     0.134 A 
ATOM     82  F   UNL A   1      43.948  31.849  33.525  1.00  0.00    -0.206 F 
ATOM     83  C   UNL A   1      44.556  34.070  33.062  1.00  0.00     0.040 A 
ATOM     84  C   UNL A   1      45.011  34.748  30.796  1.00  0.00     0.040 A 
ATOM     85  F   UNL A   1      44.828  33.194  29.047  1.00  0.00    -0.206 F 
ATOM     86  C   UNL A   1      44.920  35.060  32.150  1.00  0.00     0.006 A 
ENDBRANCH  62  79
ENDBRANCH  36  37
ENDBRANCH  28  31
ENDBRANCH  26  27
ENDBRANCH   1  26
TORSDOF 12
ENDMDL
