MODEL 1
REMARK VINA RESULT:     -12.9      0.000      0.000
REMARK SMILES O=C(NCCCCNC(=O)[C@H]1CC2(CCN(C(=O)C3CC3)CC2)CN1C(=O)CCn1cccn1)c1ccc(-c2c3nc(c(-c4c(F)cccc4F)c4ccc([nH]4)c(-c4c(F)cccc4F)c4nc(c(-c5c(F)cccc5F)c5ccc2[nH]5)C=C4)C=C3)cc1
REMARK SMILES IDX 6 1 5 2 4 3 3 4 1 5 2 6 35 8 36 9 88 10 37 11 87 12 38 13
REMARK SMILES IDX 39 14 40 15 81 16 41 17 86 18 80 19 82 20 42 21 85 22 79 23
REMARK SMILES IDX 78 24 43 26 69 27 52 28 68 29 53 30 56 31 67 32 83 33 54 34
REMARK SMILES IDX 55 35 66 37 84 38 57 39 44 40 45 41 50 42 46 43 47 44 49 45
REMARK SMILES IDX 51 46 48 47 70 48 71 49 76 50 72 51 73 52 75 53 77 54 74 55
REMARK SMILES IDX 58 56 59 57 64 58 60 59 61 60 63 61 65 62 62 63 7 64 8 65
REMARK SMILES IDX 9 66 10 68 11 69 12 70 25 71 13 72 24 73 14 74 23 75 15 76
REMARK SMILES IDX 22 77 16 78 17 79 18 80 26 81 27 82 28 83 29 84 30 85 31 86
REMARK SMILES IDX 34 87 32 88 33 89 19 90 20 91 21 92
REMARK H PARENT 3 7 82 25 56 36 8 67
REMARK Flexibility Score: inf
ROOT
ATOM      1  C   UNL A   1      34.962  22.974  26.398  1.00  0.00     0.023 C 
ENDROOT
BRANCH   1   2
ATOM      2  C   UNL A   1      35.946  22.067  25.690  1.00  0.00     0.023 C 
BRANCH   2   3
ATOM      3  C   UNL A   1      37.227  22.817  25.324  1.00  0.00     0.116 C 
BRANCH   3   4
ATOM      4  N   UNL A   1      38.419  22.064  25.663  1.00  0.00    -0.352 N 
ATOM      5  O   UNL A   1      40.353  21.457  26.541  1.00  0.00    -0.269 OA
ATOM      6  C   UNL A   1      39.486  22.330  26.466  1.00  0.00     0.251 C 
ATOM      7  H   UNL A   1      38.466  21.184  25.224  1.00  0.00     0.163 HD
BRANCH   6   8
ATOM      8  C   UNL A   1      39.705  23.632  27.143  1.00  0.00     0.039 A 
ATOM      9  C   UNL A   1      38.857  24.738  27.096  1.00  0.00     0.014 A 
ATOM     10  C   UNL A   1      40.915  23.752  27.838  1.00  0.00     0.014 A 
ATOM     11  C   UNL A   1      39.318  25.990  27.473  1.00  0.00     0.010 A 
ATOM     12  C   UNL A   1      41.327  24.975  28.333  1.00  0.00     0.010 A 
ATOM     13  C   UNL A   1      40.593  26.113  28.033  1.00  0.00    -0.014 A 
BRANCH  13  14
ATOM     14  C   UNL A   1      40.983  27.374  28.662  1.00  0.00     0.031 A 
ATOM     15  C   UNL A   1      42.234  27.866  27.997  1.00  0.00     0.074 A 
ATOM     16  C   UNL A   1      40.237  28.012  29.604  1.00  0.00     0.049 A 
ATOM     17  N   UNL A   1      43.409  27.932  28.527  1.00  0.00    -0.248 NA
ATOM     18  C   UNL A   1      42.270  28.004  26.522  1.00  0.00     0.031 C 
ATOM     19  C   UNL A   1      38.944  27.620  30.185  1.00  0.00     0.029 A 
ATOM     20  N   UNL A   1      40.460  29.222  30.228  1.00  0.00    -0.354 N 
ATOM     21  C   UNL A   1      44.252  28.430  27.533  1.00  0.00     0.074 A 
ATOM     22  C   UNL A   1      43.566  28.230  26.293  1.00  0.00     0.031 C 
ATOM     23  C   UNL A   1      38.379  28.671  30.833  1.00  0.00     0.029 A 
ATOM     24  C   UNL A   1      39.315  29.778  30.851  1.00  0.00     0.049 A 
ATOM     25  H   UNL A   1      41.341  29.662  30.238  1.00  0.00     0.167 HD
ATOM     26  C   UNL A   1      45.261  29.274  27.884  1.00  0.00     0.037 A 
ATOM     27  C   UNL A   1      39.193  31.046  31.357  1.00  0.00     0.037 A 
ATOM     28  C   UNL A   1      45.556  29.101  29.289  1.00  0.00     0.049 A 
ATOM     29  C   UNL A   1      40.576  31.546  31.579  1.00  0.00     0.074 A 
ATOM     30  C   UNL A   1      46.033  28.072  30.074  1.00  0.00     0.029 A 
ATOM     31  N   UNL A   1      44.894  29.958  30.128  1.00  0.00    -0.354 N 
ATOM     32  N   UNL A   1      41.379  31.006  32.455  1.00  0.00    -0.248 NA
ATOM     33  C   UNL A   1      41.204  32.181  30.429  1.00  0.00     0.031 C 
ATOM     34  C   UNL A   1      45.264  28.137  31.274  1.00  0.00     0.029 A 
ATOM     35  C   UNL A   1      44.466  29.280  31.234  1.00  0.00     0.049 A 
ATOM     36  H   UNL A   1      44.747  30.917  29.959  1.00  0.00     0.167 HD
ATOM     37  C   UNL A   1      42.546  30.785  31.741  1.00  0.00     0.074 A 
ATOM     38  C   UNL A   1      42.370  31.530  30.487  1.00  0.00     0.031 C 
ATOM     39  C   UNL A   1      43.392  29.763  32.069  1.00  0.00     0.037 A 
BRANCH  26  40
ATOM     40  C   UNL A   1      45.529  30.598  27.180  1.00  0.00     0.057 A 
ATOM     41  C   UNL A   1      46.870  30.952  26.929  1.00  0.00     0.134 A 
ATOM     42  C   UNL A   1      44.608  31.659  27.059  1.00  0.00     0.134 A 
ATOM     43  F   UNL A   1      47.848  30.036  26.994  1.00  0.00    -0.206 F 
ATOM     44  C   UNL A   1      47.273  32.275  26.707  1.00  0.00     0.040 A 
ATOM     45  C   UNL A   1      44.997  32.978  26.798  1.00  0.00     0.040 A 
ATOM     46  F   UNL A   1      43.296  31.514  27.268  1.00  0.00    -0.206 F 
ATOM     47  C   UNL A   1      46.336  33.298  26.659  1.00  0.00     0.006 A 
ENDBRANCH  26  40
BRANCH  27  48
ATOM     48  C   UNL A   1      38.049  32.011  31.273  1.00  0.00     0.057 A 
ATOM     49  C   UNL A   1      37.775  32.786  30.125  1.00  0.00     0.134 A 
ATOM     50  C   UNL A   1      37.006  31.945  32.209  1.00  0.00     0.134 A 
ATOM     51  F   UNL A   1      38.668  32.871  29.128  1.00  0.00    -0.206 F 
ATOM     52  C   UNL A   1      36.543  33.444  29.929  1.00  0.00     0.040 A 
ATOM     53  C   UNL A   1      35.773  32.589  32.024  1.00  0.00     0.040 A 
ATOM     54  F   UNL A   1      37.115  31.170  33.296  1.00  0.00    -0.206 F 
ATOM     55  C   UNL A   1      35.532  33.336  30.878  1.00  0.00     0.006 A 
ENDBRANCH  27  48
BRANCH  39  56
ATOM     56  C   UNL A   1      43.141  29.011  33.347  1.00  0.00     0.057 A 
ATOM     57  C   UNL A   1      42.299  27.896  33.485  1.00  0.00     0.134 A 
ATOM     58  C   UNL A   1      43.926  29.350  34.453  1.00  0.00     0.134 A 
ATOM     59  F   UNL A   1      41.586  27.433  32.449  1.00  0.00    -0.206 F 
ATOM     60  C   UNL A   1      42.216  27.179  34.686  1.00  0.00     0.040 A 
ATOM     61  C   UNL A   1      43.877  28.627  35.644  1.00  0.00     0.040 A 
ATOM     62  F   UNL A   1      44.801  30.362  34.369  1.00  0.00    -0.206 F 
ATOM     63  C   UNL A   1      43.011  27.545  35.770  1.00  0.00     0.006 A 
ENDBRANCH  39  56
ENDBRANCH  13  14
ENDBRANCH   6   8
ENDBRANCH   3   4
ENDBRANCH   2   3
ENDBRANCH   1   2
BRANCH   1  64
ATOM     64  C   UNL A   1      34.386  22.305  27.642  1.00  0.00     0.116 C 
BRANCH  64  65
ATOM     65  N   UNL A   1      32.745  22.038  27.481  1.00  0.00    -0.354 N 
ATOM     66  C   UNL A   1      31.145  23.064  26.731  1.00  0.00     0.242 C 
ATOM     67  H   UNL A   1      32.481  21.161  27.839  1.00  0.00     0.163 HD
ATOM     68  O   UNL A   1      29.884  22.850  26.795  1.00  0.00    -0.273 OA
BRANCH  66  69
ATOM     69  C   UNL A   1      31.286  24.547  25.617  1.00  0.00     0.175 C 
ATOM     70  C   UNL A   1      31.636  25.958  26.179  1.00  0.00     0.044 C 
ATOM     71  N   UNL A   1      32.125  24.494  24.401  1.00  0.00    -0.330 N 
ATOM     72  C   UNL A   1      32.379  26.785  25.135  1.00  0.00    -0.006 C 
ATOM     73  C   UNL A   1      32.367  25.865  23.900  1.00  0.00     0.127 C 
ATOM     74  C   UNL A   1      33.865  27.090  25.501  1.00  0.00     0.030 C 
ATOM     75  C   UNL A   1      31.645  28.137  25.127  1.00  0.00     0.030 C 
ATOM     76  C   UNL A   1      34.062  27.881  26.797  1.00  0.00     0.120 C 
ATOM     77  C   UNL A   1      31.816  28.847  26.502  1.00  0.00     0.120 C 
ATOM     78  N   UNL A   1      33.227  29.071  26.836  1.00  0.00    -0.342 N 
ATOM     79  C   UNL A   1      33.579  30.345  27.288  1.00  0.00     0.225 C 
ATOM     80  O   UNL A   1      32.738  31.244  27.326  1.00  0.00    -0.275 OA
BRANCH  71  81
ATOM     81  C   UNL A   1      32.551  23.385  23.702  1.00  0.00     0.225 C 
ATOM     82  O   UNL A   1      33.628  23.395  23.098  1.00  0.00    -0.275 OA
BRANCH  81  83
ATOM     83  C   UNL A   1      31.721  22.107  23.670  1.00  0.00     0.124 C 
BRANCH  83  84
ATOM     84  C   UNL A   1      32.210  20.998  22.734  1.00  0.00     0.154 C 
BRANCH  84  85
ATOM     85  N   UNL A   1      32.468  19.699  23.348  1.00  0.00    -0.272 N 
ATOM     86  C   UNL A   1      32.384  18.125  22.333  1.00  0.00     0.108 A 
ATOM     87  N   UNL A   1      33.776  19.508  24.683  1.00  0.00    -0.182 NA
ATOM     88  C   UNL A   1      33.731  17.002  22.980  1.00  0.00     0.042 A 
ATOM     89  C   UNL A   1      34.573  17.964  24.464  1.00  0.00     0.135 A 
ENDBRANCH  84  85
ENDBRANCH  83  84
ENDBRANCH  81  83
ENDBRANCH  71  81
BRANCH  79  90
ATOM     90  C   UNL A   1      34.950  30.755  27.722  1.00  0.00     0.079 C 
ATOM     91  C   UNL A   1      35.918  30.186  28.718  1.00  0.00     0.014 C 
ATOM     92  C   UNL A   1      36.156  29.979  27.247  1.00  0.00     0.014 C 
ENDBRANCH  79  90
ENDBRANCH  66  69
ENDBRANCH  64  65
ENDBRANCH   1  64
TORSDOF 16
ENDMDL
MODEL 2
REMARK VINA RESULT:     -12.8      2.549      8.413
REMARK SMILES O=C(NCCCCNC(=O)[C@H]1CC2(CCN(C(=O)C3CC3)CC2)CN1C(=O)CCn1cccn1)c1ccc(-c2c3nc(c(-c4c(F)cccc4F)c4ccc([nH]4)c(-c4c(F)cccc4F)c4nc(c(-c5c(F)cccc5F)c5ccc2[nH]5)C=C4)C=C3)cc1
REMARK SMILES IDX 6 1 5 2 4 3 3 4 1 5 2 6 35 8 36 9 88 10 37 11 87 12 38 13
REMARK SMILES IDX 39 14 40 15 81 16 41 17 86 18 80 19 82 20 42 21 85 22 79 23
REMARK SMILES IDX 78 24 43 26 69 27 52 28 68 29 53 30 56 31 67 32 83 33 54 34
REMARK SMILES IDX 55 35 66 37 84 38 57 39 44 40 45 41 50 42 46 43 47 44 49 45
REMARK SMILES IDX 51 46 48 47 70 48 71 49 76 50 72 51 73 52 75 53 77 54 74 55
REMARK SMILES IDX 58 56 59 57 64 58 60 59 61 60 63 61 65 62 62 63 7 64 8 65
REMARK SMILES IDX 9 66 10 68 11 69 12 70 25 71 13 72 24 73 14 74 23 75 15 76
REMARK SMILES IDX 22 77 16 78 17 79 18 80 26 81 27 82 28 83 29 84 30 85 31 86
REMARK SMILES IDX 34 87 32 88 33 89 19 90 20 91 21 92
REMARK H PARENT 3 7 82 25 56 36 8 67
REMARK Flexibility Score: inf
ROOT
ATOM      1  C   UNL A   1      34.047  30.324  27.530  1.00  0.00     0.023 C 
ENDROOT
BRANCH   1   2
ATOM      2  C   UNL A   1      33.661  31.785  27.629  1.00  0.00     0.023 C 
BRANCH   2   3
ATOM      3  C   UNL A   1      34.739  32.597  28.347  1.00  0.00     0.116 C 
BRANCH   3   4
ATOM      4  N   UNL A   1      34.616  32.518  29.790  1.00  0.00    -0.352 N 
ATOM      5  O   UNL A   1      34.994  32.064  31.918  1.00  0.00    -0.269 OA
ATOM      6  C   UNL A   1      35.388  31.948  30.756  1.00  0.00     0.251 C 
ATOM      7  H   UNL A   1      33.812  32.965  30.141  1.00  0.00     0.163 HD
BRANCH   6   8
ATOM      8  C   UNL A   1      36.586  31.120  30.472  1.00  0.00     0.039 A 
ATOM      9  C   UNL A   1      36.619  29.730  30.362  1.00  0.00     0.014 A 
ATOM     10  C   UNL A   1      37.792  31.823  30.371  1.00  0.00     0.014 A 
ATOM     11  C   UNL A   1      37.826  29.051  30.439  1.00  0.00     0.010 A 
ATOM     12  C   UNL A   1      38.999  31.152  30.316  1.00  0.00     0.010 A 
ATOM     13  C   UNL A   1      39.021  29.775  30.485  1.00  0.00    -0.014 A 
BRANCH  13  14
ATOM     14  C   UNL A   1      40.292  29.075  30.309  1.00  0.00     0.031 A 
ATOM     15  C   UNL A   1      40.958  28.962  31.648  1.00  0.00     0.074 A 
ATOM     16  C   UNL A   1      40.700  28.533  29.130  1.00  0.00     0.049 A 
ATOM     17  N   UNL A   1      42.033  29.569  32.025  1.00  0.00    -0.248 NA
ATOM     18  C   UNL A   1      40.212  28.374  32.786  1.00  0.00     0.031 C 
ATOM     19  C   UNL A   1      40.013  28.517  27.829  1.00  0.00     0.029 A 
ATOM     20  N   UNL A   1      41.837  27.806  28.846  1.00  0.00    -0.354 N 
ATOM     21  C   UNL A   1      42.257  29.172  33.343  1.00  0.00     0.074 A 
ATOM     22  C   UNL A   1      41.013  28.648  33.818  1.00  0.00     0.031 C 
ATOM     23  C   UNL A   1      40.585  27.604  27.004  1.00  0.00     0.029 A 
ATOM     24  C   UNL A   1      41.769  27.063  27.641  1.00  0.00     0.049 A 
ATOM     25  H   UNL A   1      42.629  27.803  29.432  1.00  0.00     0.167 HD
ATOM     26  C   UNL A   1      43.538  28.992  33.769  1.00  0.00     0.037 A 
ATOM     27  C   UNL A   1      42.654  26.103  27.220  1.00  0.00     0.037 A 
ATOM     28  C   UNL A   1      44.433  29.724  32.901  1.00  0.00     0.049 A 
ATOM     29  C   UNL A   1      43.912  26.328  27.979  1.00  0.00     0.074 A 
ATOM     30  C   UNL A   1      44.635  31.052  32.592  1.00  0.00     0.029 A 
ATOM     31  N   UNL A   1      44.951  28.997  31.861  1.00  0.00    -0.354 N 
ATOM     32  N   UNL A   1      44.630  27.408  27.831  1.00  0.00    -0.248 NA
ATOM     33  C   UNL A   1      43.986  25.674  29.278  1.00  0.00     0.031 C 
ATOM     34  C   UNL A   1      44.873  31.071  31.184  1.00  0.00     0.029 A 
ATOM     35  C   UNL A   1      44.955  29.757  30.726  1.00  0.00     0.049 A 
ATOM     36  H   UNL A   1      45.270  28.068  31.922  1.00  0.00     0.167 HD
ATOM     37  C   UNL A   1      44.838  27.848  29.129  1.00  0.00     0.074 A 
ATOM     38  C   UNL A   1      44.406  26.731  29.981  1.00  0.00     0.031 C 
ATOM     39  C   UNL A   1      45.014  29.174  29.407  1.00  0.00     0.037 A 
BRANCH  26  40
ATOM     40  C   UNL A   1      44.005  27.751  34.517  1.00  0.00     0.057 A 
ATOM     41  C   UNL A   1      44.822  27.932  35.652  1.00  0.00     0.134 A 
ATOM     42  C   UNL A   1      43.993  26.436  34.005  1.00  0.00     0.134 A 
ATOM     43  F   UNL A   1      44.914  29.129  36.251  1.00  0.00    -0.206 F 
ATOM     44  C   UNL A   1      45.656  26.923  36.152  1.00  0.00     0.040 A 
ATOM     45  C   UNL A   1      44.794  25.412  34.523  1.00  0.00     0.040 A 
ATOM     46  F   UNL A   1      43.285  26.078  32.931  1.00  0.00    -0.206 F 
ATOM     47  C   UNL A   1      45.657  25.662  35.575  1.00  0.00     0.006 A 
ENDBRANCH  26  40
BRANCH  27  48
ATOM     48  C   UNL A   1      42.399  24.781  26.562  1.00  0.00     0.057 A 
ATOM     49  C   UNL A   1      43.120  24.325  25.437  1.00  0.00     0.134 A 
ATOM     50  C   UNL A   1      41.657  23.796  27.232  1.00  0.00     0.134 A 
ATOM     51  F   UNL A   1      43.918  25.158  24.753  1.00  0.00    -0.206 F 
ATOM     52  C   UNL A   1      43.102  22.978  25.018  1.00  0.00     0.040 A 
ATOM     53  C   UNL A   1      41.636  22.452  26.830  1.00  0.00     0.040 A 
ATOM     54  F   UNL A   1      41.001  24.089  28.363  1.00  0.00    -0.206 F 
ATOM     55  C   UNL A   1      42.366  22.034  25.724  1.00  0.00     0.006 A 
ENDBRANCH  27  48
BRANCH  39  56
ATOM     56  C   UNL A   1      45.188  30.127  28.256  1.00  0.00     0.057 A 
ATOM     57  C   UNL A   1      44.158  30.847  27.632  1.00  0.00     0.134 A 
ATOM     58  C   UNL A   1      46.496  30.440  27.878  1.00  0.00     0.134 A 
ATOM     59  F   UNL A   1      42.879  30.690  28.000  1.00  0.00    -0.206 F 
ATOM     60  C   UNL A   1      44.422  31.807  26.645  1.00  0.00     0.040 A 
ATOM     61  C   UNL A   1      46.776  31.415  26.921  1.00  0.00     0.040 A 
ATOM     62  F   UNL A   1      47.532  29.839  28.482  1.00  0.00    -0.206 F 
ATOM     63  C   UNL A   1      45.738  32.093  26.290  1.00  0.00     0.006 A 
ENDBRANCH  39  56
ENDBRANCH  13  14
ENDBRANCH   6   8
ENDBRANCH   3   4
ENDBRANCH   2   3
ENDBRANCH   1   2
BRANCH   1  64
ATOM     64  C   UNL A   1      33.245  29.610  26.448  1.00  0.00     0.116 C 
BRANCH  64  65
ATOM     65  N   UNL A   1      32.386  28.325  27.080  1.00  0.00    -0.354 N 
ATOM     66  C   UNL A   1      31.817  26.468  26.444  1.00  0.00     0.242 C 
ATOM     67  H   UNL A   1      32.073  28.509  27.995  1.00  0.00     0.163 HD
ATOM     68  O   UNL A   1      31.014  25.602  26.939  1.00  0.00    -0.273 OA
BRANCH  66  69
ATOM     69  C   UNL A   1      32.545  25.603  24.967  1.00  0.00     0.175 C 
ATOM     70  C   UNL A   1      33.061  24.136  25.055  1.00  0.00     0.044 C 
ATOM     71  N   UNL A   1      31.826  25.590  23.676  1.00  0.00    -0.330 N 
ATOM     72  C   UNL A   1      32.921  23.434  23.708  1.00  0.00    -0.006 C 
ATOM     73  C   UNL A   1      32.407  24.558  22.790  1.00  0.00     0.127 C 
ATOM     74  C   UNL A   1      31.873  22.278  23.697  1.00  0.00     0.030 C 
ATOM     75  C   UNL A   1      34.295  22.780  23.475  1.00  0.00     0.030 C 
ATOM     76  C   UNL A   1      32.161  21.134  24.673  1.00  0.00     0.120 C 
ATOM     77  C   UNL A   1      34.557  21.688  24.552  1.00  0.00     0.120 C 
ATOM     78  N   UNL A   1      33.526  20.646  24.546  1.00  0.00    -0.342 N 
ATOM     79  C   UNL A   1      33.961  19.319  24.566  1.00  0.00     0.225 C 
ATOM     80  O   UNL A   1      35.165  19.060  24.517  1.00  0.00    -0.275 OA
BRANCH  71  81
ATOM     81  C   UNL A   1      30.844  26.451  23.234  1.00  0.00     0.225 C 
ATOM     82  O   UNL A   1      29.660  26.260  23.526  1.00  0.00    -0.275 OA
BRANCH  81  83
ATOM     83  C   UNL A   1      31.188  27.674  22.392  1.00  0.00     0.124 C 
BRANCH  83  84
ATOM     84  C   UNL A   1      31.063  29.035  23.082  1.00  0.00     0.154 C 
BRANCH  84  85
ATOM     85  N   UNL A   1      29.787  29.728  22.921  1.00  0.00    -0.272 N 
ATOM     86  C   UNL A   1      29.351  31.199  23.998  1.00  0.00     0.108 A 
ATOM     87  N   UNL A   1      29.024  29.956  21.219  1.00  0.00    -0.182 NA
ATOM     88  C   UNL A   1      28.410  32.393  22.911  1.00  0.00     0.042 A 
ATOM     89  C   UNL A   1      28.257  31.530  21.160  1.00  0.00     0.135 A 
ENDBRANCH  84  85
ENDBRANCH  83  84
ENDBRANCH  81  83
ENDBRANCH  71  81
BRANCH  79  90
ATOM     90  C   UNL A   1      33.067  18.121  24.612  1.00  0.00     0.079 C 
ATOM     91  C   UNL A   1      33.323  16.667  24.884  1.00  0.00     0.014 C 
ATOM     92  C   UNL A   1      32.678  17.521  25.943  1.00  0.00     0.014 C 
ENDBRANCH  79  90
ENDBRANCH  66  69
ENDBRANCH  64  65
ENDBRANCH   1  64
TORSDOF 16
ENDMDL
MODEL 3
REMARK VINA RESULT:     -12.7      2.721      7.634
REMARK SMILES O=C(NCCCCNC(=O)[C@H]1CC2(CCN(C(=O)C3CC3)CC2)CN1C(=O)CCn1cccn1)c1ccc(-c2c3nc(c(-c4c(F)cccc4F)c4ccc([nH]4)c(-c4c(F)cccc4F)c4nc(c(-c5c(F)cccc5F)c5ccc2[nH]5)C=C4)C=C3)cc1
REMARK SMILES IDX 6 1 5 2 4 3 3 4 1 5 2 6 35 8 36 9 88 10 37 11 87 12 38 13
REMARK SMILES IDX 39 14 40 15 81 16 41 17 86 18 80 19 82 20 42 21 85 22 79 23
REMARK SMILES IDX 78 24 43 26 69 27 52 28 68 29 53 30 56 31 67 32 83 33 54 34
REMARK SMILES IDX 55 35 66 37 84 38 57 39 44 40 45 41 50 42 46 43 47 44 49 45
REMARK SMILES IDX 51 46 48 47 70 48 71 49 76 50 72 51 73 52 75 53 77 54 74 55
REMARK SMILES IDX 58 56 59 57 64 58 60 59 61 60 63 61 65 62 62 63 7 64 8 65
REMARK SMILES IDX 9 66 10 68 11 69 12 70 25 71 13 72 24 73 14 74 23 75 15 76
REMARK SMILES IDX 22 77 16 78 17 79 18 80 26 81 27 82 28 83 29 84 30 85 31 86
REMARK SMILES IDX 34 87 32 88 33 89 19 90 20 91 21 92
REMARK H PARENT 3 7 82 25 56 36 8 67
REMARK Flexibility Score: inf
ROOT
ATOM      1  C   UNL A   1      32.007  30.351  26.172  1.00  0.00     0.023 C 
ENDROOT
BRANCH   1   2
ATOM      2  C   UNL A   1      32.271  31.447  27.182  1.00  0.00     0.023 C 
BRANCH   2   3
ATOM      3  C   UNL A   1      32.075  32.831  26.563  1.00  0.00     0.116 C 
BRANCH   3   4
ATOM      4  N   UNL A   1      32.054  33.881  27.564  1.00  0.00    -0.352 N 
ATOM      5  O   UNL A   1      32.621  35.232  29.216  1.00  0.00    -0.269 OA
ATOM      6  C   UNL A   1      32.953  34.282  28.505  1.00  0.00     0.251 C 
ATOM      7  H   UNL A   1      31.223  34.410  27.562  1.00  0.00     0.163 HD
BRANCH   6   8
ATOM      8  C   UNL A   1      34.227  33.574  28.783  1.00  0.00     0.039 A 
ATOM      9  C   UNL A   1      34.476  32.716  29.854  1.00  0.00     0.014 A 
ATOM     10  C   UNL A   1      35.278  33.862  27.905  1.00  0.00     0.014 A 
ATOM     11  C   UNL A   1      35.779  32.390  30.201  1.00  0.00     0.010 A 
ATOM     12  C   UNL A   1      36.563  33.432  28.175  1.00  0.00     0.010 A 
ATOM     13  C   UNL A   1      36.833  32.814  29.387  1.00  0.00    -0.014 A 
BRANCH  13  14
ATOM     14  C   UNL A   1      38.171  32.265  29.602  1.00  0.00     0.031 A 
ATOM     15  C   UNL A   1      38.166  30.828  29.172  1.00  0.00     0.074 A 
ATOM     16  C   UNL A   1      39.236  33.005  30.012  1.00  0.00     0.049 A 
ATOM     17  N   UNL A   1      38.273  29.796  29.940  1.00  0.00    -0.248 NA
ATOM     18  C   UNL A   1      37.687  30.475  27.814  1.00  0.00     0.031 C 
ATOM     19  C   UNL A   1      39.303  34.442  30.321  1.00  0.00     0.029 A 
ATOM     20  N   UNL A   1      40.549  32.626  30.197  1.00  0.00    -0.354 N 
ATOM     21  C   UNL A   1      38.197  28.683  29.102  1.00  0.00     0.074 A 
ATOM     22  C   UNL A   1      37.612  29.144  27.880  1.00  0.00     0.031 C 
ATOM     23  C   UNL A   1      40.596  34.855  30.370  1.00  0.00     0.029 A 
ATOM     24  C   UNL A   1      41.468  33.704  30.244  1.00  0.00     0.049 A 
ATOM     25  H   UNL A   1      40.825  31.684  30.287  1.00  0.00     0.167 HD
ATOM     26  C   UNL A   1      38.958  27.590  29.387  1.00  0.00     0.037 A 
ATOM     27  C   UNL A   1      42.836  33.616  30.208  1.00  0.00     0.037 A 
ATOM     28  C   UNL A   1      39.329  27.622  30.784  1.00  0.00     0.049 A 
ATOM     29  C   UNL A   1      43.179  32.224  30.602  1.00  0.00     0.074 A 
ATOM     30  C   UNL A   1      38.651  27.565  31.983  1.00  0.00     0.029 A 
ATOM     31  N   UNL A   1      40.538  28.211  31.047  1.00  0.00    -0.354 N 
ATOM     32  N   UNL A   1      42.932  31.758  31.796  1.00  0.00    -0.248 NA
ATOM     33  C   UNL A   1      43.195  31.252  29.518  1.00  0.00     0.031 C 
ATOM     34  C   UNL A   1      39.307  28.514  32.824  1.00  0.00     0.029 A 
ATOM     35  C   UNL A   1      40.436  28.994  32.162  1.00  0.00     0.049 A 
ATOM     36  H   UNL A   1      41.356  28.090  30.512  1.00  0.00     0.167 HD
ATOM     37  C   UNL A   1      42.276  30.561  31.554  1.00  0.00     0.074 A 
ATOM     38  C   UNL A   1      42.464  30.308  30.119  1.00  0.00     0.031 C 
ATOM     39  C   UNL A   1      41.365  30.062  32.442  1.00  0.00     0.037 A 
BRANCH  26  40
ATOM     40  C   UNL A   1      39.828  26.884  28.357  1.00  0.00     0.057 A 
ATOM     41  C   UNL A   1      40.697  27.673  27.574  1.00  0.00     0.134 A 
ATOM     42  C   UNL A   1      39.615  25.579  27.864  1.00  0.00     0.134 A 
ATOM     43  F   UNL A   1      41.000  28.928  27.935  1.00  0.00    -0.206 F 
ATOM     44  C   UNL A   1      41.203  27.242  26.341  1.00  0.00     0.040 A 
ATOM     45  C   UNL A   1      40.149  25.127  26.652  1.00  0.00     0.040 A 
ATOM     46  F   UNL A   1      38.818  24.693  28.467  1.00  0.00    -0.206 F 
ATOM     47  C   UNL A   1      40.915  25.971  25.866  1.00  0.00     0.006 A 
ENDBRANCH  26  40
BRANCH  27  48
ATOM     48  C   UNL A   1      43.836  34.459  29.476  1.00  0.00     0.057 A 
ATOM     49  C   UNL A   1      43.997  34.424  28.074  1.00  0.00     0.134 A 
ATOM     50  C   UNL A   1      44.429  35.558  30.116  1.00  0.00     0.134 A 
ATOM     51  F   UNL A   1      43.421  33.459  27.342  1.00  0.00    -0.206 F 
ATOM     52  C   UNL A   1      44.698  35.422  27.365  1.00  0.00     0.040 A 
ATOM     53  C   UNL A   1      45.122  36.561  29.423  1.00  0.00     0.040 A 
ATOM     54  F   UNL A   1      44.269  35.746  31.433  1.00  0.00    -0.206 F 
ATOM     55  C   UNL A   1      45.254  36.503  28.041  1.00  0.00     0.006 A 
ENDBRANCH  27  48
BRANCH  39  56
ATOM     56  C   UNL A   1      41.241  30.727  33.786  1.00  0.00     0.057 A 
ATOM     57  C   UNL A   1      40.339  31.755  34.106  1.00  0.00     0.134 A 
ATOM     58  C   UNL A   1      41.970  30.176  34.843  1.00  0.00     0.134 A 
ATOM     59  F   UNL A   1      39.523  32.276  33.180  1.00  0.00    -0.206 F 
ATOM     60  C   UNL A   1      40.204  32.236  35.416  1.00  0.00     0.040 A 
ATOM     61  C   UNL A   1      41.824  30.622  36.155  1.00  0.00     0.040 A 
ATOM     62  F   UNL A   1      42.800  29.146  34.620  1.00  0.00    -0.206 F 
ATOM     63  C   UNL A   1      40.949  31.665  36.445  1.00  0.00     0.006 A 
ENDBRANCH  39  56
ENDBRANCH  13  14
ENDBRANCH   6   8
ENDBRANCH   3   4
ENDBRANCH   2   3
ENDBRANCH   1   2
BRANCH   1  64
ATOM     64  C   UNL A   1      33.275  29.558  25.869  1.00  0.00     0.116 C 
BRANCH  64  65
ATOM     65  N   UNL A   1      33.366  29.158  24.250  1.00  0.00    -0.354 N 
ATOM     66  C   UNL A   1      33.585  27.444  23.160  1.00  0.00     0.242 C 
ATOM     67  H   UNL A   1      33.297  29.951  23.673  1.00  0.00     0.163 HD
ATOM     68  O   UNL A   1      33.809  27.244  21.914  1.00  0.00    -0.273 OA
BRANCH  66  69
ATOM     69  C   UNL A   1      33.340  25.733  23.846  1.00  0.00     0.175 C 
ATOM     70  C   UNL A   1      34.518  24.718  23.943  1.00  0.00     0.044 C 
ATOM     71  N   UNL A   1      32.669  25.536  25.148  1.00  0.00    -0.330 N 
ATOM     72  C   UNL A   1      34.308  23.758  25.110  1.00  0.00    -0.006 C 
ATOM     73  C   UNL A   1      32.919  24.163  25.638  1.00  0.00     0.127 C 
ATOM     74  C   UNL A   1      35.339  23.928  26.270  1.00  0.00     0.030 C 
ATOM     75  C   UNL A   1      34.556  22.365  24.507  1.00  0.00     0.030 C 
ATOM     76  C   UNL A   1      36.801  23.702  25.874  1.00  0.00     0.120 C 
ATOM     77  C   UNL A   1      36.037  22.235  24.050  1.00  0.00     0.120 C 
ATOM     78  N   UNL A   1      36.978  22.450  25.154  1.00  0.00    -0.342 N 
ATOM     79  C   UNL A   1      38.012  21.523  25.300  1.00  0.00     0.225 C 
ATOM     80  O   UNL A   1      38.067  20.535  24.566  1.00  0.00    -0.275 OA
BRANCH  71  81
ATOM     81  C   UNL A   1      31.818  26.395  25.812  1.00  0.00     0.225 C 
ATOM     82  O   UNL A   1      32.145  26.896  26.891  1.00  0.00    -0.275 OA
BRANCH  81  83
ATOM     83  C   UNL A   1      30.462  26.770  25.226  1.00  0.00     0.124 C 
BRANCH  83  84
ATOM     84  C   UNL A   1      30.300  26.598  23.714  1.00  0.00     0.154 C 
BRANCH  84  85
ATOM     85  N   UNL A   1      29.621  27.681  23.007  1.00  0.00    -0.272 N 
ATOM     86  C   UNL A   1      27.797  28.012  23.283  1.00  0.00     0.108 A 
ATOM     87  N   UNL A   1      30.501  29.305  22.662  1.00  0.00    -0.182 NA
ATOM     88  C   UNL A   1      27.578  29.867  23.220  1.00  0.00     0.042 A 
ATOM     89  C   UNL A   1      29.347  30.611  22.833  1.00  0.00     0.135 A 
ENDBRANCH  84  85
ENDBRANCH  83  84
ENDBRANCH  81  83
ENDBRANCH  71  81
BRANCH  79  90
ATOM     90  C   UNL A   1      39.094  21.596  26.330  1.00  0.00     0.079 C 
ATOM     91  C   UNL A   1      40.266  20.713  26.642  1.00  0.00     0.014 C 
ATOM     92  C   UNL A   1      40.487  22.020  25.931  1.00  0.00     0.014 C 
ENDBRANCH  79  90
ENDBRANCH  66  69
ENDBRANCH  64  65
ENDBRANCH   1  64
TORSDOF 16
ENDMDL
