MODEL 1
REMARK VINA RESULT:     -13.6      0.000      0.000
REMARK SMILES CCN(C(=O)N[C@@H]1CCOC1)[C@H]1COC[C@H]1C(=O)NCCCCNC(=O)c1ccc(-c2c3nc(c(-c4c(F)cccc4F)c4ccc([nH]4)c(-c4c(F)cccc4F)c4nc(c(-c5c(F)cccc5F)c5ccc2[nH]5)C=C4)C=C3)cc1
REMARK SMILES IDX 21 1 20 2 19 3 17 4 18 5 16 7 12 8 13 9 14 10 15 11 3 12
REMARK SMILES IDX 2 13 1 14 4 15 5 16 6 17 7 19 8 20 11 21 9 22 10 23 22 24
REMARK SMILES IDX 23 25 24 26 25 27 26 29 27 30 28 31 80 32 29 33 79 34 30 35
REMARK SMILES IDX 31 36 32 37 73 38 33 39 78 40 72 41 74 42 34 43 77 44 71 45
REMARK SMILES IDX 70 46 35 48 61 49 44 50 60 51 45 52 48 53 59 54 75 55 46 56
REMARK SMILES IDX 47 57 58 59 76 60 49 61 36 62 37 63 42 64 38 65 39 66 41 67
REMARK SMILES IDX 43 68 40 69 62 70 63 71 68 72 64 73 65 74 67 75 69 76 66 77
REMARK SMILES IDX 50 78 51 79 56 80 52 81 53 82 55 83 57 84 54 85
REMARK H PARENT 19 6 6 18 24 28 74 47 48 58
REMARK Flexibility Score: inf
ROOT
ATOM      1  C   UNL A   1      32.222  29.378  27.111  1.00  0.00     0.023 C 
ENDROOT
BRANCH   1   2
ATOM      2  C   UNL A   1      33.672  28.431  26.259  1.00  0.00     0.116 C 
BRANCH   2   3
ATOM      3  N   UNL A   1      34.049  28.713  24.829  1.00  0.00    -0.356 N 
ATOM      4  C   UNL A   1      33.917  28.123  23.572  1.00  0.00     0.227 C 
ATOM      5  O   UNL A   1      34.110  28.941  22.654  1.00  0.00    -0.275 OA
ATOM      6  H   UNL A   1      34.533  29.568  24.760  1.00  0.00     0.163 HD
BRANCH   4   7
ATOM      7  C   UNL A   1      33.512  26.572  23.089  1.00  0.00     0.129 C 
ATOM      8  C   UNL A   1      33.095  25.160  23.927  1.00  0.00     0.127 C 
ATOM      9  C   UNL A   1      32.373  24.436  22.808  1.00  0.00     0.186 C 
ATOM     10  O   UNL A   1      31.708  25.419  21.995  1.00  0.00    -0.378 OA
ATOM     11  C   UNL A   1      32.394  26.676  22.063  1.00  0.00     0.176 C 
BRANCH   8  12
ATOM     12  N   UNL A   1      32.255  25.383  25.167  1.00  0.00    -0.319 N 
BRANCH  12  13
ATOM     13  C   UNL A   1      32.942  24.740  26.111  1.00  0.00     0.118 C 
ATOM     14  C   UNL A   1      34.459  24.868  25.765  1.00  0.00     0.027 C 
ENDBRANCH  12  13
BRANCH  12  15
ATOM     15  C   UNL A   1      30.935  25.452  25.605  1.00  0.00     0.318 C 
ATOM     16  O   UNL A   1      30.519  24.799  26.559  1.00  0.00    -0.249 OA
ATOM     17  N   UNL A   1      30.060  26.437  25.005  1.00  0.00    -0.333 N 
ATOM     18  H   UNL A   1      29.185  26.341  25.444  1.00  0.00     0.165 HD
BRANCH  17  19
ATOM     19  C   UNL A   1      29.905  27.679  23.874  1.00  0.00     0.112 C 
ATOM     20  C   UNL A   1      30.624  29.547  23.949  1.00  0.00     0.056 C 
ATOM     21  C   UNL A   1      28.066  27.896  23.238  1.00  0.00     0.185 C 
ATOM     22  C   UNL A   1      29.060  30.865  23.505  1.00  0.00     0.162 C 
ATOM     23  O   UNL A   1      27.601  29.702  23.066  1.00  0.00    -0.379 OA
ENDBRANCH  17  19
ENDBRANCH  12  15
ENDBRANCH   8  12
ENDBRANCH   4   7
ENDBRANCH   2   3
ENDBRANCH   1   2
BRANCH   1  24
ATOM     24  C   UNL A   1      31.810  31.514  26.911  1.00  0.00     0.023 C 
BRANCH  24  25
ATOM     25  C   UNL A   1      32.938  32.827  27.367  1.00  0.00     0.116 C 
BRANCH  25  26
ATOM     26  N   UNL A   1      32.408  34.114  27.744  1.00  0.00    -0.352 N 
ATOM     27  C   UNL A   1      33.003  34.983  28.621  1.00  0.00     0.251 C 
ATOM     28  H   UNL A   1      31.553  34.390  27.340  1.00  0.00     0.163 HD
ATOM     29  O   UNL A   1      32.525  36.080  28.866  1.00  0.00    -0.269 OA
BRANCH  27  30
ATOM     30  C   UNL A   1      34.221  34.507  29.293  1.00  0.00     0.039 A 
ATOM     31  C   UNL A   1      34.052  33.658  30.379  1.00  0.00     0.014 A 
ATOM     32  C   UNL A   1      35.475  34.696  28.691  1.00  0.00     0.014 A 
ATOM     33  C   UNL A   1      35.158  32.991  30.882  1.00  0.00     0.010 A 
ATOM     34  C   UNL A   1      36.536  33.903  29.097  1.00  0.00     0.010 A 
ATOM     35  C   UNL A   1      36.400  33.089  30.231  1.00  0.00    -0.014 A 
BRANCH  35  36
ATOM     36  C   UNL A   1      37.590  32.406  30.782  1.00  0.00     0.031 A 
ATOM     37  C   UNL A   1      38.169  32.897  32.079  1.00  0.00     0.074 A 
ATOM     38  C   UNL A   1      38.129  31.363  30.124  1.00  0.00     0.049 A 
ATOM     39  N   UNL A   1      39.211  32.460  32.736  1.00  0.00    -0.248 NA
ATOM     40  C   UNL A   1      37.515  34.059  32.708  1.00  0.00     0.031 C 
ATOM     41  C   UNL A   1      37.664  30.840  28.835  1.00  0.00     0.029 A 
ATOM     42  N   UNL A   1      39.179  30.548  30.452  1.00  0.00    -0.354 N 
ATOM     43  C   UNL A   1      39.338  33.301  33.834  1.00  0.00     0.074 A 
ATOM     44  C   UNL A   1      38.329  34.324  33.714  1.00  0.00     0.031 C 
ATOM     45  C   UNL A   1      38.394  29.763  28.509  1.00  0.00     0.029 A 
ATOM     46  C   UNL A   1      39.414  29.557  29.530  1.00  0.00     0.049 A 
ATOM     47  H   UNL A   1      39.715  30.662  31.270  1.00  0.00     0.167 HD
ATOM     48  C   UNL A   1      40.197  33.203  34.873  1.00  0.00     0.037 A 
ATOM     49  C   UNL A   1      40.360  28.599  29.513  1.00  0.00     0.037 A 
ATOM     50  C   UNL A   1      41.178  32.162  34.984  1.00  0.00     0.049 A 
ATOM     51  C   UNL A   1      41.331  28.538  30.659  1.00  0.00     0.074 A 
ATOM     52  C   UNL A   1      42.071  31.927  36.011  1.00  0.00     0.029 A 
ATOM     53  N   UNL A   1      41.397  31.183  34.023  1.00  0.00    -0.354 N 
ATOM     54  N   UNL A   1      41.390  29.289  31.734  1.00  0.00    -0.248 NA
ATOM     55  C   UNL A   1      42.368  27.500  30.592  1.00  0.00     0.031 C 
ATOM     56  C   UNL A   1      42.883  30.853  35.638  1.00  0.00     0.029 A 
ATOM     57  C   UNL A   1      42.446  30.371  34.413  1.00  0.00     0.049 A 
ATOM     58  H   UNL A   1      40.883  31.084  33.190  1.00  0.00     0.167 HD
ATOM     59  C   UNL A   1      42.458  28.806  32.478  1.00  0.00     0.074 A 
ATOM     60  C   UNL A   1      42.995  27.676  31.746  1.00  0.00     0.031 C 
ATOM     61  C   UNL A   1      42.958  29.257  33.656  1.00  0.00     0.037 A 
BRANCH  48  62
ATOM     62  C   UNL A   1      40.114  34.249  35.947  1.00  0.00     0.057 A 
ATOM     63  C   UNL A   1      40.811  35.462  35.865  1.00  0.00     0.134 A 
ATOM     64  C   UNL A   1      39.311  34.044  37.076  1.00  0.00     0.134 A 
ATOM     65  F   UNL A   1      41.616  35.717  34.822  1.00  0.00    -0.206 F 
ATOM     66  C   UNL A   1      40.737  36.418  36.879  1.00  0.00     0.040 A 
ATOM     67  C   UNL A   1      39.200  35.009  38.079  1.00  0.00     0.040 A 
ATOM     68  F   UNL A   1      38.617  32.905  37.223  1.00  0.00    -0.206 F 
ATOM     69  C   UNL A   1      39.922  36.197  37.986  1.00  0.00     0.006 A 
ENDBRANCH  48  62
BRANCH  49  70
ATOM     70  C   UNL A   1      40.434  27.639  28.381  1.00  0.00     0.057 A 
ATOM     71  C   UNL A   1      39.809  26.390  28.444  1.00  0.00     0.134 A 
ATOM     72  C   UNL A   1      41.141  27.945  27.210  1.00  0.00     0.134 A 
ATOM     73  F   UNL A   1      39.126  26.031  29.541  1.00  0.00    -0.206 F 
ATOM     74  C   UNL A   1      39.902  25.470  27.397  1.00  0.00     0.040 A 
ATOM     75  C   UNL A   1      41.213  27.049  26.143  1.00  0.00     0.040 A 
ATOM     76  F   UNL A   1      41.755  29.129  27.078  1.00  0.00    -0.206 F 
ATOM     77  C   UNL A   1      40.602  25.802  26.240  1.00  0.00     0.006 A 
ENDBRANCH  49  70
BRANCH  61  78
ATOM     78  C   UNL A   1      44.136  28.521  34.223  1.00  0.00     0.057 A 
ATOM     79  C   UNL A   1      45.449  28.954  34.003  1.00  0.00     0.134 A 
ATOM     80  C   UNL A   1      43.949  27.402  35.046  1.00  0.00     0.134 A 
ATOM     81  F   UNL A   1      45.695  30.013  33.217  1.00  0.00    -0.206 F 
ATOM     82  C   UNL A   1      46.539  28.284  34.559  1.00  0.00     0.040 A 
ATOM     83  C   UNL A   1      45.028  26.748  35.639  1.00  0.00     0.040 A 
ATOM     84  F   UNL A   1      42.716  26.946  35.308  1.00  0.00    -0.206 F 
ATOM     85  C   UNL A   1      46.328  27.183  35.389  1.00  0.00     0.006 A 
ENDBRANCH  61  78
ENDBRANCH  35  36
ENDBRANCH  27  30
ENDBRANCH  25  26
ENDBRANCH  24  25
ENDBRANCH   1  24
TORSDOF 15
ENDMDL
MODEL 2
REMARK VINA RESULT:     -13.5      2.219      3.777
REMARK SMILES CCN(C(=O)N[C@@H]1CCOC1)[C@H]1COC[C@H]1C(=O)NCCCCNC(=O)c1ccc(-c2c3nc(c(-c4c(F)cccc4F)c4ccc([nH]4)c(-c4c(F)cccc4F)c4nc(c(-c5c(F)cccc5F)c5ccc2[nH]5)C=C4)C=C3)cc1
REMARK SMILES IDX 21 1 20 2 19 3 17 4 18 5 16 7 12 8 13 9 14 10 15 11 3 12
REMARK SMILES IDX 2 13 1 14 4 15 5 16 6 17 7 19 8 20 11 21 9 22 10 23 22 24
REMARK SMILES IDX 23 25 24 26 25 27 26 29 27 30 28 31 80 32 29 33 79 34 30 35
REMARK SMILES IDX 31 36 32 37 73 38 33 39 78 40 72 41 74 42 34 43 77 44 71 45
REMARK SMILES IDX 70 46 35 48 61 49 44 50 60 51 45 52 48 53 59 54 75 55 46 56
REMARK SMILES IDX 47 57 58 59 76 60 49 61 36 62 37 63 42 64 38 65 39 66 41 67
REMARK SMILES IDX 43 68 40 69 62 70 63 71 68 72 64 73 65 74 67 75 69 76 66 77
REMARK SMILES IDX 50 78 51 79 56 80 52 81 53 82 55 83 57 84 54 85
REMARK H PARENT 19 6 6 18 24 28 74 47 48 58
REMARK Flexibility Score: inf
ROOT
ATOM      1  C   UNL A   1      32.043  29.186  27.082  1.00  0.00     0.023 C 
ENDROOT
BRANCH   1   2
ATOM      2  C   UNL A   1      31.412  27.767  25.935  1.00  0.00     0.116 C 
BRANCH   2   3
ATOM      3  N   UNL A   1      31.093  26.405  26.490  1.00  0.00    -0.356 N 
ATOM      4  C   UNL A   1      31.469  25.076  26.292  1.00  0.00     0.227 C 
ATOM      5  O   UNL A   1      31.153  24.357  27.257  1.00  0.00    -0.275 OA
ATOM      6  H   UNL A   1      30.418  26.470  27.204  1.00  0.00     0.163 HD
BRANCH   4   7
ATOM      7  C   UNL A   1      32.286  24.306  25.051  1.00  0.00     0.129 C 
ATOM      8  C   UNL A   1      33.784  23.519  24.950  1.00  0.00     0.127 C 
ATOM      9  C   UNL A   1      33.513  22.671  23.723  1.00  0.00     0.186 C 
ATOM     10  O   UNL A   1      32.123  22.301  23.732  1.00  0.00    -0.378 OA
ATOM     11  C   UNL A   1      31.347  23.281  24.434  1.00  0.00     0.176 C 
BRANCH   8  12
ATOM     12  N   UNL A   1      34.168  22.727  26.181  1.00  0.00    -0.319 N 
BRANCH  12  13
ATOM     13  C   UNL A   1      35.401  22.309  25.894  1.00  0.00     0.118 C 
ATOM     14  C   UNL A   1      36.345  23.552  25.938  1.00  0.00     0.027 C 
ENDBRANCH  12  13
BRANCH  12  15
ATOM     15  C   UNL A   1      33.654  21.844  27.128  1.00  0.00     0.318 C 
ATOM     16  O   UNL A   1      33.397  22.185  28.280  1.00  0.00    -0.249 OA
ATOM     17  N   UNL A   1      33.275  20.516  26.696  1.00  0.00    -0.333 N 
ATOM     18  H   UNL A   1      32.930  20.049  27.491  1.00  0.00     0.165 HD
BRANCH  17  19
ATOM     19  C   UNL A   1      33.173  19.429  25.409  1.00  0.00     0.112 C 
ATOM     20  C   UNL A   1      32.235  17.661  25.326  1.00  0.00     0.056 C 
ATOM     21  C   UNL A   1      34.907  19.095  24.563  1.00  0.00     0.185 C 
ATOM     22  C   UNL A   1      33.576  16.248  24.562  1.00  0.00     0.162 C 
ATOM     23  O   UNL A   1      35.125  17.287  24.121  1.00  0.00    -0.379 OA
ENDBRANCH  17  19
ENDBRANCH  12  15
ENDBRANCH   8  12
ENDBRANCH   4   7
ENDBRANCH   2   3
ENDBRANCH   1   2
BRANCH   1  24
ATOM     24  C   UNL A   1      31.841  31.324  26.686  1.00  0.00     0.023 C 
BRANCH  24  25
ATOM     25  C   UNL A   1      32.954  32.592  27.283  1.00  0.00     0.116 C 
BRANCH  25  26
ATOM     26  N   UNL A   1      32.425  33.883  27.647  1.00  0.00    -0.352 N 
ATOM     27  C   UNL A   1      33.029  34.768  28.501  1.00  0.00     0.251 C 
ATOM     28  H   UNL A   1      31.562  34.148  27.253  1.00  0.00     0.163 HD
ATOM     29  O   UNL A   1      32.550  35.867  28.736  1.00  0.00    -0.269 OA
BRANCH  27  30
ATOM     30  C   UNL A   1      34.260  34.308  29.161  1.00  0.00     0.039 A 
ATOM     31  C   UNL A   1      34.116  33.396  30.201  1.00  0.00     0.014 A 
ATOM     32  C   UNL A   1      35.510  34.579  28.585  1.00  0.00     0.014 A 
ATOM     33  C   UNL A   1      35.244  32.750  30.681  1.00  0.00     0.010 A 
ATOM     34  C   UNL A   1      36.600  33.810  28.962  1.00  0.00     0.010 A 
ATOM     35  C   UNL A   1      36.487  32.933  30.051  1.00  0.00    -0.014 A 
BRANCH  35  36
ATOM     36  C   UNL A   1      37.698  32.271  30.579  1.00  0.00     0.031 A 
ATOM     37  C   UNL A   1      38.322  32.806  31.838  1.00  0.00     0.074 A 
ATOM     38  C   UNL A   1      38.217  31.210  29.935  1.00  0.00     0.049 A 
ATOM     39  N   UNL A   1      39.389  32.392  32.470  1.00  0.00    -0.248 NA
ATOM     40  C   UNL A   1      37.686  33.985  32.453  1.00  0.00     0.031 C 
ATOM     41  C   UNL A   1      37.708  30.644  28.682  1.00  0.00     0.029 A 
ATOM     42  N   UNL A   1      39.282  30.409  30.250  1.00  0.00    -0.354 N 
ATOM     43  C   UNL A   1      39.552  33.268  33.535  1.00  0.00     0.074 A 
ATOM     44  C   UNL A   1      38.536  34.284  33.420  1.00  0.00     0.031 C 
ATOM     45  C   UNL A   1      38.430  29.560  28.363  1.00  0.00     0.029 A 
ATOM     46  C   UNL A   1      39.487  29.389  29.353  1.00  0.00     0.049 A 
ATOM     47  H   UNL A   1      39.847  30.550  31.044  1.00  0.00     0.167 HD
ATOM     48  C   UNL A   1      40.449  33.206  34.545  1.00  0.00     0.037 A 
ATOM     49  C   UNL A   1      40.436  28.434  29.332  1.00  0.00     0.037 A 
ATOM     50  C   UNL A   1      41.437  32.171  34.653  1.00  0.00     0.049 A 
ATOM     51  C   UNL A   1      41.448  28.412  30.442  1.00  0.00     0.074 A 
ATOM     52  C   UNL A   1      42.368  31.972  35.654  1.00  0.00     0.029 A 
ATOM     53  N   UNL A   1      41.626  31.163  33.717  1.00  0.00    -0.354 N 
ATOM     54  N   UNL A   1      41.543  29.197  31.491  1.00  0.00    -0.248 NA
ATOM     55  C   UNL A   1      42.486  27.376  30.371  1.00  0.00     0.031 C 
ATOM     56  C   UNL A   1      43.170  30.889  35.286  1.00  0.00     0.029 A 
ATOM     57  C   UNL A   1      42.691  30.367  34.093  1.00  0.00     0.049 A 
ATOM     58  H   UNL A   1      41.082  31.036  32.906  1.00  0.00     0.167 HD
ATOM     59  C   UNL A   1      42.639  28.741  32.211  1.00  0.00     0.074 A 
ATOM     60  C   UNL A   1      43.154  27.590  31.496  1.00  0.00     0.031 C 
ATOM     61  C   UNL A   1      43.180  29.231  33.354  1.00  0.00     0.037 A 
BRANCH  48  62
ATOM     62  C   UNL A   1      40.401  34.285  35.587  1.00  0.00     0.057 A 
ATOM     63  C   UNL A   1      41.018  35.530  35.404  1.00  0.00     0.134 A 
ATOM     64  C   UNL A   1      39.713  34.080  36.790  1.00  0.00     0.134 A 
ATOM     65  F   UNL A   1      41.712  35.789  34.285  1.00  0.00    -0.206 F 
ATOM     66  C   UNL A   1      40.979  36.519  36.389  1.00  0.00     0.040 A 
ATOM     67  C   UNL A   1      39.635  35.074  37.767  1.00  0.00     0.040 A 
ATOM     68  F   UNL A   1      39.101  32.912  37.035  1.00  0.00    -0.206 F 
ATOM     69  C   UNL A   1      40.277  36.295  37.571  1.00  0.00     0.006 A 
ENDBRANCH  48  62
BRANCH  49  70
ATOM     70  C   UNL A   1      40.473  27.439  28.229  1.00  0.00     0.057 A 
ATOM     71  C   UNL A   1      41.167  27.693  27.041  1.00  0.00     0.134 A 
ATOM     72  C   UNL A   1      39.807  26.210  28.332  1.00  0.00     0.134 A 
ATOM     73  F   UNL A   1      41.816  28.855  26.875  1.00  0.00    -0.206 F 
ATOM     74  C   UNL A   1      41.179  26.777  25.989  1.00  0.00     0.040 A 
ATOM     75  C   UNL A   1      39.839  25.270  27.301  1.00  0.00     0.040 A 
ATOM     76  F   UNL A   1      39.131  25.896  29.446  1.00  0.00    -0.206 F 
ATOM     77  C   UNL A   1      40.517  25.558  26.119  1.00  0.00     0.006 A 
ENDBRANCH  49  70
BRANCH  61  78
ATOM     78  C   UNL A   1      44.381  28.517  33.901  1.00  0.00     0.057 A 
ATOM     79  C   UNL A   1      45.683  28.942  33.613  1.00  0.00     0.134 A 
ATOM     80  C   UNL A   1      44.229  27.429  34.771  1.00  0.00     0.134 A 
ATOM     81  F   UNL A   1      45.896  29.971  32.780  1.00  0.00    -0.206 F 
ATOM     82  C   UNL A   1      46.795  28.293  34.151  1.00  0.00     0.040 A 
ATOM     83  C   UNL A   1      45.331  26.797  35.345  1.00  0.00     0.040 A 
ATOM     84  F   UNL A   1      43.007  26.983  35.099  1.00  0.00    -0.206 F 
ATOM     85  C   UNL A   1      46.619  27.224  35.028  1.00  0.00     0.006 A 
ENDBRANCH  61  78
ENDBRANCH  35  36
ENDBRANCH  27  30
ENDBRANCH  25  26
ENDBRANCH  24  25
ENDBRANCH   1  24
TORSDOF 15
ENDMDL
MODEL 3
REMARK VINA RESULT:     -13.5      2.120      3.706
REMARK SMILES CCN(C(=O)N[C@@H]1CCOC1)[C@H]1COC[C@H]1C(=O)NCCCCNC(=O)c1ccc(-c2c3nc(c(-c4c(F)cccc4F)c4ccc([nH]4)c(-c4c(F)cccc4F)c4nc(c(-c5c(F)cccc5F)c5ccc2[nH]5)C=C4)C=C3)cc1
REMARK SMILES IDX 21 1 20 2 19 3 17 4 18 5 16 7 12 8 13 9 14 10 15 11 3 12
REMARK SMILES IDX 2 13 1 14 4 15 5 16 6 17 7 19 8 20 11 21 9 22 10 23 22 24
REMARK SMILES IDX 23 25 24 26 25 27 26 29 27 30 28 31 80 32 29 33 79 34 30 35
REMARK SMILES IDX 31 36 32 37 73 38 33 39 78 40 72 41 74 42 34 43 77 44 71 45
REMARK SMILES IDX 70 46 35 48 61 49 44 50 60 51 45 52 48 53 59 54 75 55 46 56
REMARK SMILES IDX 47 57 58 59 76 60 49 61 36 62 37 63 42 64 38 65 39 66 41 67
REMARK SMILES IDX 43 68 40 69 62 70 63 71 68 72 64 73 65 74 67 75 69 76 66 77
REMARK SMILES IDX 50 78 51 79 56 80 52 81 53 82 55 83 57 84 54 85
REMARK H PARENT 19 6 6 18 24 28 74 47 48 58
REMARK Flexibility Score: inf
ROOT
ATOM      1  C   UNL A   1      31.997  29.197  27.177  1.00  0.00     0.023 C 
ENDROOT
BRANCH   1   2
ATOM      2  C   UNL A   1      33.576  28.132  26.859  1.00  0.00     0.116 C 
BRANCH   2   3
ATOM      3  N   UNL A   1      33.808  27.467  25.529  1.00  0.00    -0.356 N 
ATOM      4  C   UNL A   1      33.937  26.179  25.007  1.00  0.00     0.227 C 
ATOM      5  O   UNL A   1      33.777  26.162  23.773  1.00  0.00    -0.275 OA
ATOM      6  H   UNL A   1      33.895  28.139  24.814  1.00  0.00     0.163 HD
BRANCH   4   7
ATOM      7  C   UNL A   1      34.212  24.692  25.724  1.00  0.00     0.129 C 
ATOM      8  C   UNL A   1      33.238  23.336  26.011  1.00  0.00     0.127 C 
ATOM      9  C   UNL A   1      34.332  22.298  26.164  1.00  0.00     0.186 C 
ATOM     10  O   UNL A   1      35.415  22.656  25.287  1.00  0.00    -0.378 OA
ATOM     11  C   UNL A   1      35.435  24.072  25.065  1.00  0.00     0.176 C 
BRANCH   8  12
ATOM     12  N   UNL A   1      32.239  23.029  24.915  1.00  0.00    -0.319 N 
BRANCH  12  13
ATOM     13  C   UNL A   1      31.292  22.347  25.558  1.00  0.00     0.118 C 
ATOM     14  C   UNL A   1      30.577  23.334  26.535  1.00  0.00     0.027 C 
ENDBRANCH  12  13
BRANCH  12  15
ATOM     15  C   UNL A   1      32.153  22.670  23.572  1.00  0.00     0.318 C 
ATOM     16  O   UNL A   1      32.098  23.499  22.667  1.00  0.00    -0.249 OA
ATOM     17  N   UNL A   1      32.278  21.271  23.224  1.00  0.00    -0.333 N 
ATOM     18  H   UNL A   1      32.202  21.216  22.245  1.00  0.00     0.165 HD
BRANCH  17  19
ATOM     19  C   UNL A   1      32.500  19.695  23.785  1.00  0.00     0.112 C 
ATOM     20  C   UNL A   1      33.973  18.961  24.927  1.00  0.00     0.056 C 
ATOM     21  C   UNL A   1      32.267  18.353  22.378  1.00  0.00     0.185 C 
ATOM     22  C   UNL A   1      34.704  17.227  24.011  1.00  0.00     0.162 C 
ATOM     23  O   UNL A   1      33.541  16.986  22.508  1.00  0.00    -0.379 OA
ENDBRANCH  17  19
ENDBRANCH  12  15
ENDBRANCH   8  12
ENDBRANCH   4   7
ENDBRANCH   2   3
ENDBRANCH   1   2
BRANCH   1  24
ATOM     24  C   UNL A   1      31.808  31.336  26.780  1.00  0.00     0.023 C 
BRANCH  24  25
ATOM     25  C   UNL A   1      32.975  32.588  27.303  1.00  0.00     0.116 C 
BRANCH  25  26
ATOM     26  N   UNL A   1      32.492  33.899  27.661  1.00  0.00    -0.352 N 
ATOM     27  C   UNL A   1      33.097  34.742  28.556  1.00  0.00     0.251 C 
ATOM     28  H   UNL A   1      31.663  34.211  27.231  1.00  0.00     0.163 HD
ATOM     29  O   UNL A   1      32.662  35.860  28.785  1.00  0.00    -0.269 OA
BRANCH  27  30
ATOM     30  C   UNL A   1      34.271  34.213  29.267  1.00  0.00     0.039 A 
ATOM     31  C   UNL A   1      34.048  33.191  30.181  1.00  0.00     0.014 A 
ATOM     32  C   UNL A   1      35.564  34.550  28.836  1.00  0.00     0.014 A 
ATOM     33  C   UNL A   1      35.138  32.497  30.683  1.00  0.00     0.010 A 
ATOM     34  C   UNL A   1      36.626  33.747  29.220  1.00  0.00     0.010 A 
ATOM     35  C   UNL A   1      36.429  32.752  30.189  1.00  0.00    -0.014 A 
BRANCH  35  36
ATOM     36  C   UNL A   1      37.597  32.038  30.745  1.00  0.00     0.031 A 
ATOM     37  C   UNL A   1      38.057  32.378  32.135  1.00  0.00     0.074 A 
ATOM     38  C   UNL A   1      38.223  31.102  30.008  1.00  0.00     0.049 A 
ATOM     39  N   UNL A   1      39.062  31.889  32.814  1.00  0.00    -0.248 NA
ATOM     40  C   UNL A   1      37.314  33.432  32.848  1.00  0.00     0.031 C 
ATOM     41  C   UNL A   1      37.878  30.733  28.632  1.00  0.00     0.029 A 
ATOM     42  N   UNL A   1      39.276  30.281  30.316  1.00  0.00    -0.354 N 
ATOM     43  C   UNL A   1      39.073  32.589  34.014  1.00  0.00     0.074 A 
ATOM     44  C   UNL A   1      38.039  33.591  33.942  1.00  0.00     0.031 C 
ATOM     45  C   UNL A   1      38.671  29.726  28.234  1.00  0.00     0.029 A 
ATOM     46  C   UNL A   1      39.617  29.421  29.301  1.00  0.00     0.049 A 
ATOM     47  H   UNL A   1      39.743  30.306  31.182  1.00  0.00     0.167 HD
ATOM     48  C   UNL A   1      39.854  32.384  35.098  1.00  0.00     0.037 A 
ATOM     49  C   UNL A   1      40.596  28.500  29.241  1.00  0.00     0.037 A 
ATOM     50  C   UNL A   1      40.861  31.364  35.159  1.00  0.00     0.049 A 
ATOM     51  C   UNL A   1      41.479  28.321  30.445  1.00  0.00     0.074 A 
ATOM     52  C   UNL A   1      41.682  31.026  36.217  1.00  0.00     0.029 A 
ATOM     53  N   UNL A   1      41.190  30.521  34.105  1.00  0.00    -0.354 N 
ATOM     54  N   UNL A   1      41.427  28.931  31.606  1.00  0.00    -0.248 NA
ATOM     55  C   UNL A   1      42.555  27.329  30.334  1.00  0.00     0.031 C 
ATOM     56  C   UNL A   1      42.559  30.030  35.781  1.00  0.00     0.029 A 
ATOM     57  C   UNL A   1      42.236  29.695  34.474  1.00  0.00     0.049 A 
ATOM     58  H   UNL A   1      40.744  30.514  33.227  1.00  0.00     0.167 HD
ATOM     59  C   UNL A   1      42.453  28.388  32.368  1.00  0.00     0.074 A 
ATOM     60  C   UNL A   1      43.086  27.374  31.548  1.00  0.00     0.031 C 
ATOM     61  C   UNL A   1      42.845  28.700  33.629  1.00  0.00     0.037 A 
BRANCH  48  62
ATOM     62  C   UNL A   1      39.650  33.283  36.284  1.00  0.00     0.057 A 
ATOM     63  C   UNL A   1      38.747  32.974  37.310  1.00  0.00     0.134 A 
ATOM     64  C   UNL A   1      40.380  34.471  36.406  1.00  0.00     0.134 A 
ATOM     65  F   UNL A   1      37.998  31.862  37.248  1.00  0.00    -0.206 F 
ATOM     66  C   UNL A   1      38.556  33.828  38.398  1.00  0.00     0.040 A 
ATOM     67  C   UNL A   1      40.225  35.315  37.508  1.00  0.00     0.040 A 
ATOM     68  F   UNL A   1      41.260  34.832  35.461  1.00  0.00    -0.206 F 
ATOM     69  C   UNL A   1      39.303  34.998  38.504  1.00  0.00     0.006 A 
ENDBRANCH  48  62
BRANCH  49  70
ATOM     70  C   UNL A   1      40.792  27.693  28.009  1.00  0.00     0.057 A 
ATOM     71  C   UNL A   1      40.198  26.435  27.860  1.00  0.00     0.134 A 
ATOM     72  C   UNL A   1      41.587  28.156  26.952  1.00  0.00     0.134 A 
ATOM     73  F   UNL A   1      39.435  25.929  28.840  1.00  0.00    -0.206 F 
ATOM     74  C   UNL A   1      40.404  25.658  26.719  1.00  0.00     0.040 A 
ATOM     75  C   UNL A   1      41.774  27.404  25.791  1.00  0.00     0.040 A 
ATOM     76  F   UNL A   1      42.178  29.357  27.023  1.00  0.00    -0.206 F 
ATOM     77  C   UNL A   1      41.191  26.145  25.678  1.00  0.00     0.006 A 
ENDBRANCH  49  70
BRANCH  61  78
ATOM     78  C   UNL A   1      44.003  27.931  34.194  1.00  0.00     0.057 A 
ATOM     79  C   UNL A   1      43.827  26.692  34.820  1.00  0.00     0.134 A 
ATOM     80  C   UNL A   1      45.312  28.411  34.057  1.00  0.00     0.134 A 
ATOM     81  F   UNL A   1      42.598  26.182  34.990  1.00  0.00    -0.206 F 
ATOM     82  C   UNL A   1      44.911  25.967  35.315  1.00  0.00     0.040 A 
ATOM     83  C   UNL A   1      46.406  27.678  34.513  1.00  0.00     0.040 A 
ATOM     84  F   UNL A   1      45.550  29.585  33.453  1.00  0.00    -0.206 F 
ATOM     85  C   UNL A   1      46.206  26.456  35.153  1.00  0.00     0.006 A 
ENDBRANCH  61  78
ENDBRANCH  35  36
ENDBRANCH  27  30
ENDBRANCH  25  26
ENDBRANCH  24  25
ENDBRANCH   1  24
TORSDOF 15
ENDMDL
