MODEL 1
REMARK VINA RESULT:     -13.3      0.000      0.000
REMARK SMILES O=C1C[C@@H](C(=O)NCCCCNC(=O)c2ccc(-c3c4nc(c(-c5c(F)cccc5F)c5ccc([nH]5)c(-c5c(F)cccc5F)c5nc(c(-c6c(F)cccc6F)c6ccc3[nH]6)C=C5)C=C4)cc2)C2(CC[NH+](Cc3c[nH]nc3-c3ccc(Cl)cc3)CC2)N1
REMARK SMILES IDX 9 1 8 2 7 3 5 4 6 5 4 7 1 8 2 9 3 10 88 11 69 12 70 14 87 15
REMARK SMILES IDX 71 16 86 17 72 18 73 20 74 21 75 22 78 23 76 24 77 25 79 27
REMARK SMILES IDX 80 28 85 29 81 30 84 31 82 32 83 33 10 34 11 35 12 36 13 37
REMARK SMILES IDX 14 39 15 40 16 41 68 42 17 43 67 44 18 45 19 46 20 47 61 48
REMARK SMILES IDX 21 49 66 50 60 51 62 52 22 53 65 54 59 55 58 56 23 58 49 59
REMARK SMILES IDX 32 60 48 61 33 62 36 63 47 64 63 65 34 66 35 67 46 69 64 70
REMARK SMILES IDX 37 71 24 72 25 73 30 74 26 75 27 76 29 77 31 78 28 79 50 80
REMARK SMILES IDX 51 81 56 82 52 83 53 84 55 85 57 86 54 87 38 88 39 89 44 90
REMARK SMILES IDX 40 91 41 92 43 93 45 94 42 95
REMARK H PARENT 7 6 88 13 72 19 76 26 12 38 62 57 36 68
REMARK Flexibility Score: inf
ROOT
ATOM      1  C   UNL A   1      37.060  21.223  24.855  1.00  0.00     0.023 C 
ENDROOT
BRANCH   1   2
ATOM      2  C   UNL A   1      35.614  20.897  25.238  1.00  0.00     0.116 C 
BRANCH   2   3
ATOM      3  N   UNL A   1      35.211  21.410  26.537  1.00  0.00    -0.356 N 
ATOM      4  C   UNL A   1      34.074  21.997  26.996  1.00  0.00     0.226 C 
ATOM      5  O   UNL A   1      34.066  22.301  28.195  1.00  0.00    -0.275 OA
ATOM      6  H   UNL A   1      35.906  21.310  27.228  1.00  0.00     0.163 HD
BRANCH   4   7
ATOM      7  C   UNL A   1      32.849  22.341  26.141  1.00  0.00     0.114 C 
ATOM      8  O   UNL A   1      32.421  20.404  23.170  1.00  0.00    -0.275 OA
ATOM      9  C   UNL A   1      32.577  21.242  24.036  1.00  0.00     0.221 C 
ATOM     10  C   UNL A   1      32.217  21.104  25.492  1.00  0.00     0.116 C 
ATOM     11  N   UNL A   1      33.169  22.472  23.850  1.00  0.00    -0.349 N 
ATOM     12  C   UNL A   1      33.040  23.362  24.998  1.00  0.00     0.063 C 
ATOM     13  H   UNL A   1      33.634  22.727  23.020  1.00  0.00     0.164 HD
ATOM     14  C   UNL A   1      34.284  24.248  25.162  1.00  0.00     0.091 C 
ATOM     15  C   UNL A   1      31.745  24.187  24.732  1.00  0.00     0.091 C 
ATOM     16  C   UNL A   1      34.029  25.568  25.864  1.00  0.00     0.264 C 
ATOM     17  C   UNL A   1      31.720  25.620  25.263  1.00  0.00     0.264 C 
ATOM     18  N   UNL A   1      32.984  26.332  25.219  1.00  0.00    -0.331 N 
ATOM     19  H   UNL A   1      32.818  27.163  25.786  1.00  0.00     0.348 HD
BRANCH  18  20
ATOM     20  C   UNL A   1      33.353  27.086  24.011  1.00  0.00     0.303 C 
BRANCH  20  21
ATOM     21  C   UNL A   1      32.779  26.596  22.716  1.00  0.00     0.052 A 
ATOM     22  C   UNL A   1      33.216  25.508  21.980  1.00  0.00     0.115 A 
ATOM     23  C   UNL A   1      31.593  27.018  22.012  1.00  0.00     0.101 A 
ATOM     24  N   UNL A   1      32.440  25.441  20.869  1.00  0.00    -0.285 N 
ATOM     25  N   UNL A   1      31.456  26.342  20.859  1.00  0.00    -0.175 NA
ATOM     26  H   UNL A   1      32.587  24.792  20.144  1.00  0.00     0.189 HD
BRANCH  23  27
ATOM     27  C   UNL A   1      30.559  27.986  22.385  1.00  0.00     0.003 A 
ATOM     28  C   UNL A   1      29.410  27.520  23.045  1.00  0.00     0.012 A 
ATOM     29  C   UNL A   1      30.645  29.347  22.075  1.00  0.00     0.012 A 
ATOM     30  C   UNL A   1      28.392  28.401  23.422  1.00  0.00     0.021 A 
ATOM     31  C   UNL A   1      29.632  30.234  22.457  1.00  0.00     0.021 A 
ATOM     32  C   UNL A   1      28.513  29.757  23.135  1.00  0.00     0.041 A 
ATOM     33  Cl  UNL A   1      27.271  30.848  23.609  1.00  0.00    -0.084 Cl
ENDBRANCH  23  27
ENDBRANCH  20  21
ENDBRANCH  18  20
ENDBRANCH   4   7
ENDBRANCH   2   3
ENDBRANCH   1   2
BRANCH   1  34
ATOM     34  C   UNL A   1      38.020  20.044  24.951  1.00  0.00     0.023 C 
BRANCH  34  35
ATOM     35  C   UNL A   1      39.283  20.345  25.741  1.00  0.00     0.116 C 
BRANCH  35  36
ATOM     36  N   UNL A   1      40.171  19.194  25.850  1.00  0.00    -0.352 N 
ATOM     37  C   UNL A   1      41.520  19.180  26.109  1.00  0.00     0.251 C 
ATOM     38  H   UNL A   1      39.750  18.314  25.724  1.00  0.00     0.163 HD
ATOM     39  O   UNL A   1      42.171  18.146  26.032  1.00  0.00    -0.269 OA
BRANCH  37  40
ATOM     40  C   UNL A   1      42.173  20.457  26.441  1.00  0.00     0.039 A 
ATOM     41  C   UNL A   1      42.633  21.271  25.408  1.00  0.00     0.014 A 
ATOM     42  C   UNL A   1      42.214  20.885  27.771  1.00  0.00     0.014 A 
ATOM     43  C   UNL A   1      43.059  22.565  25.704  1.00  0.00     0.010 A 
ATOM     44  C   UNL A   1      42.545  22.202  28.048  1.00  0.00     0.010 A 
ATOM     45  C   UNL A   1      42.968  23.056  27.018  1.00  0.00    -0.014 A 
BRANCH  45  46
ATOM     46  C   UNL A   1      43.296  24.464  27.339  1.00  0.00     0.031 A 
ATOM     47  C   UNL A   1      44.729  24.913  27.348  1.00  0.00     0.074 A 
ATOM     48  C   UNL A   1      42.313  25.312  27.703  1.00  0.00     0.049 A 
ATOM     49  N   UNL A   1      45.230  26.072  27.691  1.00  0.00    -0.248 NA
ATOM     50  C   UNL A   1      45.738  23.918  26.948  1.00  0.00     0.031 C 
ATOM     51  C   UNL A   1      40.889  24.978  27.785  1.00  0.00     0.029 A 
ATOM     52  N   UNL A   1      42.364  26.629  28.085  1.00  0.00    -0.354 N 
ATOM     53  C   UNL A   1      46.606  25.938  27.564  1.00  0.00     0.074 A 
ATOM     54  C   UNL A   1      46.868  24.572  27.169  1.00  0.00     0.031 C 
ATOM     55  C   UNL A   1      40.203  26.064  28.172  1.00  0.00     0.029 A 
ATOM     56  C   UNL A   1      41.138  27.157  28.411  1.00  0.00     0.049 A 
ATOM     57  H   UNL A   1      43.201  27.147  28.124  1.00  0.00     0.167 HD
ATOM     58  C   UNL A   1      47.564  26.878  27.739  1.00  0.00     0.037 A 
ATOM     59  C   UNL A   1      40.809  28.382  28.866  1.00  0.00     0.037 A 
ATOM     60  C   UNL A   1      47.294  28.242  28.108  1.00  0.00     0.049 A 
ATOM     61  C   UNL A   1      41.895  29.403  29.063  1.00  0.00     0.074 A 
ATOM     62  C   UNL A   1      48.188  29.289  28.242  1.00  0.00     0.029 A 
ATOM     63  N   UNL A   1      46.038  28.745  28.410  1.00  0.00    -0.354 N 
ATOM     64  N   UNL A   1      43.186  29.288  28.861  1.00  0.00    -0.248 NA
ATOM     65  C   UNL A   1      41.481  30.726  29.549  1.00  0.00     0.031 C 
ATOM     66  C   UNL A   1      47.481  30.411  28.683  1.00  0.00     0.029 A 
ATOM     67  C   UNL A   1      46.138  30.080  28.764  1.00  0.00     0.049 A 
ATOM     68  H   UNL A   1      45.200  28.229  28.379  1.00  0.00     0.167 HD
ATOM     69  C   UNL A   1      43.732  30.528  29.167  1.00  0.00     0.074 A 
ATOM     70  C   UNL A   1      42.630  31.385  29.550  1.00  0.00     0.031 C 
ATOM     71  C   UNL A   1      45.029  30.921  29.137  1.00  0.00     0.037 A 
BRANCH  58  72
ATOM     72  C   UNL A   1      48.991  26.464  27.533  1.00  0.00     0.057 A 
ATOM     73  C   UNL A   1      49.771  25.941  28.575  1.00  0.00     0.134 A 
ATOM     74  C   UNL A   1      49.582  26.548  26.266  1.00  0.00     0.134 A 
ATOM     75  F   UNL A   1      49.272  25.847  29.817  1.00  0.00    -0.206 F 
ATOM     76  C   UNL A   1      51.091  25.539  28.368  1.00  0.00     0.040 A 
ATOM     77  C   UNL A   1      50.891  26.121  26.040  1.00  0.00     0.040 A 
ATOM     78  F   UNL A   1      48.892  27.036  25.224  1.00  0.00    -0.206 F 
ATOM     79  C   UNL A   1      51.651  25.618  27.094  1.00  0.00     0.006 A 
ENDBRANCH  58  72
BRANCH  59  80
ATOM     80  C   UNL A   1      39.392  28.713  29.168  1.00  0.00     0.057 A 
ATOM     81  C   UNL A   1      38.556  29.277  28.197  1.00  0.00     0.134 A 
ATOM     82  C   UNL A   1      38.846  28.498  30.440  1.00  0.00     0.134 A 
ATOM     83  F   UNL A   1      39.024  29.525  26.965  1.00  0.00    -0.206 F 
ATOM     84  C   UNL A   1      37.239  29.642  28.486  1.00  0.00     0.040 A 
ATOM     85  C   UNL A   1      37.522  28.828  30.734  1.00  0.00     0.040 A 
ATOM     86  F   UNL A   1      39.589  27.952  31.413  1.00  0.00    -0.206 F 
ATOM     87  C   UNL A   1      36.718  29.413  29.757  1.00  0.00     0.006 A 
ENDBRANCH  59  80
BRANCH  71  88
ATOM     88  C   UNL A   1      45.323  32.349  29.496  1.00  0.00     0.057 A 
ATOM     89  C   UNL A   1      45.675  32.730  30.797  1.00  0.00     0.134 A 
ATOM     90  C   UNL A   1      45.292  33.350  28.516  1.00  0.00     0.134 A 
ATOM     91  F   UNL A   1      45.712  31.822  31.785  1.00  0.00    -0.206 F 
ATOM     92  C   UNL A   1      45.961  34.057  31.117  1.00  0.00     0.040 A 
ATOM     93  C   UNL A   1      45.607  34.676  28.816  1.00  0.00     0.040 A 
ATOM     94  F   UNL A   1      44.973  33.053  27.247  1.00  0.00    -0.206 F 
ATOM     95  C   UNL A   1      45.934  35.034  30.122  1.00  0.00     0.006 A 
ENDBRANCH  71  88
ENDBRANCH  45  46
ENDBRANCH  37  40
ENDBRANCH  35  36
ENDBRANCH  34  35
ENDBRANCH   1  34
TORSDOF 14
ENDMDL
MODEL 2
REMARK VINA RESULT:     -13.3      1.587      1.940
REMARK SMILES O=C1C[C@@H](C(=O)NCCCCNC(=O)c2ccc(-c3c4nc(c(-c5c(F)cccc5F)c5ccc([nH]5)c(-c5c(F)cccc5F)c5nc(c(-c6c(F)cccc6F)c6ccc3[nH]6)C=C5)C=C4)cc2)C2(CC[NH+](Cc3c[nH]nc3-c3ccc(Cl)cc3)CC2)N1
REMARK SMILES IDX 9 1 8 2 7 3 5 4 6 5 4 7 1 8 2 9 3 10 88 11 69 12 70 14 87 15
REMARK SMILES IDX 71 16 86 17 72 18 73 20 74 21 75 22 78 23 76 24 77 25 79 27
REMARK SMILES IDX 80 28 85 29 81 30 84 31 82 32 83 33 10 34 11 35 12 36 13 37
REMARK SMILES IDX 14 39 15 40 16 41 68 42 17 43 67 44 18 45 19 46 20 47 61 48
REMARK SMILES IDX 21 49 66 50 60 51 62 52 22 53 65 54 59 55 58 56 23 58 49 59
REMARK SMILES IDX 32 60 48 61 33 62 36 63 47 64 63 65 34 66 35 67 46 69 64 70
REMARK SMILES IDX 37 71 24 72 25 73 30 74 26 75 27 76 29 77 31 78 28 79 50 80
REMARK SMILES IDX 51 81 56 82 52 83 53 84 55 85 57 86 54 87 38 88 39 89 44 90
REMARK SMILES IDX 40 91 41 92 43 93 45 94 42 95
REMARK H PARENT 7 6 88 13 72 19 76 26 12 38 62 57 36 68
REMARK Flexibility Score: inf
ROOT
ATOM      1  C   UNL A   1      37.068  21.174  24.854  1.00  0.00     0.023 C 
ENDROOT
BRANCH   1   2
ATOM      2  C   UNL A   1      35.604  20.870  25.185  1.00  0.00     0.116 C 
BRANCH   2   3
ATOM      3  N   UNL A   1      35.145  21.443  26.440  1.00  0.00    -0.356 N 
ATOM      4  C   UNL A   1      33.933  21.875  26.879  1.00  0.00     0.226 C 
ATOM      5  O   UNL A   1      33.897  22.301  28.040  1.00  0.00    -0.275 OA
ATOM      6  H   UNL A   1      35.860  21.538  27.110  1.00  0.00     0.163 HD
BRANCH   4   7
ATOM      7  C   UNL A   1      32.650  21.913  26.041  1.00  0.00     0.114 C 
ATOM      8  O   UNL A   1      32.628  19.855  23.120  1.00  0.00    -0.275 OA
ATOM      9  C   UNL A   1      32.604  20.728  23.965  1.00  0.00     0.221 C 
ATOM     10  C   UNL A   1      32.304  20.549  25.430  1.00  0.00     0.116 C 
ATOM     11  N   UNL A   1      32.900  22.055  23.742  1.00  0.00    -0.349 N 
ATOM     12  C   UNL A   1      32.590  22.921  24.872  1.00  0.00     0.063 C 
ATOM     13  H   UNL A   1      33.285  22.387  22.897  1.00  0.00     0.164 HD
ATOM     14  C   UNL A   1      33.604  24.069  24.993  1.00  0.00     0.091 C 
ATOM     15  C   UNL A   1      31.139  23.426  24.614  1.00  0.00     0.091 C 
ATOM     16  C   UNL A   1      33.068  25.315  25.672  1.00  0.00     0.264 C 
ATOM     17  C   UNL A   1      30.799  24.830  25.114  1.00  0.00     0.264 C 
ATOM     18  N   UNL A   1      31.869  25.807  25.031  1.00  0.00    -0.331 N 
ATOM     19  H   UNL A   1      31.527  26.594  25.582  1.00  0.00     0.348 HD
BRANCH  18  20
ATOM     20  C   UNL A   1      32.041  26.595  23.799  1.00  0.00     0.303 C 
BRANCH  20  21
ATOM     21  C   UNL A   1      31.072  27.717  23.584  1.00  0.00     0.052 A 
ATOM     22  C   UNL A   1      29.906  27.668  22.839  1.00  0.00     0.115 A 
ATOM     23  C   UNL A   1      31.028  29.028  24.184  1.00  0.00     0.101 A 
ATOM     24  N   UNL A   1      29.353  28.907  22.884  1.00  0.00    -0.285 N 
ATOM     25  N   UNL A   1      30.009  29.748  23.683  1.00  0.00    -0.175 NA
ATOM     26  H   UNL A   1      28.546  29.158  22.378  1.00  0.00     0.189 HD
BRANCH  23  27
ATOM     27  C   UNL A   1      31.859  29.623  25.234  1.00  0.00     0.003 A 
ATOM     28  C   UNL A   1      31.403  30.788  25.871  1.00  0.00     0.012 A 
ATOM     29  C   UNL A   1      33.106  29.106  25.599  1.00  0.00     0.012 A 
ATOM     30  C   UNL A   1      32.158  31.397  26.878  1.00  0.00     0.021 A 
ATOM     31  C   UNL A   1      33.861  29.708  26.612  1.00  0.00     0.021 A 
ATOM     32  C   UNL A   1      33.379  30.848  27.251  1.00  0.00     0.041 A 
ATOM     33  Cl  UNL A   1      34.306  31.584  28.500  1.00  0.00    -0.084 Cl
ENDBRANCH  23  27
ENDBRANCH  20  21
ENDBRANCH  18  20
ENDBRANCH   4   7
ENDBRANCH   2   3
ENDBRANCH   1   2
BRANCH   1  34
ATOM     34  C   UNL A   1      38.009  19.984  25.000  1.00  0.00     0.023 C 
BRANCH  34  35
ATOM     35  C   UNL A   1      39.281  20.302  25.769  1.00  0.00     0.116 C 
BRANCH  35  36
ATOM     36  N   UNL A   1      40.174  19.155  25.883  1.00  0.00    -0.352 N 
ATOM     37  C   UNL A   1      41.527  19.149  26.123  1.00  0.00     0.251 C 
ATOM     38  H   UNL A   1      39.755  18.272  25.776  1.00  0.00     0.163 HD
ATOM     39  O   UNL A   1      42.181  18.116  26.053  1.00  0.00    -0.269 OA
BRANCH  37  40
ATOM     40  C   UNL A   1      42.181  20.432  26.428  1.00  0.00     0.039 A 
ATOM     41  C   UNL A   1      42.623  21.233  25.376  1.00  0.00     0.014 A 
ATOM     42  C   UNL A   1      42.239  20.880  27.750  1.00  0.00     0.014 A 
ATOM     43  C   UNL A   1      43.049  22.533  25.647  1.00  0.00     0.010 A 
ATOM     44  C   UNL A   1      42.569  22.202  28.004  1.00  0.00     0.010 A 
ATOM     45  C   UNL A   1      42.974  23.042  26.955  1.00  0.00    -0.014 A 
BRANCH  45  46
ATOM     46  C   UNL A   1      43.302  24.457  27.251  1.00  0.00     0.031 A 
ATOM     47  C   UNL A   1      44.727  24.924  27.174  1.00  0.00     0.074 A 
ATOM     48  C   UNL A   1      42.331  25.294  27.667  1.00  0.00     0.049 A 
ATOM     49  N   UNL A   1      45.232  26.091  27.483  1.00  0.00    -0.248 NA
ATOM     50  C   UNL A   1      45.725  23.939  26.721  1.00  0.00     0.031 C 
ATOM     51  C   UNL A   1      40.919  24.941  27.833  1.00  0.00     0.029 A 
ATOM     52  N   UNL A   1      42.387  26.613  28.040  1.00  0.00    -0.354 N 
ATOM     53  C   UNL A   1      46.600  25.973  27.277  1.00  0.00     0.074 A 
ATOM     54  C   UNL A   1      46.857  24.609  26.873  1.00  0.00     0.031 C 
ATOM     55  C   UNL A   1      40.242  26.021  28.255  1.00  0.00     0.029 A 
ATOM     56  C   UNL A   1      41.175  27.127  28.434  1.00  0.00     0.049 A 
ATOM     57  H   UNL A   1      43.218  27.141  28.028  1.00  0.00     0.167 HD
ATOM     58  C   UNL A   1      47.554  26.926  27.392  1.00  0.00     0.037 A 
ATOM     59  C   UNL A   1      40.857  28.349  28.903  1.00  0.00     0.037 A 
ATOM     60  C   UNL A   1      47.288  28.289  27.771  1.00  0.00     0.049 A 
ATOM     61  C   UNL A   1      41.940  29.386  29.032  1.00  0.00     0.074 A 
ATOM     62  C   UNL A   1      48.175  29.347  27.848  1.00  0.00     0.029 A 
ATOM     63  N   UNL A   1      46.046  28.777  28.143  1.00  0.00    -0.354 N 
ATOM     64  N   UNL A   1      43.218  29.286  28.756  1.00  0.00    -0.248 NA
ATOM     65  C   UNL A   1      41.537  30.706  29.535  1.00  0.00     0.031 C 
ATOM     66  C   UNL A   1      47.481  30.463  28.325  1.00  0.00     0.029 A 
ATOM     67  C   UNL A   1      46.149  30.115  28.484  1.00  0.00     0.049 A 
ATOM     68  H   UNL A   1      45.214  28.251  28.163  1.00  0.00     0.167 HD
ATOM     69  C   UNL A   1      43.764  30.534  29.024  1.00  0.00     0.074 A 
ATOM     70  C   UNL A   1      42.675  31.379  29.467  1.00  0.00     0.031 C 
ATOM     71  C   UNL A   1      45.052  30.944  28.918  1.00  0.00     0.037 A 
BRANCH  58  72
ATOM     72  C   UNL A   1      48.973  26.530  27.105  1.00  0.00     0.057 A 
ATOM     73  C   UNL A   1      49.799  25.964  28.087  1.00  0.00     0.134 A 
ATOM     74  C   UNL A   1      49.507  26.675  25.819  1.00  0.00     0.134 A 
ATOM     75  F   UNL A   1      49.355  25.810  29.344  1.00  0.00    -0.206 F 
ATOM     76  C   UNL A   1      51.110  25.578  27.805  1.00  0.00     0.040 A 
ATOM     77  C   UNL A   1      50.806  26.265  25.517  1.00  0.00     0.040 A 
ATOM     78  F   UNL A   1      48.771  27.207  24.832  1.00  0.00    -0.206 F 
ATOM     79  C   UNL A   1      51.614  25.719  26.513  1.00  0.00     0.006 A 
ENDBRANCH  58  72
BRANCH  59  80
ATOM     80  C   UNL A   1      39.456  28.664  29.285  1.00  0.00     0.057 A 
ATOM     81  C   UNL A   1      38.557  29.211  28.361  1.00  0.00     0.134 A 
ATOM     82  C   UNL A   1      38.987  28.450  30.587  1.00  0.00     0.134 A 
ATOM     83  F   UNL A   1      38.950  29.457  27.102  1.00  0.00    -0.206 F 
ATOM     84  C   UNL A   1      37.255  29.560  28.724  1.00  0.00     0.040 A 
ATOM     85  C   UNL A   1      37.679  28.765  30.956  1.00  0.00     0.040 A 
ATOM     86  F   UNL A   1      39.794  27.920  31.519  1.00  0.00    -0.206 F 
ATOM     87  C   UNL A   1      36.812  29.333  30.025  1.00  0.00     0.006 A 
ENDBRANCH  59  80
BRANCH  71  88
ATOM     88  C   UNL A   1      45.348  32.377  29.254  1.00  0.00     0.057 A 
ATOM     89  C   UNL A   1      45.765  32.769  30.531  1.00  0.00     0.134 A 
ATOM     90  C   UNL A   1      45.252  33.372  28.271  1.00  0.00     0.134 A 
ATOM     91  F   UNL A   1      45.866  31.868  31.521  1.00  0.00    -0.206 F 
ATOM     92  C   UNL A   1      46.051  34.102  30.828  1.00  0.00     0.040 A 
ATOM     93  C   UNL A   1      45.567  34.703  28.547  1.00  0.00     0.040 A 
ATOM     94  F   UNL A   1      44.869  33.064  27.023  1.00  0.00    -0.206 F 
ATOM     95  C   UNL A   1      45.960  35.072  29.832  1.00  0.00     0.006 A 
ENDBRANCH  71  88
ENDBRANCH  45  46
ENDBRANCH  37  40
ENDBRANCH  35  36
ENDBRANCH  34  35
ENDBRANCH   1  34
TORSDOF 14
ENDMDL
MODEL 3
REMARK VINA RESULT:     -13.2      1.200      2.172
REMARK SMILES O=C1C[C@@H](C(=O)NCCCCNC(=O)c2ccc(-c3c4nc(c(-c5c(F)cccc5F)c5ccc([nH]5)c(-c5c(F)cccc5F)c5nc(c(-c6c(F)cccc6F)c6ccc3[nH]6)C=C5)C=C4)cc2)C2(CC[NH+](Cc3c[nH]nc3-c3ccc(Cl)cc3)CC2)N1
REMARK SMILES IDX 9 1 8 2 7 3 5 4 6 5 4 7 1 8 2 9 3 10 88 11 69 12 70 14 87 15
REMARK SMILES IDX 71 16 86 17 72 18 73 20 74 21 75 22 78 23 76 24 77 25 79 27
REMARK SMILES IDX 80 28 85 29 81 30 84 31 82 32 83 33 10 34 11 35 12 36 13 37
REMARK SMILES IDX 14 39 15 40 16 41 68 42 17 43 67 44 18 45 19 46 20 47 61 48
REMARK SMILES IDX 21 49 66 50 60 51 62 52 22 53 65 54 59 55 58 56 23 58 49 59
REMARK SMILES IDX 32 60 48 61 33 62 36 63 47 64 63 65 34 66 35 67 46 69 64 70
REMARK SMILES IDX 37 71 24 72 25 73 30 74 26 75 27 76 29 77 31 78 28 79 50 80
REMARK SMILES IDX 51 81 56 82 52 83 53 84 55 85 57 86 54 87 38 88 39 89 44 90
REMARK SMILES IDX 40 91 41 92 43 93 45 94 42 95
REMARK H PARENT 7 6 88 13 72 19 76 26 12 38 62 57 36 68
REMARK Flexibility Score: inf
ROOT
ATOM      1  C   UNL A   1      36.803  19.753  25.005  1.00  0.00     0.023 C 
ENDROOT
BRANCH   1   2
ATOM      2  C   UNL A   1      35.740  20.839  25.193  1.00  0.00     0.116 C 
BRANCH   2   3
ATOM      3  N   UNL A   1      34.376  20.338  25.234  1.00  0.00    -0.356 N 
ATOM      4  C   UNL A   1      33.190  20.891  25.600  1.00  0.00     0.226 C 
ATOM      5  O   UNL A   1      32.194  20.165  25.490  1.00  0.00    -0.275 OA
ATOM      6  H   UNL A   1      34.295  19.404  24.932  1.00  0.00     0.163 HD
BRANCH   4   7
ATOM      7  C   UNL A   1      33.010  22.303  26.171  1.00  0.00     0.114 C 
ATOM      8  O   UNL A   1      29.781  23.052  27.503  1.00  0.00    -0.275 OA
ATOM      9  C   UNL A   1      30.836  22.972  26.906  1.00  0.00     0.221 C 
ATOM     10  C   UNL A   1      32.102  22.328  27.407  1.00  0.00     0.116 C 
ATOM     11  N   UNL A   1      31.055  23.418  25.621  1.00  0.00    -0.349 N 
ATOM     12  C   UNL A   1      32.457  23.391  25.224  1.00  0.00     0.063 C 
ATOM     13  H   UNL A   1      30.333  23.728  25.027  1.00  0.00     0.164 HD
ATOM     14  C   UNL A   1      32.611  23.051  23.734  1.00  0.00     0.091 C 
ATOM     15  C   UNL A   1      33.010  24.804  25.578  1.00  0.00     0.091 C 
ATOM     16  C   UNL A   1      33.875  23.589  23.092  1.00  0.00     0.264 C 
ATOM     17  C   UNL A   1      34.110  25.360  24.674  1.00  0.00     0.264 C 
ATOM     18  N   UNL A   1      34.005  25.018  23.267  1.00  0.00    -0.331 N 
ATOM     19  H   UNL A   1      34.907  25.294  22.879  1.00  0.00     0.348 HD
BRANCH  18  20
ATOM     20  C   UNL A   1      33.223  25.879  22.366  1.00  0.00     0.303 C 
BRANCH  20  21
ATOM     21  C   UNL A   1      33.278  27.352  22.635  1.00  0.00     0.052 A 
ATOM     22  C   UNL A   1      34.351  28.194  22.402  1.00  0.00     0.115 A 
ATOM     23  C   UNL A   1      32.232  28.255  23.050  1.00  0.00     0.101 A 
ATOM     24  N   UNL A   1      33.984  29.433  22.816  1.00  0.00    -0.285 N 
ATOM     25  N   UNL A   1      32.713  29.499  23.216  1.00  0.00    -0.175 NA
ATOM     26  H   UNL A   1      34.594  30.205  22.820  1.00  0.00     0.189 HD
BRANCH  23  27
ATOM     27  C   UNL A   1      30.799  28.024  23.251  1.00  0.00     0.003 A 
ATOM     28  C   UNL A   1      30.392  26.838  23.882  1.00  0.00     0.012 A 
ATOM     29  C   UNL A   1      29.817  28.914  22.803  1.00  0.00     0.012 A 
ATOM     30  C   UNL A   1      29.038  26.568  24.097  1.00  0.00     0.021 A 
ATOM     31  C   UNL A   1      28.460  28.650  23.024  1.00  0.00     0.021 A 
ATOM     32  C   UNL A   1      28.078  27.482  23.676  1.00  0.00     0.041 A 
ATOM     33  Cl  UNL A   1      26.410  27.162  23.951  1.00  0.00    -0.084 Cl
ENDBRANCH  23  27
ENDBRANCH  20  21
ENDBRANCH  18  20
ENDBRANCH   4   7
ENDBRANCH   2   3
ENDBRANCH   1   2
BRANCH   1  34
ATOM     34  C   UNL A   1      38.183  20.279  24.632  1.00  0.00     0.023 C 
BRANCH  34  35
ATOM     35  C   UNL A   1      39.143  20.365  25.807  1.00  0.00     0.116 C 
BRANCH  35  36
ATOM     36  N   UNL A   1      40.016  19.201  25.912  1.00  0.00    -0.352 N 
ATOM     37  C   UNL A   1      41.370  19.168  26.140  1.00  0.00     0.251 C 
ATOM     38  H   UNL A   1      39.578  18.326  25.806  1.00  0.00     0.163 HD
ATOM     39  O   UNL A   1      42.003  18.123  26.063  1.00  0.00    -0.269 OA
BRANCH  37  40
ATOM     40  C   UNL A   1      42.051  20.438  26.441  1.00  0.00     0.039 A 
ATOM     41  C   UNL A   1      42.451  21.258  25.387  1.00  0.00     0.014 A 
ATOM     42  C   UNL A   1      42.176  20.856  27.769  1.00  0.00     0.014 A 
ATOM     43  C   UNL A   1      42.903  22.547  25.666  1.00  0.00     0.010 A 
ATOM     44  C   UNL A   1      42.532  22.169  28.035  1.00  0.00     0.010 A 
ATOM     45  C   UNL A   1      42.896  23.028  26.987  1.00  0.00    -0.014 A 
BRANCH  45  46
ATOM     46  C   UNL A   1      43.252  24.432  27.298  1.00  0.00     0.031 A 
ATOM     47  C   UNL A   1      44.689  24.865  27.253  1.00  0.00     0.074 A 
ATOM     48  C   UNL A   1      42.293  25.291  27.699  1.00  0.00     0.049 A 
ATOM     49  N   UNL A   1      45.216  26.017  27.579  1.00  0.00    -0.248 NA
ATOM     50  C   UNL A   1      45.672  23.858  26.814  1.00  0.00     0.031 C 
ATOM     51  C   UNL A   1      40.870  24.972  27.835  1.00  0.00     0.029 A 
ATOM     52  N   UNL A   1      42.374  26.606  28.081  1.00  0.00    -0.354 N 
ATOM     53  C   UNL A   1      46.585  25.867  27.400  1.00  0.00     0.074 A 
ATOM     54  C   UNL A   1      46.816  24.499  26.993  1.00  0.00     0.031 C 
ATOM     55  C   UNL A   1      40.211  26.066  28.249  1.00  0.00     0.029 A 
ATOM     56  C   UNL A   1      41.168  27.148  28.454  1.00  0.00     0.049 A 
ATOM     57  H   UNL A   1      43.218  27.114  28.089  1.00  0.00     0.167 HD
ATOM     58  C   UNL A   1      47.560  26.795  27.539  1.00  0.00     0.037 A 
ATOM     59  C   UNL A   1      40.870  28.375  28.923  1.00  0.00     0.037 A 
ATOM     60  C   UNL A   1      47.320  28.162  27.921  1.00  0.00     0.049 A 
ATOM     61  C   UNL A   1      41.975  29.384  29.081  1.00  0.00     0.074 A 
ATOM     62  C   UNL A   1      48.231  29.198  28.022  1.00  0.00     0.029 A 
ATOM     63  N   UNL A   1      46.083  28.679  28.271  1.00  0.00    -0.354 N 
ATOM     64  N   UNL A   1      43.256  29.254  28.830  1.00  0.00    -0.248 NA
ATOM     65  C   UNL A   1      41.594  30.710  29.583  1.00  0.00     0.031 C 
ATOM     66  C   UNL A   1      47.554  30.328  28.491  1.00  0.00     0.029 A 
ATOM     67  C   UNL A   1      46.211  30.012  28.622  1.00  0.00     0.049 A 
ATOM     68  H   UNL A   1      45.237  28.173  28.271  1.00  0.00     0.167 HD
ATOM     69  C   UNL A   1      43.827  30.487  29.116  1.00  0.00     0.074 A 
ATOM     70  C   UNL A   1      42.751  31.356  29.542  1.00  0.00     0.031 C 
ATOM     71  C   UNL A   1      45.127  30.865  29.038  1.00  0.00     0.037 A 
BRANCH  58  72
ATOM     72  C   UNL A   1      48.974  26.366  27.279  1.00  0.00     0.057 A 
ATOM     73  C   UNL A   1      49.547  26.432  26.002  1.00  0.00     0.134 A 
ATOM     74  C   UNL A   1      49.787  25.920  28.328  1.00  0.00     0.134 A 
ATOM     75  F   UNL A   1      48.820  26.837  24.949  1.00  0.00    -0.206 F 
ATOM     76  C   UNL A   1      50.870  26.051  25.774  1.00  0.00     0.040 A 
ATOM     77  C   UNL A   1      51.120  25.565  28.119  1.00  0.00     0.040 A 
ATOM     78  F   UNL A   1      49.303  25.833  29.576  1.00  0.00    -0.206 F 
ATOM     79  C   UNL A   1      51.664  25.625  26.838  1.00  0.00     0.006 A 
ENDBRANCH  58  72
BRANCH  59  80
ATOM     80  C   UNL A   1      39.470  28.722  29.279  1.00  0.00     0.057 A 
ATOM     81  C   UNL A   1      38.969  28.490  30.565  1.00  0.00     0.134 A 
ATOM     82  C   UNL A   1      38.591  29.271  28.336  1.00  0.00     0.134 A 
ATOM     83  F   UNL A   1      39.755  27.950  31.508  1.00  0.00    -0.206 F 
ATOM     84  C   UNL A   1      37.640  28.763  30.894  1.00  0.00     0.040 A 
ATOM     85  C   UNL A   1      37.269  29.578  28.660  1.00  0.00     0.040 A 
ATOM     86  F   UNL A   1      39.009  29.528  27.088  1.00  0.00    -0.206 F 
ATOM     87  C   UNL A   1      36.787  29.313  29.941  1.00  0.00     0.006 A 
ENDBRANCH  59  80
BRANCH  71  88
ATOM     88  C   UNL A   1      45.451  32.289  29.388  1.00  0.00     0.057 A 
ATOM     89  C   UNL A   1      45.385  33.320  28.443  1.00  0.00     0.134 A 
ATOM     90  C   UNL A   1      45.796  32.637  30.701  1.00  0.00     0.134 A 
ATOM     91  F   UNL A   1      45.072  33.053  27.165  1.00  0.00    -0.206 F 
ATOM     92  C   UNL A   1      45.675  34.641  28.783  1.00  0.00     0.040 A 
ATOM     93  C   UNL A   1      46.057  33.960  31.062  1.00  0.00     0.040 A 
ATOM     94  F   UNL A   1      45.868  31.700  31.659  1.00  0.00    -0.206 F 
ATOM     95  C   UNL A   1      46.005  34.965  30.099  1.00  0.00     0.006 A 
ENDBRANCH  71  88
ENDBRANCH  45  46
ENDBRANCH  37  40
ENDBRANCH  35  36
ENDBRANCH  34  35
ENDBRANCH   1  34
TORSDOF 14
ENDMDL
