MODEL 1
REMARK VINA RESULT:     -11.8      0.000      0.000
REMARK SMILES C[C@H](c1ccc(C(=O)NCCCCNC(=O)c2ccc(-c3c4nc(c(-c5c(F)cccc5F)c5ccc([nH]5)c(-c5c(F)cccc5F)c5nc(c(-c6c(F)cccc6F)c6ccc3[nH]6)C=C5)C=C4)cc2)o1)[NH+]1Cc2ccccc2C1
REMARK SMILES IDX 11 1 10 2 9 3 7 4 8 5 6 7 3 8 4 9 71 10 5 11 2 12 1 13 72 14
REMARK SMILES IDX 73 15 80 16 74 18 79 19 75 20 78 21 76 22 77 23 12 24 13 25
REMARK SMILES IDX 14 26 15 27 16 29 17 30 18 31 70 32 19 33 69 34 20 35 21 36
REMARK SMILES IDX 22 37 63 38 23 39 68 40 62 41 64 42 24 43 67 44 61 45 60 46
REMARK SMILES IDX 25 48 51 49 34 50 50 51 35 52 38 53 49 54 65 55 36 56 37 57
REMARK SMILES IDX 48 59 66 60 39 61 26 62 27 63 32 64 28 65 29 66 31 67 33 68
REMARK SMILES IDX 30 69 52 70 53 71 58 72 54 73 55 74 57 75 59 76 56 77 40 78
REMARK SMILES IDX 41 79 46 80 42 81 43 82 45 83 47 84 44 85
REMARK H PARENT 9 6 72 17 14 28 64 47 38 58
REMARK Flexibility Score: inf
ROOT
ATOM      1  C   UNL A   1      37.131  21.761  24.471  1.00  0.00     0.023 C 
ENDROOT
BRANCH   1   2
ATOM      2  C   UNL A   1      36.641  22.697  25.577  1.00  0.00     0.116 C 
BRANCH   2   3
ATOM      3  N   UNL A   1      35.702  22.040  26.460  1.00  0.00    -0.349 N 
ATOM      4  C   UNL A   1      34.356  21.799  26.291  1.00  0.00     0.287 C 
ATOM      5  O   UNL A   1      33.825  21.072  27.131  1.00  0.00    -0.266 OA
ATOM      6  H   UNL A   1      36.082  21.716  27.309  1.00  0.00     0.163 HD
BRANCH   4   7
ATOM      7  C   UNL A   1      33.635  22.391  25.178  1.00  0.00     0.191 A 
ATOM      8  C   UNL A   1      32.708  24.091  24.106  1.00  0.00     0.162 A 
ATOM      9  C   UNL A   1      32.612  23.000  23.268  1.00  0.00     0.053 A 
ATOM     10  O   UNL A   1      33.329  23.729  25.263  1.00  0.00    -0.450 OA
ATOM     11  C   UNL A   1      33.202  21.918  23.951  1.00  0.00     0.057 A 
BRANCH   8  12
ATOM     12  C   UNL A   1      32.406  25.556  23.907  1.00  0.00     0.248 C 
ATOM     13  C   UNL A   1      32.974  25.926  22.512  1.00  0.00     0.084 C 
BRANCH  12  14
ATOM     14  N   UNL A   1      31.018  25.999  24.282  1.00  0.00    -0.319 N 
ATOM     15  C   UNL A   1      30.662  27.388  23.871  1.00  0.00     0.300 C 
ATOM     16  C   UNL A   1      30.825  26.059  25.763  1.00  0.00     0.300 C 
ATOM     17  H   UNL A   1      30.448  25.304  23.802  1.00  0.00     0.349 HD
ATOM     18  C   UNL A   1      31.169  28.245  24.987  1.00  0.00     0.015 A 
ATOM     19  C   UNL A   1      31.270  27.446  26.130  1.00  0.00     0.015 A 
ATOM     20  C   UNL A   1      31.567  29.567  24.988  1.00  0.00     0.010 A 
ATOM     21  C   UNL A   1      31.796  27.941  27.305  1.00  0.00     0.010 A 
ATOM     22  C   UNL A   1      32.121  30.074  26.163  1.00  0.00     0.001 A 
ATOM     23  C   UNL A   1      32.240  29.267  27.311  1.00  0.00     0.001 A 
ENDBRANCH  12  14
ENDBRANCH   8  12
ENDBRANCH   4   7
ENDBRANCH   2   3
ENDBRANCH   1   2
BRANCH   1  24
ATOM     24  C   UNL A   1      37.777  20.469  24.973  1.00  0.00     0.023 C 
BRANCH  24  25
ATOM     25  C   UNL A   1      38.975  20.658  25.899  1.00  0.00     0.116 C 
BRANCH  25  26
ATOM     26  N   UNL A   1      39.940  19.570  25.835  1.00  0.00    -0.352 N 
ATOM     27  C   UNL A   1      41.285  19.608  26.120  1.00  0.00     0.251 C 
ATOM     28  H   UNL A   1      39.584  18.697  25.552  1.00  0.00     0.163 HD
ATOM     29  O   UNL A   1      41.993  18.625  25.932  1.00  0.00    -0.269 OA
BRANCH  27  30
ATOM     30  C   UNL A   1      41.873  20.869  26.609  1.00  0.00     0.039 A 
ATOM     31  C   UNL A   1      42.375  21.783  25.680  1.00  0.00     0.014 A 
ATOM     32  C   UNL A   1      41.856  21.174  27.973  1.00  0.00     0.014 A 
ATOM     33  C   UNL A   1      42.776  23.047  26.111  1.00  0.00     0.010 A 
ATOM     34  C   UNL A   1      42.199  22.454  28.391  1.00  0.00     0.010 A 
ATOM     35  C   UNL A   1      42.642  23.408  27.462  1.00  0.00    -0.014 A 
BRANCH  35  36
ATOM     36  C   UNL A   1      42.912  24.791  27.924  1.00  0.00     0.031 A 
ATOM     37  C   UNL A   1      44.298  25.190  28.343  1.00  0.00     0.074 A 
ATOM     38  C   UNL A   1      41.888  25.656  28.057  1.00  0.00     0.049 A 
ATOM     39  N   UNL A   1      44.705  26.306  28.890  1.00  0.00    -0.248 NA
ATOM     40  C   UNL A   1      45.360  24.193  28.142  1.00  0.00     0.031 C 
ATOM     41  C   UNL A   1      40.490  25.371  27.723  1.00  0.00     0.029 A 
ATOM     42  N   UNL A   1      41.859  26.943  28.531  1.00  0.00    -0.354 N 
ATOM     43  C   UNL A   1      46.065  26.140  29.113  1.00  0.00     0.074 A 
ATOM     44  C   UNL A   1      46.406  24.802  28.680  1.00  0.00     0.031 C 
ATOM     45  C   UNL A   1      39.744  26.455  27.992  1.00  0.00     0.029 A 
ATOM     46  C   UNL A   1      40.600  27.493  28.558  1.00  0.00     0.049 A 
ATOM     47  H   UNL A   1      42.664  27.428  28.825  1.00  0.00     0.167 HD
ATOM     48  C   UNL A   1      46.952  27.032  29.614  1.00  0.00     0.037 A 
ATOM     49  C   UNL A   1      40.179  28.689  29.008  1.00  0.00     0.037 A 
ATOM     50  C   UNL A   1      46.612  28.369  30.023  1.00  0.00     0.049 A 
ATOM     51  C   UNL A   1      41.180  29.648  29.590  1.00  0.00     0.074 A 
ATOM     52  C   UNL A   1      47.452  29.371  30.477  1.00  0.00     0.029 A 
ATOM     53  N   UNL A   1      45.327  28.891  30.033  1.00  0.00    -0.354 N 
ATOM     54  N   UNL A   1      42.474  29.504  29.733  1.00  0.00    -0.248 NA
ATOM     55  C   UNL A   1      40.659  30.933  30.079  1.00  0.00     0.031 C 
ATOM     56  C   UNL A   1      46.670  30.484  30.805  1.00  0.00     0.029 A 
ATOM     57  C   UNL A   1      45.347  30.189  30.516  1.00  0.00     0.049 A 
ATOM     58  H   UNL A   1      44.520  28.407  29.742  1.00  0.00     0.167 HD
ATOM     59  C   UNL A   1      42.927  30.683  30.312  1.00  0.00     0.074 A 
ATOM     60  C   UNL A   1      41.770  31.539  30.476  1.00  0.00     0.031 C 
ATOM     61  C   UNL A   1      44.186  31.024  30.677  1.00  0.00     0.037 A 
BRANCH  48  62
ATOM     62  C   UNL A   1      48.379  26.589  29.744  1.00  0.00     0.057 A 
ATOM     63  C   UNL A   1      48.841  25.922  30.885  1.00  0.00     0.134 A 
ATOM     64  C   UNL A   1      49.291  26.798  28.702  1.00  0.00     0.134 A 
ATOM     65  F   UNL A   1      48.021  25.703  31.924  1.00  0.00    -0.206 F 
ATOM     66  C   UNL A   1      50.166  25.497  30.996  1.00  0.00     0.040 A 
ATOM     67  C   UNL A   1      50.612  26.356  28.790  1.00  0.00     0.040 A 
ATOM     68  F   UNL A   1      48.911  27.427  27.579  1.00  0.00    -0.206 F 
ATOM     69  C   UNL A   1      51.054  25.708  29.942  1.00  0.00     0.006 A 
ENDBRANCH  48  62
BRANCH  49  70
ATOM     70  C   UNL A   1      38.742  29.051  28.930  1.00  0.00     0.057 A 
ATOM     71  C   UNL A   1      38.184  29.532  27.740  1.00  0.00     0.134 A 
ATOM     72  C   UNL A   1      37.896  28.937  30.040  1.00  0.00     0.134 A 
ATOM     73  F   UNL A   1      38.950  29.683  26.650  1.00  0.00    -0.206 F 
ATOM     74  C   UNL A   1      36.840  29.903  27.661  1.00  0.00     0.040 A 
ATOM     75  C   UNL A   1      36.546  29.282  29.968  1.00  0.00     0.040 A 
ATOM     76  F   UNL A   1      38.369  28.477  31.208  1.00  0.00    -0.206 F 
ATOM     77  C   UNL A   1      36.016  29.773  28.777  1.00  0.00     0.006 A 
ENDBRANCH  49  70
BRANCH  61  78
ATOM     78  C   UNL A   1      44.379  32.384  31.280  1.00  0.00     0.057 A 
ATOM     79  C   UNL A   1      44.342  32.584  32.665  1.00  0.00     0.134 A 
ATOM     80  C   UNL A   1      44.645  33.494  30.471  1.00  0.00     0.134 A 
ATOM     81  F   UNL A   1      44.074  31.563  33.493  1.00  0.00    -0.206 F 
ATOM     82  C   UNL A   1      44.548  33.846  33.224  1.00  0.00     0.040 A 
ATOM     83  C   UNL A   1      44.878  34.756  31.018  1.00  0.00     0.040 A 
ATOM     84  F   UNL A   1      44.701  33.368  29.135  1.00  0.00    -0.206 F 
ATOM     85  C   UNL A   1      44.826  34.935  32.399  1.00  0.00     0.006 A 
ENDBRANCH  61  78
ENDBRANCH  35  36
ENDBRANCH  27  30
ENDBRANCH  25  26
ENDBRANCH  24  25
ENDBRANCH   1  24
TORSDOF 13
ENDMDL
MODEL 2
REMARK VINA RESULT:     -11.8      1.670      6.427
REMARK SMILES C[C@H](c1ccc(C(=O)NCCCCNC(=O)c2ccc(-c3c4nc(c(-c5c(F)cccc5F)c5ccc([nH]5)c(-c5c(F)cccc5F)c5nc(c(-c6c(F)cccc6F)c6ccc3[nH]6)C=C5)C=C4)cc2)o1)[NH+]1Cc2ccccc2C1
REMARK SMILES IDX 11 1 10 2 9 3 7 4 8 5 6 7 3 8 4 9 71 10 5 11 2 12 1 13 72 14
REMARK SMILES IDX 73 15 80 16 74 18 79 19 75 20 78 21 76 22 77 23 12 24 13 25
REMARK SMILES IDX 14 26 15 27 16 29 17 30 18 31 70 32 19 33 69 34 20 35 21 36
REMARK SMILES IDX 22 37 63 38 23 39 68 40 62 41 64 42 24 43 67 44 61 45 60 46
REMARK SMILES IDX 25 48 51 49 34 50 50 51 35 52 38 53 49 54 65 55 36 56 37 57
REMARK SMILES IDX 48 59 66 60 39 61 26 62 27 63 32 64 28 65 29 66 31 67 33 68
REMARK SMILES IDX 30 69 52 70 53 71 58 72 54 73 55 74 57 75 59 76 56 77 40 78
REMARK SMILES IDX 41 79 46 80 42 81 43 82 45 83 47 84 44 85
REMARK H PARENT 9 6 72 17 14 28 64 47 38 58
REMARK Flexibility Score: inf
ROOT
ATOM      1  C   UNL A   1      37.236  21.768  24.478  1.00  0.00     0.023 C 
ENDROOT
BRANCH   1   2
ATOM      2  C   UNL A   1      36.801  22.748  25.569  1.00  0.00     0.116 C 
BRANCH   2   3
ATOM      3  N   UNL A   1      35.877  22.138  26.501  1.00  0.00    -0.349 N 
ATOM      4  C   UNL A   1      34.541  21.836  26.345  1.00  0.00     0.287 C 
ATOM      5  O   UNL A   1      34.028  21.167  27.242  1.00  0.00    -0.266 OA
ATOM      6  H   UNL A   1      36.259  21.905  27.378  1.00  0.00     0.163 HD
BRANCH   4   7
ATOM      7  C   UNL A   1      33.811  22.300  25.179  1.00  0.00     0.191 A 
ATOM      8  C   UNL A   1      32.830  23.863  23.956  1.00  0.00     0.162 A 
ATOM      9  C   UNL A   1      32.789  22.701  23.214  1.00  0.00     0.053 A 
ATOM     10  O   UNL A   1      33.451  23.626  25.146  1.00  0.00    -0.450 OA
ATOM     11  C   UNL A   1      33.413  21.706  23.993  1.00  0.00     0.057 A 
BRANCH   8  12
ATOM     12  C   UNL A   1      32.472  25.292  23.630  1.00  0.00     0.248 C 
ATOM     13  C   UNL A   1      33.139  25.600  22.263  1.00  0.00     0.084 C 
BRANCH  12  14
ATOM     14  N   UNL A   1      31.037  25.679  23.856  1.00  0.00    -0.319 N 
ATOM     15  C   UNL A   1      30.680  27.066  23.440  1.00  0.00     0.300 C 
ATOM     16  C   UNL A   1      30.677  25.693  25.307  1.00  0.00     0.300 C 
ATOM     17  H   UNL A   1      30.548  24.979  23.299  1.00  0.00     0.349 HD
ATOM     18  C   UNL A   1      31.028  27.909  24.625  1.00  0.00     0.015 A 
ATOM     19  C   UNL A   1      31.029  27.083  25.754  1.00  0.00     0.015 A 
ATOM     20  C   UNL A   1      31.377  29.243  24.701  1.00  0.00     0.010 A 
ATOM     21  C   UNL A   1      31.403  27.563  26.992  1.00  0.00     0.010 A 
ATOM     22  C   UNL A   1      31.778  29.736  25.943  1.00  0.00     0.001 A 
ATOM     23  C   UNL A   1      31.796  28.902  27.078  1.00  0.00     0.001 A 
ENDBRANCH  12  14
ENDBRANCH   8  12
ENDBRANCH   4   7
ENDBRANCH   2   3
ENDBRANCH   1   2
BRANCH   1  24
ATOM     24  C   UNL A   1      37.844  20.466  25.001  1.00  0.00     0.023 C 
BRANCH  24  25
ATOM     25  C   UNL A   1      39.156  20.621  25.764  1.00  0.00     0.116 C 
BRANCH  25  26
ATOM     26  N   UNL A   1      39.978  19.420  25.761  1.00  0.00    -0.352 N 
ATOM     27  C   UNL A   1      41.327  19.310  26.009  1.00  0.00     0.251 C 
ATOM     28  H   UNL A   1      39.510  18.579  25.555  1.00  0.00     0.163 HD
ATOM     29  O   UNL A   1      41.903  18.236  25.881  1.00  0.00    -0.269 OA
BRANCH  27  30
ATOM     30  C   UNL A   1      42.081  20.522  26.385  1.00  0.00     0.039 A 
ATOM     31  C   UNL A   1      42.657  21.296  25.376  1.00  0.00     0.014 A 
ATOM     32  C   UNL A   1      42.149  20.925  27.722  1.00  0.00     0.014 A 
ATOM     33  C   UNL A   1      43.224  22.529  25.698  1.00  0.00     0.010 A 
ATOM     34  C   UNL A   1      42.659  22.180  28.031  1.00  0.00     0.010 A 
ATOM     35  C   UNL A   1      43.183  23.001  27.020  1.00  0.00    -0.014 A 
BRANCH  35  36
ATOM     36  C   UNL A   1      43.635  24.370  27.368  1.00  0.00     0.031 A 
ATOM     37  C   UNL A   1      42.637  25.410  27.787  1.00  0.00     0.074 A 
ATOM     38  C   UNL A   1      44.932  24.698  27.211  1.00  0.00     0.049 A 
ATOM     39  N   UNL A   1      42.820  26.686  28.008  1.00  0.00    -0.248 NA
ATOM     40  C   UNL A   1      41.247  24.961  27.955  1.00  0.00     0.031 C 
ATOM     41  C   UNL A   1      45.989  23.784  26.769  1.00  0.00     0.029 A 
ATOM     42  N   UNL A   1      45.580  25.895  27.383  1.00  0.00    -0.354 N 
ATOM     43  C   UNL A   1      41.568  27.195  28.326  1.00  0.00     0.074 A 
ATOM     44  C   UNL A   1      40.628  26.100  28.229  1.00  0.00     0.031 C 
ATOM     45  C   UNL A   1      47.153  24.453  26.716  1.00  0.00     0.029 A 
ATOM     46  C   UNL A   1      46.918  25.847  27.075  1.00  0.00     0.049 A 
ATOM     47  H   UNL A   1      45.128  26.712  27.697  1.00  0.00     0.167 HD
ATOM     48  C   UNL A   1      41.238  28.458  28.687  1.00  0.00     0.037 A 
ATOM     49  C   UNL A   1      47.847  26.822  27.063  1.00  0.00     0.037 A 
ATOM     50  C   UNL A   1      42.180  29.540  28.803  1.00  0.00     0.049 A 
ATOM     51  C   UNL A   1      47.446  28.222  27.436  1.00  0.00     0.074 A 
ATOM     52  C   UNL A   1      41.955  30.837  29.228  1.00  0.00     0.029 A 
ATOM     53  N   UNL A   1      43.527  29.452  28.485  1.00  0.00    -0.354 N 
ATOM     54  N   UNL A   1      46.272  28.676  27.800  1.00  0.00    -0.248 NA
ATOM     55  C   UNL A   1      48.499  29.246  27.390  1.00  0.00     0.031 C 
ATOM     56  C   UNL A   1      43.156  31.547  29.126  1.00  0.00     0.029 A 
ATOM     57  C   UNL A   1      44.139  30.680  28.675  1.00  0.00     0.049 A 
ATOM     58  H   UNL A   1      43.980  28.637  28.169  1.00  0.00     0.167 HD
ATOM     59  C   UNL A   1      46.446  30.032  28.042  1.00  0.00     0.074 A 
ATOM     60  C   UNL A   1      47.844  30.323  27.802  1.00  0.00     0.031 C 
ATOM     61  C   UNL A   1      45.530  30.953  28.426  1.00  0.00     0.037 A 
BRANCH  48  62
ATOM     62  C   UNL A   1      39.795  28.737  28.986  1.00  0.00     0.057 A 
ATOM     63  C   UNL A   1      39.272  28.607  30.278  1.00  0.00     0.134 A 
ATOM     64  C   UNL A   1      38.927  29.177  27.978  1.00  0.00     0.134 A 
ATOM     65  F   UNL A   1      40.048  28.177  31.285  1.00  0.00    -0.206 F 
ATOM     66  C   UNL A   1      37.932  28.883  30.556  1.00  0.00     0.040 A 
ATOM     67  C   UNL A   1      37.592  29.480  28.247  1.00  0.00     0.040 A 
ATOM     68  F   UNL A   1      39.366  29.328  26.719  1.00  0.00    -0.206 F 
ATOM     69  C   UNL A   1      37.090  29.328  29.539  1.00  0.00     0.006 A 
ENDBRANCH  48  62
BRANCH  49  70
ATOM     70  C   UNL A   1      49.247  26.512  26.683  1.00  0.00     0.057 A 
ATOM     71  C   UNL A   1      50.183  26.115  27.644  1.00  0.00     0.134 A 
ATOM     72  C   UNL A   1      49.687  26.615  25.357  1.00  0.00     0.134 A 
ATOM     73  F   UNL A   1      49.825  26.018  28.933  1.00  0.00    -0.206 F 
ATOM     74  C   UNL A   1      51.510  25.847  27.305  1.00  0.00     0.040 A 
ATOM     75  C   UNL A   1      51.005  26.328  25.001  1.00  0.00     0.040 A 
ATOM     76  F   UNL A   1      48.836  26.986  24.389  1.00  0.00    -0.206 F 
ATOM     77  C   UNL A   1      51.922  25.949  25.978  1.00  0.00     0.006 A 
ENDBRANCH  49  70
BRANCH  61  78
ATOM     78  C   UNL A   1      46.013  32.360  28.620  1.00  0.00     0.057 A 
ATOM     79  C   UNL A   1      45.963  33.301  27.585  1.00  0.00     0.134 A 
ATOM     80  C   UNL A   1      46.495  32.787  29.863  1.00  0.00     0.134 A 
ATOM     81  F   UNL A   1      45.529  32.950  26.365  1.00  0.00    -0.206 F 
ATOM     82  C   UNL A   1      46.390  34.616  27.776  1.00  0.00     0.040 A 
ATOM     83  C   UNL A   1      46.900  34.104  30.075  1.00  0.00     0.040 A 
ATOM     84  F   UNL A   1      46.562  31.934  30.898  1.00  0.00    -0.206 F 
ATOM     85  C   UNL A   1      46.852  35.023  29.027  1.00  0.00     0.006 A 
ENDBRANCH  61  78
ENDBRANCH  35  36
ENDBRANCH  27  30
ENDBRANCH  25  26
ENDBRANCH  24  25
ENDBRANCH   1  24
TORSDOF 13
ENDMDL
MODEL 3
REMARK VINA RESULT:     -11.8      0.960      6.356
REMARK SMILES C[C@H](c1ccc(C(=O)NCCCCNC(=O)c2ccc(-c3c4nc(c(-c5c(F)cccc5F)c5ccc([nH]5)c(-c5c(F)cccc5F)c5nc(c(-c6c(F)cccc6F)c6ccc3[nH]6)C=C5)C=C4)cc2)o1)[NH+]1Cc2ccccc2C1
REMARK SMILES IDX 11 1 10 2 9 3 7 4 8 5 6 7 3 8 4 9 71 10 5 11 2 12 1 13 72 14
REMARK SMILES IDX 73 15 80 16 74 18 79 19 75 20 78 21 76 22 77 23 12 24 13 25
REMARK SMILES IDX 14 26 15 27 16 29 17 30 18 31 70 32 19 33 69 34 20 35 21 36
REMARK SMILES IDX 22 37 63 38 23 39 68 40 62 41 64 42 24 43 67 44 61 45 60 46
REMARK SMILES IDX 25 48 51 49 34 50 50 51 35 52 38 53 49 54 65 55 36 56 37 57
REMARK SMILES IDX 48 59 66 60 39 61 26 62 27 63 32 64 28 65 29 66 31 67 33 68
REMARK SMILES IDX 30 69 52 70 53 71 58 72 54 73 55 74 57 75 59 76 56 77 40 78
REMARK SMILES IDX 41 79 46 80 42 81 43 82 45 83 47 84 44 85
REMARK H PARENT 9 6 72 17 14 28 64 47 38 58
REMARK Flexibility Score: inf
ROOT
ATOM      1  C   UNL A   1      36.365  20.341  24.915  1.00  0.00     0.023 C 
ENDROOT
BRANCH   1   2
ATOM      2  C   UNL A   1      35.172  20.996  25.612  1.00  0.00     0.116 C 
BRANCH   2   3
ATOM      3  N   UNL A   1      34.084  20.062  25.806  1.00  0.00    -0.349 N 
ATOM      4  C   UNL A   1      32.874  19.972  25.153  1.00  0.00     0.287 C 
ATOM      5  O   UNL A   1      32.194  18.977  25.404  1.00  0.00    -0.266 OA
ATOM      6  H   UNL A   1      34.230  19.390  26.511  1.00  0.00     0.163 HD
BRANCH   4   7
ATOM      7  C   UNL A   1      32.454  21.013  24.231  1.00  0.00     0.191 A 
ATOM      8  C   UNL A   1      31.940  23.103  23.714  1.00  0.00     0.162 A 
ATOM      9  C   UNL A   1      31.900  22.386  22.536  1.00  0.00     0.053 A 
ATOM     10  O   UNL A   1      32.277  22.276  24.744  1.00  0.00    -0.450 OA
ATOM     11  C   UNL A   1      32.227  21.056  22.866  1.00  0.00     0.057 A 
BRANCH   8  12
ATOM     12  C   UNL A   1      31.837  24.579  24.011  1.00  0.00     0.248 C 
ATOM     13  C   UNL A   1      31.164  25.221  22.770  1.00  0.00     0.084 C 
BRANCH  12  14
ATOM     14  N   UNL A   1      31.349  24.941  25.387  1.00  0.00    -0.319 N 
ATOM     15  C   UNL A   1      30.523  26.180  25.462  1.00  0.00     0.300 C 
ATOM     16  C   UNL A   1      32.473  25.265  26.318  1.00  0.00     0.300 C 
ATOM     17  H   UNL A   1      30.811  24.111  25.635  1.00  0.00     0.349 HD
ATOM     18  C   UNL A   1      31.524  27.284  25.596  1.00  0.00     0.015 A 
ATOM     19  C   UNL A   1      32.703  26.734  26.111  1.00  0.00     0.015 A 
ATOM     20  C   UNL A   1      31.439  28.615  25.239  1.00  0.00     0.010 A 
ATOM     21  C   UNL A   1      33.842  27.498  26.262  1.00  0.00     0.010 A 
ATOM     22  C   UNL A   1      32.590  29.393  25.367  1.00  0.00     0.001 A 
ATOM     23  C   UNL A   1      33.783  28.838  25.869  1.00  0.00     0.001 A 
ENDBRANCH  12  14
ENDBRANCH   8  12
ENDBRANCH   4   7
ENDBRANCH   2   3
ENDBRANCH   1   2
BRANCH   1  24
ATOM     24  C   UNL A   1      37.568  21.264  24.715  1.00  0.00     0.023 C 
BRANCH  24  25
ATOM     25  C   UNL A   1      38.635  21.186  25.802  1.00  0.00     0.116 C 
BRANCH  25  26
ATOM     26  N   UNL A   1      39.512  20.030  25.677  1.00  0.00    -0.352 N 
ATOM     27  C   UNL A   1      40.847  19.937  25.992  1.00  0.00     0.251 C 
ATOM     28  H   UNL A   1      39.096  19.213  25.321  1.00  0.00     0.163 HD
ATOM     29  O   UNL A   1      41.480  18.917  25.746  1.00  0.00    -0.269 OA
BRANCH  27  30
ATOM     30  C   UNL A   1      41.521  21.107  26.588  1.00  0.00     0.039 A 
ATOM     31  C   UNL A   1      42.070  22.071  25.741  1.00  0.00     0.014 A 
ATOM     32  C   UNL A   1      41.537  21.282  27.975  1.00  0.00     0.014 A 
ATOM     33  C   UNL A   1      42.557  23.261  26.282  1.00  0.00     0.010 A 
ATOM     34  C   UNL A   1      41.966  22.493  28.506  1.00  0.00     0.010 A 
ATOM     35  C   UNL A   1      42.461  23.500  27.662  1.00  0.00    -0.014 A 
BRANCH  35  36
ATOM     36  C   UNL A   1      42.824  24.813  28.248  1.00  0.00     0.031 A 
ATOM     37  C   UNL A   1      41.775  25.871  28.437  1.00  0.00     0.074 A 
ATOM     38  C   UNL A   1      44.116  25.083  28.516  1.00  0.00     0.049 A 
ATOM     39  N   UNL A   1      41.918  27.115  28.813  1.00  0.00    -0.248 NA
ATOM     40  C   UNL A   1      40.388  25.484  28.142  1.00  0.00     0.031 C 
ATOM     41  C   UNL A   1      45.232  24.151  28.333  1.00  0.00     0.029 A 
ATOM     42  N   UNL A   1      44.714  26.228  28.978  1.00  0.00    -0.354 N 
ATOM     43  C   UNL A   1      40.643  27.664  28.785  1.00  0.00     0.074 A 
ATOM     44  C   UNL A   1      39.746  26.630  28.316  1.00  0.00     0.031 C 
ATOM     45  C   UNL A   1      46.375  24.759  28.690  1.00  0.00     0.029 A 
ATOM     46  C   UNL A   1      46.081  26.133  29.083  1.00  0.00     0.049 A 
ATOM     47  H   UNL A   1      44.211  27.042  29.213  1.00  0.00     0.167 HD
ATOM     48  C   UNL A   1      40.254  28.912  29.139  1.00  0.00     0.037 A 
ATOM     49  C   UNL A   1      46.996  27.055  29.435  1.00  0.00     0.037 A 
ATOM     50  C   UNL A   1      41.146  29.931  29.626  1.00  0.00     0.049 A 
ATOM     51  C   UNL A   1      46.540  28.443  29.791  1.00  0.00     0.074 A 
ATOM     52  C   UNL A   1      40.839  31.203  30.076  1.00  0.00     0.029 A 
ATOM     53  N   UNL A   1      42.523  29.796  29.720  1.00  0.00    -0.354 N 
ATOM     54  N   UNL A   1      45.324  28.929  29.824  1.00  0.00    -0.248 NA
ATOM     55  C   UNL A   1      47.586  29.411  30.152  1.00  0.00     0.031 C 
ATOM     56  C   UNL A   1      42.034  31.854  30.401  1.00  0.00     0.029 A 
ATOM     57  C   UNL A   1      43.083  30.973  30.191  1.00  0.00     0.049 A 
ATOM     58  H   UNL A   1      43.028  28.984  29.485  1.00  0.00     0.167 HD
ATOM     59  C   UNL A   1      45.454  30.253  30.225  1.00  0.00     0.074 A 
ATOM     60  C   UNL A   1      46.867  30.487  30.441  1.00  0.00     0.031 C 
ATOM     61  C   UNL A   1      44.490  31.190  30.396  1.00  0.00     0.037 A 
BRANCH  48  62
ATOM     62  C   UNL A   1      38.796  29.244  29.015  1.00  0.00     0.057 A 
ATOM     63  C   UNL A   1      38.221  29.583  27.784  1.00  0.00     0.134 A 
ATOM     64  C   UNL A   1      37.952  29.185  30.130  1.00  0.00     0.134 A 
ATOM     65  F   UNL A   1      38.978  29.669  26.680  1.00  0.00    -0.206 F 
ATOM     66  C   UNL A   1      36.861  29.874  27.670  1.00  0.00     0.040 A 
ATOM     67  C   UNL A   1      36.585  29.450  30.025  1.00  0.00     0.040 A 
ATOM     68  F   UNL A   1      38.439  28.861  31.338  1.00  0.00    -0.206 F 
ATOM     69  C   UNL A   1      36.038  29.801  28.792  1.00  0.00     0.006 A 
ENDBRANCH  48  62
BRANCH  49  70
ATOM     70  C   UNL A   1      48.437  26.701  29.466  1.00  0.00     0.057 A 
ATOM     71  C   UNL A   1      49.263  26.950  28.365  1.00  0.00     0.134 A 
ATOM     72  C   UNL A   1      49.019  26.099  30.588  1.00  0.00     0.134 A 
ATOM     73  F   UNL A   1      48.757  27.507  27.255  1.00  0.00    -0.206 F 
ATOM     74  C   UNL A   1      50.614  26.598  28.371  1.00  0.00     0.040 A 
ATOM     75  C   UNL A   1      50.373  25.762  30.615  1.00  0.00     0.040 A 
ATOM     76  F   UNL A   1      48.281  25.838  31.677  1.00  0.00    -0.206 F 
ATOM     77  C   UNL A   1      51.173  26.005  29.502  1.00  0.00     0.006 A 
ENDBRANCH  49  70
BRANCH  61  78
ATOM     78  C   UNL A   1      44.932  32.550  30.847  1.00  0.00     0.057 A 
ATOM     79  C   UNL A   1      45.240  33.563  29.931  1.00  0.00     0.134 A 
ATOM     80  C   UNL A   1      45.008  32.862  32.210  1.00  0.00     0.134 A 
ATOM     81  F   UNL A   1      45.203  33.321  28.612  1.00  0.00    -0.206 F 
ATOM     82  C   UNL A   1      45.625  34.835  30.355  1.00  0.00     0.040 A 
ATOM     83  C   UNL A   1      45.367  34.138  32.647  1.00  0.00     0.040 A 
ATOM     84  F   UNL A   1      44.718  31.937  33.139  1.00  0.00    -0.206 F 
ATOM     85  C   UNL A   1      45.681  35.128  31.717  1.00  0.00     0.006 A 
ENDBRANCH  61  78
ENDBRANCH  35  36
ENDBRANCH  27  30
ENDBRANCH  25  26
ENDBRANCH  24  25
ENDBRANCH   1  24
TORSDOF 13
ENDMDL
