MODEL 1
REMARK VINA RESULT:     -11.6      0.000      0.000
REMARK SMILES O=C(C[C@H]1C[C@H]2CC[C@@H](C1)N2C(=O)c1c[nH]c(=O)[nH]1)NCCCCNC(=O)c1ccc(-c2c3nc(c(-c4c(F)cccc4F)c4ccc([nH]4)c(-c4c(F)cccc4F)c4nc(c(-c5c(F)cccc5F)c5ccc2[nH]5)C=C4)C=C3)cc1
REMARK SMILES IDX 22 1 21 2 20 3 1 4 2 5 3 7 4 8 5 9 10 10 6 11 9 12 7 13
REMARK SMILES IDX 11 14 8 15 12 16 13 17 14 18 15 19 19 20 16 21 17 22 18 25
REMARK SMILES IDX 23 26 24 27 25 28 26 29 27 31 28 32 29 33 81 34 30 35 80 36
REMARK SMILES IDX 31 37 32 38 33 39 74 40 34 41 79 42 73 43 75 44 35 45 78 46
REMARK SMILES IDX 72 47 71 48 36 50 62 51 45 52 61 53 46 54 49 55 60 56 76 57
REMARK SMILES IDX 47 58 48 59 59 61 77 62 50 63 37 64 38 65 43 66 39 67 40 68
REMARK SMILES IDX 42 69 44 70 41 71 63 72 64 73 69 74 65 75 66 76 68 77 70 78
REMARK SMILES IDX 67 79 51 80 52 81 57 82 53 83 54 84 56 85 58 86 55 87
REMARK H PARENT 20 6 19 23 16 24 25 30 75 49 49 60
REMARK Flexibility Score: inf
ROOT
ATOM      1  C   UNL A   1      34.704  33.704  29.349  1.00  0.00     0.023 C 
ENDROOT
BRANCH   1   2
ATOM      2  C   UNL A   1      35.405  33.007  28.182  1.00  0.00     0.116 C 
BRANCH   2   3
ATOM      3  N   UNL A   1      34.774  31.778  27.712  1.00  0.00    -0.356 N 
ATOM      4  O   UNL A   1      36.718  30.553  27.692  1.00  0.00    -0.275 OA
ATOM      5  C   UNL A   1      35.495  30.599  27.593  1.00  0.00     0.220 C 
ATOM      6  H   UNL A   1      33.819  31.787  27.476  1.00  0.00     0.163 HD
BRANCH   5   7
ATOM      7  C   UNL A   1      34.671  29.332  27.388  1.00  0.00     0.103 C 
BRANCH   7   8
ATOM      8  C   UNL A   1      33.986  29.106  26.013  1.00  0.00     0.002 C 
ATOM      9  C   UNL A   1      33.962  27.651  25.441  1.00  0.00     0.029 C 
ATOM     10  C   UNL A   1      32.629  29.804  25.866  1.00  0.00     0.029 C 
ATOM     11  C   UNL A   1      32.572  26.961  25.373  1.00  0.00     0.086 C 
ATOM     12  C   UNL A   1      31.422  28.871  25.992  1.00  0.00     0.086 C 
ATOM     13  C   UNL A   1      32.098  26.646  26.787  1.00  0.00     0.027 C 
ATOM     14  N   UNL A   1      31.555  27.908  24.921  1.00  0.00    -0.331 N 
ATOM     15  C   UNL A   1      31.320  27.906  27.181  1.00  0.00     0.027 C 
BRANCH  14  16
ATOM     16  C   UNL A   1      30.494  27.577  24.095  1.00  0.00     0.272 C 
ATOM     17  O   UNL A   1      29.797  26.579  24.231  1.00  0.00    -0.267 OA
BRANCH  16  18
ATOM     18  C   UNL A   1      30.194  28.579  23.036  1.00  0.00     0.125 A 
ATOM     19  C   UNL A   1      31.079  29.282  22.313  1.00  0.00     0.119 A 
ATOM     20  N   UNL A   1      28.924  28.982  22.690  1.00  0.00    -0.302 N 
ATOM     21  N   UNL A   1      30.389  30.154  21.508  1.00  0.00    -0.312 N 
ATOM     22  C   UNL A   1      29.014  29.988  21.725  1.00  0.00     0.323 A 
ATOM     23  H   UNL A   1      28.088  28.620  23.064  1.00  0.00     0.172 HD
ATOM     24  H   UNL A   1      30.795  30.794  20.880  1.00  0.00     0.171 HD
ATOM     25  O   UNL A   1      28.110  30.619  21.204  1.00  0.00    -0.248 OA
ENDBRANCH  16  18
ENDBRANCH  14  16
ENDBRANCH   7   8
ENDBRANCH   5   7
ENDBRANCH   2   3
ENDBRANCH   1   2
BRANCH   1  26
ATOM     26  C   UNL A   1      33.437  34.504  29.023  1.00  0.00     0.023 C 
BRANCH  26  27
ATOM     27  C   UNL A   1      33.381  35.949  29.523  1.00  0.00     0.116 C 
BRANCH  27  28
ATOM     28  N   UNL A   1      32.496  36.141  30.662  1.00  0.00    -0.352 N 
ATOM     29  C   UNL A   1      32.603  35.731  31.973  1.00  0.00     0.251 C 
ATOM     30  H   UNL A   1      31.680  36.655  30.462  1.00  0.00     0.163 HD
ATOM     31  O   UNL A   1      31.655  35.903  32.735  1.00  0.00    -0.269 OA
BRANCH  29  32
ATOM     32  C   UNL A   1      33.821  35.050  32.478  1.00  0.00     0.039 A 
ATOM     33  C   UNL A   1      33.706  33.752  32.991  1.00  0.00     0.014 A 
ATOM     34  C   UNL A   1      35.063  35.684  32.498  1.00  0.00     0.014 A 
ATOM     35  C   UNL A   1      34.845  33.065  33.429  1.00  0.00     0.010 A 
ATOM     36  C   UNL A   1      36.208  34.974  32.865  1.00  0.00     0.010 A 
ATOM     37  C   UNL A   1      36.116  33.651  33.324  1.00  0.00    -0.014 A 
BRANCH  37  38
ATOM     38  C   UNL A   1      37.352  32.885  33.651  1.00  0.00     0.031 A 
ATOM     39  C   UNL A   1      38.141  33.180  34.900  1.00  0.00     0.074 A 
ATOM     40  C   UNL A   1      37.812  31.963  32.780  1.00  0.00     0.049 A 
ATOM     41  N   UNL A   1      39.265  32.645  35.311  1.00  0.00    -0.248 NA
ATOM     42  C   UNL A   1      37.615  34.225  35.789  1.00  0.00     0.031 C 
ATOM     43  C   UNL A   1      37.178  31.614  31.507  1.00  0.00     0.029 A 
ATOM     44  N   UNL A   1      38.925  31.157  32.825  1.00  0.00    -0.354 N 
ATOM     45  C   UNL A   1      39.577  33.286  36.504  1.00  0.00     0.074 A 
ATOM     46  C   UNL A   1      38.558  34.291  36.717  1.00  0.00     0.031 C 
ATOM     47  C   UNL A   1      37.899  30.655  30.903  1.00  0.00     0.029 A 
ATOM     48  C   UNL A   1      39.065  30.347  31.723  1.00  0.00     0.049 A 
ATOM     49  H   UNL A   1      39.562  31.161  33.576  1.00  0.00     0.167 HD
ATOM     50  C   UNL A   1      40.605  33.047  37.356  1.00  0.00     0.037 A 
ATOM     51  C   UNL A   1      40.029  29.462  31.399  1.00  0.00     0.037 A 
ATOM     52  C   UNL A   1      41.624  32.049  37.146  1.00  0.00     0.049 A 
ATOM     53  C   UNL A   1      41.175  29.235  32.346  1.00  0.00     0.074 A 
ATOM     54  C   UNL A   1      42.676  31.706  37.977  1.00  0.00     0.029 A 
ATOM     55  N   UNL A   1      41.723  31.243  36.022  1.00  0.00    -0.354 N 
ATOM     56  N   UNL A   1      41.413  29.798  33.505  1.00  0.00    -0.248 NA
ATOM     57  C   UNL A   1      42.182  28.242  31.944  1.00  0.00     0.031 C 
ATOM     58  C   UNL A   1      43.446  30.731  37.331  1.00  0.00     0.029 A 
ATOM     59  C   UNL A   1      42.838  30.424  36.125  1.00  0.00     0.049 A 
ATOM     60  H   UNL A   1      41.097  31.251  35.264  1.00  0.00     0.167 HD
ATOM     61  C   UNL A   1      42.576  29.209  33.983  1.00  0.00     0.074 A 
ATOM     62  C   UNL A   1      42.988  28.233  32.996  1.00  0.00     0.031 C 
ATOM     63  C   UNL A   1      43.242  29.454  35.139  1.00  0.00     0.037 A 
BRANCH  50  64
ATOM     64  C   UNL A   1      40.679  33.884  38.602  1.00  0.00     0.057 A 
ATOM     65  C   UNL A   1      41.469  35.039  38.670  1.00  0.00     0.134 A 
ATOM     66  C   UNL A   1      39.921  33.556  39.735  1.00  0.00     0.134 A 
ATOM     67  F   UNL A   1      42.223  35.410  37.624  1.00  0.00    -0.206 F 
ATOM     68  C   UNL A   1      41.529  35.818  39.828  1.00  0.00     0.040 A 
ATOM     69  C   UNL A   1      39.947  34.345  40.886  1.00  0.00     0.040 A 
ATOM     70  F   UNL A   1      39.131  32.470  39.736  1.00  0.00    -0.206 F 
ATOM     71  C   UNL A   1      40.761  35.475  40.937  1.00  0.00     0.006 A 
ENDBRANCH  50  64
BRANCH  51  72
ATOM     72  C   UNL A   1      39.946  28.711  30.119  1.00  0.00     0.057 A 
ATOM     73  C   UNL A   1      39.248  27.500  30.033  1.00  0.00     0.134 A 
ATOM     74  C   UNL A   1      40.571  29.177  28.956  1.00  0.00     0.134 A 
ATOM     75  F   UNL A   1      38.645  26.990  31.117  1.00  0.00    -0.206 F 
ATOM     76  C   UNL A   1      39.191  26.770  28.844  1.00  0.00     0.040 A 
ATOM     77  C   UNL A   1      40.498  28.472  27.753  1.00  0.00     0.040 A 
ATOM     78  F   UNL A   1      41.250  30.334  28.969  1.00  0.00    -0.206 F 
ATOM     79  C   UNL A   1      39.813  27.261  27.697  1.00  0.00     0.006 A 
ENDBRANCH  51  72
BRANCH  63  80
ATOM     80  C   UNL A   1      44.467  28.630  35.419  1.00  0.00     0.057 A 
ATOM     81  C   UNL A   1      45.748  29.047  35.033  1.00  0.00     0.134 A 
ATOM     82  C   UNL A   1      44.366  27.418  36.115  1.00  0.00     0.134 A 
ATOM     83  F   UNL A   1      45.914  30.190  34.351  1.00  0.00    -0.206 F 
ATOM     84  C   UNL A   1      46.879  28.278  35.308  1.00  0.00     0.040 A 
ATOM     85  C   UNL A   1      45.494  26.656  36.423  1.00  0.00     0.040 A 
ATOM     86  F   UNL A   1      43.171  26.963  36.522  1.00  0.00    -0.206 F 
ATOM     87  C   UNL A   1      46.755  27.081  36.012  1.00  0.00     0.006 A 
ENDBRANCH  63  80
ENDBRANCH  37  38
ENDBRANCH  29  32
ENDBRANCH  27  28
ENDBRANCH  26  27
ENDBRANCH   1  26
TORSDOF 14
ENDMDL
MODEL 2
REMARK VINA RESULT:     -11.5      4.863      7.395
REMARK SMILES O=C(C[C@H]1C[C@H]2CC[C@@H](C1)N2C(=O)c1c[nH]c(=O)[nH]1)NCCCCNC(=O)c1ccc(-c2c3nc(c(-c4c(F)cccc4F)c4ccc([nH]4)c(-c4c(F)cccc4F)c4nc(c(-c5c(F)cccc5F)c5ccc2[nH]5)C=C4)C=C3)cc1
REMARK SMILES IDX 22 1 21 2 20 3 1 4 2 5 3 7 4 8 5 9 10 10 6 11 9 12 7 13
REMARK SMILES IDX 11 14 8 15 12 16 13 17 14 18 15 19 19 20 16 21 17 22 18 25
REMARK SMILES IDX 23 26 24 27 25 28 26 29 27 31 28 32 29 33 81 34 30 35 80 36
REMARK SMILES IDX 31 37 32 38 33 39 74 40 34 41 79 42 73 43 75 44 35 45 78 46
REMARK SMILES IDX 72 47 71 48 36 50 62 51 45 52 61 53 46 54 49 55 60 56 76 57
REMARK SMILES IDX 47 58 48 59 59 61 77 62 50 63 37 64 38 65 43 66 39 67 40 68
REMARK SMILES IDX 42 69 44 70 41 71 63 72 64 73 69 74 65 75 66 76 68 77 70 78
REMARK SMILES IDX 67 79 51 80 52 81 57 82 53 83 54 84 56 85 58 86 55 87
REMARK H PARENT 20 6 19 23 16 24 25 30 75 49 49 60
REMARK Flexibility Score: inf
ROOT
ATOM      1  C   UNL A   1      33.634  29.093  24.744  1.00  0.00     0.023 C 
ENDROOT
BRANCH   1   2
ATOM      2  C   UNL A   1      33.562  28.430  23.368  1.00  0.00     0.116 C 
BRANCH   2   3
ATOM      3  N   UNL A   1      32.655  27.292  23.265  1.00  0.00    -0.356 N 
ATOM      4  O   UNL A   1      33.686  26.383  21.423  1.00  0.00    -0.275 OA
ATOM      5  C   UNL A   1      32.860  26.290  22.327  1.00  0.00     0.220 C 
ATOM      6  H   UNL A   1      31.883  27.235  23.872  1.00  0.00     0.163 HD
BRANCH   5   7
ATOM      7  C   UNL A   1      32.034  25.022  22.516  1.00  0.00     0.103 C 
BRANCH   7   8
ATOM      8  C   UNL A   1      32.755  23.728  22.982  1.00  0.00     0.002 C 
ATOM      9  C   UNL A   1      34.048  23.886  23.846  1.00  0.00     0.029 C 
ATOM     10  C   UNL A   1      31.815  22.655  23.544  1.00  0.00     0.029 C 
ATOM     11  C   UNL A   1      33.945  23.434  25.328  1.00  0.00     0.086 C 
ATOM     12  C   UNL A   1      31.827  22.543  25.070  1.00  0.00     0.086 C 
ATOM     13  C   UNL A   1      33.056  24.410  26.089  1.00  0.00     0.027 C 
ATOM     14  N   UNL A   1      33.183  22.192  25.431  1.00  0.00    -0.331 N 
ATOM     15  C   UNL A   1      31.658  23.802  25.932  1.00  0.00     0.027 C 
BRANCH  14  16
ATOM     16  C   UNL A   1      33.465  21.175  26.327  1.00  0.00     0.272 C 
ATOM     17  O   UNL A   1      33.730  21.350  27.510  1.00  0.00    -0.267 OA
BRANCH  16  18
ATOM     18  C   UNL A   1      33.352  19.802  25.765  1.00  0.00     0.125 A 
ATOM     19  C   UNL A   1      33.635  19.414  24.513  1.00  0.00     0.119 A 
ATOM     20  N   UNL A   1      32.862  18.720  26.461  1.00  0.00    -0.302 N 
ATOM     21  N   UNL A   1      33.315  18.085  24.385  1.00  0.00    -0.312 N 
ATOM     22  C   UNL A   1      32.820  17.614  25.609  1.00  0.00     0.323 A 
ATOM     23  H   UNL A   1      32.585  18.725  27.406  1.00  0.00     0.172 HD
ATOM     24  H   UNL A   1      33.417  17.550  23.566  1.00  0.00     0.171 HD
ATOM     25  O   UNL A   1      32.410  16.490  25.848  1.00  0.00    -0.248 OA
ENDBRANCH  16  18
ENDBRANCH  14  16
ENDBRANCH   7   8
ENDBRANCH   5   7
ENDBRANCH   2   3
ENDBRANCH   1   2
BRANCH   1  26
ATOM     26  C   UNL A   1      34.050  28.206  25.924  1.00  0.00     0.023 C 
BRANCH  26  27
ATOM     27  C   UNL A   1      33.436  28.531  27.287  1.00  0.00     0.116 C 
BRANCH  27  28
ATOM     28  N   UNL A   1      33.496  29.942  27.636  1.00  0.00    -0.352 N 
ATOM     29  C   UNL A   1      34.511  30.700  28.177  1.00  0.00     0.251 C 
ATOM     30  H   UNL A   1      32.667  30.442  27.455  1.00  0.00     0.163 HD
ATOM     31  O   UNL A   1      34.281  31.860  28.509  1.00  0.00    -0.269 OA
BRANCH  29  32
ATOM     32  C   UNL A   1      35.865  30.138  28.404  1.00  0.00     0.039 A 
ATOM     33  C   UNL A   1      36.792  30.163  27.355  1.00  0.00     0.014 A 
ATOM     34  C   UNL A   1      36.221  29.545  29.615  1.00  0.00     0.014 A 
ATOM     35  C   UNL A   1      38.093  29.685  27.554  1.00  0.00     0.010 A 
ATOM     36  C   UNL A   1      37.538  29.137  29.837  1.00  0.00     0.010 A 
ATOM     37  C   UNL A   1      38.495  29.213  28.813  1.00  0.00    -0.014 A 
BRANCH  37  38
ATOM     38  C   UNL A   1      39.911  28.834  29.083  1.00  0.00     0.031 A 
ATOM     39  C   UNL A   1      40.863  29.800  29.737  1.00  0.00     0.074 A 
ATOM     40  C   UNL A   1      40.366  27.632  28.671  1.00  0.00     0.049 A 
ATOM     41  N   UNL A   1      42.140  29.652  29.998  1.00  0.00    -0.248 NA
ATOM     42  C   UNL A   1      40.321  31.110  30.124  1.00  0.00     0.031 C 
ATOM     43  C   UNL A   1      39.568  26.619  27.977  1.00  0.00     0.029 A 
ATOM     44  N   UNL A   1      41.614  27.062  28.764  1.00  0.00    -0.354 N 
ATOM     45  C   UNL A   1      42.549  30.845  30.581  1.00  0.00     0.074 A 
ATOM     46  C   UNL A   1      41.403  31.728  30.578  1.00  0.00     0.031 C 
ATOM     47  C   UNL A   1      40.337  25.548  27.726  1.00  0.00     0.029 A 
ATOM     48  C   UNL A   1      41.691  25.809  28.202  1.00  0.00     0.049 A 
ATOM     49  H   UNL A   1      42.379  27.508  29.192  1.00  0.00     0.167 HD
ATOM     50  C   UNL A   1      43.763  31.170  31.092  1.00  0.00     0.037 A 
ATOM     51  C   UNL A   1      42.734  24.965  28.074  1.00  0.00     0.037 A 
ATOM     52  C   UNL A   1      44.908  30.295  31.096  1.00  0.00     0.049 A 
ATOM     53  C   UNL A   1      44.077  25.360  28.623  1.00  0.00     0.074 A 
ATOM     54  C   UNL A   1      46.164  30.523  31.632  1.00  0.00     0.029 A 
ATOM     55  N   UNL A   1      44.941  29.031  30.527  1.00  0.00    -0.354 N 
ATOM     56  N   UNL A   1      44.427  26.463  29.237  1.00  0.00    -0.248 NA
ATOM     57  C   UNL A   1      45.170  24.388  28.468  1.00  0.00     0.031 C 
ATOM     58  C   UNL A   1      46.974  29.419  31.339  1.00  0.00     0.029 A 
ATOM     59  C   UNL A   1      46.205  28.480  30.673  1.00  0.00     0.049 A 
ATOM     60  H   UNL A   1      44.181  28.592  30.084  1.00  0.00     0.167 HD
ATOM     61  C   UNL A   1      45.767  26.307  29.569  1.00  0.00     0.074 A 
ATOM     62  C   UNL A   1      46.163  24.995  29.100  1.00  0.00     0.031 C 
ATOM     63  C   UNL A   1      46.593  27.173  30.205  1.00  0.00     0.037 A 
BRANCH  50  64
ATOM     64  C   UNL A   1      43.914  32.539  31.696  1.00  0.00     0.057 A 
ATOM     65  C   UNL A   1      44.316  33.643  30.932  1.00  0.00     0.134 A 
ATOM     66  C   UNL A   1      43.617  32.765  33.047  1.00  0.00     0.134 A 
ATOM     67  F   UNL A   1      44.620  33.497  29.634  1.00  0.00    -0.206 F 
ATOM     68  C   UNL A   1      44.448  34.914  31.496  1.00  0.00     0.040 A 
ATOM     69  C   UNL A   1      43.714  34.037  33.614  1.00  0.00     0.040 A 
ATOM     70  F   UNL A   1      43.214  31.756  33.835  1.00  0.00    -0.206 F 
ATOM     71  C   UNL A   1      44.140  35.114  32.838  1.00  0.00     0.006 A 
ENDBRANCH  50  64
BRANCH  51  72
ATOM     72  C   UNL A   1      42.548  23.652  27.404  1.00  0.00     0.057 A 
ATOM     73  C   UNL A   1      42.212  22.506  28.136  1.00  0.00     0.134 A 
ATOM     74  C   UNL A   1      42.711  23.507  26.021  1.00  0.00     0.134 A 
ATOM     75  F   UNL A   1      42.062  22.575  29.466  1.00  0.00    -0.206 F 
ATOM     76  C   UNL A   1      42.067  21.261  27.521  1.00  0.00     0.040 A 
ATOM     77  C   UNL A   1      42.540  22.273  25.389  1.00  0.00     0.040 A 
ATOM     78  F   UNL A   1      43.026  24.566  25.261  1.00  0.00    -0.206 F 
ATOM     79  C   UNL A   1      42.225  21.144  26.141  1.00  0.00     0.006 A 
ENDBRANCH  51  72
BRANCH  63  80
ATOM     80  C   UNL A   1      48.001  26.718  30.468  1.00  0.00     0.057 A 
ATOM     81  C   UNL A   1      48.347  25.995  31.618  1.00  0.00     0.134 A 
ATOM     82  C   UNL A   1      49.019  26.977  29.539  1.00  0.00     0.134 A 
ATOM     83  F   UNL A   1      47.425  25.725  32.554  1.00  0.00    -0.206 F 
ATOM     84  C   UNL A   1      49.657  25.569  31.845  1.00  0.00     0.040 A 
ATOM     85  C   UNL A   1      50.325  26.529  29.741  1.00  0.00     0.040 A 
ATOM     86  F   UNL A   1      48.756  27.656  28.412  1.00  0.00    -0.206 F 
ATOM     87  C   UNL A   1      50.649  25.829  30.901  1.00  0.00     0.006 A 
ENDBRANCH  63  80
ENDBRANCH  37  38
ENDBRANCH  29  32
ENDBRANCH  27  28
ENDBRANCH  26  27
ENDBRANCH   1  26
TORSDOF 14
ENDMDL
MODEL 3
REMARK VINA RESULT:     -11.3      1.684      2.568
REMARK SMILES O=C(C[C@H]1C[C@H]2CC[C@@H](C1)N2C(=O)c1c[nH]c(=O)[nH]1)NCCCCNC(=O)c1ccc(-c2c3nc(c(-c4c(F)cccc4F)c4ccc([nH]4)c(-c4c(F)cccc4F)c4nc(c(-c5c(F)cccc5F)c5ccc2[nH]5)C=C4)C=C3)cc1
REMARK SMILES IDX 22 1 21 2 20 3 1 4 2 5 3 7 4 8 5 9 10 10 6 11 9 12 7 13
REMARK SMILES IDX 11 14 8 15 12 16 13 17 14 18 15 19 19 20 16 21 17 22 18 25
REMARK SMILES IDX 23 26 24 27 25 28 26 29 27 31 28 32 29 33 81 34 30 35 80 36
REMARK SMILES IDX 31 37 32 38 33 39 74 40 34 41 79 42 73 43 75 44 35 45 78 46
REMARK SMILES IDX 72 47 71 48 36 50 62 51 45 52 61 53 46 54 49 55 60 56 76 57
REMARK SMILES IDX 47 58 48 59 59 61 77 62 50 63 37 64 38 65 43 66 39 67 40 68
REMARK SMILES IDX 42 69 44 70 41 71 63 72 64 73 69 74 65 75 66 76 68 77 70 78
REMARK SMILES IDX 67 79 51 80 52 81 57 82 53 83 54 84 56 85 58 86 55 87
REMARK H PARENT 20 6 19 23 16 24 25 30 75 49 49 60
REMARK Flexibility Score: inf
ROOT
ATOM      1  C   UNL A   1      34.356  33.224  28.993  1.00  0.00     0.023 C 
ENDROOT
BRANCH   1   2
ATOM      2  C   UNL A   1      34.649  32.192  27.903  1.00  0.00     0.116 C 
BRANCH   2   3
ATOM      3  N   UNL A   1      33.923  30.933  28.016  1.00  0.00    -0.356 N 
ATOM      4  O   UNL A   1      32.204  31.566  26.629  1.00  0.00    -0.275 OA
ATOM      5  C   UNL A   1      32.776  30.692  27.273  1.00  0.00     0.220 C 
ATOM      6  H   UNL A   1      34.254  30.240  28.632  1.00  0.00     0.163 HD
BRANCH   5   7
ATOM      7  C   UNL A   1      32.288  29.247  27.251  1.00  0.00     0.103 C 
BRANCH   7   8
ATOM      8  C   UNL A   1      33.117  28.195  26.466  1.00  0.00     0.002 C 
ATOM      9  C   UNL A   1      32.513  26.762  26.307  1.00  0.00     0.029 C 
ATOM     10  C   UNL A   1      33.711  28.718  25.153  1.00  0.00     0.029 C 
ATOM     11  C   UNL A   1      32.084  26.351  24.871  1.00  0.00     0.086 C 
ATOM     12  C   UNL A   1      32.973  28.251  23.896  1.00  0.00     0.086 C 
ATOM     13  C   UNL A   1      30.851  27.152  24.469  1.00  0.00     0.027 C 
ATOM     14  N   UNL A   1      33.069  26.808  23.894  1.00  0.00    -0.331 N 
ATOM     15  C   UNL A   1      31.447  28.398  23.805  1.00  0.00     0.027 C 
BRANCH  14  16
ATOM     16  C   UNL A   1      33.433  26.097  22.763  1.00  0.00     0.272 C 
ATOM     17  O   UNL A   1      33.838  26.609  21.726  1.00  0.00    -0.267 OA
BRANCH  16  18
ATOM     18  C   UNL A   1      33.367  24.617  22.909  1.00  0.00     0.125 A 
ATOM     19  C   UNL A   1      34.254  23.826  23.529  1.00  0.00     0.119 A 
ATOM     20  N   UNL A   1      32.387  23.829  22.352  1.00  0.00    -0.302 N 
ATOM     21  N   UNL A   1      33.864  22.521  23.363  1.00  0.00    -0.312 N 
ATOM     22  C   UNL A   1      32.677  22.488  22.617  1.00  0.00     0.323 A 
ATOM     23  H   UNL A   1      31.607  24.156  21.847  1.00  0.00     0.172 HD
ATOM     24  H   UNL A   1      34.342  21.733  23.711  1.00  0.00     0.171 HD
ATOM     25  O   UNL A   1      32.068  21.496  22.255  1.00  0.00    -0.248 OA
ENDBRANCH  16  18
ENDBRANCH  14  16
ENDBRANCH   7   8
ENDBRANCH   5   7
ENDBRANCH   2   3
ENDBRANCH   1   2
BRANCH   1  26
ATOM     26  C   UNL A   1      33.201  34.200  28.736  1.00  0.00     0.023 C 
BRANCH  26  27
ATOM     27  C   UNL A   1      33.396  35.644  29.203  1.00  0.00     0.116 C 
BRANCH  27  28
ATOM     28  N   UNL A   1      32.572  36.007  30.346  1.00  0.00    -0.352 N 
ATOM     29  C   UNL A   1      32.716  35.738  31.690  1.00  0.00     0.251 C 
ATOM     30  H   UNL A   1      31.774  36.537  30.121  1.00  0.00     0.163 HD
ATOM     31  O   UNL A   1      31.811  36.043  32.462  1.00  0.00    -0.269 OA
BRANCH  29  32
ATOM     32  C   UNL A   1      33.920  35.053  32.221  1.00  0.00     0.039 A 
ATOM     33  C   UNL A   1      33.778  33.784  32.794  1.00  0.00     0.014 A 
ATOM     34  C   UNL A   1      35.177  35.659  32.208  1.00  0.00     0.014 A 
ATOM     35  C   UNL A   1      34.903  33.092  33.259  1.00  0.00     0.010 A 
ATOM     36  C   UNL A   1      36.307  34.940  32.603  1.00  0.00     0.010 A 
ATOM     37  C   UNL A   1      36.187  33.642  33.122  1.00  0.00    -0.014 A 
BRANCH  37  38
ATOM     38  C   UNL A   1      37.407  32.865  33.481  1.00  0.00     0.031 A 
ATOM     39  C   UNL A   1      38.174  33.160  34.742  1.00  0.00     0.074 A 
ATOM     40  C   UNL A   1      37.872  31.929  32.626  1.00  0.00     0.049 A 
ATOM     41  N   UNL A   1      39.284  32.615  35.180  1.00  0.00    -0.248 NA
ATOM     42  C   UNL A   1      37.643  34.219  35.612  1.00  0.00     0.031 C 
ATOM     43  C   UNL A   1      37.260  31.578  31.344  1.00  0.00     0.029 A 
ATOM     44  N   UNL A   1      38.975  31.111  32.700  1.00  0.00    -0.354 N 
ATOM     45  C   UNL A   1      39.580  33.262  36.374  1.00  0.00     0.074 A 
ATOM     46  C   UNL A   1      38.569  34.282  36.559  1.00  0.00     0.031 C 
ATOM     47  C   UNL A   1      37.980  30.605  30.762  1.00  0.00     0.029 A 
ATOM     48  C   UNL A   1      39.127  30.290  31.608  1.00  0.00     0.049 A 
ATOM     49  H   UNL A   1      39.596  31.113  33.463  1.00  0.00     0.167 HD
ATOM     50  C   UNL A   1      40.588  33.018  37.248  1.00  0.00     0.037 A 
ATOM     51  C   UNL A   1      40.085  29.390  31.310  1.00  0.00     0.037 A 
ATOM     52  C   UNL A   1      41.598  32.007  37.067  1.00  0.00     0.049 A 
ATOM     53  C   UNL A   1      41.209  29.157  32.282  1.00  0.00     0.074 A 
ATOM     54  C   UNL A   1      42.630  31.657  37.921  1.00  0.00     0.029 A 
ATOM     55  N   UNL A   1      41.710  31.190  35.952  1.00  0.00    -0.354 N 
ATOM     56  N   UNL A   1      41.431  29.728  33.440  1.00  0.00    -0.248 NA
ATOM     57  C   UNL A   1      42.212  28.150  31.908  1.00  0.00     0.031 C 
ATOM     58  C   UNL A   1      43.400  30.668  37.298  1.00  0.00     0.029 A 
ATOM     59  C   UNL A   1      42.812  30.359  36.083  1.00  0.00     0.049 A 
ATOM     60  H   UNL A   1      41.099  31.199  35.181  1.00  0.00     0.167 HD
ATOM     61  C   UNL A   1      42.578  29.128  33.947  1.00  0.00     0.074 A 
ATOM     62  C   UNL A   1      42.997  28.140  32.975  1.00  0.00     0.031 C 
ATOM     63  C   UNL A   1      43.224  29.375  35.113  1.00  0.00     0.037 A 
BRANCH  50  64
ATOM     64  C   UNL A   1      40.647  33.865  38.489  1.00  0.00     0.057 A 
ATOM     65  C   UNL A   1      41.448  35.013  38.562  1.00  0.00     0.134 A 
ATOM     66  C   UNL A   1      39.866  33.553  39.610  1.00  0.00     0.134 A 
ATOM     67  F   UNL A   1      42.224  35.368  37.527  1.00  0.00    -0.206 F 
ATOM     68  C   UNL A   1      41.494  35.801  39.714  1.00  0.00     0.040 A 
ATOM     69  C   UNL A   1      39.879  34.351  40.755  1.00  0.00     0.040 A 
ATOM     70  F   UNL A   1      39.066  32.476  39.605  1.00  0.00    -0.206 F 
ATOM     71  C   UNL A   1      40.702  35.474  40.812  1.00  0.00     0.006 A 
ENDBRANCH  50  64
BRANCH  51  72
ATOM     72  C   UNL A   1      40.018  28.630  30.035  1.00  0.00     0.057 A 
ATOM     73  C   UNL A   1      40.680  29.081  28.887  1.00  0.00     0.134 A 
ATOM     74  C   UNL A   1      39.283  27.442  29.930  1.00  0.00     0.134 A 
ATOM     75  F   UNL A   1      41.384  30.221  28.918  1.00  0.00    -0.206 F 
ATOM     76  C   UNL A   1      40.598  28.391  27.676  1.00  0.00     0.040 A 
ATOM     77  C   UNL A   1      39.216  26.727  28.732  1.00  0.00     0.040 A 
ATOM     78  F   UNL A   1      38.632  26.952  30.995  1.00  0.00    -0.206 F 
ATOM     79  C   UNL A   1      39.868  27.206  27.599  1.00  0.00     0.006 A 
ENDBRANCH  51  72
BRANCH  63  80
ATOM     80  C   UNL A   1      44.432  28.539  35.424  1.00  0.00     0.057 A 
ATOM     81  C   UNL A   1      45.725  28.933  35.052  1.00  0.00     0.134 A 
ATOM     82  C   UNL A   1      44.304  27.338  36.136  1.00  0.00     0.134 A 
ATOM     83  F   UNL A   1      45.918  30.064  34.357  1.00  0.00    -0.206 F 
ATOM     84  C   UNL A   1      46.841  28.152  35.357  1.00  0.00     0.040 A 
ATOM     85  C   UNL A   1      45.416  26.565  36.472  1.00  0.00     0.040 A 
ATOM     86  F   UNL A   1      43.097  26.905  36.530  1.00  0.00    -0.206 F 
ATOM     87  C   UNL A   1      46.689  26.968  36.075  1.00  0.00     0.006 A 
ENDBRANCH  63  80
ENDBRANCH  37  38
ENDBRANCH  29  32
ENDBRANCH  27  28
ENDBRANCH  26  27
ENDBRANCH   1  26
TORSDOF 14
ENDMDL
