MODEL 1
REMARK VINA RESULT:     -12.5      0.000      0.000
REMARK SMILES Cc1c(C)c2c(c(C)c1O)CC[C@@](C)(C(=O)NCCCCNC(=O)c1ccc(-c3c4nc(c(-c5c(F)cccc5F)c5ccc([nH]5)c(-c5c(F)cccc5F)c5nc(c(-c6c(F)cccc6F)c6ccc3[nH]6)C=C5)C=C4)cc1)O2
REMARK SMILES IDX 20 1 19 2 18 3 17 4 15 5 16 6 13 8 1 9 2 10 3 11 9 12 4 13
REMARK SMILES IDX 5 14 7 15 6 16 79 17 8 18 11 19 12 20 14 21 10 22 21 24
REMARK SMILES IDX 22 25 23 26 24 28 25 29 26 30 78 31 27 32 77 33 28 34 29 35
REMARK SMILES IDX 30 36 71 37 31 38 76 39 70 40 72 41 32 42 75 43 69 44 68 45
REMARK SMILES IDX 33 47 59 48 42 49 58 50 43 51 46 52 57 53 73 54 44 55 45 56
REMARK SMILES IDX 56 58 74 59 47 60 34 61 35 62 40 63 36 64 37 65 39 66 41 67
REMARK SMILES IDX 38 68 60 69 61 70 66 71 62 72 63 73 65 74 67 75 64 76 48 77
REMARK SMILES IDX 49 78 54 79 50 80 51 81 53 82 55 83 52 84
REMARK H PARENT 17 7 10 23 22 27 72 46 46 57
REMARK Flexibility Score: inf
ROOT
ATOM      1  C   UNL A   1      31.454  32.028  26.831  1.00  0.00     0.023 C 
ENDROOT
BRANCH   1   2
ATOM      2  C   UNL A   1      31.699  30.537  26.630  1.00  0.00     0.023 C 
BRANCH   2   3
ATOM      3  C   UNL A   1      31.512  30.050  25.195  1.00  0.00     0.116 C 
BRANCH   3   4
ATOM      4  N   UNL A   1      32.771  29.683  24.569  1.00  0.00    -0.353 N 
ATOM      5  C   UNL A   1      33.288  28.460  24.224  1.00  0.00     0.263 C 
ATOM      6  O   UNL A   1      34.401  28.473  23.690  1.00  0.00    -0.270 OA
ATOM      7  H   UNL A   1      33.354  30.445  24.353  1.00  0.00     0.163 HD
BRANCH   5   8
ATOM      8  C   UNL A   1      32.498  27.143  24.483  1.00  0.00     0.184 C 
ATOM      9  C   UNL A   1      33.687  21.125  24.004  1.00  0.00     0.049 C 
ATOM     10  C   UNL A   1      33.064  22.376  24.569  1.00  0.00    -0.002 A 
ATOM     11  C   UNL A   1      33.561  23.660  24.237  1.00  0.00    -0.002 A 
ATOM     12  C   UNL A   1      31.944  22.278  25.421  1.00  0.00     0.122 A 
ATOM     13  C   UNL A   1      34.741  23.817  23.308  1.00  0.00     0.049 C 
ATOM     14  C   UNL A   1      32.928  24.801  24.768  1.00  0.00     0.127 A 
ATOM     15  C   UNL A   1      31.325  23.409  25.969  1.00  0.00    -0.002 A 
ATOM     16  C   UNL A   1      31.841  24.682  25.655  1.00  0.00     0.001 A 
ATOM     17  O   UNL A   1      33.413  26.028  24.368  1.00  0.00    -0.477 OA
ATOM     18  C   UNL A   1      30.125  23.281  26.874  1.00  0.00     0.049 C 
ATOM     19  C   UNL A   1      31.191  25.911  26.225  1.00  0.00     0.044 C 
ATOM     20  C   UNL A   1      32.000  27.152  25.931  1.00  0.00     0.063 C 
ATOM     21  C   UNL A   1      31.460  26.983  23.353  1.00  0.00     0.067 C 
BRANCH  12  22
ATOM     22  O   UNL A   1      31.400  21.062  25.750  1.00  0.00    -0.507 OA
ATOM     23  H   UNL A   1      31.295  20.824  26.649  1.00  0.00     0.293 HD
ENDBRANCH  12  22
ENDBRANCH   5   8
ENDBRANCH   3   4
ENDBRANCH   2   3
ENDBRANCH   1   2
BRANCH   1  24
ATOM     24  C   UNL A   1      32.680  32.834  27.238  1.00  0.00     0.116 C 
BRANCH  24  25
ATOM     25  N   UNL A   1      32.367  34.203  27.630  1.00  0.00    -0.352 N 
ATOM     26  C   UNL A   1      32.981  34.990  28.571  1.00  0.00     0.251 C 
ATOM     27  H   UNL A   1      31.611  34.619  27.154  1.00  0.00     0.163 HD
ATOM     28  O   UNL A   1      32.525  36.091  28.861  1.00  0.00    -0.269 OA
BRANCH  26  29
ATOM     29  C   UNL A   1      34.180  34.477  29.258  1.00  0.00     0.039 A 
ATOM     30  C   UNL A   1      34.028  33.828  30.486  1.00  0.00     0.014 A 
ATOM     31  C   UNL A   1      35.438  34.584  28.658  1.00  0.00     0.014 A 
ATOM     32  C   UNL A   1      35.133  33.218  31.078  1.00  0.00     0.010 A 
ATOM     33  C   UNL A   1      36.521  33.914  29.212  1.00  0.00     0.010 A 
ATOM     34  C   UNL A   1      36.378  33.225  30.427  1.00  0.00    -0.014 A 
BRANCH  34  35
ATOM     35  C   UNL A   1      37.546  32.524  31.010  1.00  0.00     0.031 A 
ATOM     36  C   UNL A   1      38.147  33.018  32.294  1.00  0.00     0.074 A 
ATOM     37  C   UNL A   1      38.092  31.479  30.359  1.00  0.00     0.049 A 
ATOM     38  N   UNL A   1      39.188  32.565  32.943  1.00  0.00    -0.248 NA
ATOM     39  C   UNL A   1      37.512  34.190  32.918  1.00  0.00     0.031 C 
ATOM     40  C   UNL A   1      37.627  30.942  29.079  1.00  0.00     0.029 A 
ATOM     41  N   UNL A   1      39.159  30.683  30.686  1.00  0.00    -0.354 N 
ATOM     42  C   UNL A   1      39.337  33.400  34.042  1.00  0.00     0.074 A 
ATOM     43  C   UNL A   1      38.316  34.419  33.946  1.00  0.00     0.031 C 
ATOM     44  C   UNL A   1      38.385  29.883  28.746  1.00  0.00     0.029 A 
ATOM     45  C   UNL A   1      39.402  29.685  29.774  1.00  0.00     0.049 A 
ATOM     46  H   UNL A   1      39.699  30.813  31.499  1.00  0.00     0.167 HD
ATOM     47  C   UNL A   1      40.225  33.306  35.057  1.00  0.00     0.037 A 
ATOM     48  C   UNL A   1      40.338  28.717  29.773  1.00  0.00     0.037 A 
ATOM     49  C   UNL A   1      41.212  32.268  35.175  1.00  0.00     0.049 A 
ATOM     50  C   UNL A   1      41.313  28.634  30.913  1.00  0.00     0.074 A 
ATOM     51  C   UNL A   1      42.106  32.043  36.206  1.00  0.00     0.029 A 
ATOM     52  N   UNL A   1      41.429  31.279  34.229  1.00  0.00    -0.354 N 
ATOM     53  N   UNL A   1      41.399  29.391  31.980  1.00  0.00    -0.248 NA
ATOM     54  C   UNL A   1      42.321  27.567  30.849  1.00  0.00     0.031 C 
ATOM     55  C   UNL A   1      42.886  30.933  35.870  1.00  0.00     0.029 A 
ATOM     56  C   UNL A   1      42.457  30.451  34.643  1.00  0.00     0.049 A 
ATOM     57  H   UNL A   1      40.927  31.179  33.389  1.00  0.00     0.167 HD
ATOM     58  C   UNL A   1      42.459  28.885  32.720  1.00  0.00     0.074 A 
ATOM     59  C   UNL A   1      42.977  27.747  31.988  1.00  0.00     0.031 C 
ATOM     60  C   UNL A   1      42.958  29.325  33.900  1.00  0.00     0.037 A 
BRANCH  47  61
ATOM     61  C   UNL A   1      40.150  34.342  36.137  1.00  0.00     0.057 A 
ATOM     62  C   UNL A   1      39.331  34.167  37.260  1.00  0.00     0.134 A 
ATOM     63  C   UNL A   1      40.929  35.501  36.075  1.00  0.00     0.134 A 
ATOM     64  F   UNL A   1      38.550  33.082  37.370  1.00  0.00    -0.206 F 
ATOM     65  C   UNL A   1      39.278  35.120  38.278  1.00  0.00     0.040 A 
ATOM     66  C   UNL A   1      40.900  36.453  37.096  1.00  0.00     0.040 A 
ATOM     67  F   UNL A   1      41.735  35.727  35.025  1.00  0.00    -0.206 F 
ATOM     68  C   UNL A   1      40.070  36.264  38.200  1.00  0.00     0.006 A 
ENDBRANCH  47  61
BRANCH  48  69
ATOM     69  C   UNL A   1      40.372  27.723  28.673  1.00  0.00     0.057 A 
ATOM     70  C   UNL A   1      39.634  26.537  28.757  1.00  0.00     0.134 A 
ATOM     71  C   UNL A   1      41.129  27.934  27.516  1.00  0.00     0.134 A 
ATOM     72  F   UNL A   1      38.903  26.273  29.850  1.00  0.00    -0.206 F 
ATOM     73  C   UNL A   1      39.656  25.589  27.732  1.00  0.00     0.040 A 
ATOM     74  C   UNL A   1      41.147  27.003  26.476  1.00  0.00     0.040 A 
ATOM     75  F   UNL A   1      41.852  29.055  27.375  1.00  0.00    -0.206 F 
ATOM     76  C   UNL A   1      40.411  25.824  26.586  1.00  0.00     0.006 A 
ENDBRANCH  48  69
BRANCH  60  77
ATOM     77  C   UNL A   1      44.121  28.580  34.478  1.00  0.00     0.057 A 
ATOM     78  C   UNL A   1      45.437  28.996  34.252  1.00  0.00     0.134 A 
ATOM     79  C   UNL A   1      43.919  27.490  35.334  1.00  0.00     0.134 A 
ATOM     80  F   UNL A   1      45.693  30.028  33.434  1.00  0.00    -0.206 F 
ATOM     81  C   UNL A   1      46.517  28.352  34.857  1.00  0.00     0.040 A 
ATOM     82  C   UNL A   1      44.988  26.849  35.959  1.00  0.00     0.040 A 
ATOM     83  F   UNL A   1      42.678  27.049  35.595  1.00  0.00    -0.206 F 
ATOM     84  C   UNL A   1      46.292  27.281  35.722  1.00  0.00     0.006 A 
ENDBRANCH  60  77
ENDBRANCH  34  35
ENDBRANCH  26  29
ENDBRANCH  24  25
ENDBRANCH   1  24
TORSDOF 12
ENDMDL
MODEL 2
REMARK VINA RESULT:     -12.5      5.109     10.124
REMARK SMILES Cc1c(C)c2c(c(C)c1O)CC[C@@](C)(C(=O)NCCCCNC(=O)c1ccc(-c3c4nc(c(-c5c(F)cccc5F)c5ccc([nH]5)c(-c5c(F)cccc5F)c5nc(c(-c6c(F)cccc6F)c6ccc3[nH]6)C=C5)C=C4)cc1)O2
REMARK SMILES IDX 20 1 19 2 18 3 17 4 15 5 16 6 13 8 1 9 2 10 3 11 9 12 4 13
REMARK SMILES IDX 5 14 7 15 6 16 79 17 8 18 11 19 12 20 14 21 10 22 21 24
REMARK SMILES IDX 22 25 23 26 24 28 25 29 26 30 78 31 27 32 77 33 28 34 29 35
REMARK SMILES IDX 30 36 71 37 31 38 76 39 70 40 72 41 32 42 75 43 69 44 68 45
REMARK SMILES IDX 33 47 59 48 42 49 58 50 43 51 46 52 57 53 73 54 44 55 45 56
REMARK SMILES IDX 56 58 74 59 47 60 34 61 35 62 40 63 36 64 37 65 39 66 41 67
REMARK SMILES IDX 38 68 60 69 61 70 66 71 62 72 63 73 65 74 67 75 64 76 48 77
REMARK SMILES IDX 49 78 54 79 50 80 51 81 53 82 55 83 52 84
REMARK H PARENT 17 7 10 23 22 27 72 46 46 57
REMARK Flexibility Score: inf
ROOT
ATOM      1  C   UNL A   1      37.939  19.989  24.676  1.00  0.00     0.023 C 
ENDROOT
BRANCH   1   2
ATOM      2  C   UNL A   1      36.541  20.447  25.073  1.00  0.00     0.023 C 
BRANCH   2   3
ATOM      3  C   UNL A   1      36.485  21.828  25.724  1.00  0.00     0.116 C 
BRANCH   3   4
ATOM      4  N   UNL A   1      35.435  21.924  26.724  1.00  0.00    -0.353 N 
ATOM      5  C   UNL A   1      34.221  22.563  26.704  1.00  0.00     0.263 C 
ATOM      6  O   UNL A   1      33.534  22.453  27.724  1.00  0.00    -0.270 OA
ATOM      7  H   UNL A   1      35.628  21.446  27.562  1.00  0.00     0.163 HD
BRANCH   5   8
ATOM      8  C   UNL A   1      33.745  23.362  25.455  1.00  0.00     0.184 C 
ATOM      9  C   UNL A   1      28.789  26.699  23.984  1.00  0.00     0.049 C 
ATOM     10  C   UNL A   1      30.242  26.295  23.980  1.00  0.00    -0.002 A 
ATOM     11  C   UNL A   1      30.758  25.395  24.945  1.00  0.00    -0.002 A 
ATOM     12  C   UNL A   1      31.105  26.791  22.980  1.00  0.00     0.122 A 
ATOM     13  C   UNL A   1      29.867  24.817  26.018  1.00  0.00     0.049 C 
ATOM     14  C   UNL A   1      32.116  25.026  24.884  1.00  0.00     0.127 A 
ATOM     15  C   UNL A   1      32.461  26.443  22.929  1.00  0.00    -0.002 A 
ATOM     16  C   UNL A   1      32.973  25.569  23.908  1.00  0.00     0.001 A 
ATOM     17  O   UNL A   1      32.555  24.104  25.810  1.00  0.00    -0.477 OA
ATOM     18  C   UNL A   1      33.365  26.982  21.848  1.00  0.00     0.049 C 
ATOM     19  C   UNL A   1      34.423  25.176  23.870  1.00  0.00     0.044 C 
ATOM     20  C   UNL A   1      34.817  24.397  25.103  1.00  0.00     0.063 C 
ATOM     21  C   UNL A   1      33.327  22.345  24.373  1.00  0.00     0.067 C 
BRANCH  12  22
ATOM     22  O   UNL A   1      30.652  27.639  22.001  1.00  0.00    -0.507 OA
ATOM     23  H   UNL A   1      30.271  28.462  22.233  1.00  0.00     0.293 HD
ENDBRANCH  12  22
ENDBRANCH   5   8
ENDBRANCH   3   4
ENDBRANCH   2   3
ENDBRANCH   1   2
BRANCH   1  24
ATOM     24  C   UNL A   1      39.007  20.180  25.744  1.00  0.00     0.116 C 
BRANCH  24  25
ATOM     25  N   UNL A   1      40.002  19.113  25.762  1.00  0.00    -0.352 N 
ATOM     26  C   UNL A   1      41.350  19.199  26.001  1.00  0.00     0.251 C 
ATOM     27  H   UNL A   1      39.659  18.209  25.576  1.00  0.00     0.163 HD
ATOM     28  O   UNL A   1      42.073  18.217  25.871  1.00  0.00    -0.269 OA
BRANCH  26  29
ATOM     29  C   UNL A   1      41.926  20.502  26.383  1.00  0.00     0.039 A 
ATOM     30  C   UNL A   1      42.385  21.356  25.378  1.00  0.00     0.014 A 
ATOM     31  C   UNL A   1      41.952  20.896  27.723  1.00  0.00     0.014 A 
ATOM     32  C   UNL A   1      42.803  22.643  25.713  1.00  0.00     0.010 A 
ATOM     33  C   UNL A   1      42.300  22.202  28.046  1.00  0.00     0.010 A 
ATOM     34  C   UNL A   1      42.728  23.087  27.044  1.00  0.00    -0.014 A 
BRANCH  34  35
ATOM     35  C   UNL A   1      43.105  24.473  27.407  1.00  0.00     0.031 A 
ATOM     36  C   UNL A   1      44.546  24.891  27.359  1.00  0.00     0.074 A 
ATOM     37  C   UNL A   1      42.158  25.335  27.825  1.00  0.00     0.049 A 
ATOM     38  N   UNL A   1      45.080  26.043  27.672  1.00  0.00    -0.248 NA
ATOM     39  C   UNL A   1      45.519  23.873  26.929  1.00  0.00     0.031 C 
ATOM     40  C   UNL A   1      40.733  25.028  27.961  1.00  0.00     0.029 A 
ATOM     41  N   UNL A   1      42.256  26.646  28.212  1.00  0.00    -0.354 N 
ATOM     42  C   UNL A   1      46.447  25.886  27.485  1.00  0.00     0.074 A 
ATOM     43  C   UNL A   1      46.668  24.514  27.085  1.00  0.00     0.031 C 
ATOM     44  C   UNL A   1      40.085  26.132  28.370  1.00  0.00     0.029 A 
ATOM     45  C   UNL A   1      41.049  27.212  28.549  1.00  0.00     0.049 A 
ATOM     46  H   UNL A   1      43.109  27.138  28.245  1.00  0.00     0.167 HD
ATOM     47  C   UNL A   1      47.425  26.811  27.605  1.00  0.00     0.037 A 
ATOM     48  C   UNL A   1      40.758  28.464  28.951  1.00  0.00     0.037 A 
ATOM     49  C   UNL A   1      47.199  28.184  27.961  1.00  0.00     0.049 A 
ATOM     50  C   UNL A   1      41.863  29.473  29.077  1.00  0.00     0.074 A 
ATOM     51  C   UNL A   1      48.117  29.217  28.033  1.00  0.00     0.029 A 
ATOM     52  N   UNL A   1      45.965  28.718  28.298  1.00  0.00    -0.354 N 
ATOM     53  N   UNL A   1      43.143  29.328  28.833  1.00  0.00    -0.248 NA
ATOM     54  C   UNL A   1      41.487  30.817  29.536  1.00  0.00     0.031 C 
ATOM     55  C   UNL A   1      47.443  30.370  28.444  1.00  0.00     0.029 A 
ATOM     56  C   UNL A   1      46.100  30.061  28.600  1.00  0.00     0.049 A 
ATOM     57  H   UNL A   1      45.119  28.215  28.321  1.00  0.00     0.167 HD
ATOM     58  C   UNL A   1      43.722  30.562  29.094  1.00  0.00     0.074 A 
ATOM     59  C   UNL A   1      42.652  31.449  29.502  1.00  0.00     0.031 C 
ATOM     60  C   UNL A   1      45.024  30.926  29.004  1.00  0.00     0.037 A 
BRANCH  47  61
ATOM     61  C   UNL A   1      48.829  26.371  27.323  1.00  0.00     0.057 A 
ATOM     62  C   UNL A   1      49.356  26.401  26.025  1.00  0.00     0.134 A 
ATOM     63  C   UNL A   1      49.671  25.951  28.357  1.00  0.00     0.134 A 
ATOM     64  F   UNL A   1      48.592  26.781  24.990  1.00  0.00    -0.206 F 
ATOM     65  C   UNL A   1      50.671  26.013  25.764  1.00  0.00     0.040 A 
ATOM     66  C   UNL A   1      50.994  25.580  28.112  1.00  0.00     0.040 A 
ATOM     67  F   UNL A   1      49.226  25.901  29.622  1.00  0.00    -0.206 F 
ATOM     68  C   UNL A   1      51.496  25.608  26.812  1.00  0.00     0.006 A 
ENDBRANCH  47  61
BRANCH  48  69
ATOM     69  C   UNL A   1      39.350  28.842  29.227  1.00  0.00     0.057 A 
ATOM     70  C   UNL A   1      38.540  29.370  28.216  1.00  0.00     0.134 A 
ATOM     71  C   UNL A   1      38.782  28.681  30.494  1.00  0.00     0.134 A 
ATOM     72  F   UNL A   1      39.037  29.562  26.984  1.00  0.00    -0.206 F 
ATOM     73  C   UNL A   1      37.215  29.734  28.457  1.00  0.00     0.040 A 
ATOM     74  C   UNL A   1      37.452  29.025  30.747  1.00  0.00     0.040 A 
ATOM     75  F   UNL A   1      39.507  28.175  31.503  1.00  0.00    -0.206 F 
ATOM     76  C   UNL A   1      36.667  29.557  29.726  1.00  0.00     0.006 A 
ENDBRANCH  48  69
BRANCH  60  77
ATOM     77  C   UNL A   1      45.370  32.341  29.351  1.00  0.00     0.057 A 
ATOM     78  C   UNL A   1      45.285  33.365  28.401  1.00  0.00     0.134 A 
ATOM     79  C   UNL A   1      45.708  32.694  30.663  1.00  0.00     0.134 A 
ATOM     80  F   UNL A   1      44.975  33.086  27.126  1.00  0.00    -0.206 F 
ATOM     81  C   UNL A   1      45.526  34.695  28.744  1.00  0.00     0.040 A 
ATOM     82  C   UNL A   1      45.934  34.022  31.022  1.00  0.00     0.040 A 
ATOM     83  F   UNL A   1      45.797  31.757  31.619  1.00  0.00    -0.206 F 
ATOM     84  C   UNL A   1      45.842  35.028  30.061  1.00  0.00     0.006 A 
ENDBRANCH  60  77
ENDBRANCH  34  35
ENDBRANCH  26  29
ENDBRANCH  24  25
ENDBRANCH   1  24
TORSDOF 12
ENDMDL
MODEL 3
REMARK VINA RESULT:     -12.5      5.090     10.167
REMARK SMILES Cc1c(C)c2c(c(C)c1O)CC[C@@](C)(C(=O)NCCCCNC(=O)c1ccc(-c3c4nc(c(-c5c(F)cccc5F)c5ccc([nH]5)c(-c5c(F)cccc5F)c5nc(c(-c6c(F)cccc6F)c6ccc3[nH]6)C=C5)C=C4)cc1)O2
REMARK SMILES IDX 20 1 19 2 18 3 17 4 15 5 16 6 13 8 1 9 2 10 3 11 9 12 4 13
REMARK SMILES IDX 5 14 7 15 6 16 79 17 8 18 11 19 12 20 14 21 10 22 21 24
REMARK SMILES IDX 22 25 23 26 24 28 25 29 26 30 78 31 27 32 77 33 28 34 29 35
REMARK SMILES IDX 30 36 71 37 31 38 76 39 70 40 72 41 32 42 75 43 69 44 68 45
REMARK SMILES IDX 33 47 59 48 42 49 58 50 43 51 46 52 57 53 73 54 44 55 45 56
REMARK SMILES IDX 56 58 74 59 47 60 34 61 35 62 40 63 36 64 37 65 39 66 41 67
REMARK SMILES IDX 38 68 60 69 61 70 66 71 62 72 63 73 65 74 67 75 64 76 48 77
REMARK SMILES IDX 49 78 54 79 50 80 51 81 53 82 55 83 52 84
REMARK H PARENT 17 7 10 23 22 27 72 46 46 57
REMARK Flexibility Score: inf
ROOT
ATOM      1  C   UNL A   1      37.953  19.756  24.964  1.00  0.00     0.023 C 
ENDROOT
BRANCH   1   2
ATOM      2  C   UNL A   1      37.005  20.907  24.648  1.00  0.00     0.023 C 
BRANCH   2   3
ATOM      3  C   UNL A   1      35.560  20.680  25.089  1.00  0.00     0.116 C 
BRANCH   3   4
ATOM      4  N   UNL A   1      35.221  21.439  26.280  1.00  0.00    -0.353 N 
ATOM      5  C   UNL A   1      34.409  22.530  26.458  1.00  0.00     0.263 C 
ATOM      6  O   UNL A   1      34.316  22.954  27.614  1.00  0.00    -0.270 OA
ATOM      7  H   UNL A   1      35.650  21.114  27.104  1.00  0.00     0.163 HD
BRANCH   5   8
ATOM      8  C   UNL A   1      33.643  23.174  25.266  1.00  0.00     0.184 C 
ATOM      9  C   UNL A   1      30.485  28.375  24.349  1.00  0.00     0.049 C 
ATOM     10  C   UNL A   1      31.374  27.210  23.995  1.00  0.00    -0.002 A 
ATOM     11  C   UNL A   1      31.967  26.405  24.999  1.00  0.00    -0.002 A 
ATOM     12  C   UNL A   1      31.602  26.889  22.640  1.00  0.00     0.122 A 
ATOM     13  C   UNL A   1      31.731  26.694  26.461  1.00  0.00     0.049 C 
ATOM     14  C   UNL A   1      32.768  25.311  24.617  1.00  0.00     0.127 A 
ATOM     15  C   UNL A   1      32.416  25.814  22.257  1.00  0.00    -0.002 A 
ATOM     16  C   UNL A   1      33.023  25.034  23.261  1.00  0.00     0.001 A 
ATOM     17  O   UNL A   1      33.274  24.524  25.631  1.00  0.00    -0.477 OA
ATOM     18  C   UNL A   1      32.642  25.486  20.803  1.00  0.00     0.049 C 
ATOM     19  C   UNL A   1      33.896  23.873  22.876  1.00  0.00     0.044 C 
ATOM     20  C   UNL A   1      34.601  23.289  24.077  1.00  0.00     0.063 C 
ATOM     21  C   UNL A   1      32.326  22.393  25.071  1.00  0.00     0.067 C 
BRANCH  12  22
ATOM     22  O   UNL A   1      31.028  27.614  21.627  1.00  0.00    -0.507 OA
ATOM     23  H   UNL A   1      31.088  27.312  20.743  1.00  0.00     0.293 HD
ENDBRANCH  12  22
ENDBRANCH   5   8
ENDBRANCH   3   4
ENDBRANCH   2   3
ENDBRANCH   1   2
BRANCH   1  24
ATOM     24  C   UNL A   1      39.196  20.144  25.754  1.00  0.00     0.116 C 
BRANCH  24  25
ATOM     25  N   UNL A   1      40.203  19.091  25.797  1.00  0.00    -0.352 N 
ATOM     26  C   UNL A   1      41.550  19.199  26.040  1.00  0.00     0.251 C 
ATOM     27  H   UNL A   1      39.872  18.179  25.628  1.00  0.00     0.163 HD
ATOM     28  O   UNL A   1      42.285  18.223  25.934  1.00  0.00    -0.269 OA
BRANCH  26  29
ATOM     29  C   UNL A   1      42.107  20.516  26.398  1.00  0.00     0.039 A 
ATOM     30  C   UNL A   1      42.425  21.413  25.376  1.00  0.00     0.014 A 
ATOM     31  C   UNL A   1      42.254  20.879  27.739  1.00  0.00     0.014 A 
ATOM     32  C   UNL A   1      42.822  22.709  25.703  1.00  0.00     0.010 A 
ATOM     33  C   UNL A   1      42.579  22.192  28.062  1.00  0.00     0.010 A 
ATOM     34  C   UNL A   1      42.865  23.117  27.047  1.00  0.00    -0.014 A 
BRANCH  34  35
ATOM     35  C   UNL A   1      43.220  24.509  27.408  1.00  0.00     0.031 A 
ATOM     36  C   UNL A   1      44.654  24.951  27.358  1.00  0.00     0.074 A 
ATOM     37  C   UNL A   1      42.260  25.356  27.826  1.00  0.00     0.049 A 
ATOM     38  N   UNL A   1      45.169  26.112  27.670  1.00  0.00    -0.248 NA
ATOM     39  C   UNL A   1      45.643  23.949  26.928  1.00  0.00     0.031 C 
ATOM     40  C   UNL A   1      40.840  25.027  27.965  1.00  0.00     0.029 A 
ATOM     41  N   UNL A   1      42.336  26.669  28.213  1.00  0.00    -0.354 N 
ATOM     42  C   UNL A   1      46.538  25.977  27.482  1.00  0.00     0.074 A 
ATOM     43  C   UNL A   1      46.781  24.608  27.083  1.00  0.00     0.031 C 
ATOM     44  C   UNL A   1      40.174  26.119  28.374  1.00  0.00     0.029 A 
ATOM     45  C   UNL A   1      41.121  27.216  28.551  1.00  0.00     0.049 A 
ATOM     46  H   UNL A   1      43.181  27.175  28.245  1.00  0.00     0.167 HD
ATOM     47  C   UNL A   1      47.501  26.918  27.600  1.00  0.00     0.037 A 
ATOM     48  C   UNL A   1      40.810  28.463  28.952  1.00  0.00     0.037 A 
ATOM     49  C   UNL A   1      47.254  28.288  27.955  1.00  0.00     0.049 A 
ATOM     50  C   UNL A   1      41.899  29.490  29.076  1.00  0.00     0.074 A 
ATOM     51  C   UNL A   1      48.155  29.336  28.026  1.00  0.00     0.029 A 
ATOM     52  N   UNL A   1      46.012  28.801  28.294  1.00  0.00    -0.354 N 
ATOM     53  N   UNL A   1      43.181  29.366  28.831  1.00  0.00    -0.248 NA
ATOM     54  C   UNL A   1      41.501  30.828  29.535  1.00  0.00     0.031 C 
ATOM     55  C   UNL A   1      47.462  30.478  28.437  1.00  0.00     0.029 A 
ATOM     56  C   UNL A   1      46.125  30.146  28.594  1.00  0.00     0.049 A 
ATOM     57  H   UNL A   1      45.174  28.285  28.317  1.00  0.00     0.167 HD
ATOM     58  C   UNL A   1      43.739  30.609  29.090  1.00  0.00     0.074 A 
ATOM     59  C   UNL A   1      42.656  31.479  29.499  1.00  0.00     0.031 C 
ATOM     60  C   UNL A   1      45.035  30.994  28.999  1.00  0.00     0.037 A 
BRANCH  47  61
ATOM     61  C   UNL A   1      48.912  26.500  27.316  1.00  0.00     0.057 A 
ATOM     62  C   UNL A   1      49.761  26.057  28.338  1.00  0.00     0.134 A 
ATOM     63  C   UNL A   1      49.413  26.504  26.011  1.00  0.00     0.134 A 
ATOM     64  F   UNL A   1      49.343  26.045  29.612  1.00  0.00    -0.206 F 
ATOM     65  C   UNL A   1      51.068  25.646  28.072  1.00  0.00     0.040 A 
ATOM     66  C   UNL A   1      50.711  26.076  25.729  1.00  0.00     0.040 A 
ATOM     67  F   UNL A   1      48.648  26.916  24.987  1.00  0.00    -0.206 F 
ATOM     68  C   UNL A   1      51.543  25.649  26.762  1.00  0.00     0.006 A 
ENDBRANCH  47  61
BRANCH  48  69
ATOM     69  C   UNL A   1      39.397  28.818  29.230  1.00  0.00     0.057 A 
ATOM     70  C   UNL A   1      38.582  29.350  28.224  1.00  0.00     0.134 A 
ATOM     71  C   UNL A   1      38.827  28.631  30.493  1.00  0.00     0.134 A 
ATOM     72  F   UNL A   1      39.080  29.567  26.997  1.00  0.00    -0.206 F 
ATOM     73  C   UNL A   1      37.251  29.693  28.466  1.00  0.00     0.040 A 
ATOM     74  C   UNL A   1      37.492  28.953  30.746  1.00  0.00     0.040 A 
ATOM     75  F   UNL A   1      39.556  28.119  31.496  1.00  0.00    -0.206 F 
ATOM     76  C   UNL A   1      36.702  29.490  29.730  1.00  0.00     0.006 A 
ENDBRANCH  48  69
BRANCH  60  77
ATOM     77  C   UNL A   1      45.358  32.415  29.344  1.00  0.00     0.057 A 
ATOM     78  C   UNL A   1      45.789  32.773  30.626  1.00  0.00     0.134 A 
ATOM     79  C   UNL A   1      45.320  33.416  28.365  1.00  0.00     0.134 A 
ATOM     80  F   UNL A   1      45.838  31.858  31.606  1.00  0.00    -0.206 F 
ATOM     81  C   UNL A   1      46.170  34.081  30.926  1.00  0.00     0.040 A 
ATOM     82  C   UNL A   1      45.714  34.723  28.648  1.00  0.00     0.040 A 
ATOM     83  F   UNL A   1      44.922  33.132  27.116  1.00  0.00    -0.206 F 
ATOM     84  C   UNL A   1      46.142  35.058  29.932  1.00  0.00     0.006 A 
ENDBRANCH  60  77
ENDBRANCH  34  35
ENDBRANCH  26  29
ENDBRANCH  24  25
ENDBRANCH   1  24
TORSDOF 12
ENDMDL
