MODEL 1
REMARK VINA RESULT:     -11.8      0.000      0.000
REMARK SMILES COc1ccc(-c2cc3c(N4CCC[C@@H](C(=O)NCCCCNC(=O)c5ccc(-c6c7nc(c(-c8c(F)cccc8F)c8ccc([nH]8)c(-c8c(F)cccc8F)c8nc(c(-c9c(F)cccc9F)c9ccc6[nH]9)C=C8)C=C7)cc5)C4)nccn3n2)cc1OC
REMARK SMILES IDX 20 1 19 2 18 3 16 4 17 5 15 7 11 8 12 9 80 10 13 11 14 12
REMARK SMILES IDX 10 13 7 14 8 15 85 16 9 17 84 18 83 19 81 20 82 21 6 22 3 23
REMARK SMILES IDX 4 24 87 25 5 26 86 27 2 28 1 29 88 30 89 31 21 32 22 33
REMARK SMILES IDX 23 34 24 35 25 37 26 38 27 39 79 40 28 41 78 42 29 43 30 44
REMARK SMILES IDX 31 45 72 46 32 47 77 48 71 49 73 50 33 51 76 52 70 53 69 54
REMARK SMILES IDX 34 56 60 57 43 58 59 59 44 60 47 61 58 62 74 63 45 64 46 65
REMARK SMILES IDX 57 67 75 68 48 69 35 70 36 71 41 72 37 73 38 74 40 75 42 76
REMARK SMILES IDX 39 77 61 78 62 79 67 80 63 81 64 82 66 83 68 84 65 85 49 86
REMARK SMILES IDX 50 87 55 88 51 89 52 90 54 91 56 92 53 93
REMARK H PARENT 18 6 23 36 73 55 47 66
REMARK Flexibility Score: inf
ROOT
ATOM      1  C   UNL A   1      33.246  29.914  27.369  1.00  0.00     0.023 C 
ENDROOT
BRANCH   1   2
ATOM      2  C   UNL A   1      31.876  29.249  27.160  1.00  0.00     0.116 C 
BRANCH   2   3
ATOM      3  N   UNL A   1      31.174  29.794  26.013  1.00  0.00    -0.356 N 
ATOM      4  C   UNL A   1      31.271  29.467  24.690  1.00  0.00     0.224 C 
ATOM      5  O   UNL A   1      30.578  30.098  23.891  1.00  0.00    -0.275 OA
ATOM      6  H   UNL A   1      30.529  30.509  26.220  1.00  0.00     0.163 HD
BRANCH   4   7
ATOM      7  C   UNL A   1      32.187  28.331  24.256  1.00  0.00     0.098 C 
ATOM      8  N   UNL A   1      32.335  26.241  23.039  1.00  0.00    -0.354 N 
ATOM      9  C   UNL A   1      33.462  26.645  22.210  1.00  0.00     0.118 C 
ATOM     10  C   UNL A   1      31.405  27.300  23.419  1.00  0.00     0.131 C 
ATOM     11  C   UNL A   1      34.277  27.690  22.952  1.00  0.00     0.022 C 
ATOM     12  C   UNL A   1      33.397  28.831  23.446  1.00  0.00     0.017 C 
BRANCH   8  13
ATOM     13  C   UNL A   1      32.094  24.916  23.330  1.00  0.00     0.154 A 
ATOM     14  C   UNL A   1      34.918  23.104  24.752  1.00  0.00     0.094 A 
ATOM     15  C   UNL A   1      34.374  24.363  24.427  1.00  0.00     0.063 A 
ATOM     16  N   UNL A   1      34.029  22.121  24.539  1.00  0.00    -0.168 NA
ATOM     17  C   UNL A   1      33.132  24.092  23.913  1.00  0.00     0.109 A 
ATOM     18  N   UNL A   1      32.918  22.745  24.070  1.00  0.00    -0.235 N 
ATOM     19  C   UNL A   1      31.684  22.216  23.742  1.00  0.00     0.133 A 
ATOM     20  N   UNL A   1      30.922  24.391  23.066  1.00  0.00    -0.235 NA
ATOM     21  C   UNL A   1      30.734  23.040  23.274  1.00  0.00     0.133 A 
BRANCH  14  22
ATOM     22  C   UNL A   1      36.290  22.850  25.178  1.00  0.00     0.006 A 
ATOM     23  C   UNL A   1      38.931  22.445  26.067  1.00  0.00     0.160 A 
ATOM     24  C   UNL A   1      38.216  21.405  25.450  1.00  0.00     0.051 A 
ATOM     25  C   UNL A   1      38.314  23.687  26.266  1.00  0.00     0.161 A 
ATOM     26  C   UNL A   1      36.897  21.602  25.017  1.00  0.00     0.014 A 
ATOM     27  C   UNL A   1      37.000  23.873  25.813  1.00  0.00     0.060 A 
BRANCH  23  28
ATOM     28  O   UNL A   1      40.278  22.264  26.238  1.00  0.00    -0.493 OA
ATOM     29  C   UNL A   1      40.620  21.525  27.409  1.00  0.00     0.278 C 
ENDBRANCH  23  28
BRANCH  25  30
ATOM     30  O   UNL A   1      38.827  24.831  26.810  1.00  0.00    -0.493 OA
ATOM     31  C   UNL A   1      39.069  24.873  28.203  1.00  0.00     0.278 C 
ENDBRANCH  25  30
ENDBRANCH  14  22
ENDBRANCH   8  13
ENDBRANCH   4   7
ENDBRANCH   2   3
ENDBRANCH   1   2
BRANCH   1  32
ATOM     32  C   UNL A   1      34.471  29.063  27.019  1.00  0.00     0.023 C 
BRANCH  32  33
ATOM     33  C   UNL A   1      35.795  29.673  27.443  1.00  0.00     0.116 C 
BRANCH  33  34
ATOM     34  N   UNL A   1      35.907  29.881  28.891  1.00  0.00    -0.352 N 
ATOM     35  C   UNL A   1      36.852  29.341  29.767  1.00  0.00     0.251 C 
ATOM     36  H   UNL A   1      35.234  30.474  29.294  1.00  0.00     0.163 HD
ATOM     37  O   UNL A   1      36.628  29.221  30.949  1.00  0.00    -0.269 OA
BRANCH  35  38
ATOM     38  C   UNL A   1      38.177  28.992  29.212  1.00  0.00     0.039 A 
ATOM     39  C   UNL A   1      38.743  29.554  28.061  1.00  0.00     0.014 A 
ATOM     40  C   UNL A   1      38.879  28.048  29.928  1.00  0.00     0.014 A 
ATOM     41  C   UNL A   1      40.026  29.133  27.681  1.00  0.00     0.010 A 
ATOM     42  C   UNL A   1      40.225  28.087  29.805  1.00  0.00     0.010 A 
ATOM     43  C   UNL A   1      40.758  28.334  28.564  1.00  0.00    -0.014 A 
BRANCH  43  44
ATOM     44  C   UNL A   1      42.168  27.981  28.454  1.00  0.00     0.031 A 
ATOM     45  C   UNL A   1      42.334  26.722  27.688  1.00  0.00     0.074 A 
ATOM     46  C   UNL A   1      43.165  28.847  28.785  1.00  0.00     0.049 A 
ATOM     47  N   UNL A   1      42.495  25.544  28.191  1.00  0.00    -0.248 NA
ATOM     48  C   UNL A   1      41.992  26.696  26.251  1.00  0.00     0.031 C 
ATOM     49  C   UNL A   1      43.062  30.222  29.306  1.00  0.00     0.029 A 
ATOM     50  N   UNL A   1      44.524  28.688  28.688  1.00  0.00    -0.354 N 
ATOM     51  C   UNL A   1      42.614  24.694  27.097  1.00  0.00     0.074 A 
ATOM     52  C   UNL A   1      41.996  25.383  26.004  1.00  0.00     0.031 C 
ATOM     53  C   UNL A   1      44.273  30.832  29.279  1.00  0.00     0.029 A 
ATOM     54  C   UNL A   1      45.278  29.864  28.888  1.00  0.00     0.049 A 
ATOM     55  H   UNL A   1      44.942  27.819  28.495  1.00  0.00     0.167 HD
ATOM     56  C   UNL A   1      43.556  23.708  27.113  1.00  0.00     0.037 A 
ATOM     57  C   UNL A   1      46.633  29.991  28.774  1.00  0.00     0.037 A 
ATOM     58  C   UNL A   1      44.058  23.548  28.462  1.00  0.00     0.049 A 
ATOM     59  C   UNL A   1      47.189  28.624  28.902  1.00  0.00     0.074 A 
ATOM     60  C   UNL A   1      43.536  23.175  29.682  1.00  0.00     0.029 A 
ATOM     61  N   UNL A   1      45.198  24.264  28.725  1.00  0.00    -0.354 N 
ATOM     62  N   UNL A   1      47.126  27.933  30.004  1.00  0.00    -0.248 NA
ATOM     63  C   UNL A   1      47.334  27.858  27.678  1.00  0.00     0.031 C 
ATOM     64  C   UNL A   1      44.196  24.001  30.644  1.00  0.00     0.029 A 
ATOM     65  C   UNL A   1      45.176  24.756  29.998  1.00  0.00     0.049 A 
ATOM     66  H   UNL A   1      45.932  24.403  28.084  1.00  0.00     0.167 HD
ATOM     67  C   UNL A   1      46.741  26.666  29.591  1.00  0.00     0.074 A 
ATOM     68  C   UNL A   1      46.970  26.659  28.142  1.00  0.00     0.031 C 
ATOM     69  C   UNL A   1      45.979  25.883  30.414  1.00  0.00     0.037 A 
BRANCH  56  70
ATOM     70  C   UNL A   1      44.403  23.299  25.916  1.00  0.00     0.057 A 
ATOM     71  C   UNL A   1      44.519  21.925  25.628  1.00  0.00     0.134 A 
ATOM     72  C   UNL A   1      45.336  24.118  25.243  1.00  0.00     0.134 A 
ATOM     73  F   UNL A   1      43.692  21.031  26.193  1.00  0.00    -0.206 F 
ATOM     74  C   UNL A   1      45.541  21.401  24.825  1.00  0.00     0.040 A 
ATOM     75  C   UNL A   1      46.334  23.608  24.405  1.00  0.00     0.040 A 
ATOM     76  F   UNL A   1      45.407  25.440  25.414  1.00  0.00    -0.206 F 
ATOM     77  C   UNL A   1      46.462  22.243  24.220  1.00  0.00     0.006 A 
ENDBRANCH  56  70
BRANCH  57  78
ATOM     78  C   UNL A   1      47.486  31.098  28.253  1.00  0.00     0.057 A 
ATOM     79  C   UNL A   1      47.260  31.682  26.991  1.00  0.00     0.134 A 
ATOM     80  C   UNL A   1      48.309  31.832  29.120  1.00  0.00     0.134 A 
ATOM     81  F   UNL A   1      46.444  31.095  26.104  1.00  0.00    -0.206 F 
ATOM     82  C   UNL A   1      47.802  32.928  26.626  1.00  0.00     0.040 A 
ATOM     83  C   UNL A   1      48.852  33.078  28.771  1.00  0.00     0.040 A 
ATOM     84  F   UNL A   1      48.529  31.408  30.373  1.00  0.00    -0.206 F 
ATOM     85  C   UNL A   1      48.589  33.638  27.525  1.00  0.00     0.006 A 
ENDBRANCH  57  78
BRANCH  69  86
ATOM     86  C   UNL A   1      45.860  26.304  31.856  1.00  0.00     0.057 A 
ATOM     87  C   UNL A   1      44.783  27.016  32.410  1.00  0.00     0.134 A 
ATOM     88  C   UNL A   1      46.838  25.852  32.746  1.00  0.00     0.134 A 
ATOM     89  F   UNL A   1      43.753  27.418  31.653  1.00  0.00    -0.206 F 
ATOM     90  C   UNL A   1      44.709  27.294  33.780  1.00  0.00     0.040 A 
ATOM     91  C   UNL A   1      46.761  26.096  34.117  1.00  0.00     0.040 A 
ATOM     92  F   UNL A   1      47.869  25.120  32.294  1.00  0.00    -0.206 F 
ATOM     93  C   UNL A   1      45.700  26.829  34.639  1.00  0.00     0.006 A 
ENDBRANCH  69  86
ENDBRANCH  43  44
ENDBRANCH  35  38
ENDBRANCH  33  34
ENDBRANCH  32  33
ENDBRANCH   1  32
TORSDOF 15
ENDMDL
MODEL 2
REMARK VINA RESULT:     -11.2      3.457      8.228
REMARK SMILES COc1ccc(-c2cc3c(N4CCC[C@@H](C(=O)NCCCCNC(=O)c5ccc(-c6c7nc(c(-c8c(F)cccc8F)c8ccc([nH]8)c(-c8c(F)cccc8F)c8nc(c(-c9c(F)cccc9F)c9ccc6[nH]9)C=C8)C=C7)cc5)C4)nccn3n2)cc1OC
REMARK SMILES IDX 20 1 19 2 18 3 16 4 17 5 15 7 11 8 12 9 80 10 13 11 14 12
REMARK SMILES IDX 10 13 7 14 8 15 85 16 9 17 84 18 83 19 81 20 82 21 6 22 3 23
REMARK SMILES IDX 4 24 87 25 5 26 86 27 2 28 1 29 88 30 89 31 21 32 22 33
REMARK SMILES IDX 23 34 24 35 25 37 26 38 27 39 79 40 28 41 78 42 29 43 30 44
REMARK SMILES IDX 31 45 72 46 32 47 77 48 71 49 73 50 33 51 76 52 70 53 69 54
REMARK SMILES IDX 34 56 60 57 43 58 59 59 44 60 47 61 58 62 74 63 45 64 46 65
REMARK SMILES IDX 57 67 75 68 48 69 35 70 36 71 41 72 37 73 38 74 40 75 42 76
REMARK SMILES IDX 39 77 61 78 62 79 67 80 63 81 64 82 66 83 68 84 65 85 49 86
REMARK SMILES IDX 50 87 55 88 51 89 52 90 54 91 56 92 53 93
REMARK H PARENT 18 6 23 36 73 55 47 66
REMARK Flexibility Score: inf
ROOT
ATOM      1  C   UNL A   1      35.424  34.275  34.796  1.00  0.00     0.023 C 
ENDROOT
BRANCH   1   2
ATOM      2  C   UNL A   1      35.211  35.303  33.673  1.00  0.00     0.116 C 
BRANCH   2   3
ATOM      3  N   UNL A   1      33.813  35.660  33.519  1.00  0.00    -0.356 N 
ATOM      4  C   UNL A   1      33.104  35.954  32.388  1.00  0.00     0.224 C 
ATOM      5  O   UNL A   1      31.916  36.255  32.519  1.00  0.00    -0.275 OA
ATOM      6  H   UNL A   1      33.296  35.695  34.357  1.00  0.00     0.163 HD
BRANCH   4   7
ATOM      7  C   UNL A   1      33.779  35.869  31.027  1.00  0.00     0.098 C 
ATOM      8  N   UNL A   1      34.376  34.414  29.184  1.00  0.00    -0.354 N 
ATOM      9  C   UNL A   1      33.782  35.250  28.151  1.00  0.00     0.118 C 
ATOM     10  C   UNL A   1      33.712  34.429  30.484  1.00  0.00     0.131 C 
ATOM     11  C   UNL A   1      33.780  36.695  28.619  1.00  0.00     0.022 C 
ATOM     12  C   UNL A   1      33.151  36.829  30.000  1.00  0.00     0.017 C 
BRANCH   8  13
ATOM     13  C   UNL A   1      35.422  33.562  28.905  1.00  0.00     0.154 A 
ATOM     14  C   UNL A   1      34.463  30.337  27.505  1.00  0.00     0.094 A 
ATOM     15  C   UNL A   1      34.056  31.649  27.817  1.00  0.00     0.063 A 
ATOM     16  N   UNL A   1      35.777  30.170  27.726  1.00  0.00    -0.168 NA
ATOM     17  C   UNL A   1      35.173  32.256  28.331  1.00  0.00     0.109 A 
ATOM     18  N   UNL A   1      36.212  31.370  28.187  1.00  0.00    -0.235 N 
ATOM     19  C   UNL A   1      37.492  31.774  28.518  1.00  0.00     0.133 A 
ATOM     20  N   UNL A   1      36.653  33.928  29.173  1.00  0.00    -0.235 NA
ATOM     21  C   UNL A   1      37.675  33.022  28.977  1.00  0.00     0.133 A 
BRANCH  14  22
ATOM     22  C   UNL A   1      33.588  29.249  27.084  1.00  0.00     0.006 A 
ATOM     23  C   UNL A   1      31.986  27.085  26.259  1.00  0.00     0.160 A 
ATOM     24  C   UNL A   1      31.436  28.136  27.011  1.00  0.00     0.051 A 
ATOM     25  C   UNL A   1      33.350  27.100  25.940  1.00  0.00     0.161 A 
ATOM     26  C   UNL A   1      32.236  29.209  27.432  1.00  0.00     0.014 A 
ATOM     27  C   UNL A   1      34.132  28.188  26.355  1.00  0.00     0.060 A 
BRANCH  23  28
ATOM     28  O   UNL A   1      31.111  26.206  25.676  1.00  0.00    -0.493 OA
ATOM     29  C   UNL A   1      30.661  26.607  24.384  1.00  0.00     0.278 C 
ENDBRANCH  23  28
BRANCH  25  30
ATOM     30  O   UNL A   1      34.077  26.208  25.202  1.00  0.00    -0.493 OA
ATOM     31  C   UNL A   1      34.170  24.870  25.650  1.00  0.00     0.278 C 
ENDBRANCH  25  30
ENDBRANCH  14  22
ENDBRANCH   8  13
ENDBRANCH   4   7
ENDBRANCH   2   3
ENDBRANCH   1   2
BRANCH   1  32
ATOM     32  C   UNL A   1      36.867  33.809  35.021  1.00  0.00     0.023 C 
BRANCH  32  33
ATOM     33  C   UNL A   1      37.179  32.442  34.440  1.00  0.00     0.116 C 
BRANCH  33  34
ATOM     34  N   UNL A   1      36.162  31.960  33.500  1.00  0.00    -0.352 N 
ATOM     35  C   UNL A   1      36.353  31.218  32.332  1.00  0.00     0.251 C 
ATOM     36  H   UNL A   1      35.229  32.186  33.720  1.00  0.00     0.163 HD
ATOM     37  O   UNL A   1      35.547  31.230  31.431  1.00  0.00    -0.269 OA
BRANCH  35  38
ATOM     38  C   UNL A   1      37.545  30.346  32.263  1.00  0.00     0.039 A 
ATOM     39  C   UNL A   1      37.558  28.974  32.543  1.00  0.00     0.014 A 
ATOM     40  C   UNL A   1      38.705  30.975  31.870  1.00  0.00     0.014 A 
ATOM     41  C   UNL A   1      38.770  28.281  32.404  1.00  0.00     0.010 A 
ATOM     42  C   UNL A   1      39.640  30.189  31.288  1.00  0.00     0.010 A 
ATOM     43  C   UNL A   1      39.850  28.935  31.804  1.00  0.00    -0.014 A 
BRANCH  43  44
ATOM     44  C   UNL A   1      41.104  28.330  31.375  1.00  0.00     0.031 A 
ATOM     45  C   UNL A   1      42.040  28.198  32.518  1.00  0.00     0.074 A 
ATOM     46  C   UNL A   1      41.251  27.741  30.157  1.00  0.00     0.049 A 
ATOM     47  N   UNL A   1      43.000  29.011  32.808  1.00  0.00    -0.248 NA
ATOM     48  C   UNL A   1      41.717  27.267  33.618  1.00  0.00     0.031 C 
ATOM     49  C   UNL A   1      40.264  27.604  29.070  1.00  0.00     0.029 A 
ATOM     50  N   UNL A   1      42.335  27.087  29.630  1.00  0.00    -0.354 N 
ATOM     51  C   UNL A   1      43.599  28.476  33.943  1.00  0.00     0.074 A 
ATOM     52  C   UNL A   1      42.607  27.635  34.544  1.00  0.00     0.031 C 
ATOM     53  C   UNL A   1      40.717  26.746  28.122  1.00  0.00     0.029 A 
ATOM     54  C   UNL A   1      42.084  26.380  28.435  1.00  0.00     0.049 A 
ATOM     55  H   UNL A   1      43.223  27.110  30.053  1.00  0.00     0.167 HD
ATOM     56  C   UNL A   1      44.960  28.459  34.040  1.00  0.00     0.037 A 
ATOM     57  C   UNL A   1      42.968  25.593  27.754  1.00  0.00     0.037 A 
ATOM     58  C   UNL A   1      45.521  29.326  33.024  1.00  0.00     0.049 A 
ATOM     59  C   UNL A   1      44.319  26.009  28.195  1.00  0.00     0.074 A 
ATOM     60  C   UNL A   1      45.481  30.672  32.730  1.00  0.00     0.029 A 
ATOM     61  N   UNL A   1      45.870  28.680  31.866  1.00  0.00    -0.354 N 
ATOM     62  N   UNL A   1      44.822  27.182  27.933  1.00  0.00    -0.248 NA
ATOM     63  C   UNL A   1      44.871  25.326  29.351  1.00  0.00     0.031 C 
ATOM     64  C   UNL A   1      45.453  30.746  31.302  1.00  0.00     0.029 A 
ATOM     65  C   UNL A   1      45.598  29.460  30.779  1.00  0.00     0.049 A 
ATOM     66  H   UNL A   1      46.262  27.778  31.823  1.00  0.00     0.167 HD
ATOM     67  C   UNL A   1      45.388  27.588  29.131  1.00  0.00     0.074 A 
ATOM     68  C   UNL A   1      45.463  26.367  29.943  1.00  0.00     0.031 C 
ATOM     69  C   UNL A   1      45.430  28.917  29.450  1.00  0.00     0.037 A 
BRANCH  56  70
ATOM     70  C   UNL A   1      45.775  27.310  34.616  1.00  0.00     0.057 A 
ATOM     71  C   UNL A   1      46.800  27.621  35.532  1.00  0.00     0.134 A 
ATOM     72  C   UNL A   1      45.825  25.994  34.108  1.00  0.00     0.134 A 
ATOM     73  F   UNL A   1      46.870  28.836  36.099  1.00  0.00    -0.206 F 
ATOM     74  C   UNL A   1      47.843  26.736  35.832  1.00  0.00     0.040 A 
ATOM     75  C   UNL A   1      46.840  25.088  34.435  1.00  0.00     0.040 A 
ATOM     76  F   UNL A   1      44.963  25.525  33.203  1.00  0.00    -0.206 F 
ATOM     77  C   UNL A   1      47.874  25.468  35.272  1.00  0.00     0.006 A 
ENDBRANCH  56  70
BRANCH  57  78
ATOM     78  C   UNL A   1      42.788  24.314  27.008  1.00  0.00     0.057 A 
ATOM     79  C   UNL A   1      43.159  24.181  25.655  1.00  0.00     0.134 A 
ATOM     80  C   UNL A   1      42.577  23.111  27.697  1.00  0.00     0.134 A 
ATOM     81  F   UNL A   1      43.441  25.264  24.916  1.00  0.00    -0.206 F 
ATOM     82  C   UNL A   1      43.330  22.930  25.037  1.00  0.00     0.040 A 
ATOM     83  C   UNL A   1      42.750  21.855  27.094  1.00  0.00     0.040 A 
ATOM     84  F   UNL A   1      42.295  23.117  29.008  1.00  0.00    -0.206 F 
ATOM     85  C   UNL A   1      43.140  21.760  25.763  1.00  0.00     0.006 A 
ENDBRANCH  57  78
BRANCH  69  86
ATOM     86  C   UNL A   1      45.150  29.903  28.346  1.00  0.00     0.057 A 
ATOM     87  C   UNL A   1      43.898  30.476  28.065  1.00  0.00     0.134 A 
ATOM     88  C   UNL A   1      46.238  30.382  27.613  1.00  0.00     0.134 A 
ATOM     89  F   UNL A   1      42.809  30.147  28.772  1.00  0.00    -0.206 F 
ATOM     90  C   UNL A   1      43.739  31.452  27.073  1.00  0.00     0.040 A 
ATOM     91  C   UNL A   1      46.099  31.375  26.643  1.00  0.00     0.040 A 
ATOM     92  F   UNL A   1      47.473  29.918  27.864  1.00  0.00    -0.206 F 
ATOM     93  C   UNL A   1      44.844  31.906  26.361  1.00  0.00     0.006 A 
ENDBRANCH  69  86
ENDBRANCH  43  44
ENDBRANCH  35  38
ENDBRANCH  33  34
ENDBRANCH  32  33
ENDBRANCH   1  32
TORSDOF 15
ENDMDL
MODEL 3
REMARK VINA RESULT:     -11.1      2.471      5.965
REMARK SMILES COc1ccc(-c2cc3c(N4CCC[C@@H](C(=O)NCCCCNC(=O)c5ccc(-c6c7nc(c(-c8c(F)cccc8F)c8ccc([nH]8)c(-c8c(F)cccc8F)c8nc(c(-c9c(F)cccc9F)c9ccc6[nH]9)C=C8)C=C7)cc5)C4)nccn3n2)cc1OC
REMARK SMILES IDX 20 1 19 2 18 3 16 4 17 5 15 7 11 8 12 9 80 10 13 11 14 12
REMARK SMILES IDX 10 13 7 14 8 15 85 16 9 17 84 18 83 19 81 20 82 21 6 22 3 23
REMARK SMILES IDX 4 24 87 25 5 26 86 27 2 28 1 29 88 30 89 31 21 32 22 33
REMARK SMILES IDX 23 34 24 35 25 37 26 38 27 39 79 40 28 41 78 42 29 43 30 44
REMARK SMILES IDX 31 45 72 46 32 47 77 48 71 49 73 50 33 51 76 52 70 53 69 54
REMARK SMILES IDX 34 56 60 57 43 58 59 59 44 60 47 61 58 62 74 63 45 64 46 65
REMARK SMILES IDX 57 67 75 68 48 69 35 70 36 71 41 72 37 73 38 74 40 75 42 76
REMARK SMILES IDX 39 77 61 78 62 79 67 80 63 81 64 82 66 83 68 84 65 85 49 86
REMARK SMILES IDX 50 87 55 88 51 89 52 90 54 91 56 92 53 93
REMARK H PARENT 18 6 23 36 73 55 47 66
REMARK Flexibility Score: inf
ROOT
ATOM      1  C   UNL A   1      32.342  28.108  27.200  1.00  0.00     0.023 C 
ENDROOT
BRANCH   1   2
ATOM      2  C   UNL A   1      31.815  27.173  26.100  1.00  0.00     0.116 C 
BRANCH   2   3
ATOM      3  N   UNL A   1      30.885  26.189  26.621  1.00  0.00    -0.356 N 
ATOM      4  C   UNL A   1      30.713  24.877  26.277  1.00  0.00     0.224 C 
ATOM      5  O   UNL A   1      29.829  24.244  26.855  1.00  0.00    -0.275 OA
ATOM      6  H   UNL A   1      30.285  26.516  27.331  1.00  0.00     0.163 HD
BRANCH   4   7
ATOM      7  C   UNL A   1      31.626  24.241  25.238  1.00  0.00     0.098 C 
ATOM      8  N   UNL A   1      32.101  22.239  23.959  1.00  0.00    -0.354 N 
ATOM      9  C   UNL A   1      32.113  22.903  22.664  1.00  0.00     0.118 C 
ATOM     10  C   UNL A   1      31.189  22.790  24.956  1.00  0.00     0.131 C 
ATOM     11  C   UNL A   1      32.508  24.358  22.853  1.00  0.00     0.022 C 
ATOM     12  C   UNL A   1      31.650  25.030  23.917  1.00  0.00     0.017 C 
BRANCH   8  13
ATOM     13  C   UNL A   1      32.812  21.079  24.179  1.00  0.00     0.154 A 
ATOM     14  C   UNL A   1      36.186  21.548  25.473  1.00  0.00     0.094 A 
ATOM     15  C   UNL A   1      34.931  22.139  25.223  1.00  0.00     0.063 A 
ATOM     16  N   UNL A   1      36.163  20.231  25.214  1.00  0.00    -0.168 NA
ATOM     17  C   UNL A   1      34.159  21.131  24.706  1.00  0.00     0.109 A 
ATOM     18  N   UNL A   1      34.899  19.977  24.790  1.00  0.00    -0.235 N 
ATOM     19  C   UNL A   1      34.312  18.774  24.445  1.00  0.00     0.133 A 
ATOM     20  N   UNL A   1      32.271  19.918  23.896  1.00  0.00    -0.235 NA
ATOM     21  C   UNL A   1      33.035  18.776  24.032  1.00  0.00     0.133 A 
BRANCH  14  22
ATOM     22  C   UNL A   1      37.398  22.254  25.872  1.00  0.00     0.006 A 
ATOM     23  C   UNL A   1      39.798  23.540  26.593  1.00  0.00     0.160 A 
ATOM     24  C   UNL A   1      38.590  24.256  26.541  1.00  0.00     0.051 A 
ATOM     25  C   UNL A   1      39.812  22.180  26.255  1.00  0.00     0.161 A 
ATOM     26  C   UNL A   1      37.396  23.619  26.172  1.00  0.00     0.014 A 
ATOM     27  C   UNL A   1      38.608  21.555  25.903  1.00  0.00     0.060 A 
BRANCH  23  28
ATOM     28  O   UNL A   1      40.865  24.154  27.193  1.00  0.00    -0.493 OA
ATOM     29  C   UNL A   1      40.715  25.564  27.342  1.00  0.00     0.278 C 
ENDBRANCH  23  28
BRANCH  25  30
ATOM     30  O   UNL A   1      40.856  21.298  26.265  1.00  0.00    -0.493 OA
ATOM     31  C   UNL A   1      41.339  20.827  27.508  1.00  0.00     0.278 C 
ENDBRANCH  25  30
ENDBRANCH  14  22
ENDBRANCH   8  13
ENDBRANCH   4   7
ENDBRANCH   2   3
ENDBRANCH   1   2
BRANCH   1  32
ATOM     32  C   UNL A   1      33.020  29.398  26.723  1.00  0.00     0.023 C 
BRANCH  32  33
ATOM     33  C   UNL A   1      34.021  29.976  27.706  1.00  0.00     0.116 C 
BRANCH  33  34
ATOM     34  N   UNL A   1      34.498  31.314  27.337  1.00  0.00    -0.352 N 
ATOM     35  C   UNL A   1      35.673  31.951  27.743  1.00  0.00     0.251 C 
ATOM     36  H   UNL A   1      33.918  31.825  26.727  1.00  0.00     0.163 HD
ATOM     37  O   UNL A   1      35.777  33.155  27.740  1.00  0.00    -0.269 OA
BRANCH  35  38
ATOM     38  C   UNL A   1      36.823  31.096  28.104  1.00  0.00     0.039 A 
ATOM     39  C   UNL A   1      37.149  29.881  27.490  1.00  0.00     0.014 A 
ATOM     40  C   UNL A   1      37.617  31.585  29.117  1.00  0.00     0.014 A 
ATOM     41  C   UNL A   1      38.295  29.202  27.932  1.00  0.00     0.010 A 
ATOM     42  C   UNL A   1      38.904  31.167  29.120  1.00  0.00     0.010 A 
ATOM     43  C   UNL A   1      39.162  29.854  28.813  1.00  0.00    -0.014 A 
BRANCH  43  44
ATOM     44  C   UNL A   1      40.493  29.413  29.210  1.00  0.00     0.031 A 
ATOM     45  C   UNL A   1      40.529  29.092  30.657  1.00  0.00     0.074 A 
ATOM     46  C   UNL A   1      41.458  29.098  28.303  1.00  0.00     0.049 A 
ATOM     47  N   UNL A   1      40.949  29.873  31.596  1.00  0.00    -0.248 NA
ATOM     48  C   UNL A   1      39.759  27.939  31.165  1.00  0.00     0.031 C 
ATOM     49  C   UNL A   1      41.395  29.142  26.831  1.00  0.00     0.029 A 
ATOM     50  N   UNL A   1      42.727  28.621  28.511  1.00  0.00    -0.354 N 
ATOM     51  C   UNL A   1      40.799  29.143  32.770  1.00  0.00     0.074 A 
ATOM     52  C   UNL A   1      39.808  28.148  32.483  1.00  0.00     0.031 C 
ATOM     53  C   UNL A   1      42.474  28.524  26.289  1.00  0.00     0.029 A 
ATOM     54  C   UNL A   1      43.392  28.167  27.352  1.00  0.00     0.049 A 
ATOM     55  H   UNL A   1      43.144  28.599  29.402  1.00  0.00     0.167 HD
ATOM     56  C   UNL A   1      41.787  29.173  33.710  1.00  0.00     0.037 A 
ATOM     57  C   UNL A   1      44.626  27.583  27.298  1.00  0.00     0.037 A 
ATOM     58  C   UNL A   1      42.698  30.258  33.411  1.00  0.00     0.049 A 
ATOM     59  C   UNL A   1      45.319  27.964  28.550  1.00  0.00     0.074 A 
ATOM     60  C   UNL A   1      42.621  31.632  33.336  1.00  0.00     0.029 A 
ATOM     61  N   UNL A   1      43.791  29.885  32.671  1.00  0.00    -0.354 N 
ATOM     62  N   UNL A   1      45.669  29.188  28.824  1.00  0.00    -0.248 NA
ATOM     63  C   UNL A   1      45.145  27.083  29.690  1.00  0.00     0.031 C 
ATOM     64  C   UNL A   1      43.468  32.000  32.245  1.00  0.00     0.029 A 
ATOM     65  C   UNL A   1      44.121  30.860  31.774  1.00  0.00     0.049 A 
ATOM     66  H   UNL A   1      44.271  29.032  32.772  1.00  0.00     0.167 HD
ATOM     67  C   UNL A   1      45.295  29.363  30.147  1.00  0.00     0.074 A 
ATOM     68  C   UNL A   1      45.058  28.006  30.652  1.00  0.00     0.031 C 
ATOM     69  C   UNL A   1      44.905  30.597  30.588  1.00  0.00     0.037 A 
BRANCH  56  70
ATOM     70  C   UNL A   1      42.252  27.970  34.519  1.00  0.00     0.057 A 
ATOM     71  C   UNL A   1      42.261  28.082  35.923  1.00  0.00     0.134 A 
ATOM     72  C   UNL A   1      42.965  26.860  34.017  1.00  0.00     0.134 A 
ATOM     73  F   UNL A   1      41.616  29.086  36.538  1.00  0.00    -0.206 F 
ATOM     74  C   UNL A   1      43.003  27.227  36.748  1.00  0.00     0.040 A 
ATOM     75  C   UNL A   1      43.676  25.976  34.835  1.00  0.00     0.040 A 
ATOM     76  F   UNL A   1      43.101  26.606  32.713  1.00  0.00    -0.206 F 
ATOM     77  C   UNL A   1      43.726  26.176  36.203  1.00  0.00     0.006 A 
ENDBRANCH  56  70
BRANCH  57  78
ATOM     78  C   UNL A   1      45.165  26.480  26.452  1.00  0.00     0.057 A 
ATOM     79  C   UNL A   1      46.244  26.678  25.567  1.00  0.00     0.134 A 
ATOM     80  C   UNL A   1      44.865  25.142  26.748  1.00  0.00     0.134 A 
ATOM     81  F   UNL A   1      46.653  27.918  25.258  1.00  0.00    -0.206 F 
ATOM     82  C   UNL A   1      46.989  25.612  25.031  1.00  0.00     0.040 A 
ATOM     83  C   UNL A   1      45.604  24.069  26.225  1.00  0.00     0.040 A 
ATOM     84  F   UNL A   1      43.909  24.839  27.638  1.00  0.00    -0.206 F 
ATOM     85  C   UNL A   1      46.678  24.301  25.374  1.00  0.00     0.006 A 
ENDBRANCH  57  78
BRANCH  69  86
ATOM     86  C   UNL A   1      45.204  31.777  29.699  1.00  0.00     0.057 A 
ATOM     87  C   UNL A   1      44.322  32.328  28.755  1.00  0.00     0.134 A 
ATOM     88  C   UNL A   1      46.407  32.456  29.907  1.00  0.00     0.134 A 
ATOM     89  F   UNL A   1      43.109  31.800  28.545  1.00  0.00    -0.206 F 
ATOM     90  C   UNL A   1      44.646  33.480  28.027  1.00  0.00     0.040 A 
ATOM     91  C   UNL A   1      46.729  33.622  29.211  1.00  0.00     0.040 A 
ATOM     92  F   UNL A   1      47.275  32.017  30.832  1.00  0.00    -0.206 F 
ATOM     93  C   UNL A   1      45.852  34.132  28.259  1.00  0.00     0.006 A 
ENDBRANCH  69  86
ENDBRANCH  43  44
ENDBRANCH  35  38
ENDBRANCH  33  34
ENDBRANCH  32  33
ENDBRANCH   1  32
TORSDOF 15
ENDMDL
