MODEL 1
REMARK VINA RESULT:     -12.1      0.000      0.000
REMARK SMILES C[NH2+][C@@H](C)c1ccc(SCc2ccc(C(=O)NCCCCNC(=O)c3ccc(-c4c5nc(c(-c6c(F)cccc6F)c6ccc([nH]6)c(-c6c(F)cccc6F)c6nc(c(-c7c(F)cccc7F)c7ccc4[nH]7)C=C6)C=C5)cc3)cc2)cc1
REMARK SMILES IDX 18 1 17 2 15 3 16 4 14 6 11 7 12 8 80 9 13 10 79 11 10 12
REMARK SMILES IDX 9 13 8 14 5 15 6 16 82 17 7 18 81 19 3 20 4 21 2 22 1 23
REMARK SMILES IDX 19 26 20 27 21 28 22 29 23 30 24 32 25 33 26 34 78 35 27 36
REMARK SMILES IDX 77 37 28 38 29 39 30 40 71 41 31 42 76 43 70 44 72 45 32 46
REMARK SMILES IDX 75 47 69 48 68 49 33 51 59 52 42 53 58 54 43 55 46 56 57 57
REMARK SMILES IDX 73 58 44 59 45 60 56 62 74 63 47 64 34 65 35 66 40 67 36 68
REMARK SMILES IDX 37 69 39 70 41 71 38 72 60 73 61 74 66 75 62 76 63 77 65 78
REMARK SMILES IDX 67 79 64 80 48 81 49 82 54 83 50 84 51 85 53 86 55 87 52 88
REMARK H PARENT 17 5 2 24 2 25 22 31 72 50 46 61
REMARK Flexibility Score: inf
ROOT
ATOM      1  C   UNL A   1      35.667  20.799  25.520  1.00  0.00     0.116 C 
ENDROOT
BRANCH   1   2
ATOM      2  N   UNL A   1      34.819  19.735  25.026  1.00  0.00    -0.352 N 
ATOM      3  C   UNL A   1      33.521  19.717  24.585  1.00  0.00     0.251 C 
ATOM      4  O   UNL A   1      33.066  18.627  24.233  1.00  0.00    -0.269 OA
ATOM      5  H   UNL A   1      35.260  18.854  25.003  1.00  0.00     0.163 HD
BRANCH   3   6
ATOM      6  C   UNL A   1      32.671  20.936  24.452  1.00  0.00     0.039 A 
ATOM      7  C   UNL A   1      31.276  23.382  24.051  1.00  0.00    -0.038 A 
ATOM      8  C   UNL A   1      32.052  22.820  23.032  1.00  0.00     0.005 A 
ATOM      9  C   UNL A   1      31.132  22.646  25.237  1.00  0.00     0.005 A 
ATOM     10  C   UNL A   1      32.755  21.628  23.238  1.00  0.00     0.014 A 
ATOM     11  C   UNL A   1      31.798  21.427  25.422  1.00  0.00     0.014 A 
BRANCH   7  12
ATOM     12  C   UNL A   1      30.612  24.742  23.991  1.00  0.00     0.110 C 
BRANCH  12  13
ATOM     13  S   UNL A   1      31.271  26.100  25.003  1.00  0.00    -0.121 SA
BRANCH  13  14
ATOM     14  C   UNL A   1      30.528  27.579  24.317  1.00  0.00     0.008 A 
ATOM     15  C   UNL A   1      29.269  29.776  23.041  1.00  0.00     0.009 A 
ATOM     16  C   UNL A   1      28.776  28.474  22.882  1.00  0.00     0.011 A 
ATOM     17  C   UNL A   1      30.386  29.964  23.868  1.00  0.00     0.011 A 
ATOM     18  C   UNL A   1      29.401  27.392  23.509  1.00  0.00     0.015 A 
ATOM     19  C   UNL A   1      31.001  28.879  24.507  1.00  0.00     0.015 A 
BRANCH  15  20
ATOM     20  C   UNL A   1      28.550  30.942  22.374  1.00  0.00     0.210 C 
ATOM     21  C   UNL A   1      28.045  30.572  20.972  1.00  0.00     0.081 C 
BRANCH  20  22
ATOM     22  N   UNL A   1      29.441  32.109  22.386  1.00  0.00    -0.343 N 
ATOM     23  C   UNL A   1      28.849  33.299  22.967  1.00  0.00     0.331 C 
ATOM     24  H   UNL A   1      30.274  31.870  22.923  1.00  0.00     0.346 HD
ATOM     25  H   UNL A   1      29.651  32.329  21.412  1.00  0.00     0.346 HD
ENDBRANCH  20  22
ENDBRANCH  15  20
ENDBRANCH  13  14
ENDBRANCH  12  13
ENDBRANCH   7  12
ENDBRANCH   3   6
ENDBRANCH   1   2
BRANCH   1  26
ATOM     26  C   UNL A   1      36.934  20.913  24.669  1.00  0.00     0.023 C 
BRANCH  26  27
ATOM     27  C   UNL A   1      37.941  19.782  24.893  1.00  0.00     0.023 C 
BRANCH  27  28
ATOM     28  C   UNL A   1      39.139  20.155  25.758  1.00  0.00     0.116 C 
BRANCH  28  29
ATOM     29  N   UNL A   1      40.130  19.095  25.851  1.00  0.00    -0.352 N 
ATOM     30  C   UNL A   1      41.475  19.207  26.118  1.00  0.00     0.251 C 
ATOM     31  H   UNL A   1      39.796  18.181  25.704  1.00  0.00     0.163 HD
ATOM     32  O   UNL A   1      42.206  18.232  26.066  1.00  0.00    -0.269 OA
BRANCH  30  33
ATOM     33  C   UNL A   1      42.027  20.542  26.424  1.00  0.00     0.039 A 
ATOM     34  C   UNL A   1      42.387  21.378  25.365  1.00  0.00     0.014 A 
ATOM     35  C   UNL A   1      42.142  20.978  27.746  1.00  0.00     0.014 A 
ATOM     36  C   UNL A   1      42.796  22.686  25.631  1.00  0.00     0.010 A 
ATOM     37  C   UNL A   1      42.489  22.298  28.006  1.00  0.00     0.010 A 
ATOM     38  C   UNL A   1      42.814  23.165  26.951  1.00  0.00    -0.014 A 
BRANCH  38  39
ATOM     39  C   UNL A   1      43.163  24.574  27.255  1.00  0.00     0.031 A 
ATOM     40  C   UNL A   1      44.595  25.020  27.196  1.00  0.00     0.074 A 
ATOM     41  C   UNL A   1      42.201  25.423  27.662  1.00  0.00     0.049 A 
ATOM     42  N   UNL A   1      45.114  26.176  27.524  1.00  0.00    -0.248 NA
ATOM     43  C   UNL A   1      45.578  24.027  26.735  1.00  0.00     0.031 C 
ATOM     44  C   UNL A   1      40.782  25.094  27.805  1.00  0.00     0.029 A 
ATOM     45  N   UNL A   1      42.278  26.738  28.049  1.00  0.00    -0.354 N 
ATOM     46  C   UNL A   1      46.482  26.042  27.330  1.00  0.00     0.074 A 
ATOM     47  C   UNL A   1      46.718  24.681  26.896  1.00  0.00     0.031 C 
ATOM     48  C   UNL A   1      40.120  26.181  28.232  1.00  0.00     0.029 A 
ATOM     49  C   UNL A   1      41.070  27.271  28.428  1.00  0.00     0.049 A 
ATOM     50  H   UNL A   1      43.119  27.250  28.055  1.00  0.00     0.167 HD
ATOM     51  C   UNL A   1      47.452  26.975  27.478  1.00  0.00     0.037 A 
ATOM     52  C   UNL A   1      40.766  28.499  28.890  1.00  0.00     0.037 A 
ATOM     53  C   UNL A   1      47.210  28.335  27.877  1.00  0.00     0.049 A 
ATOM     54  C   UNL A   1      41.860  29.519  29.040  1.00  0.00     0.074 A 
ATOM     55  C   UNL A   1      48.117  29.374  27.994  1.00  0.00     0.029 A 
ATOM     56  N   UNL A   1      45.968  28.846  28.223  1.00  0.00    -0.354 N 
ATOM     57  N   UNL A   1      43.142  29.398  28.792  1.00  0.00    -0.248 NA
ATOM     58  C   UNL A   1      41.465  30.847  29.529  1.00  0.00     0.031 C 
ATOM     59  C   UNL A   1      47.429  30.506  28.443  1.00  0.00     0.029 A 
ATOM     60  C   UNL A   1      46.087  30.182  28.569  1.00  0.00     0.049 A 
ATOM     61  H   UNL A   1      45.126  28.336  28.222  1.00  0.00     0.167 HD
ATOM     62  C   UNL A   1      43.701  30.638  29.068  1.00  0.00     0.074 A 
ATOM     63  C   UNL A   1      42.618  31.501  29.492  1.00  0.00     0.031 C 
ATOM     64  C   UNL A   1      44.996  31.027  28.977  1.00  0.00     0.037 A 
BRANCH  51  65
ATOM     65  C   UNL A   1      48.863  26.552  27.198  1.00  0.00     0.057 A 
ATOM     66  C   UNL A   1      49.672  25.980  28.190  1.00  0.00     0.134 A 
ATOM     67  C   UNL A   1      49.411  26.692  25.918  1.00  0.00     0.134 A 
ATOM     68  F   UNL A   1      49.210  25.832  29.441  1.00  0.00    -0.206 F 
ATOM     69  C   UNL A   1      50.984  25.587  27.924  1.00  0.00     0.040 A 
ATOM     70  C   UNL A   1      50.714  26.279  25.633  1.00  0.00     0.040 A 
ATOM     71  F   UNL A   1      48.690  27.227  24.921  1.00  0.00    -0.206 F 
ATOM     72  C   UNL A   1      51.506  25.730  26.640  1.00  0.00     0.006 A 
ENDBRANCH  51  65
BRANCH  52  73
ATOM     73  C   UNL A   1      39.361  28.840  29.223  1.00  0.00     0.057 A 
ATOM     74  C   UNL A   1      38.508  29.392  28.261  1.00  0.00     0.134 A 
ATOM     75  C   UNL A   1      38.841  28.629  30.505  1.00  0.00     0.134 A 
ATOM     76  F   UNL A   1      38.958  29.633  27.021  1.00  0.00    -0.206 F 
ATOM     77  C   UNL A   1      37.191  29.739  28.564  1.00  0.00     0.040 A 
ATOM     78  C   UNL A   1      37.519  28.952  30.817  1.00  0.00     0.040 A 
ATOM     79  F   UNL A   1      39.605  28.097  31.468  1.00  0.00    -0.206 F 
ATOM     80  C   UNL A   1      36.692  29.515  29.846  1.00  0.00     0.006 A 
ENDBRANCH  52  73
BRANCH  64  81
ATOM     81  C   UNL A   1      45.307  32.456  29.308  1.00  0.00     0.057 A 
ATOM     82  C   UNL A   1      45.706  32.845  30.593  1.00  0.00     0.134 A 
ATOM     83  C   UNL A   1      45.251  33.445  28.318  1.00  0.00     0.134 A 
ATOM     84  F   UNL A   1      45.766  31.947  31.588  1.00  0.00    -0.206 F 
ATOM     85  C   UNL A   1      46.024  34.173  30.884  1.00  0.00     0.040 A 
ATOM     86  C   UNL A   1      45.588  34.770  28.592  1.00  0.00     0.040 A 
ATOM     87  F   UNL A   1      44.882  33.135  27.066  1.00  0.00    -0.206 F 
ATOM     88  C   UNL A   1      45.972  35.137  29.879  1.00  0.00     0.006 A 
ENDBRANCH  64  81
ENDBRANCH  38  39
ENDBRANCH  30  33
ENDBRANCH  28  29
ENDBRANCH  27  28
ENDBRANCH  26  27
ENDBRANCH   1  26
TORSDOF 16
ENDMDL
MODEL 2
REMARK VINA RESULT:     -12.0      0.763      6.253
REMARK SMILES C[NH2+][C@@H](C)c1ccc(SCc2ccc(C(=O)NCCCCNC(=O)c3ccc(-c4c5nc(c(-c6c(F)cccc6F)c6ccc([nH]6)c(-c6c(F)cccc6F)c6nc(c(-c7c(F)cccc7F)c7ccc4[nH]7)C=C6)C=C5)cc3)cc2)cc1
REMARK SMILES IDX 18 1 17 2 15 3 16 4 14 6 11 7 12 8 80 9 13 10 79 11 10 12
REMARK SMILES IDX 9 13 8 14 5 15 6 16 82 17 7 18 81 19 3 20 4 21 2 22 1 23
REMARK SMILES IDX 19 26 20 27 21 28 22 29 23 30 24 32 25 33 26 34 78 35 27 36
REMARK SMILES IDX 77 37 28 38 29 39 30 40 71 41 31 42 76 43 70 44 72 45 32 46
REMARK SMILES IDX 75 47 69 48 68 49 33 51 59 52 42 53 58 54 43 55 46 56 57 57
REMARK SMILES IDX 73 58 44 59 45 60 56 62 74 63 47 64 34 65 35 66 40 67 36 68
REMARK SMILES IDX 37 69 39 70 41 71 38 72 60 73 61 74 66 75 62 76 63 77 65 78
REMARK SMILES IDX 67 79 64 80 48 81 49 82 54 83 50 84 51 85 53 86 55 87 52 88
REMARK H PARENT 17 5 2 24 2 25 22 31 72 50 46 61
REMARK Flexibility Score: inf
ROOT
ATOM      1  C   UNL A   1      35.863  21.265  25.602  1.00  0.00     0.116 C 
ENDROOT
BRANCH   1   2
ATOM      2  N   UNL A   1      35.059  20.104  25.283  1.00  0.00    -0.352 N 
ATOM      3  C   UNL A   1      33.759  19.967  24.869  1.00  0.00     0.251 C 
ATOM      4  O   UNL A   1      33.349  18.819  24.688  1.00  0.00    -0.269 OA
ATOM      5  H   UNL A   1      35.538  19.250  25.383  1.00  0.00     0.163 HD
BRANCH   3   6
ATOM      6  C   UNL A   1      32.855  21.117  24.572  1.00  0.00     0.039 A 
ATOM      7  C   UNL A   1      31.340  23.402  23.817  1.00  0.00    -0.038 A 
ATOM      8  C   UNL A   1      32.052  22.664  22.866  1.00  0.00     0.005 A 
ATOM      9  C   UNL A   1      31.320  22.916  25.133  1.00  0.00     0.005 A 
ATOM     10  C   UNL A   1      32.814  21.553  23.242  1.00  0.00     0.014 A 
ATOM     11  C   UNL A   1      32.045  21.774  25.498  1.00  0.00     0.014 A 
BRANCH   7  12
ATOM     12  C   UNL A   1      30.621  24.708  23.547  1.00  0.00     0.110 C 
BRANCH  12  13
ATOM     13  S   UNL A   1      31.577  26.252  23.475  1.00  0.00    -0.121 SA
BRANCH  13  14
ATOM     14  C   UNL A   1      30.370  27.516  23.086  1.00  0.00     0.008 A 
ATOM     15  C   UNL A   1      28.647  29.686  22.481  1.00  0.00     0.009 A 
ATOM     16  C   UNL A   1      30.001  29.721  22.120  1.00  0.00     0.011 A 
ATOM     17  C   UNL A   1      28.164  28.539  23.126  1.00  0.00     0.011 A 
ATOM     18  C   UNL A   1      30.849  28.652  22.423  1.00  0.00     0.015 A 
ATOM     19  C   UNL A   1      29.014  27.462  23.415  1.00  0.00     0.015 A 
BRANCH  15  20
ATOM     20  C   UNL A   1      27.736  30.849  22.109  1.00  0.00     0.210 C 
ATOM     21  C   UNL A   1      28.052  31.394  20.709  1.00  0.00     0.081 C 
BRANCH  20  22
ATOM     22  N   UNL A   1      27.821  31.866  23.165  1.00  0.00    -0.343 N 
ATOM     23  C   UNL A   1      28.643  33.011  22.819  1.00  0.00     0.331 C 
ATOM     24  H   UNL A   1      26.878  32.197  23.367  1.00  0.00     0.346 HD
ATOM     25  H   UNL A   1      28.261  31.419  23.969  1.00  0.00     0.346 HD
ENDBRANCH  20  22
ENDBRANCH  15  20
ENDBRANCH  13  14
ENDBRANCH  12  13
ENDBRANCH   7  12
ENDBRANCH   3   6
ENDBRANCH   1   2
BRANCH   1  26
ATOM     26  C   UNL A   1      37.138  21.283  24.756  1.00  0.00     0.023 C 
BRANCH  26  27
ATOM     27  C   UNL A   1      38.038  20.060  24.954  1.00  0.00     0.023 C 
BRANCH  27  28
ATOM     28  C   UNL A   1      39.287  20.315  25.787  1.00  0.00     0.116 C 
BRANCH  28  29
ATOM     29  N   UNL A   1      40.185  19.172  25.837  1.00  0.00    -0.352 N 
ATOM     30  C   UNL A   1      41.534  19.159  26.109  1.00  0.00     0.251 C 
ATOM     31  H   UNL A   1      39.776  18.296  25.653  1.00  0.00     0.163 HD
ATOM     32  O   UNL A   1      42.181  18.129  26.017  1.00  0.00    -0.269 OA
BRANCH  30  33
ATOM     33  C   UNL A   1      42.196  20.429  26.470  1.00  0.00     0.039 A 
ATOM     34  C   UNL A   1      42.813  21.174  25.463  1.00  0.00     0.014 A 
ATOM     35  C   UNL A   1      42.162  20.900  27.785  1.00  0.00     0.014 A 
ATOM     36  C   UNL A   1      43.337  22.433  25.763  1.00  0.00     0.010 A 
ATOM     37  C   UNL A   1      42.628  22.178  28.069  1.00  0.00     0.010 A 
ATOM     38  C   UNL A   1      43.214  22.958  27.059  1.00  0.00    -0.014 A 
BRANCH  38  39
ATOM     39  C   UNL A   1      43.686  24.325  27.385  1.00  0.00     0.031 A 
ATOM     40  C   UNL A   1      42.703  25.372  27.820  1.00  0.00     0.074 A 
ATOM     41  C   UNL A   1      44.982  24.641  27.207  1.00  0.00     0.049 A 
ATOM     42  N   UNL A   1      42.899  26.646  28.049  1.00  0.00    -0.248 NA
ATOM     43  C   UNL A   1      41.307  24.937  27.993  1.00  0.00     0.031 C 
ATOM     44  C   UNL A   1      46.024  23.722  26.743  1.00  0.00     0.029 A 
ATOM     45  N   UNL A   1      45.642  25.832  27.380  1.00  0.00    -0.354 N 
ATOM     46  C   UNL A   1      41.653  27.166  28.372  1.00  0.00     0.074 A 
ATOM     47  C   UNL A   1      40.700  26.081  28.268  1.00  0.00     0.031 C 
ATOM     48  C   UNL A   1      47.194  24.380  26.683  1.00  0.00     0.029 A 
ATOM     49  C   UNL A   1      46.979  25.771  27.069  1.00  0.00     0.049 A 
ATOM     50  H   UNL A   1      45.200  26.652  27.697  1.00  0.00     0.167 HD
ATOM     51  C   UNL A   1      41.335  28.428  28.742  1.00  0.00     0.037 A 
ATOM     52  C   UNL A   1      47.921  26.731  27.085  1.00  0.00     0.037 A 
ATOM     53  C   UNL A   1      42.290  29.496  28.876  1.00  0.00     0.049 A 
ATOM     54  C   UNL A   1      47.544  28.124  27.506  1.00  0.00     0.074 A 
ATOM     55  C   UNL A   1      42.077  30.794  29.307  1.00  0.00     0.029 A 
ATOM     56  N   UNL A   1      43.640  29.387  28.581  1.00  0.00    -0.354 N 
ATOM     57  N   UNL A   1      46.374  28.589  27.870  1.00  0.00    -0.248 NA
ATOM     58  C   UNL A   1      48.620  29.125  27.523  1.00  0.00     0.031 C 
ATOM     59  C   UNL A   1      43.294  31.480  29.242  1.00  0.00     0.029 A 
ATOM     60  C   UNL A   1      44.271  30.599  28.806  1.00  0.00     0.049 A 
ATOM     61  H   UNL A   1      44.085  28.570  28.261  1.00  0.00     0.167 HD
ATOM     62  C   UNL A   1      46.575  29.925  28.185  1.00  0.00     0.074 A 
ATOM     63  C   UNL A   1      47.983  30.196  27.979  1.00  0.00     0.031 C 
ATOM     64  C   UNL A   1      45.676  30.846  28.608  1.00  0.00     0.037 A 
BRANCH  51  65
ATOM     65  C   UNL A   1      39.893  28.718  29.036  1.00  0.00     0.057 A 
ATOM     66  C   UNL A   1      39.008  29.143  28.035  1.00  0.00     0.134 A 
ATOM     67  C   UNL A   1      39.377  28.543  30.325  1.00  0.00     0.134 A 
ATOM     68  F   UNL A   1      39.444  29.342  26.783  1.00  0.00    -0.206 F 
ATOM     69  C   UNL A   1      37.667  29.409  28.314  1.00  0.00     0.040 A 
ATOM     70  C   UNL A   1      38.031  28.782  30.610  1.00  0.00     0.040 A 
ATOM     71  F   UNL A   1      40.169  28.134  31.328  1.00  0.00    -0.206 F 
ATOM     72  C   UNL A   1      37.174  29.222  29.603  1.00  0.00     0.006 A 
ENDBRANCH  51  65
BRANCH  52  73
ATOM     73  C   UNL A   1      49.320  26.406  26.712  1.00  0.00     0.057 A 
ATOM     74  C   UNL A   1      50.204  25.854  27.647  1.00  0.00     0.134 A 
ATOM     75  C   UNL A   1      49.808  26.641  25.421  1.00  0.00     0.134 A 
ATOM     76  F   UNL A   1      49.797  25.624  28.903  1.00  0.00    -0.206 F 
ATOM     77  C   UNL A   1      51.528  25.563  27.318  1.00  0.00     0.040 A 
ATOM     78  C   UNL A   1      51.124  26.335  25.072  1.00  0.00     0.040 A 
ATOM     79  F   UNL A   1      49.008  27.160  24.479  1.00  0.00    -0.206 F 
ATOM     80  C   UNL A   1      51.990  25.800  26.024  1.00  0.00     0.006 A 
ENDBRANCH  52  73
BRANCH  64  81
ATOM     81  C   UNL A   1      46.192  32.220  28.910  1.00  0.00     0.057 A 
ATOM     82  C   UNL A   1      46.699  32.558  30.170  1.00  0.00     0.134 A 
ATOM     83  C   UNL A   1      46.224  33.203  27.912  1.00  0.00     0.134 A 
ATOM     84  F   UNL A   1      46.684  31.664  31.171  1.00  0.00    -0.206 F 
ATOM     85  C   UNL A   1      47.207  33.831  30.432  1.00  0.00     0.040 A 
ATOM     86  C   UNL A   1      46.749  34.472  28.156  1.00  0.00     0.040 A 
ATOM     87  F   UNL A   1      45.758  32.940  26.682  1.00  0.00    -0.206 F 
ATOM     88  C   UNL A   1      47.239  34.790  29.420  1.00  0.00     0.006 A 
ENDBRANCH  64  81
ENDBRANCH  38  39
ENDBRANCH  30  33
ENDBRANCH  28  29
ENDBRANCH  27  28
ENDBRANCH  26  27
ENDBRANCH   1  26
TORSDOF 16
ENDMDL
MODEL 3
REMARK VINA RESULT:     -11.8      1.562      6.461
REMARK SMILES C[NH2+][C@@H](C)c1ccc(SCc2ccc(C(=O)NCCCCNC(=O)c3ccc(-c4c5nc(c(-c6c(F)cccc6F)c6ccc([nH]6)c(-c6c(F)cccc6F)c6nc(c(-c7c(F)cccc7F)c7ccc4[nH]7)C=C6)C=C5)cc3)cc2)cc1
REMARK SMILES IDX 18 1 17 2 15 3 16 4 14 6 11 7 12 8 80 9 13 10 79 11 10 12
REMARK SMILES IDX 9 13 8 14 5 15 6 16 82 17 7 18 81 19 3 20 4 21 2 22 1 23
REMARK SMILES IDX 19 26 20 27 21 28 22 29 23 30 24 32 25 33 26 34 78 35 27 36
REMARK SMILES IDX 77 37 28 38 29 39 30 40 71 41 31 42 76 43 70 44 72 45 32 46
REMARK SMILES IDX 75 47 69 48 68 49 33 51 59 52 42 53 58 54 43 55 46 56 57 57
REMARK SMILES IDX 73 58 44 59 45 60 56 62 74 63 47 64 34 65 35 66 40 67 36 68
REMARK SMILES IDX 37 69 39 70 41 71 38 72 60 73 61 74 66 75 62 76 63 77 65 78
REMARK SMILES IDX 67 79 64 80 48 81 49 82 54 83 50 84 51 85 53 86 55 87 52 88
REMARK H PARENT 17 5 2 24 2 25 22 31 72 50 46 61
REMARK Flexibility Score: inf
ROOT
ATOM      1  C   UNL A   1      35.880  21.312  25.615  1.00  0.00     0.116 C 
ENDROOT
BRANCH   1   2
ATOM      2  N   UNL A   1      35.074  20.135  25.371  1.00  0.00    -0.352 N 
ATOM      3  C   UNL A   1      33.768  19.974  24.983  1.00  0.00     0.251 C 
ATOM      4  O   UNL A   1      33.358  18.817  24.871  1.00  0.00    -0.269 OA
ATOM      5  H   UNL A   1      35.555  19.288  25.511  1.00  0.00     0.163 HD
BRANCH   3   6
ATOM      6  C   UNL A   1      32.858  21.104  24.634  1.00  0.00     0.039 A 
ATOM      7  C   UNL A   1      31.316  23.326  23.755  1.00  0.00    -0.038 A 
ATOM      8  C   UNL A   1      31.931  22.467  22.838  1.00  0.00     0.005 A 
ATOM      9  C   UNL A   1      31.405  22.992  25.115  1.00  0.00     0.005 A 
ATOM     10  C   UNL A   1      32.707  21.388  23.272  1.00  0.00     0.014 A 
ATOM     11  C   UNL A   1      32.143  21.881  25.545  1.00  0.00     0.014 A 
BRANCH   7  12
ATOM     12  C   UNL A   1      30.595  24.610  23.400  1.00  0.00     0.110 C 
BRANCH  12  13
ATOM     13  S   UNL A   1      31.504  25.935  22.549  1.00  0.00    -0.121 SA
BRANCH  13  14
ATOM     14  C   UNL A   1      31.758  27.188  23.803  1.00  0.00     0.008 A 
ATOM     15  C   UNL A   1      31.975  29.062  25.920  1.00  0.00     0.009 A 
ATOM     16  C   UNL A   1      31.531  27.755  26.160  1.00  0.00     0.011 A 
ATOM     17  C   UNL A   1      32.332  29.409  24.609  1.00  0.00     0.011 A 
ATOM     18  C   UNL A   1      31.421  26.834  25.114  1.00  0.00     0.015 A 
ATOM     19  C   UNL A   1      32.235  28.479  23.565  1.00  0.00     0.015 A 
BRANCH  15  20
ATOM     20  C   UNL A   1      32.118  30.037  27.082  1.00  0.00     0.210 C 
ATOM     21  C   UNL A   1      31.688  31.458  26.689  1.00  0.00     0.081 C 
BRANCH  20  22
ATOM     22  N   UNL A   1      33.494  29.962  27.588  1.00  0.00    -0.343 N 
ATOM     23  C   UNL A   1      34.038  31.238  28.014  1.00  0.00     0.331 C 
ATOM     24  H   UNL A   1      33.507  29.326  28.385  1.00  0.00     0.346 HD
ATOM     25  H   UNL A   1      34.075  29.636  26.816  1.00  0.00     0.346 HD
ENDBRANCH  20  22
ENDBRANCH  15  20
ENDBRANCH  13  14
ENDBRANCH  12  13
ENDBRANCH   7  12
ENDBRANCH   3   6
ENDBRANCH   1   2
BRANCH   1  26
ATOM     26  C   UNL A   1      37.127  21.300  24.727  1.00  0.00     0.023 C 
BRANCH  26  27
ATOM     27  C   UNL A   1      38.026  20.077  24.928  1.00  0.00     0.023 C 
BRANCH  27  28
ATOM     28  C   UNL A   1      39.271  20.331  25.768  1.00  0.00     0.116 C 
BRANCH  28  29
ATOM     29  N   UNL A   1      40.169  19.188  25.819  1.00  0.00    -0.352 N 
ATOM     30  C   UNL A   1      41.521  19.177  26.076  1.00  0.00     0.251 C 
ATOM     31  H   UNL A   1      39.758  18.310  25.650  1.00  0.00     0.163 HD
ATOM     32  O   UNL A   1      42.166  18.146  25.987  1.00  0.00    -0.269 OA
BRANCH  30  33
ATOM     33  C   UNL A   1      42.187  20.451  26.415  1.00  0.00     0.039 A 
ATOM     34  C   UNL A   1      42.758  21.204  25.387  1.00  0.00     0.014 A 
ATOM     35  C   UNL A   1      42.203  20.916  27.732  1.00  0.00     0.014 A 
ATOM     36  C   UNL A   1      43.284  22.466  25.671  1.00  0.00     0.010 A 
ATOM     37  C   UNL A   1      42.671  22.196  28.002  1.00  0.00     0.010 A 
ATOM     38  C   UNL A   1      43.211  22.984  26.974  1.00  0.00    -0.014 A 
BRANCH  38  39
ATOM     39  C   UNL A   1      43.685  24.354  27.285  1.00  0.00     0.031 A 
ATOM     40  C   UNL A   1      42.702  25.410  27.700  1.00  0.00     0.074 A 
ATOM     41  C   UNL A   1      44.984  24.663  27.113  1.00  0.00     0.049 A 
ATOM     42  N   UNL A   1      42.902  26.686  27.915  1.00  0.00    -0.248 NA
ATOM     43  C   UNL A   1      41.304  24.982  27.868  1.00  0.00     0.031 C 
ATOM     44  C   UNL A   1      46.025  23.735  26.668  1.00  0.00     0.029 A 
ATOM     45  N   UNL A   1      45.647  25.854  27.276  1.00  0.00    -0.354 N 
ATOM     46  C   UNL A   1      41.655  27.215  28.222  1.00  0.00     0.074 A 
ATOM     47  C   UNL A   1      40.699  26.132  28.124  1.00  0.00     0.031 C 
ATOM     48  C   UNL A   1      47.198  24.388  26.609  1.00  0.00     0.029 A 
ATOM     49  C   UNL A   1      46.985  25.784  26.976  1.00  0.00     0.049 A 
ATOM     50  H   UNL A   1      45.205  26.680  27.580  1.00  0.00     0.167 HD
ATOM     51  C   UNL A   1      41.339  28.483  28.574  1.00  0.00     0.037 A 
ATOM     52  C   UNL A   1      47.931  26.741  26.987  1.00  0.00     0.037 A 
ATOM     53  C   UNL A   1      42.297  29.548  28.702  1.00  0.00     0.049 A 
ATOM     54  C   UNL A   1      47.557  28.140  27.388  1.00  0.00     0.074 A 
ATOM     55  C   UNL A   1      42.086  30.853  29.115  1.00  0.00     0.029 A 
ATOM     56  N   UNL A   1      43.649  29.431  28.419  1.00  0.00    -0.354 N 
ATOM     57  N   UNL A   1      46.385  28.614  27.737  1.00  0.00    -0.248 NA
ATOM     58  C   UNL A   1      48.635  29.138  27.401  1.00  0.00     0.031 C 
ATOM     59  C   UNL A   1      43.306  31.533  29.051  1.00  0.00     0.029 A 
ATOM     60  C   UNL A   1      44.283  30.643  28.633  1.00  0.00     0.049 A 
ATOM     61  H   UNL A   1      44.093  28.608  28.112  1.00  0.00     0.167 HD
ATOM     62  C   UNL A   1      46.589  29.953  28.037  1.00  0.00     0.074 A 
ATOM     63  C   UNL A   1      48.000  30.216  27.839  1.00  0.00     0.031 C 
ATOM     64  C   UNL A   1      45.690  30.882  28.442  1.00  0.00     0.037 A 
BRANCH  51  65
ATOM     65  C   UNL A   1      39.896  28.781  28.853  1.00  0.00     0.057 A 
ATOM     66  C   UNL A   1      39.359  28.682  30.144  1.00  0.00     0.134 A 
ATOM     67  C   UNL A   1      39.041  29.199  27.827  1.00  0.00     0.134 A 
ATOM     68  F   UNL A   1      40.123  28.273  31.168  1.00  0.00    -0.206 F 
ATOM     69  C   UNL A   1      38.016  28.962  30.398  1.00  0.00     0.040 A 
ATOM     70  C   UNL A   1      37.702  29.507  28.074  1.00  0.00     0.040 A 
ATOM     71  F   UNL A   1      39.493  29.319  26.569  1.00  0.00    -0.206 F 
ATOM     72  C   UNL A   1      37.185  29.383  29.362  1.00  0.00     0.006 A 
ENDBRANCH  51  65
BRANCH  52  73
ATOM     73  C   UNL A   1      49.332  26.406  26.629  1.00  0.00     0.057 A 
ATOM     74  C   UNL A   1      50.210  25.874  27.580  1.00  0.00     0.134 A 
ATOM     75  C   UNL A   1      49.826  26.612  25.335  1.00  0.00     0.134 A 
ATOM     76  F   UNL A   1      49.797  25.673  28.839  1.00  0.00    -0.206 F 
ATOM     77  C   UNL A   1      51.536  25.574  27.264  1.00  0.00     0.040 A 
ATOM     78  C   UNL A   1      51.144  26.296  25.000  1.00  0.00     0.040 A 
ATOM     79  F   UNL A   1      49.032  27.110  24.378  1.00  0.00    -0.206 F 
ATOM     80  C   UNL A   1      52.004  25.782  25.968  1.00  0.00     0.006 A 
ENDBRANCH  52  73
BRANCH  64  81
ATOM     81  C   UNL A   1      46.209  32.259  28.731  1.00  0.00     0.057 A 
ATOM     82  C   UNL A   1      46.247  33.254  27.747  1.00  0.00     0.134 A 
ATOM     83  C   UNL A   1      46.631  32.604  30.021  1.00  0.00     0.134 A 
ATOM     84  F   UNL A   1      45.868  32.982  26.489  1.00  0.00    -0.206 F 
ATOM     85  C   UNL A   1      46.702  34.542  28.034  1.00  0.00     0.040 A 
ATOM     86  C   UNL A   1      47.068  33.893  30.324  1.00  0.00     0.040 A 
ATOM     87  F   UNL A   1      46.613  31.696  31.009  1.00  0.00    -0.206 F 
ATOM     88  C   UNL A   1      47.107  34.866  29.328  1.00  0.00     0.006 A 
ENDBRANCH  64  81
ENDBRANCH  38  39
ENDBRANCH  30  33
ENDBRANCH  28  29
ENDBRANCH  27  28
ENDBRANCH  26  27
ENDBRANCH   1  26
TORSDOF 16
ENDMDL
