MODEL 1
REMARK VINA RESULT:     -12.8      0.000      0.000
REMARK SMILES CC(C)Cc1ccc(-c2cc(Cl)cc3c2O[C@H](C(F)(F)F)C(C(=O)NCCCCNC(=O)c2ccc(-c4c5nc(c(-c6c(F)cccc6F)c6ccc([nH]6)c(-c6c(F)cccc6F)c6nc(c(-c7c(F)cccc7F)c7ccc4[nH]7)C=C6)C=C5)cc2)=C3)cc1
REMARK SMILES IDX 27 1 26 2 25 3 23 4 24 5 22 7 9 8 10 9 15 10 11 11 14 12
REMARK SMILES IDX 16 13 12 14 13 15 87 16 17 17 8 18 5 19 6 20 89 21 7 22
REMARK SMILES IDX 88 23 4 24 2 25 1 26 3 27 18 28 19 29 20 30 21 31 28 32
REMARK SMILES IDX 29 33 30 34 31 35 32 37 33 38 34 39 86 40 35 41 85 42 36 43
REMARK SMILES IDX 37 44 38 45 79 46 39 47 84 48 78 49 80 50 40 51 83 52 77 53
REMARK SMILES IDX 76 54 41 56 67 57 50 58 66 59 51 60 54 61 65 62 81 63 52 64
REMARK SMILES IDX 53 65 64 67 82 68 55 69 42 70 43 71 48 72 44 73 45 74 47 75
REMARK SMILES IDX 49 76 46 77 68 78 69 79 74 80 70 81 71 82 73 83 75 84 72 85
REMARK SMILES IDX 56 86 57 87 62 88 58 89 59 90 61 91 63 92 60 93
REMARK H PARENT 25 6 30 36 80 55 54 66
REMARK Flexibility Score: inf
ROOT
ATOM      1  C   UNL A   1      36.549  20.989  24.563  1.00  0.00     0.023 C 
ENDROOT
BRANCH   1   2
ATOM      2  C   UNL A   1      35.716  21.564  25.717  1.00  0.00     0.116 C 
BRANCH   2   3
ATOM      3  N   UNL A   1      35.662  23.004  25.600  1.00  0.00    -0.352 N 
ATOM      4  C   UNL A   1      34.794  23.788  24.924  1.00  0.00     0.251 C 
ATOM      5  O   UNL A   1      35.203  24.869  24.515  1.00  0.00    -0.270 OA
ATOM      6  H   UNL A   1      36.367  23.488  26.088  1.00  0.00     0.163 HD
BRANCH   4   7
ATOM      7  C   UNL A   1      33.366  23.360  24.819  1.00  0.00     0.067 C 
ATOM      8  C   UNL A   1      31.711  27.018  24.193  1.00  0.00     0.026 A 
ATOM      9  C   UNL A   1      32.299  27.904  25.132  1.00  0.00     0.033 A 
ATOM     10  C   UNL A   1      31.913  25.644  24.412  1.00  0.00     0.135 A 
ATOM     11  C   UNL A   1      32.882  27.456  26.313  1.00  0.00     0.042 A 
ATOM     12  C   UNL A   1      32.401  25.214  25.670  1.00  0.00     0.019 A 
ATOM     13  O   UNL A   1      31.710  24.680  23.435  1.00  0.00    -0.475 OA
ATOM     14  Cl  UNL A   1      33.596  28.584  27.396  1.00  0.00    -0.084 Cl
ATOM     15  C   UNL A   1      32.865  26.112  26.628  1.00  0.00     0.032 A 
ATOM     16  C   UNL A   1      32.618  23.763  25.865  1.00  0.00     0.025 C 
ATOM     17  C   UNL A   1      32.725  23.582  23.453  1.00  0.00     0.314 C 
BRANCH   8  18
ATOM     18  C   UNL A   1      30.747  27.658  23.264  1.00  0.00    -0.015 A 
ATOM     19  C   UNL A   1      28.836  29.566  22.341  1.00  0.00    -0.048 A 
ATOM     20  C   UNL A   1      30.185  29.676  21.985  1.00  0.00     0.004 A 
ATOM     21  C   UNL A   1      28.440  28.452  23.089  1.00  0.00     0.004 A 
ATOM     22  C   UNL A   1      31.124  28.733  22.436  1.00  0.00     0.009 A 
ATOM     23  C   UNL A   1      29.374  27.501  23.523  1.00  0.00     0.009 A 
BRANCH  19  24
ATOM     24  C   UNL A   1      27.836  30.634  21.951  1.00  0.00     0.038 C 
BRANCH  24  25
ATOM     25  C   UNL A   1      28.488  31.973  21.551  1.00  0.00    -0.013 C 
ATOM     26  C   UNL A   1      27.675  32.712  20.485  1.00  0.00     0.008 C 
ATOM     27  C   UNL A   1      28.651  32.882  22.774  1.00  0.00     0.008 C 
ENDBRANCH  24  25
ENDBRANCH  19  24
ENDBRANCH   8  18
BRANCH  17  28
ATOM     28  C   UNL A   1      32.127  22.238  22.974  1.00  0.00     0.429 C 
ATOM     29  F   UNL A   1      32.391  21.217  23.818  1.00  0.00    -0.167 F 
ATOM     30  F   UNL A   1      30.782  22.321  22.833  1.00  0.00    -0.167 F 
ATOM     31  F   UNL A   1      32.608  21.865  21.757  1.00  0.00    -0.167 F 
ENDBRANCH  17  28
ENDBRANCH   4   7
ENDBRANCH   2   3
ENDBRANCH   1   2
BRANCH   1  32
ATOM     32  C   UNL A   1      37.494  19.839  24.948  1.00  0.00     0.023 C 
BRANCH  32  33
ATOM     33  C   UNL A   1      38.726  20.260  25.738  1.00  0.00     0.116 C 
BRANCH  33  34
ATOM     34  N   UNL A   1      39.725  19.205  25.784  1.00  0.00    -0.352 N 
ATOM     35  C   UNL A   1      41.081  19.305  25.962  1.00  0.00     0.251 C 
ATOM     36  H   UNL A   1      39.380  18.290  25.670  1.00  0.00     0.163 HD
ATOM     37  O   UNL A   1      41.801  18.327  25.765  1.00  0.00    -0.269 OA
BRANCH  35  38
ATOM     38  C   UNL A   1      41.683  20.593  26.367  1.00  0.00     0.039 A 
ATOM     39  C   UNL A   1      42.068  21.501  25.378  1.00  0.00     0.014 A 
ATOM     40  C   UNL A   1      41.867  20.906  27.717  1.00  0.00     0.014 A 
ATOM     41  C   UNL A   1      42.579  22.748  25.744  1.00  0.00     0.010 A 
ATOM     42  C   UNL A   1      42.303  22.178  28.080  1.00  0.00     0.010 A 
ATOM     43  C   UNL A   1      42.666  23.112  27.098  1.00  0.00    -0.014 A 
BRANCH  43  44
ATOM     44  C   UNL A   1      43.129  24.465  27.503  1.00  0.00     0.031 A 
ATOM     45  C   UNL A   1      42.133  25.513  27.926  1.00  0.00     0.074 A 
ATOM     46  C   UNL A   1      44.441  24.772  27.431  1.00  0.00     0.049 A 
ATOM     47  N   UNL A   1      42.339  26.764  28.253  1.00  0.00    -0.248 NA
ATOM     48  C   UNL A   1      40.718  25.111  27.961  1.00  0.00     0.031 C 
ATOM     49  C   UNL A   1      45.501  23.862  26.995  1.00  0.00     0.029 A 
ATOM     50  N   UNL A   1      45.105  25.940  27.715  1.00  0.00    -0.354 N 
ATOM     51  C   UNL A   1      41.083  27.299  28.512  1.00  0.00     0.074 A 
ATOM     52  C   UNL A   1      40.117  26.253  28.262  1.00  0.00     0.031 C 
ATOM     53  C   UNL A   1      46.683  24.495  27.066  1.00  0.00     0.029 A 
ATOM     54  C   UNL A   1      46.463  25.867  27.508  1.00  0.00     0.049 A 
ATOM     55  H   UNL A   1      44.651  26.752  28.036  1.00  0.00     0.167 HD
ATOM     56  C   UNL A   1      40.766  28.545  28.939  1.00  0.00     0.037 A 
ATOM     57  C   UNL A   1      47.419  26.806  27.650  1.00  0.00     0.037 A 
ATOM     58  C   UNL A   1      41.732  29.574  29.223  1.00  0.00     0.049 A 
ATOM     59  C   UNL A   1      47.031  28.185  28.114  1.00  0.00     0.074 A 
ATOM     60  C   UNL A   1      41.513  30.840  29.736  1.00  0.00     0.029 A 
ATOM     61  N   UNL A   1      43.097  29.458  29.013  1.00  0.00    -0.354 N 
ATOM     62  N   UNL A   1      45.849  28.648  28.440  1.00  0.00    -0.248 NA
ATOM     63  C   UNL A   1      48.115  29.170  28.235  1.00  0.00     0.031 C 
ATOM     64  C   UNL A   1      42.738  31.512  29.782  1.00  0.00     0.029 A 
ATOM     65  C   UNL A   1      43.729  30.642  29.356  1.00  0.00     0.049 A 
ATOM     66  H   UNL A   1      43.551  28.653  28.670  1.00  0.00     0.167 HD
ATOM     67  C   UNL A   1      46.054  29.963  28.842  1.00  0.00     0.074 A 
ATOM     68  C   UNL A   1      47.474  30.218  28.732  1.00  0.00     0.031 C 
ATOM     69  C   UNL A   1      45.147  30.877  29.263  1.00  0.00     0.037 A 
BRANCH  56  70
ATOM     70  C   UNL A   1      39.314  28.874  29.131  1.00  0.00     0.057 A 
ATOM     71  C   UNL A   1      38.675  28.715  30.367  1.00  0.00     0.134 A 
ATOM     72  C   UNL A   1      38.567  29.428  28.084  1.00  0.00     0.134 A 
ATOM     73  F   UNL A   1      39.330  28.182  31.409  1.00  0.00    -0.206 F 
ATOM     74  C   UNL A   1      37.339  29.080  30.550  1.00  0.00     0.040 A 
ATOM     75  C   UNL A   1      37.240  29.823  28.262  1.00  0.00     0.040 A 
ATOM     76  F   UNL A   1      39.120  29.615  26.876  1.00  0.00    -0.206 F 
ATOM     77  C   UNL A   1      36.622  29.646  29.498  1.00  0.00     0.006 A 
ENDBRANCH  56  70
BRANCH  57  78
ATOM     78  C   UNL A   1      48.842  26.486  27.362  1.00  0.00     0.057 A 
ATOM     79  C   UNL A   1      49.360  26.602  26.066  1.00  0.00     0.134 A 
ATOM     80  C   UNL A   1      49.702  26.008  28.357  1.00  0.00     0.134 A 
ATOM     81  F   UNL A   1      48.580  27.037  25.064  1.00  0.00    -0.206 F 
ATOM     82  C   UNL A   1      50.668  26.220  25.762  1.00  0.00     0.040 A 
ATOM     83  C   UNL A   1      51.022  25.651  28.074  1.00  0.00     0.040 A 
ATOM     84  F   UNL A   1      49.273  25.880  29.621  1.00  0.00    -0.206 F 
ATOM     85  C   UNL A   1      51.503  25.743  26.769  1.00  0.00     0.006 A 
ENDBRANCH  57  78
BRANCH  69  86
ATOM     86  C   UNL A   1      45.665  32.219  29.692  1.00  0.00     0.057 A 
ATOM     87  C   UNL A   1      45.752  33.300  28.806  1.00  0.00     0.134 A 
ATOM     88  C   UNL A   1      46.049  32.439  31.021  1.00  0.00     0.134 A 
ATOM     89  F   UNL A   1      45.413  33.153  27.517  1.00  0.00    -0.206 F 
ATOM     90  C   UNL A   1      46.228  34.545  29.222  1.00  0.00     0.040 A 
ATOM     91  C   UNL A   1      46.496  33.687  31.455  1.00  0.00     0.040 A 
ATOM     92  F   UNL A   1      45.981  31.449  31.924  1.00  0.00    -0.206 F 
ATOM     93  C   UNL A   1      46.593  34.744  30.552  1.00  0.00     0.006 A 
ENDBRANCH  69  86
ENDBRANCH  43  44
ENDBRANCH  35  38
ENDBRANCH  33  34
ENDBRANCH  32  33
ENDBRANCH   1  32
TORSDOF 15
ENDMDL
MODEL 2
REMARK VINA RESULT:     -12.6      4.843      9.413
REMARK SMILES CC(C)Cc1ccc(-c2cc(Cl)cc3c2O[C@H](C(F)(F)F)C(C(=O)NCCCCNC(=O)c2ccc(-c4c5nc(c(-c6c(F)cccc6F)c6ccc([nH]6)c(-c6c(F)cccc6F)c6nc(c(-c7c(F)cccc7F)c7ccc4[nH]7)C=C6)C=C5)cc2)=C3)cc1
REMARK SMILES IDX 27 1 26 2 25 3 23 4 24 5 22 7 9 8 10 9 15 10 11 11 14 12
REMARK SMILES IDX 16 13 12 14 13 15 87 16 17 17 8 18 5 19 6 20 89 21 7 22
REMARK SMILES IDX 88 23 4 24 2 25 1 26 3 27 18 28 19 29 20 30 21 31 28 32
REMARK SMILES IDX 29 33 30 34 31 35 32 37 33 38 34 39 86 40 35 41 85 42 36 43
REMARK SMILES IDX 37 44 38 45 79 46 39 47 84 48 78 49 80 50 40 51 83 52 77 53
REMARK SMILES IDX 76 54 41 56 67 57 50 58 66 59 51 60 54 61 65 62 81 63 52 64
REMARK SMILES IDX 53 65 64 67 82 68 55 69 42 70 43 71 48 72 44 73 45 74 47 75
REMARK SMILES IDX 49 76 46 77 68 78 69 79 74 80 70 81 71 82 73 83 75 84 72 85
REMARK SMILES IDX 56 86 57 87 62 88 58 89 59 90 61 91 63 92 60 93
REMARK H PARENT 25 6 30 36 80 55 54 66
REMARK Flexibility Score: inf
ROOT
ATOM      1  C   UNL A   1      31.408  30.698  26.013  1.00  0.00     0.023 C 
ENDROOT
BRANCH   1   2
ATOM      2  C   UNL A   1      32.801  30.086  25.805  1.00  0.00     0.116 C 
BRANCH   2   3
ATOM      3  N   UNL A   1      32.872  28.810  26.482  1.00  0.00    -0.352 N 
ATOM      4  C   UNL A   1      32.199  27.664  26.247  1.00  0.00     0.251 C 
ATOM      5  O   UNL A   1      31.995  26.916  27.198  1.00  0.00    -0.270 OA
ATOM      6  H   UNL A   1      33.510  28.772  27.232  1.00  0.00     0.163 HD
BRANCH   4   7
ATOM      7  C   UNL A   1      31.850  27.309  24.837  1.00  0.00     0.067 C 
ATOM      8  C   UNL A   1      32.936  23.394  24.942  1.00  0.00     0.026 A 
ATOM      9  C   UNL A   1      34.201  23.333  25.578  1.00  0.00     0.033 A 
ATOM     10  C   UNL A   1      32.496  24.666  24.534  1.00  0.00     0.135 A 
ATOM     11  C   UNL A   1      35.060  24.427  25.633  1.00  0.00     0.042 A 
ATOM     12  C   UNL A   1      33.427  25.732  24.492  1.00  0.00     0.019 A 
ATOM     13  O   UNL A   1      31.175  24.950  24.218  1.00  0.00    -0.475 OA
ATOM     14  Cl  UNL A   1      36.571  24.288  26.439  1.00  0.00    -0.084 Cl
ATOM     15  C   UNL A   1      34.711  25.613  25.018  1.00  0.00     0.032 A 
ATOM     16  C   UNL A   1      32.932  27.063  24.073  1.00  0.00     0.025 C 
ATOM     17  C   UNL A   1      30.720  26.294  24.689  1.00  0.00     0.314 C 
BRANCH   8  18
ATOM     18  C   UNL A   1      32.374  22.074  24.561  1.00  0.00    -0.015 A 
ATOM     19  C   UNL A   1      32.359  19.388  23.598  1.00  0.00    -0.048 A 
ATOM     20  C   UNL A   1      32.404  19.654  24.972  1.00  0.00     0.004 A 
ATOM     21  C   UNL A   1      32.237  20.470  22.720  1.00  0.00     0.004 A 
ATOM     22  C   UNL A   1      32.406  20.977  25.445  1.00  0.00     0.009 A 
ATOM     23  C   UNL A   1      32.220  21.790  23.193  1.00  0.00     0.009 A 
BRANCH  19  24
ATOM     24  C   UNL A   1      32.465  17.971  23.074  1.00  0.00     0.038 C 
BRANCH  24  25
ATOM     25  C   UNL A   1      33.497  17.110  23.828  1.00  0.00    -0.013 C 
ATOM     26  C   UNL A   1      32.834  15.994  24.639  1.00  0.00     0.008 C 
ATOM     27  C   UNL A   1      34.500  16.487  22.850  1.00  0.00     0.008 C 
ENDBRANCH  24  25
ENDBRANCH  19  24
ENDBRANCH   8  18
BRANCH  17  28
ATOM     28  C   UNL A   1      29.646  26.898  23.753  1.00  0.00     0.429 C 
ATOM     29  F   UNL A   1      29.485  28.228  23.929  1.00  0.00    -0.167 F 
ATOM     30  F   UNL A   1      29.955  26.687  22.451  1.00  0.00    -0.167 F 
ATOM     31  F   UNL A   1      28.422  26.334  23.943  1.00  0.00    -0.167 F 
ENDBRANCH  17  28
ENDBRANCH   4   7
ENDBRANCH   2   3
ENDBRANCH   1   2
BRANCH   1  32
ATOM     32  C   UNL A   1      31.401  32.156  26.497  1.00  0.00     0.023 C 
BRANCH  32  33
ATOM     33  C   UNL A   1      32.656  32.590  27.242  1.00  0.00     0.116 C 
BRANCH  33  34
ATOM     34  N   UNL A   1      32.613  33.998  27.602  1.00  0.00    -0.352 N 
ATOM     35  C   UNL A   1      33.334  34.670  28.555  1.00  0.00     0.251 C 
ATOM     36  H   UNL A   1      31.975  34.546  27.089  1.00  0.00     0.163 HD
ATOM     37  O   UNL A   1      33.020  35.818  28.868  1.00  0.00    -0.269 OA
BRANCH  35  38
ATOM     38  C   UNL A   1      34.473  34.009  29.226  1.00  0.00     0.039 A 
ATOM     39  C   UNL A   1      34.217  33.018  30.175  1.00  0.00     0.014 A 
ATOM     40  C   UNL A   1      35.790  34.365  28.921  1.00  0.00     0.014 A 
ATOM     41  C   UNL A   1      35.282  32.339  30.772  1.00  0.00     0.010 A 
ATOM     42  C   UNL A   1      36.847  33.635  29.459  1.00  0.00     0.010 A 
ATOM     43  C   UNL A   1      36.606  32.615  30.391  1.00  0.00    -0.014 A 
BRANCH  43  44
ATOM     44  C   UNL A   1      37.745  31.845  30.955  1.00  0.00     0.031 A 
ATOM     45  C   UNL A   1      38.278  32.172  32.326  1.00  0.00     0.074 A 
ATOM     46  C   UNL A   1      38.341  30.892  30.211  1.00  0.00     0.049 A 
ATOM     47  N   UNL A   1      39.299  31.655  32.960  1.00  0.00    -0.248 NA
ATOM     48  C   UNL A   1      37.588  33.238  33.072  1.00  0.00     0.031 C 
ATOM     49  C   UNL A   1      37.949  30.510  28.853  1.00  0.00     0.029 A 
ATOM     50  N   UNL A   1      39.410  30.076  30.487  1.00  0.00    -0.354 N 
ATOM     51  C   UNL A   1      39.386  32.343  34.164  1.00  0.00     0.074 A 
ATOM     52  C   UNL A   1      38.343  33.345  34.155  1.00  0.00     0.031 C 
ATOM     53  C   UNL A   1      38.748  29.518  28.426  1.00  0.00     0.029 A 
ATOM     54  C   UNL A   1      39.735  29.223  29.459  1.00  0.00     0.049 A 
ATOM     55  H   UNL A   1      39.898  30.100  31.342  1.00  0.00     0.167 HD
ATOM     56  C   UNL A   1      40.245  32.145  35.192  1.00  0.00     0.037 A 
ATOM     57  C   UNL A   1      40.724  28.314  29.358  1.00  0.00     0.037 A 
ATOM     58  C   UNL A   1      41.259  31.123  35.214  1.00  0.00     0.049 A 
ATOM     59  C   UNL A   1      41.670  28.126  30.514  1.00  0.00     0.074 A 
ATOM     60  C   UNL A   1      42.124  30.793  36.243  1.00  0.00     0.029 A 
ATOM     61  N   UNL A   1      41.549  30.273  34.159  1.00  0.00    -0.354 N 
ATOM     62  N   UNL A   1      41.682  28.724  31.680  1.00  0.00    -0.248 NA
ATOM     63  C   UNL A   1      42.739  27.132  30.339  1.00  0.00     0.031 C 
ATOM     64  C   UNL A   1      42.977  29.781  35.790  1.00  0.00     0.029 A 
ATOM     65  C   UNL A   1      42.601  29.440  34.501  1.00  0.00     0.049 A 
ATOM     66  H   UNL A   1      41.077  30.262  33.294  1.00  0.00     0.167 HD
ATOM     67  C   UNL A   1      42.731  28.151  32.390  1.00  0.00     0.074 A 
ATOM     68  C   UNL A   1      43.321  27.149  31.529  1.00  0.00     0.031 C 
ATOM     69  C   UNL A   1      43.166  28.430  33.643  1.00  0.00     0.037 A 
BRANCH  56  70
ATOM     70  C   UNL A   1      40.133  33.046  36.387  1.00  0.00     0.057 A 
ATOM     71  C   UNL A   1      40.921  34.195  36.527  1.00  0.00     0.134 A 
ATOM     72  C   UNL A   1      39.170  32.800  37.374  1.00  0.00     0.134 A 
ATOM     73  F   UNL A   1      41.869  34.485  35.621  1.00  0.00    -0.206 F 
ATOM     74  C   UNL A   1      40.768  35.059  37.613  1.00  0.00     0.040 A 
ATOM     75  C   UNL A   1      38.987  33.671  38.450  1.00  0.00     0.040 A 
ATOM     76  F   UNL A   1      38.375  31.722  37.298  1.00  0.00    -0.206 F 
ATOM     77  C   UNL A   1      39.791  34.802  38.573  1.00  0.00     0.006 A 
ENDBRANCH  56  70
BRANCH  57  78
ATOM     78  C   UNL A   1      40.878  27.496  28.126  1.00  0.00     0.057 A 
ATOM     79  C   UNL A   1      41.641  27.956  27.044  1.00  0.00     0.134 A 
ATOM     80  C   UNL A   1      40.228  26.266  27.976  1.00  0.00     0.134 A 
ATOM     81  F   UNL A   1      42.273  29.137  27.119  1.00  0.00    -0.206 F 
ATOM     82  C   UNL A   1      41.721  27.242  25.847  1.00  0.00     0.040 A 
ATOM     83  C   UNL A   1      40.323  25.527  26.795  1.00  0.00     0.040 A 
ATOM     84  F   UNL A   1      39.487  25.763  28.975  1.00  0.00    -0.206 F 
ATOM     85  C   UNL A   1      41.061  26.023  25.721  1.00  0.00     0.006 A 
ENDBRANCH  57  78
BRANCH  69  86
ATOM     86  C   UNL A   1      44.298  27.604  34.181  1.00  0.00     0.057 A 
ATOM     87  C   UNL A   1      45.631  28.023  34.094  1.00  0.00     0.134 A 
ATOM     88  C   UNL A   1      44.043  26.388  34.829  1.00  0.00     0.134 A 
ATOM     89  F   UNL A   1      45.945  29.170  33.475  1.00  0.00    -0.206 F 
ATOM     90  C   UNL A   1      46.673  27.248  34.608  1.00  0.00     0.040 A 
ATOM     91  C   UNL A   1      45.073  25.621  35.374  1.00  0.00     0.040 A 
ATOM     92  F   UNL A   1      42.787  25.933  34.957  1.00  0.00    -0.206 F 
ATOM     93  C   UNL A   1      46.393  26.047  35.259  1.00  0.00     0.006 A 
ENDBRANCH  69  86
ENDBRANCH  43  44
ENDBRANCH  35  38
ENDBRANCH  33  34
ENDBRANCH  32  33
ENDBRANCH   1  32
TORSDOF 15
ENDMDL
MODEL 3
REMARK VINA RESULT:     -12.6      4.798     10.127
REMARK SMILES CC(C)Cc1ccc(-c2cc(Cl)cc3c2O[C@H](C(F)(F)F)C(C(=O)NCCCCNC(=O)c2ccc(-c4c5nc(c(-c6c(F)cccc6F)c6ccc([nH]6)c(-c6c(F)cccc6F)c6nc(c(-c7c(F)cccc7F)c7ccc4[nH]7)C=C6)C=C5)cc2)=C3)cc1
REMARK SMILES IDX 27 1 26 2 25 3 23 4 24 5 22 7 9 8 10 9 15 10 11 11 14 12
REMARK SMILES IDX 16 13 12 14 13 15 87 16 17 17 8 18 5 19 6 20 89 21 7 22
REMARK SMILES IDX 88 23 4 24 2 25 1 26 3 27 18 28 19 29 20 30 21 31 28 32
REMARK SMILES IDX 29 33 30 34 31 35 32 37 33 38 34 39 86 40 35 41 85 42 36 43
REMARK SMILES IDX 37 44 38 45 79 46 39 47 84 48 78 49 80 50 40 51 83 52 77 53
REMARK SMILES IDX 76 54 41 56 67 57 50 58 66 59 51 60 54 61 65 62 81 63 52 64
REMARK SMILES IDX 53 65 64 67 82 68 55 69 42 70 43 71 48 72 44 73 45 74 47 75
REMARK SMILES IDX 49 76 46 77 68 78 69 79 74 80 70 81 71 82 73 83 75 84 72 85
REMARK SMILES IDX 56 86 57 87 62 88 58 89 59 90 61 91 63 92 60 93
REMARK H PARENT 25 6 30 36 80 55 54 66
REMARK Flexibility Score: inf
ROOT
ATOM      1  C   UNL A   1      31.482  30.091  25.758  1.00  0.00     0.023 C 
ENDROOT
BRANCH   1   2
ATOM      2  C   UNL A   1      32.924  29.604  25.553  1.00  0.00     0.116 C 
BRANCH   2   3
ATOM      3  N   UNL A   1      33.142  28.404  26.330  1.00  0.00    -0.352 N 
ATOM      4  C   UNL A   1      32.484  27.226  26.309  1.00  0.00     0.251 C 
ATOM      5  O   UNL A   1      32.452  26.572  27.346  1.00  0.00    -0.270 OA
ATOM      6  H   UNL A   1      33.885  28.455  26.974  1.00  0.00     0.163 HD
BRANCH   4   7
ATOM      7  C   UNL A   1      31.943  26.724  25.008  1.00  0.00     0.067 C 
ATOM      8  C   UNL A   1      33.264  22.890  25.272  1.00  0.00     0.026 A 
ATOM      9  C   UNL A   1      34.614  22.947  25.700  1.00  0.00     0.033 A 
ATOM     10  C   UNL A   1      32.691  24.097  24.832  1.00  0.00     0.135 A 
ATOM     11  C   UNL A   1      35.404  24.079  25.524  1.00  0.00     0.042 A 
ATOM     12  C   UNL A   1      33.539  25.196  24.551  1.00  0.00     0.019 A 
ATOM     13  O   UNL A   1      31.322  24.290  24.708  1.00  0.00    -0.475 OA
ATOM     14  Cl  UNL A   1      37.027  24.086  26.088  1.00  0.00    -0.084 Cl
ATOM     15  C   UNL A   1      34.894  25.185  24.874  1.00  0.00     0.032 A 
ATOM     16  C   UNL A   1      32.906  26.457  24.105  1.00  0.00     0.025 C 
ATOM     17  C   UNL A   1      30.866  25.650  25.129  1.00  0.00     0.314 C 
BRANCH   8  18
ATOM     18  C   UNL A   1      32.730  21.516  25.100  1.00  0.00    -0.015 A 
ATOM     19  C   UNL A   1      32.753  18.733  24.473  1.00  0.00    -0.048 A 
ATOM     20  C   UNL A   1      32.891  19.168  25.796  1.00  0.00     0.004 A 
ATOM     21  C   UNL A   1      32.521  19.693  23.483  1.00  0.00     0.004 A 
ATOM     22  C   UNL A   1      32.874  20.539  26.104  1.00  0.00     0.009 A 
ATOM     23  C   UNL A   1      32.485  21.060  23.793  1.00  0.00     0.009 A 
BRANCH  19  24
ATOM     24  C   UNL A   1      32.877  17.265  24.118  1.00  0.00     0.038 C 
BRANCH  24  25
ATOM     25  C   UNL A   1      33.371  16.388  25.284  1.00  0.00    -0.013 C 
ATOM     26  C   UNL A   1      32.520  15.127  25.457  1.00  0.00     0.008 C 
ATOM     27  C   UNL A   1      34.832  15.977  25.072  1.00  0.00     0.008 C 
ENDBRANCH  24  25
ENDBRANCH  19  24
ENDBRANCH   8  18
BRANCH  17  28
ATOM     28  C   UNL A   1      29.626  26.114  24.329  1.00  0.00     0.429 C 
ATOM     29  F   UNL A   1      28.481  26.026  25.039  1.00  0.00    -0.167 F 
ATOM     30  F   UNL A   1      29.761  27.396  23.915  1.00  0.00    -0.167 F 
ATOM     31  F   UNL A   1      29.436  25.375  23.201  1.00  0.00    -0.167 F 
ENDBRANCH  17  28
ENDBRANCH   4   7
ENDBRANCH   2   3
ENDBRANCH   1   2
BRANCH   1  32
ATOM     32  C   UNL A   1      31.343  31.562  26.182  1.00  0.00     0.023 C 
BRANCH  32  33
ATOM     33  C   UNL A   1      32.501  32.102  27.011  1.00  0.00     0.116 C 
BRANCH  33  34
ATOM     34  N   UNL A   1      32.352  33.521  27.289  1.00  0.00    -0.352 N 
ATOM     35  C   UNL A   1      33.016  34.298  28.203  1.00  0.00     0.251 C 
ATOM     36  H   UNL A   1      31.679  33.990  26.745  1.00  0.00     0.163 HD
ATOM     37  O   UNL A   1      32.617  35.435  28.449  1.00  0.00    -0.269 OA
BRANCH  35  38
ATOM     38  C   UNL A   1      34.197  33.762  28.913  1.00  0.00     0.039 A 
ATOM     39  C   UNL A   1      34.003  32.916  30.008  1.00  0.00     0.014 A 
ATOM     40  C   UNL A   1      35.491  34.092  28.502  1.00  0.00     0.014 A 
ATOM     41  C   UNL A   1      35.106  32.351  30.650  1.00  0.00     0.010 A 
ATOM     42  C   UNL A   1      36.586  33.467  29.094  1.00  0.00     0.010 A 
ATOM     43  C   UNL A   1      36.407  32.591  30.176  1.00  0.00    -0.014 A 
BRANCH  43  44
ATOM     44  C   UNL A   1      37.586  31.932  30.795  1.00  0.00     0.031 A 
ATOM     45  C   UNL A   1      38.346  30.872  30.041  1.00  0.00     0.074 A 
ATOM     46  C   UNL A   1      37.937  32.241  32.060  1.00  0.00     0.049 A 
ATOM     47  N   UNL A   1      39.359  30.143  30.437  1.00  0.00    -0.248 NA
ATOM     48  C   UNL A   1      37.893  30.573  28.673  1.00  0.00     0.031 C 
ATOM     49  C   UNL A   1      37.257  33.218  32.913  1.00  0.00     0.029 A 
ATOM     50  N   UNL A   1      38.949  31.760  32.853  1.00  0.00    -0.354 N 
ATOM     51  C   UNL A   1      39.649  29.291  29.378  1.00  0.00     0.074 A 
ATOM     52  C   UNL A   1      38.678  29.560  28.341  1.00  0.00     0.031 C 
ATOM     53  C   UNL A   1      37.886  33.283  34.097  1.00  0.00     0.029 A 
ATOM     54  C   UNL A   1      38.985  32.323  34.107  1.00  0.00     0.049 A 
ATOM     55  H   UNL A   1      39.590  31.076  32.551  1.00  0.00     0.167 HD
ATOM     56  C   UNL A   1      40.645  28.380  29.274  1.00  0.00     0.037 A 
ATOM     57  C   UNL A   1      39.804  32.084  35.149  1.00  0.00     0.037 A 
ATOM     58  C   UNL A   1      41.633  28.139  30.294  1.00  0.00     0.049 A 
ATOM     59  C   UNL A   1      40.895  31.056  35.004  1.00  0.00     0.074 A 
ATOM     60  C   UNL A   1      42.728  27.294  30.248  1.00  0.00     0.029 A 
ATOM     61  N   UNL A   1      41.641  28.737  31.544  1.00  0.00    -0.354 N 
ATOM     62  N   UNL A   1      41.210  30.322  33.965  1.00  0.00    -0.248 NA
ATOM     63  C   UNL A   1      41.747  30.827  36.180  1.00  0.00     0.031 C 
ATOM     64  C   UNL A   1      43.366  27.337  31.491  1.00  0.00     0.029 A 
ATOM     65  C   UNL A   1      42.704  28.256  32.289  1.00  0.00     0.049 A 
ATOM     66  H   UNL A   1      40.988  29.406  31.856  1.00  0.00     0.167 HD
ATOM     67  C   UNL A   1      42.318  29.577  34.348  1.00  0.00     0.074 A 
ATOM     68  C   UNL A   1      42.629  29.958  35.709  1.00  0.00     0.031 C 
ATOM     69  C   UNL A   1      43.016  28.659  33.636  1.00  0.00     0.037 A 
BRANCH  56  70
ATOM     70  C   UNL A   1      40.729  27.570  28.013  1.00  0.00     0.057 A 
ATOM     71  C   UNL A   1      41.472  27.996  26.905  1.00  0.00     0.134 A 
ATOM     72  C   UNL A   1      40.117  26.312  27.935  1.00  0.00     0.134 A 
ATOM     73  F   UNL A   1      42.075  29.195  26.910  1.00  0.00    -0.206 F 
ATOM     74  C   UNL A   1      41.591  27.208  25.759  1.00  0.00     0.040 A 
ATOM     75  C   UNL A   1      40.253  25.502  26.806  1.00  0.00     0.040 A 
ATOM     76  F   UNL A   1      39.398  25.839  28.964  1.00  0.00    -0.206 F 
ATOM     77  C   UNL A   1      40.989  25.952  25.712  1.00  0.00     0.006 A 
ENDBRANCH  56  70
BRANCH  57  78
ATOM     78  C   UNL A   1      39.645  32.830  36.425  1.00  0.00     0.057 A 
ATOM     79  C   UNL A   1      38.712  32.424  37.387  1.00  0.00     0.134 A 
ATOM     80  C   UNL A   1      40.377  33.993  36.691  1.00  0.00     0.134 A 
ATOM     81  F   UNL A   1      37.965  31.328  37.182  1.00  0.00    -0.206 F 
ATOM     82  C   UNL A   1      38.486  33.164  38.549  1.00  0.00     0.040 A 
ATOM     83  C   UNL A   1      40.183  34.727  37.863  1.00  0.00     0.040 A 
ATOM     84  F   UNL A   1      41.292  34.434  35.816  1.00  0.00    -0.206 F 
ATOM     85  C   UNL A   1      39.224  34.320  38.789  1.00  0.00     0.006 A 
ENDBRANCH  57  78
BRANCH  69  86
ATOM     86  C   UNL A   1      44.219  28.044  34.292  1.00  0.00     0.057 A 
ATOM     87  C   UNL A   1      45.486  28.638  34.229  1.00  0.00     0.134 A 
ATOM     88  C   UNL A   1      44.097  26.859  35.029  1.00  0.00     0.134 A 
ATOM     89  F   UNL A   1      45.674  29.767  33.529  1.00  0.00    -0.206 F 
ATOM     90  C   UNL A   1      46.593  28.060  34.852  1.00  0.00     0.040 A 
ATOM     91  C   UNL A   1      45.190  26.289  35.682  1.00  0.00     0.040 A 
ATOM     92  F   UNL A   1      42.910  26.244  35.140  1.00  0.00    -0.206 F 
ATOM     93  C   UNL A   1      46.444  26.886  35.589  1.00  0.00     0.006 A 
ENDBRANCH  69  86
ENDBRANCH  43  44
ENDBRANCH  35  38
ENDBRANCH  33  34
ENDBRANCH  32  33
ENDBRANCH   1  32
TORSDOF 15
ENDMDL
