MODEL 1
REMARK VINA RESULT:     -11.6      0.000      0.000
REMARK SMILES CC[C@H](C)[C@@H](NC(=O)c1csc(NC(C)=O)n1)C(=O)NCCCCNC(=O)c1ccc(-c2c3nc(c(-c4c(F)cccc4F)c4ccc([nH]4)c(-c4c(F)cccc4F)c4nc(c(-c5c(F)cccc5F)c5ccc2[nH]5)C=C4)C=C3)cc1
REMARK SMILES IDX 22 1 21 2 20 3 18 4 19 5 5 7 3 8 4 9 2 10 1 11 6 12 7 13
REMARK SMILES IDX 8 15 9 16 10 17 17 18 11 19 12 20 13 21 14 22 15 24 16 25
REMARK SMILES IDX 23 26 24 27 25 28 26 29 27 31 28 32 29 33 81 34 30 35 80 36
REMARK SMILES IDX 31 37 32 38 33 39 74 40 34 41 79 42 73 43 75 44 35 45 78 46
REMARK SMILES IDX 72 47 71 48 36 50 62 51 45 52 61 53 46 54 49 55 60 56 76 57
REMARK SMILES IDX 47 58 48 59 59 61 77 62 50 63 37 64 38 65 43 66 39 67 40 68
REMARK SMILES IDX 42 69 44 70 41 71 63 72 64 73 69 74 65 75 66 76 68 77 70 78
REMARK SMILES IDX 67 79 51 80 52 81 57 82 53 83 54 84 56 85 58 86 55 87
REMARK H PARENT 20 6 6 14 13 23 25 30 75 49 49 60
REMARK Flexibility Score: inf
ROOT
ATOM      1  C   UNL A   1      31.781  29.861  26.914  1.00  0.00     0.023 C 
ENDROOT
BRANCH   1   2
ATOM      2  C   UNL A   1      31.592  28.967  25.697  1.00  0.00     0.116 C 
BRANCH   2   3
ATOM      3  N   UNL A   1      32.451  29.409  24.619  1.00  0.00    -0.354 N 
ATOM      4  C   UNL A   1      32.672  28.853  23.396  1.00  0.00     0.242 C 
ATOM      5  O   UNL A   1      33.579  29.328  22.703  1.00  0.00    -0.273 OA
ATOM      6  H   UNL A   1      32.951  30.239  24.797  1.00  0.00     0.163 HD
BRANCH   4   7
ATOM      7  C   UNL A   1      31.918  27.578  22.963  1.00  0.00     0.174 C 
BRANCH   7   8
ATOM      8  C   UNL A   1      30.456  27.996  22.541  1.00  0.00     0.018 C 
ATOM      9  C   UNL A   1      29.388  27.445  23.500  1.00  0.00     0.010 C 
BRANCH   8  10
ATOM     10  C   UNL A   1      30.298  29.522  22.327  1.00  0.00     0.002 C 
ATOM     11  C   UNL A   1      29.146  30.129  23.126  1.00  0.00     0.004 C 
ENDBRANCH   8  10
ENDBRANCH   7   8
BRANCH   7  12
ATOM     12  N   UNL A   1      32.571  26.816  21.871  1.00  0.00    -0.339 N 
ATOM     13  C   UNL A   1      32.721  25.466  21.639  1.00  0.00     0.271 C 
ATOM     14  H   UNL A   1      32.976  27.386  21.177  1.00  0.00     0.164 HD
ATOM     15  O   UNL A   1      33.111  25.127  20.520  1.00  0.00    -0.267 OA
BRANCH  13  16
ATOM     16  C   UNL A   1      32.621  24.496  22.730  1.00  0.00     0.141 A 
ATOM     17  C   UNL A   1      33.745  23.936  23.319  1.00  0.00     0.102 A 
ATOM     18  N   UNL A   1      31.424  24.087  23.309  1.00  0.00    -0.215 NA
ATOM     19  S   UNL A   1      33.303  23.045  24.708  1.00  0.00    -0.104 S 
ATOM     20  C   UNL A   1      31.667  23.411  24.410  1.00  0.00     0.190 A 
BRANCH  20  21
ATOM     21  N   UNL A   1      30.653  23.047  25.259  1.00  0.00    -0.302 N 
ATOM     22  C   UNL A   1      30.543  23.362  26.594  1.00  0.00     0.223 C 
ATOM     23  H   UNL A   1      29.930  22.503  24.874  1.00  0.00     0.172 HD
ATOM     24  C   UNL A   1      29.335  22.739  27.251  1.00  0.00     0.114 C 
ATOM     25  O   UNL A   1      31.296  24.075  27.251  1.00  0.00    -0.275 OA
ENDBRANCH  20  21
ENDBRANCH  13  16
ENDBRANCH   7  12
ENDBRANCH   4   7
ENDBRANCH   2   3
ENDBRANCH   1   2
BRANCH   1  26
ATOM     26  C   UNL A   1      31.606  31.347  26.601  1.00  0.00     0.023 C 
BRANCH  26  27
ATOM     27  C   UNL A   1      32.851  32.192  26.848  1.00  0.00     0.116 C 
BRANCH  27  28
ATOM     28  N   UNL A   1      32.523  33.524  27.329  1.00  0.00    -0.352 N 
ATOM     29  C   UNL A   1      33.067  34.219  28.376  1.00  0.00     0.251 C 
ATOM     30  H   UNL A   1      31.810  33.991  26.834  1.00  0.00     0.163 HD
ATOM     31  O   UNL A   1      32.534  35.252  28.775  1.00  0.00    -0.269 OA
BRANCH  29  32
ATOM     32  C   UNL A   1      34.280  33.705  29.041  1.00  0.00     0.039 A 
ATOM     33  C   UNL A   1      34.141  32.703  30.000  1.00  0.00     0.014 A 
ATOM     34  C   UNL A   1      35.547  34.200  28.713  1.00  0.00     0.014 A 
ATOM     35  C   UNL A   1      35.278  32.163  30.597  1.00  0.00     0.010 A 
ATOM     36  C   UNL A   1      36.684  33.603  29.248  1.00  0.00     0.010 A 
ATOM     37  C   UNL A   1      36.561  32.585  30.203  1.00  0.00    -0.014 A 
BRANCH  37  38
ATOM     38  C   UNL A   1      37.765  31.943  30.787  1.00  0.00     0.031 A 
ATOM     39  C   UNL A   1      38.239  32.308  32.166  1.00  0.00     0.074 A 
ATOM     40  C   UNL A   1      38.434  31.024  30.063  1.00  0.00     0.049 A 
ATOM     41  N   UNL A   1      39.226  31.798  32.859  1.00  0.00    -0.248 NA
ATOM     42  C   UNL A   1      37.528  33.399  32.850  1.00  0.00     0.031 C 
ATOM     43  C   UNL A   1      38.115  30.638  28.687  1.00  0.00     0.029 A 
ATOM     44  N   UNL A   1      39.512  30.242  30.386  1.00  0.00    -0.354 N 
ATOM     45  C   UNL A   1      39.244  32.495  34.060  1.00  0.00     0.074 A 
ATOM     46  C   UNL A   1      38.220  33.512  33.975  1.00  0.00     0.031 C 
ATOM     47  C   UNL A   1      38.951  29.663  28.299  1.00  0.00     0.029 A 
ATOM     48  C   UNL A   1      39.885  29.378  29.384  1.00  0.00     0.049 A 
ATOM     49  H   UNL A   1      39.976  30.293  31.253  1.00  0.00     0.167 HD
ATOM     50  C   UNL A   1      40.023  32.286  35.148  1.00  0.00     0.037 A 
ATOM     51  C   UNL A   1      40.865  28.458  29.345  1.00  0.00     0.037 A 
ATOM     52  C   UNL A   1      41.047  31.277  35.229  1.00  0.00     0.049 A 
ATOM     53  C   UNL A   1      41.717  28.248  30.566  1.00  0.00     0.074 A 
ATOM     54  C   UNL A   1      41.869  30.964  36.297  1.00  0.00     0.029 A 
ATOM     55  N   UNL A   1      41.394  30.418  34.195  1.00  0.00    -0.354 N 
ATOM     56  N   UNL A   1      41.669  28.860  31.724  1.00  0.00    -0.248 NA
ATOM     57  C   UNL A   1      42.748  27.206  30.479  1.00  0.00     0.031 C 
ATOM     58  C   UNL A   1      42.745  29.948  35.895  1.00  0.00     0.029 A 
ATOM     59  C   UNL A   1      42.429  29.588  34.595  1.00  0.00     0.049 A 
ATOM     60  H   UNL A   1      40.966  30.402  33.308  1.00  0.00     0.167 HD
ATOM     61  C   UNL A   1      42.649  28.266  32.510  1.00  0.00     0.074 A 
ATOM     62  C   UNL A   1      43.250  27.221  31.704  1.00  0.00     0.031 C 
ATOM     63  C   UNL A   1      43.024  28.560  33.779  1.00  0.00     0.037 A 
BRANCH  50  64
ATOM     64  C   UNL A   1      39.785  33.159  36.348  1.00  0.00     0.057 A 
ATOM     65  C   UNL A   1      40.473  34.368  36.525  1.00  0.00     0.134 A 
ATOM     66  C   UNL A   1      38.832  32.815  37.314  1.00  0.00     0.134 A 
ATOM     67  F   UNL A   1      41.409  34.754  35.644  1.00  0.00    -0.206 F 
ATOM     68  C   UNL A   1      40.239  35.189  37.630  1.00  0.00     0.040 A 
ATOM     69  C   UNL A   1      38.568  33.641  38.407  1.00  0.00     0.040 A 
ATOM     70  F   UNL A   1      38.131  31.675  37.205  1.00  0.00    -0.206 F 
ATOM     71  C   UNL A   1      39.276  34.830  38.570  1.00  0.00     0.006 A 
ENDBRANCH  50  64
BRANCH  51  72
ATOM     72  C   UNL A   1      41.084  27.653  28.115  1.00  0.00     0.057 A 
ATOM     73  C   UNL A   1      41.890  28.121  27.070  1.00  0.00     0.134 A 
ATOM     74  C   UNL A   1      40.475  26.404  27.948  1.00  0.00     0.134 A 
ATOM     75  F   UNL A   1      42.488  29.319  27.162  1.00  0.00    -0.206 F 
ATOM     76  C   UNL A   1      42.057  27.391  25.892  1.00  0.00     0.040 A 
ATOM     77  C   UNL A   1      40.659  25.648  26.789  1.00  0.00     0.040 A 
ATOM     78  F   UNL A   1      39.701  25.893  28.916  1.00  0.00    -0.206 F 
ATOM     79  C   UNL A   1      41.444  26.148  25.752  1.00  0.00     0.006 A 
ENDBRANCH  51  72
BRANCH  63  80
ATOM     80  C   UNL A   1      44.120  27.723  34.374  1.00  0.00     0.057 A 
ATOM     81  C   UNL A   1      43.856  26.503  35.014  1.00  0.00     0.134 A 
ATOM     82  C   UNL A   1      45.455  28.141  34.309  1.00  0.00     0.134 A 
ATOM     83  F   UNL A   1      42.598  26.050  35.122  1.00  0.00    -0.206 F 
ATOM     84  C   UNL A   1      44.875  25.755  35.606  1.00  0.00     0.040 A 
ATOM     85  C   UNL A   1      46.485  27.384  34.867  1.00  0.00     0.040 A 
ATOM     86  F   UNL A   1      45.781  29.291  33.700  1.00  0.00    -0.206 F 
ATOM     87  C   UNL A   1      46.195  26.194  35.530  1.00  0.00     0.006 A 
ENDBRANCH  63  80
ENDBRANCH  37  38
ENDBRANCH  29  32
ENDBRANCH  27  28
ENDBRANCH  26  27
ENDBRANCH   1  26
TORSDOF 16
ENDMDL
MODEL 2
REMARK VINA RESULT:     -11.5      4.800      9.887
REMARK SMILES CC[C@H](C)[C@@H](NC(=O)c1csc(NC(C)=O)n1)C(=O)NCCCCNC(=O)c1ccc(-c2c3nc(c(-c4c(F)cccc4F)c4ccc([nH]4)c(-c4c(F)cccc4F)c4nc(c(-c5c(F)cccc5F)c5ccc2[nH]5)C=C4)C=C3)cc1
REMARK SMILES IDX 22 1 21 2 20 3 18 4 19 5 5 7 3 8 4 9 2 10 1 11 6 12 7 13
REMARK SMILES IDX 8 15 9 16 10 17 17 18 11 19 12 20 13 21 14 22 15 24 16 25
REMARK SMILES IDX 23 26 24 27 25 28 26 29 27 31 28 32 29 33 81 34 30 35 80 36
REMARK SMILES IDX 31 37 32 38 33 39 74 40 34 41 79 42 73 43 75 44 35 45 78 46
REMARK SMILES IDX 72 47 71 48 36 50 62 51 45 52 61 53 46 54 49 55 60 56 76 57
REMARK SMILES IDX 47 58 48 59 59 61 77 62 50 63 37 64 38 65 43 66 39 67 40 68
REMARK SMILES IDX 42 69 44 70 41 71 63 72 64 73 69 74 65 75 66 76 68 77 70 78
REMARK SMILES IDX 67 79 51 80 52 81 57 82 53 83 54 84 56 85 58 86 55 87
REMARK H PARENT 20 6 6 14 13 23 25 30 75 49 49 60
REMARK Flexibility Score: inf
ROOT
ATOM      1  C   UNL A   1      37.150  21.715  24.461  1.00  0.00     0.023 C 
ENDROOT
BRANCH   1   2
ATOM      2  C   UNL A   1      35.640  21.570  24.589  1.00  0.00     0.116 C 
BRANCH   2   3
ATOM      3  N   UNL A   1      35.285  21.290  25.964  1.00  0.00    -0.354 N 
ATOM      4  C   UNL A   1      34.082  21.403  26.594  1.00  0.00     0.242 C 
ATOM      5  O   UNL A   1      34.061  21.260  27.822  1.00  0.00    -0.273 OA
ATOM      6  H   UNL A   1      36.024  20.969  26.529  1.00  0.00     0.163 HD
BRANCH   4   7
ATOM      7  C   UNL A   1      32.825  21.848  25.818  1.00  0.00     0.174 C 
BRANCH   7   8
ATOM      8  C   UNL A   1      32.291  20.606  25.004  1.00  0.00     0.018 C 
ATOM      9  C   UNL A   1      32.439  20.791  23.485  1.00  0.00     0.010 C 
BRANCH   8  10
ATOM     10  C   UNL A   1      32.897  19.262  25.477  1.00  0.00     0.002 C 
ATOM     11  C   UNL A   1      33.512  18.443  24.345  1.00  0.00     0.004 C 
ENDBRANCH   8  10
ENDBRANCH   7   8
BRANCH   7  12
ATOM     12  N   UNL A   1      31.747  22.413  26.664  1.00  0.00    -0.339 N 
ATOM     13  C   UNL A   1      30.818  23.409  26.446  1.00  0.00     0.271 C 
ATOM     14  H   UNL A   1      31.680  21.995  27.553  1.00  0.00     0.164 HD
ATOM     15  O   UNL A   1      29.891  23.500  27.253  1.00  0.00    -0.267 OA
BRANCH  13  16
ATOM     16  C   UNL A   1      31.037  24.435  25.426  1.00  0.00     0.141 A 
ATOM     17  C   UNL A   1      31.439  25.721  25.755  1.00  0.00     0.102 A 
ATOM     18  N   UNL A   1      30.918  24.219  24.057  1.00  0.00    -0.215 NA
ATOM     19  S   UNL A   1      31.841  26.594  24.341  1.00  0.00    -0.104 S 
ATOM     20  C   UNL A   1      31.410  25.244  23.398  1.00  0.00     0.190 A 
BRANCH  20  21
ATOM     21  N   UNL A   1      31.571  25.203  22.036  1.00  0.00    -0.302 N 
ATOM     22  C   UNL A   1      32.724  25.467  21.333  1.00  0.00     0.223 C 
ATOM     23  H   UNL A   1      30.779  24.960  21.506  1.00  0.00     0.172 HD
ATOM     24  C   UNL A   1      32.534  25.400  19.837  1.00  0.00     0.114 C 
ATOM     25  O   UNL A   1      33.830  25.726  21.798  1.00  0.00    -0.275 OA
ENDBRANCH  20  21
ENDBRANCH  13  16
ENDBRANCH   7  12
ENDBRANCH   4   7
ENDBRANCH   2   3
ENDBRANCH   1   2
BRANCH   1  26
ATOM     26  C   UNL A   1      37.899  20.397  24.657  1.00  0.00     0.023 C 
BRANCH  26  27
ATOM     27  C   UNL A   1      38.725  20.329  25.937  1.00  0.00     0.116 C 
BRANCH  27  28
ATOM     28  N   UNL A   1      39.772  19.322  25.861  1.00  0.00    -0.352 N 
ATOM     29  C   UNL A   1      41.124  19.477  26.006  1.00  0.00     0.251 C 
ATOM     30  H   UNL A   1      39.466  18.404  25.681  1.00  0.00     0.163 HD
ATOM     31  O   UNL A   1      41.885  18.558  25.709  1.00  0.00    -0.269 OA
BRANCH  29  32
ATOM     32  C   UNL A   1      41.665  20.761  26.491  1.00  0.00     0.039 A 
ATOM     33  C   UNL A   1      41.976  21.749  25.558  1.00  0.00     0.014 A 
ATOM     34  C   UNL A   1      41.854  20.993  27.858  1.00  0.00     0.014 A 
ATOM     35  C   UNL A   1      42.432  22.989  25.999  1.00  0.00     0.010 A 
ATOM     36  C   UNL A   1      42.229  22.258  28.300  1.00  0.00     0.010 A 
ATOM     37  C   UNL A   1      42.532  23.266  27.375  1.00  0.00    -0.014 A 
BRANCH  37  38
ATOM     38  C   UNL A   1      42.940  24.618  27.832  1.00  0.00     0.031 A 
ATOM     39  C   UNL A   1      44.389  25.016  27.859  1.00  0.00     0.074 A 
ATOM     40  C   UNL A   1      41.991  25.490  28.226  1.00  0.00     0.049 A 
ATOM     41  N   UNL A   1      44.918  26.175  28.160  1.00  0.00    -0.248 NA
ATOM     42  C   UNL A   1      45.374  23.977  27.524  1.00  0.00     0.031 C 
ATOM     43  C   UNL A   1      40.558  25.197  28.314  1.00  0.00     0.029 A 
ATOM     44  N   UNL A   1      42.086  26.800  28.617  1.00  0.00    -0.354 N 
ATOM     45  C   UNL A   1      46.291  26.007  28.038  1.00  0.00     0.074 A 
ATOM     46  C   UNL A   1      46.519  24.618  27.708  1.00  0.00     0.031 C 
ATOM     47  C   UNL A   1      39.905  26.307  28.690  1.00  0.00     0.029 A 
ATOM     48  C   UNL A   1      40.872  27.379  28.903  1.00  0.00     0.049 A 
ATOM     49  H   UNL A   1      42.942  27.282  28.686  1.00  0.00     0.167 HD
ATOM     50  C   UNL A   1      47.272  26.933  28.159  1.00  0.00     0.037 A 
ATOM     51  C   UNL A   1      40.572  28.632  29.289  1.00  0.00     0.037 A 
ATOM     52  C   UNL A   1      47.044  28.315  28.493  1.00  0.00     0.049 A 
ATOM     53  C   UNL A   1      41.680  29.640  29.418  1.00  0.00     0.074 A 
ATOM     54  C   UNL A   1      47.966  29.340  28.610  1.00  0.00     0.029 A 
ATOM     55  N   UNL A   1      45.800  28.865  28.773  1.00  0.00    -0.354 N 
ATOM     56  N   UNL A   1      42.967  29.486  29.220  1.00  0.00    -0.248 NA
ATOM     57  C   UNL A   1      41.291  31.001  29.807  1.00  0.00     0.031 C 
ATOM     58  C   UNL A   1      47.287  30.499  29.005  1.00  0.00     0.029 A 
ATOM     59  C   UNL A   1      45.935  30.210  29.078  1.00  0.00     0.049 A 
ATOM     60  H   UNL A   1      44.948  28.371  28.757  1.00  0.00     0.167 HD
ATOM     61  C   UNL A   1      43.539  30.733  29.442  1.00  0.00     0.074 A 
ATOM     62  C   UNL A   1      42.451  31.638  29.755  1.00  0.00     0.031 C 
ATOM     63  C   UNL A   1      44.844  31.096  29.398  1.00  0.00     0.037 A 
BRANCH  50  64
ATOM     64  C   UNL A   1      48.684  26.482  27.911  1.00  0.00     0.057 A 
ATOM     65  C   UNL A   1      49.504  26.029  28.954  1.00  0.00     0.134 A 
ATOM     66  C   UNL A   1      49.218  26.460  26.617  1.00  0.00     0.134 A 
ATOM     67  F   UNL A   1      49.060  26.035  30.220  1.00  0.00    -0.206 F 
ATOM     68  C   UNL A   1      50.810  25.593  28.722  1.00  0.00     0.040 A 
ATOM     69  C   UNL A   1      50.512  25.999  26.368  1.00  0.00     0.040 A 
ATOM     70  F   UNL A   1      48.487  26.874  25.570  1.00  0.00    -0.206 F 
ATOM     71  C   UNL A   1      51.313  25.569  27.423  1.00  0.00     0.006 A 
ENDBRANCH  50  64
BRANCH  51  72
ATOM     72  C   UNL A   1      39.163  29.010  29.564  1.00  0.00     0.057 A 
ATOM     73  C   UNL A   1      38.595  28.842  30.832  1.00  0.00     0.134 A 
ATOM     74  C   UNL A   1      38.341  29.531  28.557  1.00  0.00     0.134 A 
ATOM     75  F   UNL A   1      39.325  28.331  31.837  1.00  0.00    -0.206 F 
ATOM     76  C   UNL A   1      37.256  29.148  31.082  1.00  0.00     0.040 A 
ATOM     77  C   UNL A   1      37.010  29.872  28.800  1.00  0.00     0.040 A 
ATOM     78  F   UNL A   1      38.826  29.728  27.322  1.00  0.00    -0.206 F 
ATOM     79  C   UNL A   1      36.461  29.670  30.064  1.00  0.00     0.006 A 
ENDBRANCH  51  72
BRANCH  63  80
ATOM     80  C   UNL A   1      45.156  32.540  29.675  1.00  0.00     0.057 A 
ATOM     81  C   UNL A   1      45.461  32.998  30.964  1.00  0.00     0.134 A 
ATOM     82  C   UNL A   1      45.150  33.483  28.640  1.00  0.00     0.134 A 
ATOM     83  F   UNL A   1      45.474  32.149  32.003  1.00  0.00    -0.206 F 
ATOM     84  C   UNL A   1      45.704  34.348  31.220  1.00  0.00     0.040 A 
ATOM     85  C   UNL A   1      45.424  34.830  28.879  1.00  0.00     0.040 A 
ATOM     86  F   UNL A   1      44.879  33.113  27.380  1.00  0.00    -0.206 F 
ATOM     87  C   UNL A   1      45.689  35.268  30.174  1.00  0.00     0.006 A 
ENDBRANCH  63  80
ENDBRANCH  37  38
ENDBRANCH  29  32
ENDBRANCH  27  28
ENDBRANCH  26  27
ENDBRANCH   1  26
TORSDOF 16
ENDMDL
MODEL 3
REMARK VINA RESULT:     -11.4      2.040      7.025
REMARK SMILES CC[C@H](C)[C@@H](NC(=O)c1csc(NC(C)=O)n1)C(=O)NCCCCNC(=O)c1ccc(-c2c3nc(c(-c4c(F)cccc4F)c4ccc([nH]4)c(-c4c(F)cccc4F)c4nc(c(-c5c(F)cccc5F)c5ccc2[nH]5)C=C4)C=C3)cc1
REMARK SMILES IDX 22 1 21 2 20 3 18 4 19 5 5 7 3 8 4 9 2 10 1 11 6 12 7 13
REMARK SMILES IDX 8 15 9 16 10 17 17 18 11 19 12 20 13 21 14 22 15 24 16 25
REMARK SMILES IDX 23 26 24 27 25 28 26 29 27 31 28 32 29 33 81 34 30 35 80 36
REMARK SMILES IDX 31 37 32 38 33 39 74 40 34 41 79 42 73 43 75 44 35 45 78 46
REMARK SMILES IDX 72 47 71 48 36 50 62 51 45 52 61 53 46 54 49 55 60 56 76 57
REMARK SMILES IDX 47 58 48 59 59 61 77 62 50 63 37 64 38 65 43 66 39 67 40 68
REMARK SMILES IDX 42 69 44 70 41 71 63 72 64 73 69 74 65 75 66 76 68 77 70 78
REMARK SMILES IDX 67 79 51 80 52 81 57 82 53 83 54 84 56 85 58 86 55 87
REMARK H PARENT 20 6 6 14 13 23 25 30 75 49 49 60
REMARK Flexibility Score: inf
ROOT
ATOM      1  C   UNL A   1      31.562  30.938  26.144  1.00  0.00     0.023 C 
ENDROOT
BRANCH   1   2
ATOM      2  C   UNL A   1      32.745  30.257  26.817  1.00  0.00     0.116 C 
BRANCH   2   3
ATOM      3  N   UNL A   1      32.316  29.025  27.445  1.00  0.00    -0.354 N 
ATOM      4  C   UNL A   1      31.995  27.826  26.885  1.00  0.00     0.242 C 
ATOM      5  O   UNL A   1      31.497  26.963  27.617  1.00  0.00    -0.273 OA
ATOM      6  H   UNL A   1      32.245  29.060  28.426  1.00  0.00     0.163 HD
BRANCH   4   7
ATOM      7  C   UNL A   1      32.108  27.614  25.360  1.00  0.00     0.174 C 
BRANCH   7   8
ATOM      8  C   UNL A   1      33.637  27.465  25.001  1.00  0.00     0.018 C 
ATOM      9  C   UNL A   1      34.052  25.998  24.798  1.00  0.00     0.010 C 
BRANCH   8  10
ATOM     10  C   UNL A   1      34.070  28.351  23.808  1.00  0.00     0.002 C 
ATOM     11  C   UNL A   1      33.567  27.841  22.459  1.00  0.00     0.004 C 
ENDBRANCH   8  10
ENDBRANCH   7   8
BRANCH   7  12
ATOM     12  N   UNL A   1      31.340  26.456  24.841  1.00  0.00    -0.339 N 
ATOM     13  C   UNL A   1      30.358  26.347  23.880  1.00  0.00     0.271 C 
ATOM     14  H   UNL A   1      31.580  25.600  25.264  1.00  0.00     0.164 HD
ATOM     15  O   UNL A   1      30.071  25.211  23.496  1.00  0.00    -0.267 OA
BRANCH  13  16
ATOM     16  C   UNL A   1      29.553  27.504  23.486  1.00  0.00     0.141 A 
ATOM     17  C   UNL A   1      28.174  27.429  23.361  1.00  0.00     0.102 A 
ATOM     18  N   UNL A   1      30.068  28.775  23.255  1.00  0.00    -0.215 NA
ATOM     19  S   UNL A   1      27.516  28.990  23.135  1.00  0.00    -0.104 S 
ATOM     20  C   UNL A   1      29.087  29.645  23.164  1.00  0.00     0.190 A 
BRANCH  20  21
ATOM     21  N   UNL A   1      29.335  30.994  23.111  1.00  0.00    -0.302 N 
ATOM     22  C   UNL A   1      28.418  32.008  23.264  1.00  0.00     0.223 C 
ATOM     23  H   UNL A   1      30.266  31.264  22.946  1.00  0.00     0.172 HD
ATOM     24  C   UNL A   1      29.016  33.380  23.075  1.00  0.00     0.114 C 
ATOM     25  O   UNL A   1      27.226  31.892  23.536  1.00  0.00    -0.275 OA
ENDBRANCH  20  21
ENDBRANCH  13  16
ENDBRANCH   7  12
ENDBRANCH   4   7
ENDBRANCH   2   3
ENDBRANCH   1   2
BRANCH   1  26
ATOM     26  C   UNL A   1      31.377  32.392  26.579  1.00  0.00     0.023 C 
BRANCH  26  27
ATOM     27  C   UNL A   1      32.568  32.979  27.329  1.00  0.00     0.116 C 
BRANCH  27  28
ATOM     28  N   UNL A   1      32.368  34.380  27.663  1.00  0.00    -0.352 N 
ATOM     29  C   UNL A   1      32.980  35.128  28.633  1.00  0.00     0.251 C 
ATOM     30  H   UNL A   1      31.702  34.856  27.116  1.00  0.00     0.163 HD
ATOM     31  O   UNL A   1      32.548  36.244  28.915  1.00  0.00    -0.269 OA
BRANCH  29  32
ATOM     32  C   UNL A   1      34.141  34.577  29.357  1.00  0.00     0.039 A 
ATOM     33  C   UNL A   1      33.934  34.003  30.610  1.00  0.00     0.014 A 
ATOM     34  C   UNL A   1      35.424  34.615  28.798  1.00  0.00     0.014 A 
ATOM     35  C   UNL A   1      35.007  33.424  31.284  1.00  0.00     0.010 A 
ATOM     36  C   UNL A   1      36.476  33.963  29.434  1.00  0.00     0.010 A 
ATOM     37  C   UNL A   1      36.281  33.370  30.688  1.00  0.00    -0.014 A 
BRANCH  37  38
ATOM     38  C   UNL A   1      37.396  32.677  31.382  1.00  0.00     0.031 A 
ATOM     39  C   UNL A   1      38.055  31.474  30.768  1.00  0.00     0.074 A 
ATOM     40  C   UNL A   1      37.812  33.142  32.577  1.00  0.00     0.049 A 
ATOM     41  N   UNL A   1      39.085  30.791  31.199  1.00  0.00    -0.248 NA
ATOM     42  C   UNL A   1      37.473  30.958  29.520  1.00  0.00     0.031 C 
ATOM     43  C   UNL A   1      37.206  34.256  33.308  1.00  0.00     0.029 A 
ATOM     44  N   UNL A   1      38.848  32.742  33.380  1.00  0.00    -0.354 N 
ATOM     45  C   UNL A   1      39.281  29.776  30.271  1.00  0.00     0.074 A 
ATOM     46  C   UNL A   1      38.221  29.887  29.294  1.00  0.00     0.031 C 
ATOM     47  C   UNL A   1      37.906  34.478  34.431  1.00  0.00     0.029 A 
ATOM     48  C   UNL A   1      38.988  33.502  34.516  1.00  0.00     0.049 A 
ATOM     49  H   UNL A   1      39.437  31.982  33.165  1.00  0.00     0.167 HD
ATOM     50  C   UNL A   1      40.273  28.855  30.220  1.00  0.00     0.037 A 
ATOM     51  C   UNL A   1      39.889  33.426  35.512  1.00  0.00     0.037 A 
ATOM     52  C   UNL A   1      41.324  28.743  31.198  1.00  0.00     0.049 A 
ATOM     53  C   UNL A   1      40.978  32.393  35.432  1.00  0.00     0.074 A 
ATOM     54  C   UNL A   1      42.393  27.864  31.220  1.00  0.00     0.029 A 
ATOM     55  N   UNL A   1      41.435  29.533  32.333  1.00  0.00    -0.354 N 
ATOM     56  N   UNL A   1      41.198  31.491  34.506  1.00  0.00    -0.248 NA
ATOM     57  C   UNL A   1      41.955  32.377  36.529  1.00  0.00     0.031 C 
ATOM     58  C   UNL A   1      43.124  28.091  32.392  1.00  0.00     0.029 A 
ATOM     59  C   UNL A   1      42.544  29.150  33.070  1.00  0.00     0.049 A 
ATOM     60  H   UNL A   1      40.816  30.259  32.578  1.00  0.00     0.167 HD
ATOM     61  C   UNL A   1      42.347  30.815  34.897  1.00  0.00     0.074 A 
ATOM     62  C   UNL A   1      42.796  31.436  36.127  1.00  0.00     0.031 C 
ATOM     63  C   UNL A   1      42.971  29.772  34.299  1.00  0.00     0.037 A 
BRANCH  50  64
ATOM     64  C   UNL A   1      40.274  27.904  29.057  1.00  0.00     0.057 A 
ATOM     65  C   UNL A   1      39.539  26.710  29.082  1.00  0.00     0.134 A 
ATOM     66  C   UNL A   1      40.981  28.199  27.884  1.00  0.00     0.134 A 
ATOM     67  F   UNL A   1      38.849  26.360  30.178  1.00  0.00    -0.206 F 
ATOM     68  C   UNL A   1      39.525  25.835  27.995  1.00  0.00     0.040 A 
ATOM     69  C   UNL A   1      40.952  27.346  26.779  1.00  0.00     0.040 A 
ATOM     70  F   UNL A   1      41.701  29.327  27.787  1.00  0.00    -0.206 F 
ATOM     71  C   UNL A   1      40.227  26.158  26.835  1.00  0.00     0.006 A 
ENDBRANCH  50  64
BRANCH  51  72
ATOM     72  C   UNL A   1      39.812  34.364  36.661  1.00  0.00     0.057 A 
ATOM     73  C   UNL A   1      40.413  35.628  36.613  1.00  0.00     0.134 A 
ATOM     74  C   UNL A   1      39.152  34.011  37.844  1.00  0.00     0.134 A 
ATOM     75  F   UNL A   1      41.076  36.020  35.514  1.00  0.00    -0.206 F 
ATOM     76  C   UNL A   1      40.387  36.493  37.709  1.00  0.00     0.040 A 
ATOM     77  C   UNL A   1      39.090  34.879  38.936  1.00  0.00     0.040 A 
ATOM     78  F   UNL A   1      38.545  32.820  37.951  1.00  0.00    -0.206 F 
ATOM     79  C   UNL A   1      39.720  36.120  38.873  1.00  0.00     0.006 A 
ENDBRANCH  51  72
BRANCH  63  80
ATOM     80  C   UNL A   1      44.218  29.257  34.961  1.00  0.00     0.057 A 
ATOM     81  C   UNL A   1      45.490  29.744  34.627  1.00  0.00     0.134 A 
ATOM     82  C   UNL A   1      44.148  28.260  35.942  1.00  0.00     0.134 A 
ATOM     83  F   UNL A   1      45.630  30.691  33.687  1.00  0.00    -0.206 F 
ATOM     84  C   UNL A   1      46.646  29.227  35.213  1.00  0.00     0.040 A 
ATOM     85  C   UNL A   1      45.295  27.760  36.559  1.00  0.00     0.040 A 
ATOM     86  F   UNL A   1      42.963  27.757  36.320  1.00  0.00    -0.206 F 
ATOM     87  C   UNL A   1      46.549  28.234  36.186  1.00  0.00     0.006 A 
ENDBRANCH  63  80
ENDBRANCH  37  38
ENDBRANCH  29  32
ENDBRANCH  27  28
ENDBRANCH  26  27
ENDBRANCH   1  26
TORSDOF 16
ENDMDL
