MODEL 1
REMARK VINA RESULT:     -12.9      0.000      0.000
REMARK SMILES Cc1cc(C(=O)N[C@H]2C=C[C@H](C(=O)NCCCCNC(=O)c3ccc(-c4c5nc(c(-c6c(F)cccc6F)c6ccc([nH]6)c(-c6c(F)cccc6F)c6nc(c(-c7c(F)cccc7F)c7ccc4[nH]7)C=C6)C=C5)cc3)C2)ccc1F
REMARK SMILES IDX 16 1 15 2 14 3 12 4 13 5 11 7 8 8 9 9 76 10 10 11 7 12 5 13
REMARK SMILES IDX 6 14 4 16 1 17 2 18 3 19 79 20 78 21 80 22 77 23 17 24 18 25
REMARK SMILES IDX 19 26 20 27 21 29 22 30 23 31 75 32 24 33 74 34 25 35 26 36
REMARK SMILES IDX 27 37 68 38 28 39 73 40 67 41 69 42 29 43 72 44 66 45 65 46
REMARK SMILES IDX 30 48 56 49 39 50 55 51 40 52 43 53 54 54 70 55 41 56 42 57
REMARK SMILES IDX 53 59 71 60 44 61 31 62 32 63 37 64 33 65 34 66 36 67 38 68
REMARK SMILES IDX 35 69 57 70 58 71 63 72 59 73 60 74 62 75 64 76 61 77 45 78
REMARK SMILES IDX 46 79 51 80 47 81 48 82 50 83 52 84 49 85
REMARK H PARENT 14 6 7 15 19 28 69 47 43 58
REMARK Flexibility Score: inf
ROOT
ATOM      1  C   UNL A   1      34.044  28.371  24.244  1.00  0.00     0.023 C 
ENDROOT
BRANCH   1   2
ATOM      2  C   UNL A   1      33.414  29.024  23.018  1.00  0.00     0.116 C 
BRANCH   2   3
ATOM      3  N   UNL A   1      32.658  28.070  22.240  1.00  0.00    -0.356 N 
ATOM      4  C   UNL A   1      31.411  27.563  22.389  1.00  0.00     0.227 C 
ATOM      5  O   UNL A   1      31.101  26.685  21.574  1.00  0.00    -0.274 OA
ATOM      6  H   UNL A   1      33.140  27.724  21.453  1.00  0.00     0.163 HD
BRANCH   4   7
ATOM      7  C   UNL A   1      30.433  27.977  23.516  1.00  0.00     0.103 C 
ATOM      8  C   UNL A   1      29.960  25.859  24.551  1.00  0.00     0.106 C 
ATOM      9  C   UNL A   1      28.703  26.438  23.990  1.00  0.00    -0.006 C 
ATOM     10  C   UNL A   1      30.775  27.138  24.767  1.00  0.00     0.047 C 
ATOM     11  C   UNL A   1      28.975  27.609  23.396  1.00  0.00    -0.016 C 
BRANCH   8  12
ATOM     12  N   UNL A   1      29.716  25.089  25.736  1.00  0.00    -0.346 N 
ATOM     13  C   UNL A   1      30.431  24.043  26.273  1.00  0.00     0.251 C 
ATOM     14  O   UNL A   1      30.029  23.546  27.325  1.00  0.00    -0.269 OA
ATOM     15  H   UNL A   1      28.913  25.349  26.244  1.00  0.00     0.164 HD
BRANCH  13  16
ATOM     16  C   UNL A   1      31.707  23.541  25.679  1.00  0.00     0.040 A 
ATOM     17  C   UNL A   1      35.450  24.256  25.544  1.00  0.00     0.047 C 
ATOM     18  C   UNL A   1      34.119  23.609  25.298  1.00  0.00    -0.015 A 
ATOM     19  C   UNL A   1      32.937  24.207  25.759  1.00  0.00     0.020 A 
ATOM     20  C   UNL A   1      34.037  22.389  24.633  1.00  0.00     0.126 A 
ATOM     21  C   UNL A   1      32.814  21.753  24.451  1.00  0.00     0.040 A 
ATOM     22  F   UNL A   1      35.148  21.812  24.154  1.00  0.00    -0.207 F 
ATOM     23  C   UNL A   1      31.654  22.319  24.986  1.00  0.00     0.017 A 
ENDBRANCH  13  16
ENDBRANCH   8  12
ENDBRANCH   4   7
ENDBRANCH   2   3
ENDBRANCH   1   2
BRANCH   1  24
ATOM     24  C   UNL A   1      33.530  28.895  25.593  1.00  0.00     0.023 C 
BRANCH  24  25
ATOM     25  C   UNL A   1      34.596  28.984  26.681  1.00  0.00     0.116 C 
BRANCH  25  26
ATOM     26  N   UNL A   1      34.749  30.338  27.204  1.00  0.00    -0.352 N 
ATOM     27  C   UNL A   1      35.758  30.839  27.996  1.00  0.00     0.251 C 
ATOM     28  H   UNL A   1      34.040  30.975  26.958  1.00  0.00     0.163 HD
ATOM     29  O   UNL A   1      35.649  31.921  28.554  1.00  0.00    -0.269 OA
BRANCH  27  30
ATOM     30  C   UNL A   1      36.990  30.051  28.154  1.00  0.00     0.039 A 
ATOM     31  C   UNL A   1      37.953  30.011  27.134  1.00  0.00     0.014 A 
ATOM     32  C   UNL A   1      37.156  29.329  29.330  1.00  0.00     0.014 A 
ATOM     33  C   UNL A   1      39.130  29.287  27.328  1.00  0.00     0.010 A 
ATOM     34  C   UNL A   1      38.343  28.681  29.553  1.00  0.00     0.010 A 
ATOM     35  C   UNL A   1      39.320  28.635  28.547  1.00  0.00    -0.014 A 
BRANCH  35  36
ATOM     36  C   UNL A   1      40.473  27.825  28.901  1.00  0.00     0.031 A 
ATOM     37  C   UNL A   1      40.554  26.388  28.590  1.00  0.00     0.074 A 
ATOM     38  C   UNL A   1      41.572  28.520  29.261  1.00  0.00     0.049 A 
ATOM     39  N   UNL A   1      41.485  25.619  29.038  1.00  0.00    -0.248 NA
ATOM     40  C   UNL A   1      39.594  25.686  27.745  1.00  0.00     0.031 C 
ATOM     41  C   UNL A   1      42.970  28.122  29.198  1.00  0.00     0.029 A 
ATOM     42  N   UNL A   1      41.595  29.766  29.897  1.00  0.00    -0.354 N 
ATOM     43  C   UNL A   1      41.441  24.441  28.329  1.00  0.00     0.074 A 
ATOM     44  C   UNL A   1      40.192  24.495  27.602  1.00  0.00     0.031 C 
ATOM     45  C   UNL A   1      43.687  28.943  29.985  1.00  0.00     0.029 A 
ATOM     46  C   UNL A   1      42.731  29.753  30.722  1.00  0.00     0.049 A 
ATOM     47  H   UNL A   1      40.947  30.499  29.788  1.00  0.00     0.167 HD
ATOM     48  C   UNL A   1      42.536  23.629  28.337  1.00  0.00     0.037 A 
ATOM     49  C   UNL A   1      42.580  29.728  32.081  1.00  0.00     0.037 A 
ATOM     50  C   UNL A   1      43.595  24.193  29.170  1.00  0.00     0.049 A 
ATOM     51  C   UNL A   1      43.206  28.520  32.729  1.00  0.00     0.074 A 
ATOM     52  C   UNL A   1      44.728  24.937  28.880  1.00  0.00     0.029 A 
ATOM     53  N   UNL A   1      43.397  24.299  30.540  1.00  0.00    -0.354 N 
ATOM     54  N   UNL A   1      43.418  27.384  32.124  1.00  0.00    -0.248 NA
ATOM     55  C   UNL A   1      43.685  28.518  34.104  1.00  0.00     0.031 C 
ATOM     56  C   UNL A   1      45.213  25.494  30.090  1.00  0.00     0.029 A 
ATOM     57  C   UNL A   1      44.383  25.076  31.116  1.00  0.00     0.049 A 
ATOM     58  H   UNL A   1      42.656  23.878  31.033  1.00  0.00     0.167 HD
ATOM     59  C   UNL A   1      44.073  26.520  32.970  1.00  0.00     0.074 A 
ATOM     60  C   UNL A   1      44.223  27.289  34.193  1.00  0.00     0.031 C 
ATOM     61  C   UNL A   1      44.425  25.258  32.563  1.00  0.00     0.037 A 
BRANCH  48  62
ATOM     62  C   UNL A   1      42.760  22.461  27.403  1.00  0.00     0.057 A 
ATOM     63  C   UNL A   1      41.979  21.288  27.503  1.00  0.00     0.134 A 
ATOM     64  C   UNL A   1      43.728  22.425  26.387  1.00  0.00     0.134 A 
ATOM     65  F   UNL A   1      40.964  21.184  28.369  1.00  0.00    -0.206 F 
ATOM     66  C   UNL A   1      42.200  20.149  26.716  1.00  0.00     0.040 A 
ATOM     67  C   UNL A   1      43.988  21.277  25.620  1.00  0.00     0.040 A 
ATOM     68  F   UNL A   1      44.432  23.515  26.055  1.00  0.00    -0.206 F 
ATOM     69  C   UNL A   1      43.227  20.129  25.789  1.00  0.00     0.006 A 
ENDBRANCH  48  62
BRANCH  49  70
ATOM     70  C   UNL A   1      41.323  30.403  32.521  1.00  0.00     0.057 A 
ATOM     71  C   UNL A   1      40.230  29.591  32.883  1.00  0.00     0.134 A 
ATOM     72  C   UNL A   1      41.344  31.705  33.039  1.00  0.00     0.134 A 
ATOM     73  F   UNL A   1      40.152  28.330  32.427  1.00  0.00    -0.206 F 
ATOM     74  C   UNL A   1      39.284  30.000  33.827  1.00  0.00     0.040 A 
ATOM     75  C   UNL A   1      40.396  32.127  33.981  1.00  0.00     0.040 A 
ATOM     76  F   UNL A   1      42.351  32.539  32.747  1.00  0.00    -0.206 F 
ATOM     77  C   UNL A   1      39.391  31.260  34.409  1.00  0.00     0.006 A 
ENDBRANCH  49  70
BRANCH  61  78
ATOM     78  C   UNL A   1      44.887  24.071  33.403  1.00  0.00     0.057 A 
ATOM     79  C   UNL A   1      44.082  23.012  33.844  1.00  0.00     0.134 A 
ATOM     80  C   UNL A   1      46.269  23.894  33.696  1.00  0.00     0.134 A 
ATOM     81  F   UNL A   1      42.769  22.970  33.616  1.00  0.00    -0.206 F 
ATOM     82  C   UNL A   1      44.594  21.890  34.517  1.00  0.00     0.040 A 
ATOM     83  C   UNL A   1      46.796  22.755  34.313  1.00  0.00     0.040 A 
ATOM     84  F   UNL A   1      47.196  24.808  33.377  1.00  0.00    -0.206 F 
ATOM     85  C   UNL A   1      45.956  21.745  34.733  1.00  0.00     0.006 A 
ENDBRANCH  61  78
ENDBRANCH  35  36
ENDBRANCH  27  30
ENDBRANCH  25  26
ENDBRANCH  24  25
ENDBRANCH   1  24
TORSDOF 13
ENDMDL
MODEL 2
REMARK VINA RESULT:     -12.7      2.916      4.629
REMARK SMILES Cc1cc(C(=O)N[C@H]2C=C[C@H](C(=O)NCCCCNC(=O)c3ccc(-c4c5nc(c(-c6c(F)cccc6F)c6ccc([nH]6)c(-c6c(F)cccc6F)c6nc(c(-c7c(F)cccc7F)c7ccc4[nH]7)C=C6)C=C5)cc3)C2)ccc1F
REMARK SMILES IDX 16 1 15 2 14 3 12 4 13 5 11 7 8 8 9 9 76 10 10 11 7 12 5 13
REMARK SMILES IDX 6 14 4 16 1 17 2 18 3 19 79 20 78 21 80 22 77 23 17 24 18 25
REMARK SMILES IDX 19 26 20 27 21 29 22 30 23 31 75 32 24 33 74 34 25 35 26 36
REMARK SMILES IDX 27 37 68 38 28 39 73 40 67 41 69 42 29 43 72 44 66 45 65 46
REMARK SMILES IDX 30 48 56 49 39 50 55 51 40 52 43 53 54 54 70 55 41 56 42 57
REMARK SMILES IDX 53 59 71 60 44 61 31 62 32 63 37 64 33 65 34 66 36 67 38 68
REMARK SMILES IDX 35 69 57 70 58 71 63 72 59 73 60 74 62 75 64 76 61 77 45 78
REMARK SMILES IDX 46 79 51 80 47 81 48 82 50 83 52 84 49 85
REMARK H PARENT 14 6 7 15 19 28 69 47 43 58
REMARK Flexibility Score: inf
ROOT
ATOM      1  C   UNL A   1      34.990  33.285  27.986  1.00  0.00     0.023 C 
ENDROOT
BRANCH   1   2
ATOM      2  C   UNL A   1      34.246  31.992  28.303  1.00  0.00     0.116 C 
BRANCH   2   3
ATOM      3  N   UNL A   1      34.645  30.921  27.418  1.00  0.00    -0.356 N 
ATOM      4  C   UNL A   1      33.934  29.971  26.765  1.00  0.00     0.227 C 
ATOM      5  O   UNL A   1      34.612  29.142  26.146  1.00  0.00    -0.274 OA
ATOM      6  H   UNL A   1      35.616  30.875  27.259  1.00  0.00     0.163 HD
BRANCH   4   7
ATOM      7  C   UNL A   1      32.390  29.855  26.811  1.00  0.00     0.103 C 
ATOM      8  C   UNL A   1      32.071  27.493  26.496  1.00  0.00     0.106 C 
ATOM      9  C   UNL A   1      31.439  28.243  25.368  1.00  0.00    -0.006 C 
ATOM     10  C   UNL A   1      32.038  28.568  27.588  1.00  0.00     0.047 C 
ATOM     11  C   UNL A   1      31.638  29.558  25.538  1.00  0.00    -0.016 C 
BRANCH   8  12
ATOM     12  N   UNL A   1      31.357  26.289  26.809  1.00  0.00    -0.346 N 
ATOM     13  C   UNL A   1      31.592  24.993  26.411  1.00  0.00     0.251 C 
ATOM     14  O   UNL A   1      30.841  24.113  26.832  1.00  0.00    -0.269 OA
ATOM     15  H   UNL A   1      30.578  26.409  27.401  1.00  0.00     0.164 HD
BRANCH  13  16
ATOM     16  C   UNL A   1      32.756  24.603  25.559  1.00  0.00     0.040 A 
ATOM     17  C   UNL A   1      36.489  23.844  25.730  1.00  0.00     0.047 C 
ATOM     18  C   UNL A   1      35.105  24.048  25.186  1.00  0.00    -0.015 A 
ATOM     19  C   UNL A   1      34.084  24.557  26.002  1.00  0.00     0.020 A 
ATOM     20  C   UNL A   1      34.804  23.709  23.870  1.00  0.00     0.126 A 
ATOM     21  C   UNL A   1      33.512  23.840  23.375  1.00  0.00     0.040 A 
ATOM     22  F   UNL A   1      35.770  23.251  23.060  1.00  0.00    -0.207 F 
ATOM     23  C   UNL A   1      32.487  24.271  24.221  1.00  0.00     0.017 A 
ENDBRANCH  13  16
ENDBRANCH   8  12
ENDBRANCH   4   7
ENDBRANCH   2   3
ENDBRANCH   1   2
BRANCH   1  24
ATOM     24  C   UNL A   1      34.239  34.572  28.355  1.00  0.00     0.023 C 
BRANCH  24  25
ATOM     25  C   UNL A   1      33.075  34.368  29.318  1.00  0.00     0.116 C 
BRANCH  25  26
ATOM     26  N   UNL A   1      33.101  35.308  30.434  1.00  0.00    -0.352 N 
ATOM     27  C   UNL A   1      33.828  35.231  31.601  1.00  0.00     0.251 C 
ATOM     28  H   UNL A   1      32.524  36.100  30.341  1.00  0.00     0.163 HD
ATOM     29  O   UNL A   1      33.586  35.961  32.550  1.00  0.00    -0.269 OA
BRANCH  27  30
ATOM     30  C   UNL A   1      34.924  34.253  31.686  1.00  0.00     0.039 A 
ATOM     31  C   UNL A   1      34.745  33.028  32.345  1.00  0.00     0.014 A 
ATOM     32  C   UNL A   1      36.146  34.592  31.115  1.00  0.00     0.014 A 
ATOM     33  C   UNL A   1      35.790  32.103  32.375  1.00  0.00     0.010 A 
ATOM     34  C   UNL A   1      37.146  33.656  31.077  1.00  0.00     0.010 A 
ATOM     35  C   UNL A   1      36.983  32.423  31.727  1.00  0.00    -0.014 A 
BRANCH  35  36
ATOM     36  C   UNL A   1      38.170  31.585  31.681  1.00  0.00     0.031 A 
ATOM     37  C   UNL A   1      38.226  30.337  30.902  1.00  0.00     0.074 A 
ATOM     38  C   UNL A   1      39.295  32.162  32.150  1.00  0.00     0.049 A 
ATOM     39  N   UNL A   1      39.200  29.499  30.979  1.00  0.00    -0.248 NA
ATOM     40  C   UNL A   1      37.189  29.920  29.964  1.00  0.00     0.031 C 
ATOM     41  C   UNL A   1      40.682  31.861  31.829  1.00  0.00     0.029 A 
ATOM     42  N   UNL A   1      39.376  33.126  33.161  1.00  0.00    -0.354 N 
ATOM     43  C   UNL A   1      39.091  28.623  29.925  1.00  0.00     0.074 A 
ATOM     44  C   UNL A   1      37.776  28.868  29.376  1.00  0.00     0.031 C 
ATOM     45  C   UNL A   1      41.470  32.401  32.774  1.00  0.00     0.029 A 
ATOM     46  C   UNL A   1      40.589  32.883  33.825  1.00  0.00     0.049 A 
ATOM     47  H   UNL A   1      38.717  33.829  33.364  1.00  0.00     0.167 HD
ATOM     48  C   UNL A   1      40.185  27.896  29.558  1.00  0.00     0.037 A 
ATOM     49  C   UNL A   1      40.574  32.402  35.105  1.00  0.00     0.037 A 
ATOM     50  C   UNL A   1      41.319  28.191  30.431  1.00  0.00     0.049 A 
ATOM     51  C   UNL A   1      41.268  31.072  35.251  1.00  0.00     0.074 A 
ATOM     52  C   UNL A   1      42.414  29.031  30.302  1.00  0.00     0.029 A 
ATOM     53  N   UNL A   1      41.259  27.828  31.769  1.00  0.00    -0.354 N 
ATOM     54  N   UNL A   1      41.424  30.210  34.285  1.00  0.00    -0.248 NA
ATOM     55  C   UNL A   1      41.882  30.632  36.495  1.00  0.00     0.031 C 
ATOM     56  C   UNL A   1      43.015  29.173  31.579  1.00  0.00     0.029 A 
ATOM     57  C   UNL A   1      42.294  28.406  32.478  1.00  0.00     0.049 A 
ATOM     58  H   UNL A   1      40.573  27.240  32.160  1.00  0.00     0.167 HD
ATOM     59  C   UNL A   1      42.164  29.139  34.728  1.00  0.00     0.074 A 
ATOM     60  C   UNL A   1      42.431  29.464  36.118  1.00  0.00     0.031 C 
ATOM     61  C   UNL A   1      42.479  28.099  33.892  1.00  0.00     0.037 A 
BRANCH  48  62
ATOM     62  C   UNL A   1      40.320  27.114  28.272  1.00  0.00     0.057 A 
ATOM     63  C   UNL A   1      39.747  25.830  28.135  1.00  0.00     0.134 A 
ATOM     64  C   UNL A   1      41.002  27.566  27.130  1.00  0.00     0.134 A 
ATOM     65  F   UNL A   1      39.001  25.281  29.101  1.00  0.00    -0.206 F 
ATOM     66  C   UNL A   1      39.912  25.033  26.995  1.00  0.00     0.040 A 
ATOM     67  C   UNL A   1      41.210  26.762  25.997  1.00  0.00     0.040 A 
ATOM     68  F   UNL A   1      41.453  28.823  27.040  1.00  0.00    -0.206 F 
ATOM     69  C   UNL A   1      40.671  25.485  25.929  1.00  0.00     0.006 A 
ENDBRANCH  48  62
BRANCH  49  70
ATOM     70  C   UNL A   1      39.364  32.844  35.860  1.00  0.00     0.057 A 
ATOM     71  C   UNL A   1      38.374  31.883  36.140  1.00  0.00     0.134 A 
ATOM     72  C   UNL A   1      39.400  33.976  36.685  1.00  0.00     0.134 A 
ATOM     73  F   UNL A   1      38.289  30.770  35.392  1.00  0.00    -0.206 F 
ATOM     74  C   UNL A   1      37.557  31.969  37.271  1.00  0.00     0.040 A 
ATOM     75  C   UNL A   1      38.580  34.076  37.817  1.00  0.00     0.040 A 
ATOM     76  F   UNL A   1      40.315  34.935  36.488  1.00  0.00    -0.206 F 
ATOM     77  C   UNL A   1      37.688  33.052  38.136  1.00  0.00     0.006 A 
ENDBRANCH  49  70
BRANCH  61  78
ATOM     78  C   UNL A   1      43.029  26.718  34.239  1.00  0.00     0.057 A 
ATOM     79  C   UNL A   1      42.331  25.697  34.898  1.00  0.00     0.134 A 
ATOM     80  C   UNL A   1      44.314  26.320  33.776  1.00  0.00     0.134 A 
ATOM     81  F   UNL A   1      41.090  25.861  35.359  1.00  0.00    -0.206 F 
ATOM     82  C   UNL A   1      42.857  24.408  35.086  1.00  0.00     0.040 A 
ATOM     83  C   UNL A   1      44.823  25.023  33.905  1.00  0.00     0.040 A 
ATOM     84  F   UNL A   1      45.144  27.161  33.144  1.00  0.00    -0.206 F 
ATOM     85  C   UNL A   1      44.095  24.058  34.569  1.00  0.00     0.006 A 
ENDBRANCH  61  78
ENDBRANCH  35  36
ENDBRANCH  27  30
ENDBRANCH  25  26
ENDBRANCH  24  25
ENDBRANCH   1  24
TORSDOF 13
ENDMDL
MODEL 3
REMARK VINA RESULT:     -12.6      1.011      1.825
REMARK SMILES Cc1cc(C(=O)N[C@H]2C=C[C@H](C(=O)NCCCCNC(=O)c3ccc(-c4c5nc(c(-c6c(F)cccc6F)c6ccc([nH]6)c(-c6c(F)cccc6F)c6nc(c(-c7c(F)cccc7F)c7ccc4[nH]7)C=C6)C=C5)cc3)C2)ccc1F
REMARK SMILES IDX 16 1 15 2 14 3 12 4 13 5 11 7 8 8 9 9 76 10 10 11 7 12 5 13
REMARK SMILES IDX 6 14 4 16 1 17 2 18 3 19 79 20 78 21 80 22 77 23 17 24 18 25
REMARK SMILES IDX 19 26 20 27 21 29 22 30 23 31 75 32 24 33 74 34 25 35 26 36
REMARK SMILES IDX 27 37 68 38 28 39 73 40 67 41 69 42 29 43 72 44 66 45 65 46
REMARK SMILES IDX 30 48 56 49 39 50 55 51 40 52 43 53 54 54 70 55 41 56 42 57
REMARK SMILES IDX 53 59 71 60 44 61 31 62 32 63 37 64 33 65 34 66 36 67 38 68
REMARK SMILES IDX 35 69 57 70 58 71 63 72 59 73 60 74 62 75 64 76 61 77 45 78
REMARK SMILES IDX 46 79 51 80 47 81 48 82 50 83 52 84 49 85
REMARK H PARENT 14 6 7 15 19 28 69 47 43 58
REMARK Flexibility Score: inf
ROOT
ATOM      1  C   UNL A   1      33.771  27.689  24.914  1.00  0.00     0.023 C 
ENDROOT
BRANCH   1   2
ATOM      2  C   UNL A   1      33.424  28.678  23.806  1.00  0.00     0.116 C 
BRANCH   2   3
ATOM      3  N   UNL A   1      32.668  28.046  22.750  1.00  0.00    -0.356 N 
ATOM      4  C   UNL A   1      31.359  27.710  22.646  1.00  0.00     0.227 C 
ATOM      5  O   UNL A   1      31.056  27.093  21.618  1.00  0.00    -0.274 OA
ATOM      6  H   UNL A   1      33.204  27.817  21.955  1.00  0.00     0.163 HD
BRANCH   4   7
ATOM      7  C   UNL A   1      30.298  28.002  23.736  1.00  0.00     0.103 C 
ATOM      8  C   UNL A   1      29.978  25.821  24.698  1.00  0.00     0.106 C 
ATOM      9  C   UNL A   1      28.699  26.298  24.091  1.00  0.00    -0.006 C 
ATOM     10  C   UNL A   1      30.661  27.164  24.981  1.00  0.00     0.047 C 
ATOM     11  C   UNL A   1      28.888  27.505  23.539  1.00  0.00    -0.016 C 
BRANCH   8  12
ATOM     12  N   UNL A   1      29.754  25.000  25.852  1.00  0.00    -0.346 N 
ATOM     13  C   UNL A   1      30.485  23.939  26.337  1.00  0.00     0.251 C 
ATOM     14  O   UNL A   1      30.098  23.395  27.371  1.00  0.00    -0.269 OA
ATOM     15  H   UNL A   1      28.954  25.230  26.379  1.00  0.00     0.164 HD
BRANCH  13  16
ATOM     16  C   UNL A   1      31.759  23.475  25.709  1.00  0.00     0.040 A 
ATOM     17  C   UNL A   1      35.503  24.191  25.615  1.00  0.00     0.047 C 
ATOM     18  C   UNL A   1      34.170  23.564  25.329  1.00  0.00    -0.015 A 
ATOM     19  C   UNL A   1      32.990  24.132  25.830  1.00  0.00     0.020 A 
ATOM     20  C   UNL A   1      34.085  22.390  24.585  1.00  0.00     0.126 A 
ATOM     21  C   UNL A   1      32.860  21.770  24.365  1.00  0.00     0.040 A 
ATOM     22  F   UNL A   1      35.195  21.844  24.068  1.00  0.00    -0.207 F 
ATOM     23  C   UNL A   1      31.702  22.301  24.938  1.00  0.00     0.017 A 
ENDBRANCH  13  16
ENDBRANCH   8  12
ENDBRANCH   4   7
ENDBRANCH   2   3
ENDBRANCH   1   2
BRANCH   1  24
ATOM     24  C   UNL A   1      34.660  28.251  26.031  1.00  0.00     0.023 C 
BRANCH  24  25
ATOM     25  C   UNL A   1      33.905  28.662  27.291  1.00  0.00     0.116 C 
BRANCH  25  26
ATOM     26  N   UNL A   1      33.933  30.104  27.514  1.00  0.00    -0.352 N 
ATOM     27  C   UNL A   1      34.857  30.843  28.219  1.00  0.00     0.251 C 
ATOM     28  H   UNL A   1      33.195  30.615  27.109  1.00  0.00     0.163 HD
ATOM     29  O   UNL A   1      34.641  32.006  28.525  1.00  0.00    -0.269 OA
BRANCH  27  30
ATOM     30  C   UNL A   1      36.131  30.208  28.592  1.00  0.00     0.039 A 
ATOM     31  C   UNL A   1      36.263  29.524  29.810  1.00  0.00     0.014 A 
ATOM     32  C   UNL A   1      37.202  30.328  27.714  1.00  0.00     0.014 A 
ATOM     33  C   UNL A   1      37.472  28.897  30.120  1.00  0.00     0.010 A 
ATOM     34  C   UNL A   1      38.362  29.650  27.980  1.00  0.00     0.010 A 
ATOM     35  C   UNL A   1      38.511  28.957  29.191  1.00  0.00    -0.014 A 
BRANCH  35  36
ATOM     36  C   UNL A   1      39.833  28.379  29.366  1.00  0.00     0.031 A 
ATOM     37  C   UNL A   1      40.201  27.066  28.808  1.00  0.00     0.074 A 
ATOM     38  C   UNL A   1      40.777  29.234  29.810  1.00  0.00     0.049 A 
ATOM     39  N   UNL A   1      41.303  26.463  29.090  1.00  0.00    -0.248 NA
ATOM     40  C   UNL A   1      39.360  26.314  27.883  1.00  0.00     0.031 C 
ATOM     41  C   UNL A   1      42.221  29.174  29.638  1.00  0.00     0.029 A 
ATOM     42  N   UNL A   1      40.573  30.333  30.650  1.00  0.00    -0.354 N 
ATOM     43  C   UNL A   1      41.466  25.436  28.189  1.00  0.00     0.074 A 
ATOM     44  C   UNL A   1      40.190  25.327  27.518  1.00  0.00     0.031 C 
ATOM     45  C   UNL A   1      42.794  29.996  30.534  1.00  0.00     0.029 A 
ATOM     46  C   UNL A   1      41.737  30.441  31.428  1.00  0.00     0.049 A 
ATOM     47  H   UNL A   1      39.777  30.910  30.689  1.00  0.00     0.167 HD
ATOM     48  C   UNL A   1      42.709  24.899  28.024  1.00  0.00     0.037 A 
ATOM     49  C   UNL A   1      41.686  30.162  32.765  1.00  0.00     0.037 A 
ATOM     50  C   UNL A   1      43.674  25.543  28.912  1.00  0.00     0.049 A 
ATOM     51  C   UNL A   1      42.600  29.036  33.176  1.00  0.00     0.074 A 
ATOM     52  C   UNL A   1      44.599  26.558  28.722  1.00  0.00     0.029 A 
ATOM     53  N   UNL A   1      43.550  25.378  30.284  1.00  0.00    -0.354 N 
ATOM     54  N   UNL A   1      43.011  28.090  32.378  1.00  0.00    -0.248 NA
ATOM     55  C   UNL A   1      43.159  28.918  34.515  1.00  0.00     0.031 C 
ATOM     56  C   UNL A   1      45.032  27.006  29.996  1.00  0.00     0.029 A 
ATOM     57  C   UNL A   1      44.382  26.251  30.958  1.00  0.00     0.049 A 
ATOM     58  H   UNL A   1      42.952  24.728  30.718  1.00  0.00     0.167 HD
ATOM     59  C   UNL A   1      43.892  27.268  33.042  1.00  0.00     0.074 A 
ATOM     60  C   UNL A   1      43.953  27.842  34.374  1.00  0.00     0.031 C 
ATOM     61  C   UNL A   1      44.480  26.201  32.412  1.00  0.00     0.037 A 
BRANCH  48  62
ATOM     62  C   UNL A   1      43.117  23.979  26.896  1.00  0.00     0.057 A 
ATOM     63  C   UNL A   1      43.018  22.576  27.028  1.00  0.00     0.134 A 
ATOM     64  C   UNL A   1      43.616  24.408  25.656  1.00  0.00     0.134 A 
ATOM     65  F   UNL A   1      42.493  22.002  28.118  1.00  0.00    -0.206 F 
ATOM     66  C   UNL A   1      43.457  21.679  26.045  1.00  0.00     0.040 A 
ATOM     67  C   UNL A   1      44.099  23.521  24.679  1.00  0.00     0.040 A 
ATOM     68  F   UNL A   1      43.613  25.702  25.313  1.00  0.00    -0.206 F 
ATOM     69  C   UNL A   1      44.028  22.149  24.875  1.00  0.00     0.006 A 
ENDBRANCH  48  62
BRANCH  49  70
ATOM     70  C   UNL A   1      40.345  30.458  33.352  1.00  0.00     0.057 A 
ATOM     71  C   UNL A   1      39.999  31.807  33.560  1.00  0.00     0.134 A 
ATOM     72  C   UNL A   1      39.291  29.542  33.243  1.00  0.00     0.134 A 
ATOM     73  F   UNL A   1      40.962  32.737  33.666  1.00  0.00    -0.206 F 
ATOM     74  C   UNL A   1      38.673  32.246  33.514  1.00  0.00     0.040 A 
ATOM     75  C   UNL A   1      37.957  29.971  33.203  1.00  0.00     0.040 A 
ATOM     76  F   UNL A   1      39.535  28.240  33.040  1.00  0.00    -0.206 F 
ATOM     77  C   UNL A   1      37.649  31.329  33.294  1.00  0.00     0.006 A 
ENDBRANCH  49  70
BRANCH  61  78
ATOM     78  C   UNL A   1      45.242  25.027  33.020  1.00  0.00     0.057 A 
ATOM     79  C   UNL A   1      46.537  25.073  33.550  1.00  0.00     0.134 A 
ATOM     80  C   UNL A   1      44.595  23.772  33.208  1.00  0.00     0.134 A 
ATOM     81  F   UNL A   1      47.284  26.177  33.519  1.00  0.00    -0.206 F 
ATOM     82  C   UNL A   1      47.138  23.981  34.199  1.00  0.00     0.040 A 
ATOM     83  C   UNL A   1      45.161  22.699  33.904  1.00  0.00     0.040 A 
ATOM     84  F   UNL A   1      43.360  23.523  32.750  1.00  0.00    -0.206 F 
ATOM     85  C   UNL A   1      46.444  22.798  34.401  1.00  0.00     0.006 A 
ENDBRANCH  61  78
ENDBRANCH  35  36
ENDBRANCH  27  30
ENDBRANCH  25  26
ENDBRANCH  24  25
ENDBRANCH   1  24
TORSDOF 13
ENDMDL
