MODEL 1
REMARK VINA RESULT:     -11.2      0.000      0.000
REMARK SMILES O=C(CSc1nc2cccnc2n1CC(F)(F)F)NCCCCNC(=O)c1ccc(-c2c3nc(c(-c4c(F)cccc4F)c4ccc([nH]4)c(-c4c(F)cccc4F)c4nc(c(-c5c(F)cccc5F)c5ccc2[nH]5)C=C4)C=C3)cc1
REMARK SMILES IDX 20 1 19 2 1 3 2 4 3 6 4 7 5 8 6 9 13 10 7 11 12 12 8 13
REMARK SMILES IDX 11 14 9 15 10 16 14 17 15 18 16 19 17 20 18 21 21 22 22 23
REMARK SMILES IDX 23 24 24 25 25 26 26 28 27 29 28 30 80 31 29 32 79 33 30 34
REMARK SMILES IDX 31 35 32 36 73 37 33 38 78 39 72 40 74 41 34 42 77 43 71 44
REMARK SMILES IDX 70 45 35 47 61 48 44 49 60 50 45 51 48 52 59 53 75 54 46 55
REMARK SMILES IDX 47 56 58 58 76 59 49 60 36 61 37 62 42 63 38 64 39 65 41 66
REMARK SMILES IDX 43 67 40 68 62 69 63 70 68 71 64 72 65 73 67 74 69 75 66 76
REMARK SMILES IDX 50 77 51 78 56 79 52 80 53 81 55 82 57 83 54 84
REMARK H PARENT 19 5 24 27 74 46 48 57
REMARK Flexibility Score: inf
ROOT
ATOM      1  C   UNL A   1      40.803  21.661  26.489  1.00  0.00     0.116 C 
ENDROOT
BRANCH   1   2
ATOM      2  N   UNL A   1      39.562  21.473  25.750  1.00  0.00    -0.355 N 
ATOM      3  O   UNL A   1      38.566  23.383  26.556  1.00  0.00    -0.274 OA
ATOM      4  C   UNL A   1      38.541  22.414  25.801  1.00  0.00     0.230 C 
ATOM      5  H   UNL A   1      39.443  20.664  25.203  1.00  0.00     0.163 HD
BRANCH   4   6
ATOM      6  C   UNL A   1      37.356  22.154  24.878  1.00  0.00     0.178 C 
BRANCH   6   7
ATOM      7  S   UNL A   1      35.769  22.284  25.754  1.00  0.00    -0.078 SA
BRANCH   7   8
ATOM      8  C   UNL A   1      35.003  20.775  25.375  1.00  0.00     0.171 A 
ATOM      9  N   UNL A   1      35.622  19.712  24.905  1.00  0.00    -0.221 NA
ATOM     10  N   UNL A   1      33.640  20.607  25.393  1.00  0.00    -0.294 N 
ATOM     11  C   UNL A   1      34.623  18.799  24.650  1.00  0.00     0.109 A 
ATOM     12  C   UNL A   1      33.385  19.319  25.004  1.00  0.00     0.160 A 
ATOM     13  C   UNL A   1      34.640  17.512  24.096  1.00  0.00     0.034 A 
ATOM     14  N   UNL A   1      32.179  18.725  24.926  1.00  0.00    -0.237 NA
ATOM     15  C   UNL A   1      33.414  16.841  23.989  1.00  0.00     0.022 A 
ATOM     16  C   UNL A   1      32.253  17.470  24.426  1.00  0.00     0.113 A 
BRANCH  10  17
ATOM     17  C   UNL A   1      32.599  21.580  25.622  1.00  0.00     0.241 C 
BRANCH  17  18
ATOM     18  C   UNL A   1      32.248  22.398  24.411  1.00  0.00     0.406 C 
ATOM     19  F   UNL A   1      32.288  21.642  23.287  1.00  0.00    -0.169 F 
ATOM     20  F   UNL A   1      30.981  22.865  24.500  1.00  0.00    -0.169 F 
ATOM     21  F   UNL A   1      33.054  23.460  24.235  1.00  0.00    -0.169 F 
ENDBRANCH  17  18
ENDBRANCH  10  17
ENDBRANCH   7   8
ENDBRANCH   6   7
ENDBRANCH   4   6
ENDBRANCH   1   2
BRANCH   1  22
ATOM     22  C   UNL A   1      41.184  20.511  27.432  1.00  0.00     0.023 C 
BRANCH  22  23
ATOM     23  C   UNL A   1      42.306  19.569  26.975  1.00  0.00     0.023 C 
BRANCH  23  24
ATOM     24  C   UNL A   1      42.527  19.547  25.475  1.00  0.00     0.116 C 
BRANCH  24  25
ATOM     25  N   UNL A   1      43.928  19.506  25.059  1.00  0.00    -0.352 N 
ATOM     26  C   UNL A   1      44.791  20.575  24.853  1.00  0.00     0.251 C 
ATOM     27  H   UNL A   1      44.307  18.610  24.906  1.00  0.00     0.163 HD
ATOM     28  O   UNL A   1      45.857  20.427  24.280  1.00  0.00    -0.269 OA
BRANCH  26  29
ATOM     29  C   UNL A   1      44.405  21.909  25.366  1.00  0.00     0.039 A 
ATOM     30  C   UNL A   1      43.688  22.832  24.599  1.00  0.00     0.014 A 
ATOM     31  C   UNL A   1      44.815  22.243  26.652  1.00  0.00     0.014 A 
ATOM     32  C   UNL A   1      43.388  24.075  25.158  1.00  0.00     0.010 A 
ATOM     33  C   UNL A   1      44.333  23.352  27.276  1.00  0.00     0.010 A 
ATOM     34  C   UNL A   1      43.735  24.319  26.493  1.00  0.00    -0.014 A 
BRANCH  34  35
ATOM     35  C   UNL A   1      43.532  25.599  27.138  1.00  0.00     0.031 A 
ATOM     36  C   UNL A   1      44.508  26.646  26.780  1.00  0.00     0.074 A 
ATOM     37  C   UNL A   1      42.408  25.867  27.835  1.00  0.00     0.049 A 
ATOM     38  N   UNL A   1      45.451  27.110  27.527  1.00  0.00    -0.248 NA
ATOM     39  C   UNL A   1      44.534  27.146  25.399  1.00  0.00     0.031 C 
ATOM     40  C   UNL A   1      41.204  25.046  28.032  1.00  0.00     0.029 A 
ATOM     41  N   UNL A   1      42.091  27.016  28.481  1.00  0.00    -0.354 N 
ATOM     42  C   UNL A   1      46.079  28.101  26.785  1.00  0.00     0.074 A 
ATOM     43  C   UNL A   1      45.591  27.963  25.436  1.00  0.00     0.031 C 
ATOM     44  C   UNL A   1      40.224  25.800  28.581  1.00  0.00     0.029 A 
ATOM     45  C   UNL A   1      40.779  27.097  28.920  1.00  0.00     0.049 A 
ATOM     46  H   UNL A   1      42.744  27.739  28.626  1.00  0.00     0.167 HD
ATOM     47  C   UNL A   1      46.782  29.091  27.399  1.00  0.00     0.037 A 
ATOM     48  C   UNL A   1      40.204  28.173  29.512  1.00  0.00     0.037 A 
ATOM     49  C   UNL A   1      47.005  28.783  28.792  1.00  0.00     0.049 A 
ATOM     50  C   UNL A   1      41.308  29.002  30.066  1.00  0.00     0.074 A 
ATOM     51  C   UNL A   1      47.667  27.779  29.472  1.00  0.00     0.029 A 
ATOM     52  N   UNL A   1      46.160  29.360  29.711  1.00  0.00    -0.354 N 
ATOM     53  N   UNL A   1      42.058  28.615  31.062  1.00  0.00    -0.248 NA
ATOM     54  C   UNL A   1      41.900  30.013  29.200  1.00  0.00     0.031 C 
ATOM     55  C   UNL A   1      46.834  27.485  30.594  1.00  0.00     0.029 A 
ATOM     56  C   UNL A   1      45.752  28.366  30.567  1.00  0.00     0.049 A 
ATOM     57  H   UNL A   1      45.896  30.307  29.749  1.00  0.00     0.167 HD
ATOM     58  C   UNL A   1      43.346  29.000  30.715  1.00  0.00     0.074 A 
ATOM     59  C   UNL A   1      43.175  29.927  29.595  1.00  0.00     0.031 C 
ATOM     60  C   UNL A   1      44.439  28.313  31.165  1.00  0.00     0.037 A 
BRANCH  47  61
ATOM     61  C   UNL A   1      46.949  30.489  26.870  1.00  0.00     0.057 A 
ATOM     62  C   UNL A   1      45.881  31.373  26.625  1.00  0.00     0.134 A 
ATOM     63  C   UNL A   1      48.225  31.079  26.906  1.00  0.00     0.134 A 
ATOM     64  F   UNL A   1      44.604  30.974  26.621  1.00  0.00    -0.206 F 
ATOM     65  C   UNL A   1      46.063  32.751  26.478  1.00  0.00     0.040 A 
ATOM     66  C   UNL A   1      48.412  32.462  26.811  1.00  0.00     0.040 A 
ATOM     67  F   UNL A   1      49.322  30.337  27.123  1.00  0.00    -0.206 F 
ATOM     68  C   UNL A   1      47.326  33.304  26.610  1.00  0.00     0.006 A 
ENDBRANCH  47  61
BRANCH  48  69
ATOM     69  C   UNL A   1      38.809  28.647  29.394  1.00  0.00     0.057 A 
ATOM     70  C   UNL A   1      38.369  29.327  28.244  1.00  0.00     0.134 A 
ATOM     71  C   UNL A   1      37.948  28.683  30.498  1.00  0.00     0.134 A 
ATOM     72  F   UNL A   1      39.147  29.421  27.154  1.00  0.00    -0.206 F 
ATOM     73  C   UNL A   1      37.151  30.015  28.199  1.00  0.00     0.040 A 
ATOM     74  C   UNL A   1      36.727  29.371  30.469  1.00  0.00     0.040 A 
ATOM     75  F   UNL A   1      38.299  28.099  31.654  1.00  0.00    -0.206 F 
ATOM     76  C   UNL A   1      36.330  30.050  29.319  1.00  0.00     0.006 A 
ENDBRANCH  48  69
BRANCH  60  77
ATOM     77  C   UNL A   1      44.201  27.242  32.196  1.00  0.00     0.057 A 
ATOM     78  C   UNL A   1      44.221  27.579  33.551  1.00  0.00     0.134 A 
ATOM     79  C   UNL A   1      44.088  25.878  31.889  1.00  0.00     0.134 A 
ATOM     80  F   UNL A   1      44.396  28.855  33.927  1.00  0.00    -0.206 F 
ATOM     81  C   UNL A   1      44.105  26.611  34.552  1.00  0.00     0.040 A 
ATOM     82  C   UNL A   1      43.940  24.900  32.877  1.00  0.00     0.040 A 
ATOM     83  F   UNL A   1      44.174  25.445  30.627  1.00  0.00    -0.206 F 
ATOM     84  C   UNL A   1      43.949  25.266  34.217  1.00  0.00     0.006 A 
ENDBRANCH  60  77
ENDBRANCH  34  35
ENDBRANCH  26  29
ENDBRANCH  24  25
ENDBRANCH  23  24
ENDBRANCH  22  23
ENDBRANCH   1  22
TORSDOF 15
ENDMDL
MODEL 2
REMARK VINA RESULT:     -11.0      1.300      2.166
REMARK SMILES O=C(CSc1nc2cccnc2n1CC(F)(F)F)NCCCCNC(=O)c1ccc(-c2c3nc(c(-c4c(F)cccc4F)c4ccc([nH]4)c(-c4c(F)cccc4F)c4nc(c(-c5c(F)cccc5F)c5ccc2[nH]5)C=C4)C=C3)cc1
REMARK SMILES IDX 20 1 19 2 1 3 2 4 3 6 4 7 5 8 6 9 13 10 7 11 12 12 8 13
REMARK SMILES IDX 11 14 9 15 10 16 14 17 15 18 16 19 17 20 18 21 21 22 22 23
REMARK SMILES IDX 23 24 24 25 25 26 26 28 27 29 28 30 80 31 29 32 79 33 30 34
REMARK SMILES IDX 31 35 32 36 73 37 33 38 78 39 72 40 74 41 34 42 77 43 71 44
REMARK SMILES IDX 70 45 35 47 61 48 44 49 60 50 45 51 48 52 59 53 75 54 46 55
REMARK SMILES IDX 47 56 58 58 76 59 49 60 36 61 37 62 42 63 38 64 39 65 41 66
REMARK SMILES IDX 43 67 40 68 62 69 63 70 68 71 64 72 65 73 67 74 69 75 66 76
REMARK SMILES IDX 50 77 51 78 56 79 52 80 53 81 55 82 57 83 54 84
REMARK H PARENT 19 5 24 27 74 46 48 57
REMARK Flexibility Score: inf
ROOT
ATOM      1  C   UNL A   1      40.412  21.318  26.920  1.00  0.00     0.116 C 
ENDROOT
BRANCH   1   2
ATOM      2  N   UNL A   1      39.327  21.157  25.962  1.00  0.00    -0.355 N 
ATOM      3  O   UNL A   1      38.411  23.230  26.356  1.00  0.00    -0.274 OA
ATOM      4  C   UNL A   1      38.427  22.186  25.710  1.00  0.00     0.230 C 
ATOM      5  H   UNL A   1      39.228  20.303  25.484  1.00  0.00     0.163 HD
BRANCH   4   6
ATOM      6  C   UNL A   1      37.425  21.926  24.591  1.00  0.00     0.178 C 
BRANCH   6   7
ATOM      7  S   UNL A   1      36.270  20.585  25.008  1.00  0.00    -0.078 SA
BRANCH   7   8
ATOM      8  C   UNL A   1      34.756  21.419  25.145  1.00  0.00     0.171 A 
ATOM      9  N   UNL A   1      34.610  22.728  25.117  1.00  0.00    -0.221 NA
ATOM     10  N   UNL A   1      33.579  20.780  25.448  1.00  0.00    -0.294 N 
ATOM     11  C   UNL A   1      33.273  22.945  25.367  1.00  0.00     0.109 A 
ATOM     12  C   UNL A   1      32.603  21.738  25.518  1.00  0.00     0.160 A 
ATOM     13  C   UNL A   1      32.519  24.117  25.516  1.00  0.00     0.034 A 
ATOM     14  N   UNL A   1      31.292  21.537  25.749  1.00  0.00    -0.237 NA
ATOM     15  C   UNL A   1      31.146  23.972  25.758  1.00  0.00     0.022 A 
ATOM     16  C   UNL A   1      30.600  22.696  25.843  1.00  0.00     0.113 A 
BRANCH  10  17
ATOM     17  C   UNL A   1      33.348  19.396  25.788  1.00  0.00     0.241 C 
BRANCH  17  18
ATOM     18  C   UNL A   1      33.051  18.517  24.606  1.00  0.00     0.406 C 
ATOM     19  F   UNL A   1      33.323  19.158  23.443  1.00  0.00    -0.169 F 
ATOM     20  F   UNL A   1      33.839  17.416  24.617  1.00  0.00    -0.169 F 
ATOM     21  F   UNL A   1      31.775  18.094  24.567  1.00  0.00    -0.169 F 
ENDBRANCH  17  18
ENDBRANCH  10  17
ENDBRANCH   7   8
ENDBRANCH   6   7
ENDBRANCH   4   6
ENDBRANCH   1   2
BRANCH   1  22
ATOM     22  C   UNL A   1      41.170  20.031  27.275  1.00  0.00     0.023 C 
BRANCH  22  23
ATOM     23  C   UNL A   1      41.683  19.174  26.111  1.00  0.00     0.023 C 
BRANCH  23  24
ATOM     24  C   UNL A   1      43.148  18.795  26.215  1.00  0.00     0.116 C 
BRANCH  24  25
ATOM     25  N   UNL A   1      43.888  18.849  24.955  1.00  0.00    -0.352 N 
ATOM     26  C   UNL A   1      44.366  19.972  24.290  1.00  0.00     0.251 C 
ATOM     27  H   UNL A   1      44.070  17.983  24.524  1.00  0.00     0.163 HD
ATOM     28  O   UNL A   1      44.755  19.908  23.137  1.00  0.00    -0.269 OA
BRANCH  26  29
ATOM     29  C   UNL A   1      44.419  21.260  25.019  1.00  0.00     0.039 A 
ATOM     30  C   UNL A   1      45.486  21.609  25.853  1.00  0.00     0.014 A 
ATOM     31  C   UNL A   1      43.336  22.120  24.878  1.00  0.00     0.014 A 
ATOM     32  C   UNL A   1      45.439  22.835  26.519  1.00  0.00     0.010 A 
ATOM     33  C   UNL A   1      43.392  23.399  25.339  1.00  0.00     0.010 A 
ATOM     34  C   UNL A   1      44.374  23.707  26.259  1.00  0.00    -0.014 A 
BRANCH  34  35
ATOM     35  C   UNL A   1      44.200  24.965  26.953  1.00  0.00     0.031 A 
ATOM     36  C   UNL A   1      45.237  25.981  26.683  1.00  0.00     0.074 A 
ATOM     37  C   UNL A   1      43.061  25.255  27.615  1.00  0.00     0.049 A 
ATOM     38  N   UNL A   1      46.166  26.367  27.488  1.00  0.00    -0.248 NA
ATOM     39  C   UNL A   1      45.344  26.539  25.328  1.00  0.00     0.031 C 
ATOM     40  C   UNL A   1      41.815  24.482  27.726  1.00  0.00     0.029 A 
ATOM     41  N   UNL A   1      42.768  26.387  28.300  1.00  0.00    -0.354 N 
ATOM     42  C   UNL A   1      46.869  27.360  26.817  1.00  0.00     0.074 A 
ATOM     43  C   UNL A   1      46.433  27.304  25.445  1.00  0.00     0.031 C 
ATOM     44  C   UNL A   1      40.846  25.256  28.269  1.00  0.00     0.029 A 
ATOM     45  C   UNL A   1      41.443  26.509  28.689  1.00  0.00     0.049 A 
ATOM     46  H   UNL A   1      43.446  27.072  28.504  1.00  0.00     0.167 HD
ATOM     47  C   UNL A   1      47.589  28.289  27.504  1.00  0.00     0.037 A 
ATOM     48  C   UNL A   1      40.893  27.583  29.305  1.00  0.00     0.037 A 
ATOM     49  C   UNL A   1      47.738  27.910  28.890  1.00  0.00     0.049 A 
ATOM     50  C   UNL A   1      42.008  28.336  29.941  1.00  0.00     0.074 A 
ATOM     51  C   UNL A   1      48.325  26.848  29.550  1.00  0.00     0.029 A 
ATOM     52  N   UNL A   1      46.881  28.485  29.799  1.00  0.00    -0.354 N 
ATOM     53  N   UNL A   1      42.696  27.871  30.947  1.00  0.00    -0.248 NA
ATOM     54  C   UNL A   1      42.679  29.356  29.147  1.00  0.00     0.031 C 
ATOM     55  C   UNL A   1      47.433  26.544  30.622  1.00  0.00     0.029 A 
ATOM     56  C   UNL A   1      46.394  27.474  30.591  1.00  0.00     0.049 A 
ATOM     57  H   UNL A   1      46.658  29.441  29.870  1.00  0.00     0.167 HD
ATOM     58  C   UNL A   1      44.014  28.212  30.671  1.00  0.00     0.074 A 
ATOM     59  C   UNL A   1      43.932  29.193  29.588  1.00  0.00     0.031 C 
ATOM     60  C   UNL A   1      45.055  27.456  31.133  1.00  0.00     0.037 A 
BRANCH  47  61
ATOM     61  C   UNL A   1      47.840  29.700  27.047  1.00  0.00     0.057 A 
ATOM     62  C   UNL A   1      46.825  30.651  26.828  1.00  0.00     0.134 A 
ATOM     63  C   UNL A   1      49.145  30.218  27.133  1.00  0.00     0.134 A 
ATOM     64  F   UNL A   1      45.529  30.322  26.784  1.00  0.00    -0.206 F 
ATOM     65  C   UNL A   1      47.082  32.022  26.751  1.00  0.00     0.040 A 
ATOM     66  C   UNL A   1      49.406  31.591  27.108  1.00  0.00     0.040 A 
ATOM     67  F   UNL A   1      50.195  29.407  27.331  1.00  0.00    -0.206 F 
ATOM     68  C   UNL A   1      48.371  32.500  26.931  1.00  0.00     0.006 A 
ENDBRANCH  47  61
BRANCH  48  69
ATOM     69  C   UNL A   1      39.526  28.127  29.153  1.00  0.00     0.057 A 
ATOM     70  C   UNL A   1      39.156  28.848  28.002  1.00  0.00     0.134 A 
ATOM     71  C   UNL A   1      38.633  28.184  30.230  1.00  0.00     0.134 A 
ATOM     72  F   UNL A   1      39.972  28.923  26.940  1.00  0.00    -0.206 F 
ATOM     73  C   UNL A   1      37.975  29.594  27.933  1.00  0.00     0.040 A 
ATOM     74  C   UNL A   1      37.447  28.931  30.176  1.00  0.00     0.040 A 
ATOM     75  F   UNL A   1      38.918  27.564  31.384  1.00  0.00    -0.206 F 
ATOM     76  C   UNL A   1      37.121  29.648  29.027  1.00  0.00     0.006 A 
ENDBRANCH  48  69
BRANCH  60  77
ATOM     77  C   UNL A   1      44.726  26.353  32.104  1.00  0.00     0.057 A 
ATOM     78  C   UNL A   1      44.742  26.619  33.474  1.00  0.00     0.134 A 
ATOM     79  C   UNL A   1      44.529  25.016  31.725  1.00  0.00     0.134 A 
ATOM     80  F   UNL A   1      44.994  27.860  33.918  1.00  0.00    -0.206 F 
ATOM     81  C   UNL A   1      44.542  25.612  34.422  1.00  0.00     0.040 A 
ATOM     82  C   UNL A   1      44.296  24.003  32.658  1.00  0.00     0.040 A 
ATOM     83  F   UNL A   1      44.611  24.643  30.444  1.00  0.00    -0.206 F 
ATOM     84  C   UNL A   1      44.304  24.300  34.016  1.00  0.00     0.006 A 
ENDBRANCH  60  77
ENDBRANCH  34  35
ENDBRANCH  26  29
ENDBRANCH  24  25
ENDBRANCH  23  24
ENDBRANCH  22  23
ENDBRANCH   1  22
TORSDOF 15
ENDMDL
MODEL 3
REMARK VINA RESULT:     -10.9      1.691      2.722
REMARK SMILES O=C(CSc1nc2cccnc2n1CC(F)(F)F)NCCCCNC(=O)c1ccc(-c2c3nc(c(-c4c(F)cccc4F)c4ccc([nH]4)c(-c4c(F)cccc4F)c4nc(c(-c5c(F)cccc5F)c5ccc2[nH]5)C=C4)C=C3)cc1
REMARK SMILES IDX 20 1 19 2 1 3 2 4 3 6 4 7 5 8 6 9 13 10 7 11 12 12 8 13
REMARK SMILES IDX 11 14 9 15 10 16 14 17 15 18 16 19 17 20 18 21 21 22 22 23
REMARK SMILES IDX 23 24 24 25 25 26 26 28 27 29 28 30 80 31 29 32 79 33 30 34
REMARK SMILES IDX 31 35 32 36 73 37 33 38 78 39 72 40 74 41 34 42 77 43 71 44
REMARK SMILES IDX 70 45 35 47 61 48 44 49 60 50 45 51 48 52 59 53 75 54 46 55
REMARK SMILES IDX 47 56 58 58 76 59 49 60 36 61 37 62 42 63 38 64 39 65 41 66
REMARK SMILES IDX 43 67 40 68 62 69 63 70 68 71 64 72 65 73 67 74 69 75 66 76
REMARK SMILES IDX 50 77 51 78 56 79 52 80 53 81 55 82 57 83 54 84
REMARK H PARENT 19 5 24 27 74 46 48 57
REMARK Flexibility Score: inf
ROOT
ATOM      1  C   UNL A   1      39.942  21.966  26.188  1.00  0.00     0.116 C 
ENDROOT
BRANCH   1   2
ATOM      2  N   UNL A   1      38.615  21.893  25.591  1.00  0.00    -0.355 N 
ATOM      3  O   UNL A   1      37.890  23.884  26.484  1.00  0.00    -0.274 OA
ATOM      4  C   UNL A   1      37.695  22.922  25.744  1.00  0.00     0.230 C 
ATOM      5  H   UNL A   1      38.365  21.098  25.068  1.00  0.00     0.163 HD
BRANCH   4   6
ATOM      6  C   UNL A   1      36.398  22.772  24.959  1.00  0.00     0.178 C 
BRANCH   6   7
ATOM      7  S   UNL A   1      34.975  22.462  26.046  1.00  0.00    -0.078 SA
BRANCH   7   8
ATOM      8  C   UNL A   1      34.121  23.971  25.991  1.00  0.00     0.171 A 
ATOM      9  N   UNL A   1      34.672  25.141  25.742  1.00  0.00    -0.221 NA
ATOM     10  N   UNL A   1      32.804  24.094  26.357  1.00  0.00    -0.294 N 
ATOM     11  C   UNL A   1      33.658  26.058  25.907  1.00  0.00     0.109 A 
ATOM     12  C   UNL A   1      32.471  25.417  26.234  1.00  0.00     0.160 A 
ATOM     13  C   UNL A   1      33.630  27.457  25.834  1.00  0.00     0.034 A 
ATOM     14  N   UNL A   1      31.260  25.966  26.451  1.00  0.00    -0.237 NA
ATOM     15  C   UNL A   1      32.397  28.088  26.050  1.00  0.00     0.022 A 
ATOM     16  C   UNL A   1      31.275  27.314  26.327  1.00  0.00     0.113 A 
BRANCH  10  17
ATOM     17  C   UNL A   1      31.910  23.107  26.913  1.00  0.00     0.241 C 
BRANCH  17  18
ATOM     18  C   UNL A   1      31.079  22.387  25.889  1.00  0.00     0.406 C 
ATOM     19  F   UNL A   1      30.859  23.169  24.805  1.00  0.00    -0.169 F 
ATOM     20  F   UNL A   1      31.727  21.290  25.431  1.00  0.00    -0.169 F 
ATOM     21  F   UNL A   1      29.888  21.978  26.364  1.00  0.00    -0.169 F 
ENDBRANCH  17  18
ENDBRANCH  10  17
ENDBRANCH   7   8
ENDBRANCH   6   7
ENDBRANCH   4   6
ENDBRANCH   1   2
BRANCH   1  22
ATOM     22  C   UNL A   1      40.494  20.638  26.725  1.00  0.00     0.023 C 
BRANCH  22  23
ATOM     23  C   UNL A   1      41.452  19.857  25.817  1.00  0.00     0.023 C 
BRANCH  23  24
ATOM     24  C   UNL A   1      42.731  19.411  26.500  1.00  0.00     0.116 C 
BRANCH  24  25
ATOM     25  N   UNL A   1      43.927  19.461  25.660  1.00  0.00    -0.352 N 
ATOM     26  C   UNL A   1      44.532  20.578  25.097  1.00  0.00     0.251 C 
ATOM     27  H   UNL A   1      44.356  18.595  25.469  1.00  0.00     0.163 HD
ATOM     28  O   UNL A   1      45.377  20.469  24.226  1.00  0.00    -0.269 OA
BRANCH  26  29
ATOM     29  C   UNL A   1      44.147  21.919  25.593  1.00  0.00     0.039 A 
ATOM     30  C   UNL A   1      43.331  22.787  24.862  1.00  0.00     0.014 A 
ATOM     31  C   UNL A   1      44.662  22.317  26.823  1.00  0.00     0.014 A 
ATOM     32  C   UNL A   1      43.041  24.042  25.399  1.00  0.00     0.010 A 
ATOM     33  C   UNL A   1      44.200  23.435  27.447  1.00  0.00     0.010 A 
ATOM     34  C   UNL A   1      43.500  24.351  26.686  1.00  0.00    -0.014 A 
BRANCH  34  35
ATOM     35  C   UNL A   1      43.311  25.649  27.298  1.00  0.00     0.031 A 
ATOM     36  C   UNL A   1      44.300  26.674  26.915  1.00  0.00     0.074 A 
ATOM     37  C   UNL A   1      42.191  25.948  27.988  1.00  0.00     0.049 A 
ATOM     38  N   UNL A   1      45.248  27.146  27.650  1.00  0.00    -0.248 NA
ATOM     39  C   UNL A   1      44.332  27.140  25.521  1.00  0.00     0.031 C 
ATOM     40  C   UNL A   1      40.977  25.146  28.206  1.00  0.00     0.029 A 
ATOM     41  N   UNL A   1      41.888  27.116  28.605  1.00  0.00    -0.354 N 
ATOM     42  C   UNL A   1      45.888  28.110  26.883  1.00  0.00     0.074 A 
ATOM     43  C   UNL A   1      45.399  27.944  25.538  1.00  0.00     0.031 C 
ATOM     44  C   UNL A   1      40.006  25.925  28.736  1.00  0.00     0.029 A 
ATOM     45  C   UNL A   1      40.577  27.223  29.042  1.00  0.00     0.049 A 
ATOM     46  H   UNL A   1      42.549  27.835  28.732  1.00  0.00     0.167 HD
ATOM     47  C   UNL A   1      46.603  29.108  27.472  1.00  0.00     0.037 A 
ATOM     48  C   UNL A   1      40.015  28.321  29.606  1.00  0.00     0.037 A 
ATOM     49  C   UNL A   1      46.822  28.833  28.873  1.00  0.00     0.049 A 
ATOM     50  C   UNL A   1      41.129  29.151  30.139  1.00  0.00     0.074 A 
ATOM     51  C   UNL A   1      47.472  27.838  29.578  1.00  0.00     0.029 A 
ATOM     52  N   UNL A   1      45.984  29.442  29.777  1.00  0.00    -0.354 N 
ATOM     53  N   UNL A   1      41.873  28.780  31.145  1.00  0.00    -0.248 NA
ATOM     54  C   UNL A   1      41.732  30.133  29.248  1.00  0.00     0.031 C 
ATOM     55  C   UNL A   1      46.636  27.582  30.707  1.00  0.00     0.029 A 
ATOM     56  C   UNL A   1      45.565  28.475  30.657  1.00  0.00     0.049 A 
ATOM     57  H   UNL A   1      45.732  30.393  29.791  1.00  0.00     0.167 HD
ATOM     58  C   UNL A   1      43.166  29.141  30.788  1.00  0.00     0.074 A 
ATOM     59  C   UNL A   1      43.006  30.041  29.645  1.00  0.00     0.031 C 
ATOM     60  C   UNL A   1      44.251  28.452  31.256  1.00  0.00     0.037 A 
BRANCH  47  61
ATOM     61  C   UNL A   1      46.787  30.490  26.908  1.00  0.00     0.057 A 
ATOM     62  C   UNL A   1      45.728  31.375  26.629  1.00  0.00     0.134 A 
ATOM     63  C   UNL A   1      48.067  31.071  26.942  1.00  0.00     0.134 A 
ATOM     64  F   UNL A   1      44.448  30.986  26.623  1.00  0.00    -0.206 F 
ATOM     65  C   UNL A   1      45.922  32.747  26.448  1.00  0.00     0.040 A 
ATOM     66  C   UNL A   1      48.266  32.449  26.811  1.00  0.00     0.040 A 
ATOM     67  F   UNL A   1      49.155  30.326  27.189  1.00  0.00    -0.206 F 
ATOM     68  C   UNL A   1      47.189  33.294  26.578  1.00  0.00     0.006 A 
ENDBRANCH  47  61
BRANCH  48  69
ATOM     69  C   UNL A   1      38.625  28.808  29.476  1.00  0.00     0.057 A 
ATOM     70  C   UNL A   1      38.188  29.447  28.301  1.00  0.00     0.134 A 
ATOM     71  C   UNL A   1      37.771  28.900  30.582  1.00  0.00     0.134 A 
ATOM     72  F   UNL A   1      38.961  29.486  27.205  1.00  0.00    -0.206 F 
ATOM     73  C   UNL A   1      36.979  30.149  28.234  1.00  0.00     0.040 A 
ATOM     74  C   UNL A   1      36.559  29.603  30.531  1.00  0.00     0.040 A 
ATOM     75  F   UNL A   1      38.121  28.359  31.758  1.00  0.00    -0.206 F 
ATOM     76  C   UNL A   1      36.165  30.240  29.356  1.00  0.00     0.006 A 
ENDBRANCH  48  69
BRANCH  60  77
ATOM     77  C   UNL A   1      44.000  27.411  32.314  1.00  0.00     0.057 A 
ATOM     78  C   UNL A   1      43.985  27.789  33.658  1.00  0.00     0.134 A 
ATOM     79  C   UNL A   1      43.909  26.037  32.046  1.00  0.00     0.134 A 
ATOM     80  F   UNL A   1      44.137  29.078  33.998  1.00  0.00    -0.206 F 
ATOM     81  C   UNL A   1      43.855  26.851  34.685  1.00  0.00     0.040 A 
ATOM     82  C   UNL A   1      43.748  25.088  33.060  1.00  0.00     0.040 A 
ATOM     83  F   UNL A   1      44.030  25.567  30.801  1.00  0.00    -0.206 F 
ATOM     84  C   UNL A   1      43.722  25.495  34.388  1.00  0.00     0.006 A 
ENDBRANCH  60  77
ENDBRANCH  34  35
ENDBRANCH  26  29
ENDBRANCH  24  25
ENDBRANCH  23  24
ENDBRANCH  22  23
ENDBRANCH   1  22
TORSDOF 15
ENDMDL
