MODEL 1
REMARK VINA RESULT:     -13.2      0.000      0.000
REMARK SMILES O=C(NCCCCNC(=O)c1ccc(-c2c3nc(c(-c4c(F)cccc4F)c4ccc([nH]4)c(-c4c(F)cccc4F)c4nc(c(-c5c(F)cccc5F)c5ccc2[nH]5)C=C4)C=C3)cc1)c1ccc(C(=O)Nc2ccc(-c3nc4ccccc4[nH]3)cc2)cc1
REMARK SMILES IDX 5 1 4 2 3 3 1 4 2 5 65 7 66 8 88 9 67 10 87 11 68 12 69 13
REMARK SMILES IDX 70 14 71 15 72 17 73 18 86 19 74 20 85 21 75 22 76 23 77 24
REMARK SMILES IDX 84 25 78 26 83 27 79 29 82 30 80 31 81 32 6 33 7 34 8 35
REMARK SMILES IDX 9 36 10 38 11 39 12 40 64 41 13 42 63 43 14 44 15 45 16 46
REMARK SMILES IDX 57 47 17 48 62 49 56 50 58 51 18 52 61 53 55 54 54 55 19 57
REMARK SMILES IDX 45 58 28 59 44 60 29 61 32 62 43 63 59 64 30 65 31 66 42 68
REMARK SMILES IDX 60 69 33 70 20 71 21 72 26 73 22 74 23 75 25 76 27 77 24 78
REMARK SMILES IDX 46 79 47 80 52 81 48 82 49 83 51 84 53 85 50 86 34 87 35 88
REMARK SMILES IDX 40 89 36 90 37 91 39 92 41 93 38 94
REMARK H PARENT 3 6 71 16 84 28 8 37 58 56 32 67
REMARK Flexibility Score: inf
ROOT
ATOM      1  C   UNL A   1      31.395  30.865  25.891  1.00  0.00     0.023 C 
ENDROOT
BRANCH   1   2
ATOM      2  C   UNL A   1      31.844  29.775  26.857  1.00  0.00     0.116 C 
BRANCH   2   3
ATOM      3  N   UNL A   1      33.288  29.700  27.008  1.00  0.00    -0.352 N 
ATOM      4  O   UNL A   1      35.357  28.833  26.914  1.00  0.00    -0.269 OA
ATOM      5  C   UNL A   1      34.178  28.748  26.579  1.00  0.00     0.251 C 
ATOM      6  H   UNL A   1      33.691  30.453  27.497  1.00  0.00     0.163 HD
BRANCH   5   7
ATOM      7  C   UNL A   1      33.730  27.595  25.765  1.00  0.00     0.039 A 
ATOM      8  C   UNL A   1      33.664  27.632  24.370  1.00  0.00     0.014 A 
ATOM      9  C   UNL A   1      33.392  26.419  26.432  1.00  0.00     0.014 A 
ATOM     10  C   UNL A   1      33.086  26.569  23.667  1.00  0.00     0.014 A 
ATOM     11  C   UNL A   1      32.902  25.326  25.713  1.00  0.00     0.014 A 
ATOM     12  C   UNL A   1      32.646  25.419  24.339  1.00  0.00     0.040 A 
BRANCH  12  13
ATOM     13  C   UNL A   1      32.019  24.326  23.520  1.00  0.00     0.255 C 
ATOM     14  O   UNL A   1      30.825  24.413  23.233  1.00  0.00    -0.269 OA
ATOM     15  N   UNL A   1      32.752  23.282  22.987  1.00  0.00    -0.322 N 
ATOM     16  H   UNL A   1      32.333  22.815  22.229  1.00  0.00     0.170 HD
BRANCH  15  17
ATOM     17  C   UNL A   1      34.006  22.794  23.371  1.00  0.00     0.041 A 
ATOM     18  C   UNL A   1      35.142  23.353  22.782  1.00  0.00     0.027 A 
ATOM     19  C   UNL A   1      34.141  21.841  24.377  1.00  0.00     0.027 A 
ATOM     20  C   UNL A   1      36.410  23.093  23.324  1.00  0.00     0.014 A 
ATOM     21  C   UNL A   1      35.406  21.557  24.889  1.00  0.00     0.014 A 
ATOM     22  C   UNL A   1      36.548  22.220  24.411  1.00  0.00     0.017 A 
BRANCH  22  23
ATOM     23  C   UNL A   1      37.811  21.990  25.115  1.00  0.00     0.138 A 
ATOM     24  N   UNL A   1      38.438  20.829  25.161  1.00  0.00    -0.229 NA
ATOM     25  N   UNL A   1      38.451  22.905  25.925  1.00  0.00    -0.338 N 
ATOM     26  C   UNL A   1      39.468  20.983  26.047  1.00  0.00     0.089 A 
ATOM     27  C   UNL A   1      39.501  22.276  26.551  1.00  0.00     0.066 A 
ATOM     28  H   UNL A   1      38.198  23.850  26.036  1.00  0.00     0.168 HD
ATOM     29  C   UNL A   1      40.407  20.041  26.485  1.00  0.00     0.030 A 
ATOM     30  C   UNL A   1      40.439  22.699  27.495  1.00  0.00     0.028 A 
ATOM     31  C   UNL A   1      41.358  20.436  27.431  1.00  0.00     0.002 A 
ATOM     32  C   UNL A   1      41.371  21.744  27.925  1.00  0.00     0.002 A 
ENDBRANCH  22  23
ENDBRANCH  15  17
ENDBRANCH  12  13
ENDBRANCH   5   7
ENDBRANCH   2   3
ENDBRANCH   1   2
BRANCH   1  33
ATOM     33  C   UNL A   1      31.276  32.264  26.486  1.00  0.00     0.023 C 
BRANCH  33  34
ATOM     34  C   UNL A   1      32.547  32.819  27.115  1.00  0.00     0.116 C 
BRANCH  34  35
ATOM     35  N   UNL A   1      32.388  34.164  27.641  1.00  0.00    -0.352 N 
ATOM     36  C   UNL A   1      33.093  34.796  28.638  1.00  0.00     0.251 C 
ATOM     37  H   UNL A   1      31.675  34.699  27.223  1.00  0.00     0.163 HD
ATOM     38  O   UNL A   1      32.744  35.899  29.037  1.00  0.00    -0.269 OA
BRANCH  36  39
ATOM     39  C   UNL A   1      34.259  34.121  29.253  1.00  0.00     0.039 A 
ATOM     40  C   UNL A   1      34.052  33.300  30.364  1.00  0.00     0.014 A 
ATOM     41  C   UNL A   1      35.543  34.283  28.729  1.00  0.00     0.014 A 
ATOM     42  C   UNL A   1      35.125  32.593  30.911  1.00  0.00     0.010 A 
ATOM     43  C   UNL A   1      36.593  33.514  29.220  1.00  0.00     0.010 A 
ATOM     44  C   UNL A   1      36.399  32.668  30.323  1.00  0.00    -0.014 A 
BRANCH  44  45
ATOM     45  C   UNL A   1      37.546  31.894  30.863  1.00  0.00     0.031 A 
ATOM     46  C   UNL A   1      38.017  32.139  32.272  1.00  0.00     0.074 A 
ATOM     47  C   UNL A   1      38.198  31.013  30.077  1.00  0.00     0.049 A 
ATOM     48  N   UNL A   1      39.049  31.634  32.900  1.00  0.00    -0.248 NA
ATOM     49  C   UNL A   1      37.241  33.099  33.074  1.00  0.00     0.031 C 
ATOM     50  C   UNL A   1      37.869  30.714  28.683  1.00  0.00     0.029 A 
ATOM     51  N   UNL A   1      39.285  30.216  30.338  1.00  0.00    -0.354 N 
ATOM     52  C   UNL A   1      39.048  32.221  34.160  1.00  0.00     0.074 A 
ATOM     53  C   UNL A   1      37.954  33.166  34.187  1.00  0.00     0.031 C 
ATOM     54  C   UNL A   1      38.722  29.786  28.218  1.00  0.00     0.029 A 
ATOM     55  C   UNL A   1      39.683  29.454  29.265  1.00  0.00     0.049 A 
ATOM     56  H   UNL A   1      39.738  30.192  31.212  1.00  0.00     0.167 HD
ATOM     57  C   UNL A   1      39.865  31.973  35.211  1.00  0.00     0.037 A 
ATOM     58  C   UNL A   1      40.714  28.597  29.137  1.00  0.00     0.037 A 
ATOM     59  C   UNL A   1      40.939  31.015  35.192  1.00  0.00     0.049 A 
ATOM     60  C   UNL A   1      41.619  28.357  30.316  1.00  0.00     0.074 A 
ATOM     61  C   UNL A   1      41.803  30.671  36.217  1.00  0.00     0.029 A 
ATOM     62  N   UNL A   1      41.291  30.246  34.094  1.00  0.00    -0.354 N 
ATOM     63  N   UNL A   1      41.572  28.880  31.517  1.00  0.00    -0.248 NA
ATOM     64  C   UNL A   1      42.716  27.397  30.124  1.00  0.00     0.031 C 
ATOM     65  C   UNL A   1      42.704  29.721  35.727  1.00  0.00     0.029 A 
ATOM     66  C   UNL A   1      42.367  29.435  34.413  1.00  0.00     0.049 A 
ATOM     67  H   UNL A   1      40.844  30.274  33.217  1.00  0.00     0.167 HD
ATOM     68  C   UNL A   1      42.603  28.284  32.233  1.00  0.00     0.074 A 
ATOM     69  C   UNL A   1      43.250  27.350  31.336  1.00  0.00     0.031 C 
ATOM     70  C   UNL A   1      42.981  28.489  33.518  1.00  0.00     0.037 A 
BRANCH  57  71
ATOM     71  C   UNL A   1      39.617  32.735  36.480  1.00  0.00     0.057 A 
ATOM     72  C   UNL A   1      40.298  33.925  36.766  1.00  0.00     0.134 A 
ATOM     73  C   UNL A   1      38.649  32.308  37.398  1.00  0.00     0.134 A 
ATOM     74  F   UNL A   1      41.246  34.383  35.935  1.00  0.00    -0.206 F 
ATOM     75  C   UNL A   1      40.040  34.654  37.928  1.00  0.00     0.040 A 
ATOM     76  C   UNL A   1      38.362  33.043  38.550  1.00  0.00     0.040 A 
ATOM     77  F   UNL A   1      37.955  31.180  37.183  1.00  0.00    -0.206 F 
ATOM     78  C   UNL A   1      39.061  34.217  38.819  1.00  0.00     0.006 A 
ENDBRANCH  57  71
BRANCH  58  79
ATOM     79  C   UNL A   1      40.954  27.891  27.851  1.00  0.00     0.057 A 
ATOM     80  C   UNL A   1      40.386  26.635  27.597  1.00  0.00     0.134 A 
ATOM     81  C   UNL A   1      41.796  28.425  26.869  1.00  0.00     0.134 A 
ATOM     82  F   UNL A   1      39.586  26.060  28.506  1.00  0.00    -0.206 F 
ATOM     83  C   UNL A   1      40.677  25.922  26.433  1.00  0.00     0.040 A 
ATOM     84  C   UNL A   1      42.070  27.736  25.686  1.00  0.00     0.040 A 
ATOM     85  F   UNL A   1      42.366  29.626  27.044  1.00  0.00    -0.206 F 
ATOM     86  C   UNL A   1      41.520  26.474  25.472  1.00  0.00     0.006 A 
ENDBRANCH  58  79
BRANCH  70  87
ATOM     87  C   UNL A   1      44.102  27.646  34.052  1.00  0.00     0.057 A 
ATOM     88  C   UNL A   1      45.435  28.075  34.026  1.00  0.00     0.134 A 
ATOM     89  C   UNL A   1      43.834  26.401  34.637  1.00  0.00     0.134 A 
ATOM     90  F   UNL A   1      45.760  29.251  33.471  1.00  0.00    -0.206 F 
ATOM     91  C   UNL A   1      46.464  27.283  34.537  1.00  0.00     0.040 A 
ATOM     92  C   UNL A   1      44.850  25.615  35.179  1.00  0.00     0.040 A 
ATOM     93  F   UNL A   1      42.577  25.936  34.704  1.00  0.00    -0.206 F 
ATOM     94  C   UNL A   1      46.172  26.052  35.122  1.00  0.00     0.006 A 
ENDBRANCH  70  87
ENDBRANCH  44  45
ENDBRANCH  36  39
ENDBRANCH  34  35
ENDBRANCH  33  34
ENDBRANCH   1  33
TORSDOF 14
ENDMDL
MODEL 2
REMARK VINA RESULT:     -13.1      1.053      6.129
REMARK SMILES O=C(NCCCCNC(=O)c1ccc(-c2c3nc(c(-c4c(F)cccc4F)c4ccc([nH]4)c(-c4c(F)cccc4F)c4nc(c(-c5c(F)cccc5F)c5ccc2[nH]5)C=C4)C=C3)cc1)c1ccc(C(=O)Nc2ccc(-c3nc4ccccc4[nH]3)cc2)cc1
REMARK SMILES IDX 5 1 4 2 3 3 1 4 2 5 65 7 66 8 88 9 67 10 87 11 68 12 69 13
REMARK SMILES IDX 70 14 71 15 72 17 73 18 86 19 74 20 85 21 75 22 76 23 77 24
REMARK SMILES IDX 84 25 78 26 83 27 79 29 82 30 80 31 81 32 6 33 7 34 8 35
REMARK SMILES IDX 9 36 10 38 11 39 12 40 64 41 13 42 63 43 14 44 15 45 16 46
REMARK SMILES IDX 57 47 17 48 62 49 56 50 58 51 18 52 61 53 55 54 54 55 19 57
REMARK SMILES IDX 45 58 28 59 44 60 29 61 32 62 43 63 59 64 30 65 31 66 42 68
REMARK SMILES IDX 60 69 33 70 20 71 21 72 26 73 22 74 23 75 25 76 27 77 24 78
REMARK SMILES IDX 46 79 47 80 52 81 48 82 49 83 51 84 53 85 50 86 34 87 35 88
REMARK SMILES IDX 40 89 36 90 37 91 39 92 41 93 38 94
REMARK H PARENT 3 6 71 16 84 28 8 37 58 56 32 67
REMARK Flexibility Score: inf
ROOT
ATOM      1  C   UNL A   1      31.595  30.763  26.107  1.00  0.00     0.023 C 
ENDROOT
BRANCH   1   2
ATOM      2  C   UNL A   1      31.990  29.750  27.175  1.00  0.00     0.116 C 
BRANCH   2   3
ATOM      3  N   UNL A   1      33.426  29.655  27.374  1.00  0.00    -0.352 N 
ATOM      4  O   UNL A   1      35.498  28.795  27.272  1.00  0.00    -0.269 OA
ATOM      5  C   UNL A   1      34.333  28.749  26.885  1.00  0.00     0.251 C 
ATOM      6  H   UNL A   1      33.810  30.353  27.953  1.00  0.00     0.163 HD
BRANCH   5   7
ATOM      7  C   UNL A   1      33.917  27.686  25.941  1.00  0.00     0.039 A 
ATOM      8  C   UNL A   1      34.123  27.774  24.562  1.00  0.00     0.014 A 
ATOM      9  C   UNL A   1      33.325  26.540  26.470  1.00  0.00     0.014 A 
ATOM     10  C   UNL A   1      33.570  26.814  23.707  1.00  0.00     0.014 A 
ATOM     11  C   UNL A   1      32.858  25.540  25.614  1.00  0.00     0.014 A 
ATOM     12  C   UNL A   1      32.880  25.707  24.223  1.00  0.00     0.040 A 
BRANCH  12  13
ATOM     13  C   UNL A   1      32.298  24.726  23.245  1.00  0.00     0.255 C 
ATOM     14  O   UNL A   1      31.167  24.931  22.805  1.00  0.00    -0.269 OA
ATOM     15  N   UNL A   1      33.022  23.662  22.738  1.00  0.00    -0.322 N 
ATOM     16  H   UNL A   1      32.681  23.284  21.896  1.00  0.00     0.170 HD
BRANCH  15  17
ATOM     17  C   UNL A   1      34.170  23.048  23.250  1.00  0.00     0.041 A 
ATOM     18  C   UNL A   1      35.408  23.406  22.711  1.00  0.00     0.027 A 
ATOM     19  C   UNL A   1      34.108  22.170  24.329  1.00  0.00     0.027 A 
ATOM     20  C   UNL A   1      36.590  23.028  23.365  1.00  0.00     0.014 A 
ATOM     21  C   UNL A   1      35.286  21.767  24.954  1.00  0.00     0.014 A 
ATOM     22  C   UNL A   1      36.536  22.235  24.519  1.00  0.00     0.017 A 
BRANCH  22  23
ATOM     23  C   UNL A   1      37.707  21.901  25.332  1.00  0.00     0.138 A 
ATOM     24  N   UNL A   1      38.334  22.753  26.122  1.00  0.00    -0.229 NA
ATOM     25  N   UNL A   1      38.390  20.704  25.292  1.00  0.00    -0.338 N 
ATOM     26  C   UNL A   1      39.460  22.114  26.562  1.00  0.00     0.089 A 
ATOM     27  C   UNL A   1      39.529  20.824  26.054  1.00  0.00     0.066 A 
ATOM     28  H   UNL A   1      38.111  19.898  24.802  1.00  0.00     0.168 HD
ATOM     29  C   UNL A   1      40.484  22.593  27.389  1.00  0.00     0.030 A 
ATOM     30  C   UNL A   1      40.591  19.958  26.324  1.00  0.00     0.028 A 
ATOM     31  C   UNL A   1      41.560  21.748  27.676  1.00  0.00     0.002 A 
ATOM     32  C   UNL A   1      41.609  20.453  27.151  1.00  0.00     0.002 A 
ENDBRANCH  22  23
ENDBRANCH  15  17
ENDBRANCH  12  13
ENDBRANCH   5   7
ENDBRANCH   2   3
ENDBRANCH   1   2
BRANCH   1  33
ATOM     33  C   UNL A   1      31.328  32.178  26.607  1.00  0.00     0.023 C 
BRANCH  33  34
ATOM     34  C   UNL A   1      32.506  32.867  27.282  1.00  0.00     0.116 C 
BRANCH  34  35
ATOM     35  N   UNL A   1      32.252  34.263  27.599  1.00  0.00    -0.352 N 
ATOM     36  C   UNL A   1      32.892  35.080  28.500  1.00  0.00     0.251 C 
ATOM     37  H   UNL A   1      31.517  34.682  27.096  1.00  0.00     0.163 HD
ATOM     38  O   UNL A   1      32.466  36.204  28.725  1.00  0.00    -0.269 OA
BRANCH  36  39
ATOM     39  C   UNL A   1      34.082  34.580  29.226  1.00  0.00     0.039 A 
ATOM     40  C   UNL A   1      33.922  34.091  30.525  1.00  0.00     0.014 A 
ATOM     41  C   UNL A   1      35.343  34.580  28.626  1.00  0.00     0.014 A 
ATOM     42  C   UNL A   1      35.018  33.544  31.198  1.00  0.00     0.010 A 
ATOM     43  C   UNL A   1      36.412  33.958  29.263  1.00  0.00     0.010 A 
ATOM     44  C   UNL A   1      36.265  33.442  30.559  1.00  0.00    -0.014 A 
BRANCH  44  45
ATOM     45  C   UNL A   1      37.434  32.827  31.240  1.00  0.00     0.031 A 
ATOM     46  C   UNL A   1      38.105  31.623  30.633  1.00  0.00     0.074 A 
ATOM     47  C   UNL A   1      37.859  33.312  32.424  1.00  0.00     0.049 A 
ATOM     48  N   UNL A   1      39.078  30.890  31.109  1.00  0.00    -0.248 NA
ATOM     49  C   UNL A   1      37.596  31.167  29.329  1.00  0.00     0.031 C 
ATOM     50  C   UNL A   1      37.271  34.446  33.138  1.00  0.00     0.029 A 
ATOM     51  N   UNL A   1      38.882  32.901  33.242  1.00  0.00    -0.354 N 
ATOM     52  C   UNL A   1      39.290  29.887  30.171  1.00  0.00     0.074 A 
ATOM     53  C   UNL A   1      38.303  30.066  29.130  1.00  0.00     0.031 C 
ATOM     54  C   UNL A   1      37.953  34.652  34.276  1.00  0.00     0.029 A 
ATOM     55  C   UNL A   1      39.000  33.642  34.395  1.00  0.00     0.049 A 
ATOM     56  H   UNL A   1      39.476  32.146  33.025  1.00  0.00     0.167 HD
ATOM     57  C   UNL A   1      40.240  28.923  30.161  1.00  0.00     0.037 A 
ATOM     58  C   UNL A   1      39.847  33.512  35.433  1.00  0.00     0.037 A 
ATOM     59  C   UNL A   1      41.238  28.759  31.186  1.00  0.00     0.049 A 
ATOM     60  C   UNL A   1      40.880  32.416  35.404  1.00  0.00     0.074 A 
ATOM     61  C   UNL A   1      42.262  27.830  31.249  1.00  0.00     0.029 A 
ATOM     62  N   UNL A   1      41.338  29.547  32.322  1.00  0.00    -0.354 N 
ATOM     63  N   UNL A   1      41.101  31.508  34.484  1.00  0.00    -0.248 NA
ATOM     64  C   UNL A   1      41.790  32.334  36.556  1.00  0.00     0.031 C 
ATOM     65  C   UNL A   1      42.958  28.031  32.444  1.00  0.00     0.029 A 
ATOM     66  C   UNL A   1      42.402  29.119  33.098  1.00  0.00     0.049 A 
ATOM     67  H   UNL A   1      40.741  30.297  32.544  1.00  0.00     0.167 HD
ATOM     68  C   UNL A   1      42.197  30.777  34.925  1.00  0.00     0.074 A 
ATOM     69  C   UNL A   1      42.604  31.354  36.189  1.00  0.00     0.031 C 
ATOM     70  C   UNL A   1      42.812  29.722  34.339  1.00  0.00     0.037 A 
BRANCH  57  71
ATOM     71  C   UNL A   1      40.261  27.979  28.994  1.00  0.00     0.057 A 
ATOM     72  C   UNL A   1      39.521  26.788  29.000  1.00  0.00     0.134 A 
ATOM     73  C   UNL A   1      40.980  28.286  27.832  1.00  0.00     0.134 A 
ATOM     74  F   UNL A   1      38.821  26.428  30.086  1.00  0.00    -0.206 F 
ATOM     75  C   UNL A   1      39.510  25.929  27.900  1.00  0.00     0.040 A 
ATOM     76  C   UNL A   1      40.954  27.449  26.715  1.00  0.00     0.040 A 
ATOM     77  F   UNL A   1      41.705  29.413  27.757  1.00  0.00    -0.206 F 
ATOM     78  C   UNL A   1      40.221  26.265  26.749  1.00  0.00     0.006 A 
ENDBRANCH  57  71
BRANCH  58  79
ATOM     79  C   UNL A   1      39.771  34.440  36.592  1.00  0.00     0.057 A 
ATOM     80  C   UNL A   1      40.469  35.655  36.594  1.00  0.00     0.134 A 
ATOM     81  C   UNL A   1      39.044  34.114  37.743  1.00  0.00     0.134 A 
ATOM     82  F   UNL A   1      41.199  36.016  35.529  1.00  0.00    -0.206 F 
ATOM     83  C   UNL A   1      40.478  36.492  37.711  1.00  0.00     0.040 A 
ATOM     84  C   UNL A   1      39.020  34.958  38.856  1.00  0.00     0.040 A 
ATOM     85  F   UNL A   1      38.347  32.971  37.804  1.00  0.00    -0.206 F 
ATOM     86  C   UNL A   1      39.749  36.144  38.846  1.00  0.00     0.006 A 
ENDBRANCH  58  79
BRANCH  70  87
ATOM     87  C   UNL A   1      44.029  29.165  35.019  1.00  0.00     0.057 A 
ATOM     88  C   UNL A   1      43.947  28.145  35.974  1.00  0.00     0.134 A 
ATOM     89  C   UNL A   1      45.306  29.634  34.681  1.00  0.00     0.134 A 
ATOM     90  F   UNL A   1      42.755  27.659  36.351  1.00  0.00    -0.206 F 
ATOM     91  C   UNL A   1      45.089  27.630  36.590  1.00  0.00     0.040 A 
ATOM     92  C   UNL A   1      46.456  29.107  35.267  1.00  0.00     0.040 A 
ATOM     93  F   UNL A   1      45.455  30.603  33.766  1.00  0.00    -0.206 F 
ATOM     94  C   UNL A   1      46.349  28.106  36.231  1.00  0.00     0.006 A 
ENDBRANCH  70  87
ENDBRANCH  44  45
ENDBRANCH  36  39
ENDBRANCH  34  35
ENDBRANCH  33  34
ENDBRANCH   1  33
TORSDOF 14
ENDMDL
MODEL 3
REMARK VINA RESULT:     -12.9      2.600      3.797
REMARK SMILES O=C(NCCCCNC(=O)c1ccc(-c2c3nc(c(-c4c(F)cccc4F)c4ccc([nH]4)c(-c4c(F)cccc4F)c4nc(c(-c5c(F)cccc5F)c5ccc2[nH]5)C=C4)C=C3)cc1)c1ccc(C(=O)Nc2ccc(-c3nc4ccccc4[nH]3)cc2)cc1
REMARK SMILES IDX 5 1 4 2 3 3 1 4 2 5 65 7 66 8 88 9 67 10 87 11 68 12 69 13
REMARK SMILES IDX 70 14 71 15 72 17 73 18 86 19 74 20 85 21 75 22 76 23 77 24
REMARK SMILES IDX 84 25 78 26 83 27 79 29 82 30 80 31 81 32 6 33 7 34 8 35
REMARK SMILES IDX 9 36 10 38 11 39 12 40 64 41 13 42 63 43 14 44 15 45 16 46
REMARK SMILES IDX 57 47 17 48 62 49 56 50 58 51 18 52 61 53 55 54 54 55 19 57
REMARK SMILES IDX 45 58 28 59 44 60 29 61 32 62 43 63 59 64 30 65 31 66 42 68
REMARK SMILES IDX 60 69 33 70 20 71 21 72 26 73 22 74 23 75 25 76 27 77 24 78
REMARK SMILES IDX 46 79 47 80 52 81 48 82 49 83 51 84 53 85 50 86 34 87 35 88
REMARK SMILES IDX 40 89 36 90 37 91 39 92 41 93 38 94
REMARK H PARENT 3 6 71 16 84 28 8 37 58 56 32 67
REMARK Flexibility Score: inf
ROOT
ATOM      1  C   UNL A   1      34.014  33.358  28.819  1.00  0.00     0.023 C 
ENDROOT
BRANCH   1   2
ATOM      2  C   UNL A   1      33.744  32.101  28.001  1.00  0.00     0.116 C 
BRANCH   2   3
ATOM      3  N   UNL A   1      34.765  31.079  28.164  1.00  0.00    -0.352 N 
ATOM      4  O   UNL A   1      35.759  29.073  27.999  1.00  0.00    -0.269 OA
ATOM      5  C   UNL A   1      34.848  29.815  27.638  1.00  0.00     0.251 C 
ATOM      6  H   UNL A   1      35.516  31.337  28.745  1.00  0.00     0.163 HD
BRANCH   5   7
ATOM      7  C   UNL A   1      33.830  29.314  26.687  1.00  0.00     0.039 A 
ATOM      8  C   UNL A   1      34.029  29.296  25.305  1.00  0.00     0.014 A 
ATOM      9  C   UNL A   1      32.639  28.814  27.212  1.00  0.00     0.014 A 
ATOM     10  C   UNL A   1      32.974  28.959  24.449  1.00  0.00     0.014 A 
ATOM     11  C   UNL A   1      31.623  28.391  26.351  1.00  0.00     0.014 A 
ATOM     12  C   UNL A   1      31.734  28.552  24.964  1.00  0.00     0.040 A 
BRANCH  12  13
ATOM     13  C   UNL A   1      30.643  28.223  23.985  1.00  0.00     0.255 C 
ATOM     14  O   UNL A   1      29.829  29.099  23.691  1.00  0.00    -0.269 OA
ATOM     15  N   UNL A   1      30.579  27.012  23.321  1.00  0.00    -0.322 N 
ATOM     16  H   UNL A   1      30.043  27.011  22.496  1.00  0.00     0.170 HD
BRANCH  15  17
ATOM     17  C   UNL A   1      31.169  25.788  23.653  1.00  0.00     0.041 A 
ATOM     18  C   UNL A   1      30.650  25.076  24.737  1.00  0.00     0.027 A 
ATOM     19  C   UNL A   1      32.186  25.234  22.880  1.00  0.00     0.027 A 
ATOM     20  C   UNL A   1      31.023  23.738  24.937  1.00  0.00     0.014 A 
ATOM     21  C   UNL A   1      32.581  23.917  23.105  1.00  0.00     0.014 A 
ATOM     22  C   UNL A   1      31.966  23.134  24.095  1.00  0.00     0.017 A 
BRANCH  22  23
ATOM     23  C   UNL A   1      32.318  21.714  24.154  1.00  0.00     0.138 A 
ATOM     24  N   UNL A   1      32.307  20.900  23.114  1.00  0.00    -0.229 NA
ATOM     25  N   UNL A   1      32.582  21.004  25.306  1.00  0.00    -0.338 N 
ATOM     26  C   UNL A   1      32.522  19.643  23.607  1.00  0.00     0.089 A 
ATOM     27  C   UNL A   1      32.693  19.672  24.985  1.00  0.00     0.066 A 
ATOM     28  H   UNL A   1      32.675  21.387  26.208  1.00  0.00     0.168 HD
ATOM     29  C   UNL A   1      32.562  18.420  22.926  1.00  0.00     0.030 A 
ATOM     30  C   UNL A   1      32.903  18.522  25.748  1.00  0.00     0.028 A 
ATOM     31  C   UNL A   1      32.770  17.251  23.665  1.00  0.00     0.002 A 
ATOM     32  C   UNL A   1      32.938  17.305  25.052  1.00  0.00     0.002 A 
ENDBRANCH  22  23
ENDBRANCH  15  17
ENDBRANCH  12  13
ENDBRANCH   5   7
ENDBRANCH   2   3
ENDBRANCH   1   2
BRANCH   1  33
ATOM     33  C   UNL A   1      32.994  34.480  28.659  1.00  0.00     0.023 C 
BRANCH  33  34
ATOM     34  C   UNL A   1      33.386  35.815  29.279  1.00  0.00     0.116 C 
BRANCH  34  35
ATOM     35  N   UNL A   1      32.534  36.204  30.391  1.00  0.00    -0.352 N 
ATOM     36  C   UNL A   1      32.650  35.893  31.725  1.00  0.00     0.251 C 
ATOM     37  H   UNL A   1      31.766  36.772  30.155  1.00  0.00     0.163 HD
ATOM     38  O   UNL A   1      31.769  36.211  32.512  1.00  0.00    -0.269 OA
BRANCH  36  39
ATOM     39  C   UNL A   1      33.832  35.139  32.202  1.00  0.00     0.039 A 
ATOM     40  C   UNL A   1      33.656  33.833  32.664  1.00  0.00     0.014 A 
ATOM     41  C   UNL A   1      35.106  35.710  32.180  1.00  0.00     0.014 A 
ATOM     42  C   UNL A   1      34.768  33.077  33.045  1.00  0.00     0.010 A 
ATOM     43  C   UNL A   1      36.219  34.930  32.478  1.00  0.00     0.010 A 
ATOM     44  C   UNL A   1      36.062  33.608  32.923  1.00  0.00    -0.014 A 
BRANCH  44  45
ATOM     45  C   UNL A   1      37.262  32.810  33.284  1.00  0.00     0.031 A 
ATOM     46  C   UNL A   1      37.991  33.095  34.571  1.00  0.00     0.074 A 
ATOM     47  C   UNL A   1      37.730  31.870  32.438  1.00  0.00     0.049 A 
ATOM     48  N   UNL A   1      39.102  32.575  35.026  1.00  0.00    -0.248 NA
ATOM     49  C   UNL A   1      37.406  34.121  35.451  1.00  0.00     0.031 C 
ATOM     50  C   UNL A   1      37.141  31.525  31.143  1.00  0.00     0.029 A 
ATOM     51  N   UNL A   1      38.818  31.040  32.538  1.00  0.00    -0.354 N 
ATOM     52  C   UNL A   1      39.351  33.214  36.235  1.00  0.00     0.074 A 
ATOM     53  C   UNL A   1      38.313  34.205  36.412  1.00  0.00     0.031 C 
ATOM     54  C   UNL A   1      37.863  30.544  30.578  1.00  0.00     0.029 A 
ATOM     55  C   UNL A   1      38.987  30.217  31.449  1.00  0.00     0.049 A 
ATOM     56  H   UNL A   1      39.422  31.034  33.315  1.00  0.00     0.167 HD
ATOM     57  C   UNL A   1      40.337  32.977  37.132  1.00  0.00     0.037 A 
ATOM     58  C   UNL A   1      39.948  29.312  31.180  1.00  0.00     0.037 A 
ATOM     59  C   UNL A   1      41.357  31.975  36.967  1.00  0.00     0.049 A 
ATOM     60  C   UNL A   1      41.044  29.084  32.187  1.00  0.00     0.074 A 
ATOM     61  C   UNL A   1      42.382  31.638  37.834  1.00  0.00     0.029 A 
ATOM     62  N   UNL A   1      41.477  31.146  35.862  1.00  0.00    -0.354 N 
ATOM     63  N   UNL A   1      41.236  29.660  33.349  1.00  0.00    -0.248 NA
ATOM     64  C   UNL A   1      42.055  28.071  31.847  1.00  0.00     0.031 C 
ATOM     65  C   UNL A   1      43.146  30.632  37.237  1.00  0.00     0.029 A 
ATOM     66  C   UNL A   1      42.564  30.304  36.022  1.00  0.00     0.049 A 
ATOM     67  H   UNL A   1      40.878  31.155  35.081  1.00  0.00     0.167 HD
ATOM     68  C   UNL A   1      42.359  29.052  33.896  1.00  0.00     0.074 A 
ATOM     69  C   UNL A   1      42.799  28.054  32.944  1.00  0.00     0.031 C 
ATOM     70  C   UNL A   1      42.972  29.296  35.079  1.00  0.00     0.037 A 
BRANCH  57  71
ATOM     71  C   UNL A   1      40.351  33.802  38.385  1.00  0.00     0.057 A 
ATOM     72  C   UNL A   1      41.097  34.986  38.477  1.00  0.00     0.134 A 
ATOM     73  C   UNL A   1      39.569  33.445  39.491  1.00  0.00     0.134 A 
ATOM     74  F   UNL A   1      41.875  35.379  37.458  1.00  0.00    -0.206 F 
ATOM     75  C   UNL A   1      41.079  35.774  39.629  1.00  0.00     0.040 A 
ATOM     76  C   UNL A   1      39.522  34.239  40.638  1.00  0.00     0.040 A 
ATOM     77  F   UNL A   1      38.827  32.327  39.469  1.00  0.00    -0.206 F 
ATOM     78  C   UNL A   1      40.282  35.404  40.710  1.00  0.00     0.006 A 
ENDBRANCH  57  71
BRANCH  58  79
ATOM     79  C   UNL A   1      39.925  28.541  29.909  1.00  0.00     0.057 A 
ATOM     80  C   UNL A   1      39.230  27.329  29.809  1.00  0.00     0.134 A 
ATOM     81  C   UNL A   1      40.638  28.969  28.782  1.00  0.00     0.134 A 
ATOM     82  F   UNL A   1      38.545  26.856  30.859  1.00  0.00    -0.206 F 
ATOM     83  C   UNL A   1      39.276  26.552  28.650  1.00  0.00     0.040 A 
ATOM     84  C   UNL A   1      40.666  28.216  27.606  1.00  0.00     0.040 A 
ATOM     85  F   UNL A   1      41.317  30.124  28.807  1.00  0.00    -0.206 F 
ATOM     86  C   UNL A   1      39.995  26.997  27.543  1.00  0.00     0.006 A 
ENDBRANCH  58  79
BRANCH  70  87
ATOM     87  C   UNL A   1      44.143  28.429  35.443  1.00  0.00     0.057 A 
ATOM     88  C   UNL A   1      43.992  27.233  36.155  1.00  0.00     0.134 A 
ATOM     89  C   UNL A   1      45.437  28.782  35.038  1.00  0.00     0.134 A 
ATOM     90  F   UNL A   1      42.782  26.843  36.581  1.00  0.00    -0.206 F 
ATOM     91  C   UNL A   1      45.090  26.433  36.476  1.00  0.00     0.040 A 
ATOM     92  C   UNL A   1      46.538  27.976  35.325  1.00  0.00     0.040 A 
ATOM     93  F   UNL A   1      45.650  29.910  34.343  1.00  0.00    -0.206 F 
ATOM     94  C   UNL A   1      46.367  26.801  36.054  1.00  0.00     0.006 A 
ENDBRANCH  70  87
ENDBRANCH  44  45
ENDBRANCH  36  39
ENDBRANCH  34  35
ENDBRANCH  33  34
ENDBRANCH   1  33
TORSDOF 14
ENDMDL
