MODEL 1
REMARK VINA RESULT:     -12.1      0.000      0.000
REMARK SMILES O=C(COCC(=O)N1CCC([NH+]2CCN(c3ccc(F)cc3)CC2)CC1)NCCCCNC(=O)c1ccc(-c2c3nc(c(-c4c(F)cccc4F)c4ccc([nH]4)c(-c4c(F)cccc4F)c4nc(c(-c5c(F)cccc5F)c5ccc2[nH]5)C=C4)C=C3)cc1
REMARK SMILES IDX 28 1 27 2 1 3 2 4 3 6 4 7 5 8 6 9 7 10 8 11 9 12 26 13 10 14
REMARK SMILES IDX 25 15 11 16 12 17 13 18 24 19 14 21 23 22 15 23 16 24 17 25
REMARK SMILES IDX 22 26 18 27 21 28 19 29 20 30 29 31 30 32 31 33 32 34 33 35
REMARK SMILES IDX 34 37 35 38 36 39 88 40 37 41 87 42 38 43 39 44 40 45 81 46
REMARK SMILES IDX 41 47 86 48 80 49 82 50 42 51 85 52 79 53 78 54 43 56 69 57
REMARK SMILES IDX 52 58 68 59 53 60 56 61 67 62 83 63 54 64 55 65 66 67 84 68
REMARK SMILES IDX 57 69 44 70 45 71 50 72 46 73 47 74 49 75 51 76 48 77 70 78
REMARK SMILES IDX 71 79 76 80 72 81 73 82 75 83 77 84 74 85 58 86 59 87 64 88
REMARK SMILES IDX 60 89 61 90 63 91 65 92 62 93
REMARK H PARENT 27 5 12 20 32 36 82 55 56 66
REMARK Flexibility Score: inf
ROOT
ATOM      1  C   UNL A   1      34.766  33.000  29.494  1.00  0.00     0.116 C 
ENDROOT
BRANCH   1   2
ATOM      2  N   UNL A   1      34.121  31.924  28.770  1.00  0.00    -0.354 N 
ATOM      3  O   UNL A   1      36.014  31.203  27.678  1.00  0.00    -0.272 OA
ATOM      4  C   UNL A   1      34.818  31.085  27.924  1.00  0.00     0.246 C 
ATOM      5  H   UNL A   1      33.153  31.787  28.883  1.00  0.00     0.163 HD
BRANCH   4   6
ATOM      6  C   UNL A   1      33.948  30.014  27.253  1.00  0.00     0.260 C 
BRANCH   6   7
ATOM      7  O   UNL A   1      32.546  30.238  27.267  1.00  0.00    -0.362 OA
BRANCH   7   8
ATOM      8  C   UNL A   1      31.835  29.454  26.327  1.00  0.00     0.260 C 
BRANCH   8   9
ATOM      9  C   UNL A   1      31.446  27.981  26.590  1.00  0.00     0.248 C 
ATOM     10  O   UNL A   1      31.407  27.565  27.751  1.00  0.00    -0.272 OA
ATOM     11  N   UNL A   1      31.030  27.197  25.521  1.00  0.00    -0.340 N 
ATOM     12  C   UNL A   1      30.370  25.931  25.803  1.00  0.00     0.125 C 
ATOM     13  C   UNL A   1      31.570  27.279  24.171  1.00  0.00     0.125 C 
ATOM     14  C   UNL A   1      31.394  24.806  25.753  1.00  0.00     0.086 C 
ATOM     15  C   UNL A   1      32.640  26.194  23.994  1.00  0.00     0.086 C 
ATOM     16  C   UNL A   1      32.133  24.778  24.403  1.00  0.00     0.187 C 
BRANCH  16  17
ATOM     17  N   UNL A   1      33.229  23.797  24.294  1.00  0.00    -0.329 N 
ATOM     18  C   UNL A   1      33.489  22.954  25.481  1.00  0.00     0.284 C 
ATOM     19  C   UNL A   1      33.223  22.962  23.070  1.00  0.00     0.284 C 
ATOM     20  H   UNL A   1      34.014  24.443  24.225  1.00  0.00     0.348 HD
ATOM     21  C   UNL A   1      32.692  21.637  25.599  1.00  0.00     0.178 C 
ATOM     22  C   UNL A   1      32.474  21.602  23.118  1.00  0.00     0.178 C 
ATOM     23  N   UNL A   1      32.784  20.884  24.353  1.00  0.00    -0.360 N 
BRANCH  23  24
ATOM     24  C   UNL A   1      32.700  19.509  24.421  1.00  0.00     0.037 A 
ATOM     25  C   UNL A   1      32.667  18.768  23.232  1.00  0.00     0.029 A 
ATOM     26  C   UNL A   1      32.775  18.814  25.639  1.00  0.00     0.029 A 
ATOM     27  C   UNL A   1      32.780  17.378  23.249  1.00  0.00     0.041 A 
ATOM     28  C   UNL A   1      32.871  17.420  25.662  1.00  0.00     0.041 A 
ATOM     29  C   UNL A   1      32.892  16.718  24.466  1.00  0.00     0.123 A 
ATOM     30  F   UNL A   1      33.040  15.387  24.484  1.00  0.00    -0.207 F 
ENDBRANCH  23  24
ENDBRANCH  16  17
ENDBRANCH   8   9
ENDBRANCH   7   8
ENDBRANCH   6   7
ENDBRANCH   4   6
ENDBRANCH   1   2
BRANCH   1  31
ATOM     31  C   UNL A   1      34.760  34.318  28.720  1.00  0.00     0.023 C 
BRANCH  31  32
ATOM     32  C   UNL A   1      33.462  35.123  28.823  1.00  0.00     0.023 C 
BRANCH  32  33
ATOM     33  C   UNL A   1      33.499  36.310  29.781  1.00  0.00     0.116 C 
BRANCH  33  34
ATOM     34  N   UNL A   1      32.466  36.251  30.804  1.00  0.00    -0.352 N 
ATOM     35  C   UNL A   1      32.472  35.615  32.023  1.00  0.00     0.251 C 
ATOM     36  H   UNL A   1      31.639  36.741  30.591  1.00  0.00     0.163 HD
ATOM     37  O   UNL A   1      31.448  35.567  32.694  1.00  0.00    -0.269 OA
BRANCH  35  38
ATOM     38  C   UNL A   1      33.704  34.958  32.517  1.00  0.00     0.039 A 
ATOM     39  C   UNL A   1      33.615  33.656  33.020  1.00  0.00     0.014 A 
ATOM     40  C   UNL A   1      34.939  35.611  32.490  1.00  0.00     0.014 A 
ATOM     41  C   UNL A   1      34.773  32.987  33.427  1.00  0.00     0.010 A 
ATOM     42  C   UNL A   1      36.100  34.917  32.824  1.00  0.00     0.010 A 
ATOM     43  C   UNL A   1      36.031  33.596  33.292  1.00  0.00    -0.014 A 
BRANCH  43  44
ATOM     44  C   UNL A   1      37.281  32.861  33.618  1.00  0.00     0.031 A 
ATOM     45  C   UNL A   1      38.035  33.159  34.885  1.00  0.00     0.074 A 
ATOM     46  C   UNL A   1      37.772  31.960  32.743  1.00  0.00     0.049 A 
ATOM     47  N   UNL A   1      39.176  32.671  35.301  1.00  0.00    -0.248 NA
ATOM     48  C   UNL A   1      37.441  34.152  35.795  1.00  0.00     0.031 C 
ATOM     49  C   UNL A   1      37.157  31.605  31.463  1.00  0.00     0.029 A 
ATOM     50  N   UNL A   1      38.904  31.183  32.793  1.00  0.00    -0.354 N 
ATOM     51  C   UNL A   1      39.436  33.297  36.513  1.00  0.00     0.074 A 
ATOM     52  C   UNL A   1      38.366  34.243  36.739  1.00  0.00     0.031 C 
ATOM     53  C   UNL A   1      37.901  30.661  30.864  1.00  0.00     0.029 A 
ATOM     54  C   UNL A   1      39.070  30.377  31.692  1.00  0.00     0.049 A 
ATOM     55  H   UNL A   1      39.536  31.201  33.547  1.00  0.00     0.167 HD
ATOM     56  C   UNL A   1      40.462  33.084  37.371  1.00  0.00     0.037 A 
ATOM     57  C   UNL A   1      40.054  29.513  31.376  1.00  0.00     0.037 A 
ATOM     58  C   UNL A   1      41.515  32.127  37.155  1.00  0.00     0.049 A 
ATOM     59  C   UNL A   1      41.197  29.316  32.332  1.00  0.00     0.074 A 
ATOM     60  C   UNL A   1      42.571  31.809  37.992  1.00  0.00     0.029 A 
ATOM     61  N   UNL A   1      41.648  31.335  36.025  1.00  0.00    -0.354 N 
ATOM     62  N   UNL A   1      41.404  29.880  33.497  1.00  0.00    -0.248 NA
ATOM     63  C   UNL A   1      42.244  28.363  31.935  1.00  0.00     0.031 C 
ATOM     64  C   UNL A   1      43.372  30.865  37.346  1.00  0.00     0.029 A 
ATOM     65  C   UNL A   1      42.784  30.548  36.133  1.00  0.00     0.049 A 
ATOM     66  H   UNL A   1      41.028  31.332  35.259  1.00  0.00     0.167 HD
ATOM     67  C   UNL A   1      42.584  29.333  33.983  1.00  0.00     0.074 A 
ATOM     68  C   UNL A   1      43.044  28.383  32.992  1.00  0.00     0.031 C 
ATOM     69  C   UNL A   1      43.229  29.597  35.146  1.00  0.00     0.037 A 
BRANCH  56  70
ATOM     70  C   UNL A   1      40.496  33.885  38.641  1.00  0.00     0.057 A 
ATOM     71  C   UNL A   1      39.726  33.508  39.748  1.00  0.00     0.134 A 
ATOM     72  C   UNL A   1      41.221  35.081  38.737  1.00  0.00     0.134 A 
ATOM     73  F   UNL A   1      39.000  32.379  39.722  1.00  0.00    -0.206 F 
ATOM     74  C   UNL A   1      39.661  34.298  40.897  1.00  0.00     0.040 A 
ATOM     75  C   UNL A   1      41.187  35.865  39.890  1.00  0.00     0.040 A 
ATOM     76  F   UNL A   1      41.987  35.494  37.716  1.00  0.00    -0.206 F 
ATOM     77  C   UNL A   1      40.396  35.480  40.971  1.00  0.00     0.006 A 
ENDBRANCH  56  70
BRANCH  57  78
ATOM     78  C   UNL A   1      39.985  28.750  30.103  1.00  0.00     0.057 A 
ATOM     79  C   UNL A   1      40.610  29.210  28.937  1.00  0.00     0.134 A 
ATOM     80  C   UNL A   1      39.271  27.549  30.019  1.00  0.00     0.134 A 
ATOM     81  F   UNL A   1      41.304  30.358  28.948  1.00  0.00    -0.206 F 
ATOM     82  C   UNL A   1      40.512  28.515  27.730  1.00  0.00     0.040 A 
ATOM     83  C   UNL A   1      39.188  26.828  28.826  1.00  0.00     0.040 A 
ATOM     84  F   UNL A   1      38.667  27.046  31.104  1.00  0.00    -0.206 F 
ATOM     85  C   UNL A   1      39.803  27.317  27.674  1.00  0.00     0.006 A 
ENDBRANCH  57  78
BRANCH  69  86
ATOM     86  C   UNL A   1      44.489  28.835  35.439  1.00  0.00     0.057 A 
ATOM     87  C   UNL A   1      45.729  29.307  34.984  1.00  0.00     0.134 A 
ATOM     88  C   UNL A   1      44.468  27.595  36.087  1.00  0.00     0.134 A 
ATOM     89  F   UNL A   1      45.817  30.483  34.343  1.00  0.00    -0.206 F 
ATOM     90  C   UNL A   1      46.897  28.563  35.146  1.00  0.00     0.040 A 
ATOM     91  C   UNL A   1      45.636  26.855  36.281  1.00  0.00     0.040 A 
ATOM     92  F   UNL A   1      43.316  27.092  36.555  1.00  0.00    -0.206 F 
ATOM     93  C   UNL A   1      46.852  27.334  35.798  1.00  0.00     0.006 A 
ENDBRANCH  69  86
ENDBRANCH  43  44
ENDBRANCH  35  38
ENDBRANCH  33  34
ENDBRANCH  32  33
ENDBRANCH  31  32
ENDBRANCH   1  31
TORSDOF 16
ENDMDL
MODEL 2
REMARK VINA RESULT:     -12.1      2.017      6.629
REMARK SMILES O=C(COCC(=O)N1CCC([NH+]2CCN(c3ccc(F)cc3)CC2)CC1)NCCCCNC(=O)c1ccc(-c2c3nc(c(-c4c(F)cccc4F)c4ccc([nH]4)c(-c4c(F)cccc4F)c4nc(c(-c5c(F)cccc5F)c5ccc2[nH]5)C=C4)C=C3)cc1
REMARK SMILES IDX 28 1 27 2 1 3 2 4 3 6 4 7 5 8 6 9 7 10 8 11 9 12 26 13 10 14
REMARK SMILES IDX 25 15 11 16 12 17 13 18 24 19 14 21 23 22 15 23 16 24 17 25
REMARK SMILES IDX 22 26 18 27 21 28 19 29 20 30 29 31 30 32 31 33 32 34 33 35
REMARK SMILES IDX 34 37 35 38 36 39 88 40 37 41 87 42 38 43 39 44 40 45 81 46
REMARK SMILES IDX 41 47 86 48 80 49 82 50 42 51 85 52 79 53 78 54 43 56 69 57
REMARK SMILES IDX 52 58 68 59 53 60 56 61 67 62 83 63 54 64 55 65 66 67 84 68
REMARK SMILES IDX 57 69 44 70 45 71 50 72 46 73 47 74 49 75 51 76 48 77 70 78
REMARK SMILES IDX 71 79 76 80 72 81 73 82 75 83 77 84 74 85 58 86 59 87 64 88
REMARK SMILES IDX 60 89 61 90 63 91 65 92 62 93
REMARK H PARENT 27 5 12 20 32 36 82 55 56 66
REMARK Flexibility Score: inf
ROOT
ATOM      1  C   UNL A   1      30.214  31.643  24.963  1.00  0.00     0.116 C 
ENDROOT
BRANCH   1   2
ATOM      2  N   UNL A   1      29.962  30.732  23.864  1.00  0.00    -0.354 N 
ATOM      3  O   UNL A   1      27.711  31.182  23.693  1.00  0.00    -0.272 OA
ATOM      4  C   UNL A   1      28.712  30.593  23.295  1.00  0.00     0.246 C 
ATOM      5  H   UNL A   1      30.707  30.193  23.512  1.00  0.00     0.163 HD
BRANCH   4   6
ATOM      6  C   UNL A   1      28.659  29.576  22.148  1.00  0.00     0.260 C 
BRANCH   6   7
ATOM      7  O   UNL A   1      29.842  28.825  21.913  1.00  0.00    -0.362 OA
BRANCH   7   8
ATOM      8  C   UNL A   1      29.944  27.661  22.711  1.00  0.00     0.260 C 
BRANCH   8   9
ATOM      9  C   UNL A   1      31.269  26.886  22.894  1.00  0.00     0.248 C 
ATOM     10  O   UNL A   1      31.743  26.265  21.938  1.00  0.00    -0.272 OA
ATOM     11  N   UNL A   1      31.959  27.011  24.094  1.00  0.00    -0.340 N 
ATOM     12  C   UNL A   1      33.338  26.552  24.155  1.00  0.00     0.125 C 
ATOM     13  C   UNL A   1      31.332  27.134  25.403  1.00  0.00     0.125 C 
ATOM     14  C   UNL A   1      33.374  25.135  24.708  1.00  0.00     0.086 C 
ATOM     15  C   UNL A   1      31.290  25.752  26.068  1.00  0.00     0.086 C 
ATOM     16  C   UNL A   1      32.680  25.048  26.079  1.00  0.00     0.187 C 
BRANCH  16  17
ATOM     17  N   UNL A   1      32.558  23.694  26.650  1.00  0.00    -0.329 N 
ATOM     18  C   UNL A   1      31.531  22.810  26.057  1.00  0.00     0.284 C 
ATOM     19  C   UNL A   1      33.829  22.951  26.819  1.00  0.00     0.284 C 
ATOM     20  H   UNL A   1      32.219  23.943  27.578  1.00  0.00     0.348 HD
ATOM     21  C   UNL A   1      31.950  21.959  24.839  1.00  0.00     0.178 C 
ATOM     22  C   UNL A   1      34.304  22.041  25.652  1.00  0.00     0.178 C 
ATOM     23  N   UNL A   1      33.191  21.249  25.130  1.00  0.00    -0.360 N 
BRANCH  23  24
ATOM     24  C   UNL A   1      33.407  20.041  24.500  1.00  0.00     0.037 A 
ATOM     25  C   UNL A   1      34.565  19.313  24.802  1.00  0.00     0.029 A 
ATOM     26  C   UNL A   1      32.448  19.452  23.661  1.00  0.00     0.029 A 
ATOM     27  C   UNL A   1      34.730  18.005  24.344  1.00  0.00     0.041 A 
ATOM     28  C   UNL A   1      32.617  18.150  23.185  1.00  0.00     0.041 A 
ATOM     29  C   UNL A   1      33.748  17.433  23.547  1.00  0.00     0.123 A 
ATOM     30  F   UNL A   1      33.886  16.165  23.138  1.00  0.00    -0.207 F 
ENDBRANCH  23  24
ENDBRANCH  16  17
ENDBRANCH   8   9
ENDBRANCH   7   8
ENDBRANCH   6   7
ENDBRANCH   4   6
ENDBRANCH   1   2
BRANCH   1  31
ATOM     31  C   UNL A   1      31.341  31.166  25.877  1.00  0.00     0.023 C 
BRANCH  31  32
ATOM     32  C   UNL A   1      31.515  31.971  27.166  1.00  0.00     0.023 C 
BRANCH  32  33
ATOM     33  C   UNL A   1      32.750  32.865  27.222  1.00  0.00     0.116 C 
BRANCH  33  34
ATOM     34  N   UNL A   1      32.448  34.234  27.609  1.00  0.00    -0.352 N 
ATOM     35  C   UNL A   1      33.019  35.017  28.585  1.00  0.00     0.251 C 
ATOM     36  H   UNL A   1      31.726  34.664  27.096  1.00  0.00     0.163 HD
ATOM     37  O   UNL A   1      32.534  36.109  28.856  1.00  0.00    -0.269 OA
BRANCH  35  38
ATOM     38  C   UNL A   1      34.201  34.534  29.335  1.00  0.00     0.039 A 
ATOM     39  C   UNL A   1      34.004  33.920  30.576  1.00  0.00     0.014 A 
ATOM     40  C   UNL A   1      35.495  34.683  28.830  1.00  0.00     0.014 A 
ATOM     41  C   UNL A   1      35.095  33.392  31.272  1.00  0.00     0.010 A 
ATOM     42  C   UNL A   1      36.571  34.090  29.488  1.00  0.00     0.010 A 
ATOM     43  C   UNL A   1      36.382  33.434  30.714  1.00  0.00    -0.014 A 
BRANCH  43  44
ATOM     44  C   UNL A   1      37.536  32.783  31.388  1.00  0.00     0.031 A 
ATOM     45  C   UNL A   1      38.200  31.580  30.777  1.00  0.00     0.074 A 
ATOM     46  C   UNL A   1      37.954  33.242  32.585  1.00  0.00     0.049 A 
ATOM     47  N   UNL A   1      39.169  30.840  31.253  1.00  0.00    -0.248 NA
ATOM     48  C   UNL A   1      37.694  31.133  29.469  1.00  0.00     0.031 C 
ATOM     49  C   UNL A   1      37.374  34.378  33.303  1.00  0.00     0.029 A 
ATOM     50  N   UNL A   1      38.960  32.807  33.413  1.00  0.00    -0.354 N 
ATOM     51  C   UNL A   1      39.386  29.846  30.309  1.00  0.00     0.074 A 
ATOM     52  C   UNL A   1      38.409  30.038  29.259  1.00  0.00     0.031 C 
ATOM     53  C   UNL A   1      38.051  34.568  34.447  1.00  0.00     0.029 A 
ATOM     54  C   UNL A   1      39.081  33.542  34.569  1.00  0.00     0.049 A 
ATOM     55  H   UNL A   1      39.540  32.042  33.199  1.00  0.00     0.167 HD
ATOM     56  C   UNL A   1      40.330  28.875  30.305  1.00  0.00     0.037 A 
ATOM     57  C   UNL A   1      39.919  33.402  35.615  1.00  0.00     0.037 A 
ATOM     58  C   UNL A   1      41.315  28.697  31.339  1.00  0.00     0.049 A 
ATOM     59  C   UNL A   1      40.939  32.298  35.600  1.00  0.00     0.074 A 
ATOM     60  C   UNL A   1      42.341  27.769  31.397  1.00  0.00     0.029 A 
ATOM     61  N   UNL A   1      41.399  29.460  32.494  1.00  0.00    -0.354 N 
ATOM     62  N   UNL A   1      41.163  31.394  34.678  1.00  0.00    -0.248 NA
ATOM     63  C   UNL A   1      41.825  32.192  36.769  1.00  0.00     0.031 C 
ATOM     64  C   UNL A   1      43.012  27.935  32.612  1.00  0.00     0.029 A 
ATOM     65  C   UNL A   1      42.445  29.005  33.283  1.00  0.00     0.049 A 
ATOM     66  H   UNL A   1      40.806  30.212  32.721  1.00  0.00     0.167 HD
ATOM     67  C   UNL A   1      42.228  30.632  35.139  1.00  0.00     0.074 A 
ATOM     68  C   UNL A   1      42.614  31.186  36.420  1.00  0.00     0.031 C 
ATOM     69  C   UNL A   1      42.829  29.569  34.552  1.00  0.00     0.037 A 
BRANCH  56  70
ATOM     70  C   UNL A   1      40.364  27.930  29.138  1.00  0.00     0.057 A 
ATOM     71  C   UNL A   1      41.135  28.219  28.005  1.00  0.00     0.134 A 
ATOM     72  C   UNL A   1      39.565  26.780  29.099  1.00  0.00     0.134 A 
ATOM     73  F   UNL A   1      41.917  29.309  27.971  1.00  0.00    -0.206 F 
ATOM     74  C   UNL A   1      41.096  27.408  26.869  1.00  0.00     0.040 A 
ATOM     75  C   UNL A   1      39.539  25.946  27.981  1.00  0.00     0.040 A 
ATOM     76  F   UNL A   1      38.811  26.441  30.156  1.00  0.00    -0.206 F 
ATOM     77  C   UNL A   1      40.296  26.267  26.856  1.00  0.00     0.006 A 
ENDBRANCH  56  70
BRANCH  57  78
ATOM     78  C   UNL A   1      39.840  34.353  36.754  1.00  0.00     0.057 A 
ATOM     79  C   UNL A   1      39.100  34.059  37.906  1.00  0.00     0.134 A 
ATOM     80  C   UNL A   1      40.491  35.592  36.706  1.00  0.00     0.134 A 
ATOM     81  F   UNL A   1      38.447  32.891  38.013  1.00  0.00    -0.206 F 
ATOM     82  C   UNL A   1      38.993  34.968  38.960  1.00  0.00     0.040 A 
ATOM     83  C   UNL A   1      40.415  36.500  37.764  1.00  0.00     0.040 A 
ATOM     84  F   UNL A   1      41.231  35.925  35.639  1.00  0.00    -0.206 F 
ATOM     85  C   UNL A   1      39.656  36.191  38.892  1.00  0.00     0.006 A 
ENDBRANCH  57  78
BRANCH  69  86
ATOM     86  C   UNL A   1      43.990  28.937  35.265  1.00  0.00     0.057 A 
ATOM     87  C   UNL A   1      45.304  29.333  34.975  1.00  0.00     0.134 A 
ATOM     88  C   UNL A   1      43.818  27.880  36.165  1.00  0.00     0.134 A 
ATOM     89  F   UNL A   1      45.540  30.332  34.111  1.00  0.00    -0.206 F 
ATOM     90  C   UNL A   1      46.403  28.686  35.540  1.00  0.00     0.040 A 
ATOM     91  C   UNL A   1      44.909  27.243  36.759  1.00  0.00     0.040 A 
ATOM     92  F   UNL A   1      42.587  27.459  36.492  1.00  0.00    -0.206 F 
ATOM     93  C   UNL A   1      46.207  27.639  36.436  1.00  0.00     0.006 A 
ENDBRANCH  69  86
ENDBRANCH  43  44
ENDBRANCH  35  38
ENDBRANCH  33  34
ENDBRANCH  32  33
ENDBRANCH  31  32
ENDBRANCH   1  31
TORSDOF 16
ENDMDL
MODEL 3
REMARK VINA RESULT:     -12.0      5.073      9.150
REMARK SMILES O=C(COCC(=O)N1CCC([NH+]2CCN(c3ccc(F)cc3)CC2)CC1)NCCCCNC(=O)c1ccc(-c2c3nc(c(-c4c(F)cccc4F)c4ccc([nH]4)c(-c4c(F)cccc4F)c4nc(c(-c5c(F)cccc5F)c5ccc2[nH]5)C=C4)C=C3)cc1
REMARK SMILES IDX 28 1 27 2 1 3 2 4 3 6 4 7 5 8 6 9 7 10 8 11 9 12 26 13 10 14
REMARK SMILES IDX 25 15 11 16 12 17 13 18 24 19 14 21 23 22 15 23 16 24 17 25
REMARK SMILES IDX 22 26 18 27 21 28 19 29 20 30 29 31 30 32 31 33 32 34 33 35
REMARK SMILES IDX 34 37 35 38 36 39 88 40 37 41 87 42 38 43 39 44 40 45 81 46
REMARK SMILES IDX 41 47 86 48 80 49 82 50 42 51 85 52 79 53 78 54 43 56 69 57
REMARK SMILES IDX 52 58 68 59 53 60 56 61 67 62 83 63 54 64 55 65 66 67 84 68
REMARK SMILES IDX 57 69 44 70 45 71 50 72 46 73 47 74 49 75 51 76 48 77 70 78
REMARK SMILES IDX 71 79 76 80 72 81 73 82 75 83 77 84 74 85 58 86 59 87 64 88
REMARK SMILES IDX 60 89 61 90 63 91 65 92 62 93
REMARK H PARENT 27 5 12 20 32 36 82 55 56 66
REMARK Flexibility Score: inf
ROOT
ATOM      1  C   UNL A   1      33.513  35.584  29.261  1.00  0.00     0.116 C 
ENDROOT
BRANCH   1   2
ATOM      2  N   UNL A   1      33.843  36.028  30.600  1.00  0.00    -0.354 N 
ATOM      3  O   UNL A   1      31.677  36.454  31.251  1.00  0.00    -0.272 OA
ATOM      4  C   UNL A   1      32.876  36.410  31.507  1.00  0.00     0.246 C 
ATOM      5  H   UNL A   1      34.788  36.059  30.871  1.00  0.00     0.163 HD
BRANCH   4   6
ATOM      6  C   UNL A   1      33.436  36.849  32.867  1.00  0.00     0.260 C 
BRANCH   6   7
ATOM      7  O   UNL A   1      34.776  36.474  33.149  1.00  0.00    -0.362 OA
BRANCH   7   8
ATOM      8  C   UNL A   1      34.902  35.169  33.682  1.00  0.00     0.260 C 
BRANCH   8   9
ATOM      9  C   UNL A   1      35.330  33.954  32.826  1.00  0.00     0.248 C 
ATOM     10  O   UNL A   1      34.468  33.305  32.226  1.00  0.00    -0.272 OA
ATOM     11  N   UNL A   1      36.685  33.699  32.654  1.00  0.00    -0.340 N 
ATOM     12  C   UNL A   1      37.090  32.770  31.610  1.00  0.00     0.125 C 
ATOM     13  C   UNL A   1      37.705  33.905  33.673  1.00  0.00     0.125 C 
ATOM     14  C   UNL A   1      37.283  31.386  32.214  1.00  0.00     0.086 C 
ATOM     15  C   UNL A   1      37.982  32.571  34.378  1.00  0.00     0.086 C 
ATOM     16  C   UNL A   1      38.290  31.416  33.378  1.00  0.00     0.187 C 
BRANCH  16  17
ATOM     17  N   UNL A   1      38.462  30.146  34.107  1.00  0.00    -0.329 N 
ATOM     18  C   UNL A   1      38.614  28.923  33.290  1.00  0.00     0.284 C 
ATOM     19  C   UNL A   1      39.470  30.159  35.193  1.00  0.00     0.284 C 
ATOM     20  H   UNL A   1      37.541  30.086  34.540  1.00  0.00     0.348 HD
ATOM     21  C   UNL A   1      40.045  28.543  32.849  1.00  0.00     0.178 C 
ATOM     22  C   UNL A   1      40.928  29.753  34.840  1.00  0.00     0.178 C 
ATOM     23  N   UNL A   1      40.941  28.556  34.000  1.00  0.00    -0.360 N 
BRANCH  23  24
ATOM     24  C   UNL A   1      42.029  27.709  33.981  1.00  0.00     0.037 A 
ATOM     25  C   UNL A   1      42.048  26.605  34.845  1.00  0.00     0.029 A 
ATOM     26  C   UNL A   1      43.061  27.837  33.039  1.00  0.00     0.029 A 
ATOM     27  C   UNL A   1      43.026  25.618  34.726  1.00  0.00     0.041 A 
ATOM     28  C   UNL A   1      44.054  26.860  32.927  1.00  0.00     0.041 A 
ATOM     29  C   UNL A   1      44.015  25.750  33.759  1.00  0.00     0.123 A 
ATOM     30  F   UNL A   1      44.932  24.784  33.616  1.00  0.00    -0.207 F 
ENDBRANCH  23  24
ENDBRANCH  16  17
ENDBRANCH   8   9
ENDBRANCH   7   8
ENDBRANCH   6   7
ENDBRANCH   4   6
ENDBRANCH   1   2
BRANCH   1  31
ATOM     31  C   UNL A   1      34.748  35.399  28.380  1.00  0.00     0.023 C 
BRANCH  31  32
ATOM     32  C   UNL A   1      34.911  34.002  27.777  1.00  0.00     0.023 C 
BRANCH  32  33
ATOM     33  C   UNL A   1      34.866  32.847  28.772  1.00  0.00     0.116 C 
BRANCH  33  34
ATOM     34  N   UNL A   1      34.010  31.753  28.340  1.00  0.00    -0.352 N 
ATOM     35  C   UNL A   1      34.335  30.452  28.032  1.00  0.00     0.251 C 
ATOM     36  H   UNL A   1      33.055  31.977  28.255  1.00  0.00     0.163 HD
ATOM     37  O   UNL A   1      33.489  29.707  27.552  1.00  0.00    -0.269 OA
BRANCH  35  38
ATOM     38  C   UNL A   1      35.713  29.955  28.247  1.00  0.00     0.039 A 
ATOM     39  C   UNL A   1      36.641  30.078  27.209  1.00  0.00     0.014 A 
ATOM     40  C   UNL A   1      36.095  29.368  29.456  1.00  0.00     0.014 A 
ATOM     41  C   UNL A   1      37.966  29.682  27.410  1.00  0.00     0.010 A 
ATOM     42  C   UNL A   1      37.432  29.044  29.681  1.00  0.00     0.010 A 
ATOM     43  C   UNL A   1      38.383  29.201  28.662  1.00  0.00    -0.014 A 
BRANCH  43  44
ATOM     44  C   UNL A   1      39.809  28.877  28.927  1.00  0.00     0.031 A 
ATOM     45  C   UNL A   1      40.718  29.889  29.569  1.00  0.00     0.074 A 
ATOM     46  C   UNL A   1      40.305  27.685  28.537  1.00  0.00     0.049 A 
ATOM     47  N   UNL A   1      42.001  29.809  29.813  1.00  0.00    -0.248 NA
ATOM     48  C   UNL A   1      40.110  31.168  29.971  1.00  0.00     0.031 C 
ATOM     49  C   UNL A   1      39.539  26.628  27.872  1.00  0.00     0.029 A 
ATOM     50  N   UNL A   1      41.571  27.161  28.637  1.00  0.00    -0.354 N 
ATOM     51  C   UNL A   1      42.352  31.022  30.390  1.00  0.00     0.074 A 
ATOM     52  C   UNL A   1      41.162  31.844  30.408  1.00  0.00     0.031 C 
ATOM     53  C   UNL A   1      40.343  25.575  27.651  1.00  0.00     0.029 A 
ATOM     54  C   UNL A   1      41.690  25.896  28.113  1.00  0.00     0.049 A 
ATOM     55  H   UNL A   1      42.323  27.647  29.046  1.00  0.00     0.167 HD
ATOM     56  C   UNL A   1      43.553  31.407  30.884  1.00  0.00     0.037 A 
ATOM     57  C   UNL A   1      42.761  25.086  28.007  1.00  0.00     0.037 A 
ATOM     58  C   UNL A   1      44.732  30.581  30.885  1.00  0.00     0.049 A 
ATOM     59  C   UNL A   1      44.090  25.548  28.537  1.00  0.00     0.074 A 
ATOM     60  C   UNL A   1      45.982  30.870  31.407  1.00  0.00     0.029 A 
ATOM     61  N   UNL A   1      44.810  29.308  30.341  1.00  0.00    -0.354 N 
ATOM     62  N   UNL A   1      44.395  26.679  29.124  1.00  0.00    -0.248 NA
ATOM     63  C   UNL A   1      45.224  24.623  28.392  1.00  0.00     0.031 C 
ATOM     64  C   UNL A   1      46.830  29.794  31.130  1.00  0.00     0.029 A 
ATOM     65  C   UNL A   1      46.094  28.809  30.492  1.00  0.00     0.049 A 
ATOM     66  H   UNL A   1      44.064  28.829  29.912  1.00  0.00     0.167 HD
ATOM     67  C   UNL A   1      45.744  26.593  29.442  1.00  0.00     0.074 A 
ATOM     68  C   UNL A   1      46.197  25.293  28.993  1.00  0.00     0.031 C 
ATOM     69  C   UNL A   1      46.534  27.510  30.051  1.00  0.00     0.037 A 
BRANCH  56  70
ATOM     70  C   UNL A   1      43.661  32.779  31.486  1.00  0.00     0.057 A 
ATOM     71  C   UNL A   1      43.373  32.993  32.839  1.00  0.00     0.134 A 
ATOM     72  C   UNL A   1      43.962  33.902  30.705  1.00  0.00     0.134 A 
ATOM     73  F   UNL A   1      43.068  31.962  33.643  1.00  0.00    -0.206 F 
ATOM     74  C   UNL A   1      43.362  34.275  33.391  1.00  0.00     0.040 A 
ATOM     75  C   UNL A   1      43.983  35.186  31.250  1.00  0.00     0.040 A 
ATOM     76  F   UNL A   1      44.258  33.766  29.403  1.00  0.00    -0.206 F 
ATOM     77  C   UNL A   1      43.670  35.377  32.595  1.00  0.00     0.006 A 
ENDBRANCH  56  70
BRANCH  57  78
ATOM     78  C   UNL A   1      42.610  23.741  27.394  1.00  0.00     0.057 A 
ATOM     79  C   UNL A   1      42.378  22.600  28.173  1.00  0.00     0.134 A 
ATOM     80  C   UNL A   1      42.714  23.564  26.008  1.00  0.00     0.134 A 
ATOM     81  F   UNL A   1      42.275  22.700  29.507  1.00  0.00    -0.206 F 
ATOM     82  C   UNL A   1      42.276  21.331  27.600  1.00  0.00     0.040 A 
ATOM     83  C   UNL A   1      42.585  22.304  25.420  1.00  0.00     0.040 A 
ATOM     84  F   UNL A   1      42.915  24.619  25.207  1.00  0.00    -0.206 F 
ATOM     85  C   UNL A   1      42.374  21.182  26.219  1.00  0.00     0.006 A 
ENDBRANCH  57  78
BRANCH  69  86
ATOM     86  C   UNL A   1      47.970  27.146  30.300  1.00  0.00     0.057 A 
ATOM     87  C   UNL A   1      48.952  27.422  29.339  1.00  0.00     0.134 A 
ATOM     88  C   UNL A   1      48.365  26.443  31.444  1.00  0.00     0.134 A 
ATOM     89  F   UNL A   1      48.638  28.081  28.213  1.00  0.00    -0.206 F 
ATOM     90  C   UNL A   1      50.270  26.994  29.497  1.00  0.00     0.040 A 
ATOM     91  C   UNL A   1      49.687  26.035  31.629  1.00  0.00     0.040 A 
ATOM     92  F   UNL A   1      47.476  26.156  32.407  1.00  0.00    -0.206 F 
ATOM     93  C   UNL A   1      50.641  26.300  30.647  1.00  0.00     0.006 A 
ENDBRANCH  69  86
ENDBRANCH  43  44
ENDBRANCH  35  38
ENDBRANCH  33  34
ENDBRANCH  32  33
ENDBRANCH  31  32
ENDBRANCH   1  31
TORSDOF 16
ENDMDL
