MODEL 1
REMARK VINA RESULT:     -12.6      0.000      0.000
REMARK SMILES CC(C)N1C[C@@]2(CCCN(c3ccc(C(=O)NCCCCNC(=O)c4ccc(-c5c6nc(c(-c7c(F)cccc7F)c7ccc([nH]7)c(-c7c(F)cccc7F)c7nc(c(-c8c(F)cccc8F)c8ccc5[nH]8)C=C7)C=C6)cc4)cn3)C2)CCC1=O
REMARK SMILES IDX 19 1 18 2 17 3 15 4 16 5 14 7 11 8 12 9 80 10 13 11 79 12
REMARK SMILES IDX 10 13 4 14 5 15 84 16 6 17 83 18 85 19 7 20 81 21 82 22 8 23
REMARK SMILES IDX 9 24 2 25 1 26 3 27 20 28 21 29 22 30 23 31 24 33 25 34
REMARK SMILES IDX 26 35 78 36 27 37 77 38 28 39 29 40 30 41 71 42 31 43 76 44
REMARK SMILES IDX 70 45 72 46 32 47 75 48 69 49 68 50 33 52 59 53 42 54 58 55
REMARK SMILES IDX 43 56 46 57 57 58 73 59 44 60 45 61 56 63 74 64 47 65 34 66
REMARK SMILES IDX 35 67 40 68 36 69 37 70 39 71 41 72 38 73 60 74 61 75 66 76
REMARK SMILES IDX 62 77 63 78 65 79 67 80 64 81 48 82 49 83 54 84 50 85 51 86
REMARK SMILES IDX 53 87 55 88 52 89
REMARK H PARENT 17 6 22 32 72 51 46 62
REMARK Flexibility Score: inf
ROOT
ATOM      1  C   UNL A   1      40.362  21.482  27.054  1.00  0.00     0.023 C 
ENDROOT
BRANCH   1   2
ATOM      2  C   UNL A   1      39.167  22.311  26.589  1.00  0.00     0.116 C 
BRANCH   2   3
ATOM      3  N   UNL A   1      38.730  22.000  25.235  1.00  0.00    -0.352 N 
ATOM      4  C   UNL A   1      37.459  22.088  24.704  1.00  0.00     0.252 C 
ATOM      5  O   UNL A   1      37.223  21.745  23.556  1.00  0.00    -0.269 OA
ATOM      6  H   UNL A   1      39.432  21.687  24.619  1.00  0.00     0.163 HD
BRANCH   4   7
ATOM      7  C   UNL A   1      36.370  22.547  25.575  1.00  0.00     0.058 A 
ATOM      8  C   UNL A   1      33.986  23.534  26.550  1.00  0.00     0.128 A 
ATOM      9  C   UNL A   1      34.290  22.177  26.699  1.00  0.00     0.048 A 
ATOM     10  N   UNL A   1      34.942  24.392  26.122  1.00  0.00    -0.239 NA
ATOM     11  C   UNL A   1      35.484  21.670  26.183  1.00  0.00     0.019 A 
ATOM     12  C   UNL A   1      36.112  23.897  25.652  1.00  0.00     0.127 A 
BRANCH   8  13
ATOM     13  N   UNL A   1      32.692  24.022  26.665  1.00  0.00    -0.356 N 
ATOM     14  N   UNL A   1      32.123  26.570  23.026  1.00  0.00    -0.340 N 
ATOM     15  C   UNL A   1      31.126  25.635  23.553  1.00  0.00     0.128 C 
ATOM     16  C   UNL A   1      33.271  26.059  22.425  1.00  0.00     0.222 C 
ATOM     17  C   UNL A   1      31.712  24.510  24.425  1.00  0.00     0.006 C 
ATOM     18  C   UNL A   1      33.783  24.743  22.971  1.00  0.00     0.101 C 
ATOM     19  O   UNL A   1      33.951  26.647  21.585  1.00  0.00    -0.275 OA
ATOM     20  C   UNL A   1      30.564  23.529  24.806  1.00  0.00     0.012 C 
ATOM     21  C   UNL A   1      32.322  25.106  25.734  1.00  0.00     0.127 C 
ATOM     22  C   UNL A   1      32.731  23.796  23.518  1.00  0.00     0.020 C 
ATOM     23  C   UNL A   1      30.945  22.515  25.892  1.00  0.00     0.022 C 
ATOM     24  C   UNL A   1      31.568  23.207  27.105  1.00  0.00     0.118 C 
BRANCH  14  25
ATOM     25  C   UNL A   1      31.693  27.984  22.887  1.00  0.00     0.078 C 
ATOM     26  C   UNL A   1      30.238  28.046  22.396  1.00  0.00     0.031 C 
ATOM     27  C   UNL A   1      31.800  28.871  24.131  1.00  0.00     0.031 C 
ENDBRANCH  14  25
ENDBRANCH   8  13
ENDBRANCH   4   7
ENDBRANCH   2   3
ENDBRANCH   1   2
BRANCH   1  28
ATOM     28  C   UNL A   1      41.553  21.441  26.099  1.00  0.00     0.023 C 
BRANCH  28  29
ATOM     29  C   UNL A   1      42.854  22.030  26.634  1.00  0.00     0.116 C 
BRANCH  29  30
ATOM     30  N   UNL A   1      43.658  22.689  25.614  1.00  0.00    -0.352 N 
ATOM     31  C   UNL A   1      43.861  24.033  25.396  1.00  0.00     0.251 C 
ATOM     32  H   UNL A   1      44.124  22.086  24.992  1.00  0.00     0.163 HD
ATOM     33  O   UNL A   1      44.507  24.408  24.422  1.00  0.00    -0.269 OA
BRANCH  31  34
ATOM     34  C   UNL A   1      43.262  25.032  26.311  1.00  0.00     0.039 A 
ATOM     35  C   UNL A   1      42.136  24.671  27.057  1.00  0.00     0.014 A 
ATOM     36  C   UNL A   1      43.822  26.302  26.460  1.00  0.00     0.014 A 
ATOM     37  C   UNL A   1      41.634  25.546  28.023  1.00  0.00     0.010 A 
ATOM     38  C   UNL A   1      43.365  27.146  27.470  1.00  0.00     0.010 A 
ATOM     39  C   UNL A   1      42.277  26.769  28.273  1.00  0.00    -0.014 A 
BRANCH  39  40
ATOM     40  C   UNL A   1      41.856  27.647  29.395  1.00  0.00     0.031 A 
ATOM     41  C   UNL A   1      42.552  27.575  30.725  1.00  0.00     0.074 A 
ATOM     42  C   UNL A   1      40.786  28.454  29.242  1.00  0.00     0.049 A 
ATOM     43  N   UNL A   1      42.270  28.199  31.841  1.00  0.00    -0.248 NA
ATOM     44  C   UNL A   1      43.699  26.658  30.822  1.00  0.00     0.031 C 
ATOM     45  C   UNL A   1      39.985  28.577  28.022  1.00  0.00     0.029 A 
ATOM     46  N   UNL A   1      40.179  29.311  30.125  1.00  0.00    -0.354 N 
ATOM     47  C   UNL A   1      43.188  27.738  32.774  1.00  0.00     0.074 A 
ATOM     48  C   UNL A   1      44.010  26.751  32.107  1.00  0.00     0.031 C 
ATOM     49  C   UNL A   1      39.006  29.472  28.227  1.00  0.00     0.029 A 
ATOM     50  C   UNL A   1      39.088  29.962  29.600  1.00  0.00     0.049 A 
ATOM     51  H   UNL A   1      40.495  29.449  31.047  1.00  0.00     0.167 HD
ATOM     52  C   UNL A   1      43.346  28.116  34.066  1.00  0.00     0.037 A 
ATOM     53  C   UNL A   1      38.244  30.848  30.161  1.00  0.00     0.037 A 
ATOM     54  C   UNL A   1      42.552  29.122  34.722  1.00  0.00     0.049 A 
ATOM     55  C   UNL A   1      38.450  31.264  31.590  1.00  0.00     0.074 A 
ATOM     56  C   UNL A   1      42.687  29.622  36.006  1.00  0.00     0.029 A 
ATOM     57  N   UNL A   1      41.477  29.779  34.145  1.00  0.00    -0.354 N 
ATOM     58  N   UNL A   1      39.368  30.870  32.440  1.00  0.00    -0.248 NA
ATOM     59  C   UNL A   1      37.507  32.250  32.138  1.00  0.00     0.031 C 
ATOM     60  C   UNL A   1      41.672  30.563  36.216  1.00  0.00     0.029 A 
ATOM     61  C   UNL A   1      40.929  30.671  35.052  1.00  0.00     0.049 A 
ATOM     62  H   UNL A   1      41.152  29.634  33.228  1.00  0.00     0.167 HD
ATOM     63  C   UNL A   1      39.129  31.576  33.610  1.00  0.00     0.074 A 
ATOM     64  C   UNL A   1      37.986  32.430  33.360  1.00  0.00     0.031 C 
ATOM     65  C   UNL A   1      39.798  31.522  34.787  1.00  0.00     0.037 A 
BRANCH  52  66
ATOM     66  C   UNL A   1      44.429  27.444  34.854  1.00  0.00     0.057 A 
ATOM     67  C   UNL A   1      44.194  26.260  35.565  1.00  0.00     0.134 A 
ATOM     68  C   UNL A   1      45.729  27.964  34.874  1.00  0.00     0.134 A 
ATOM     69  F   UNL A   1      42.967  25.718  35.595  1.00  0.00    -0.206 F 
ATOM     70  C   UNL A   1      45.209  25.629  36.287  1.00  0.00     0.040 A 
ATOM     71  C   UNL A   1      46.757  27.330  35.572  1.00  0.00     0.040 A 
ATOM     72  F   UNL A   1      46.022  29.092  34.209  1.00  0.00    -0.206 F 
ATOM     73  C   UNL A   1      46.497  26.161  36.286  1.00  0.00     0.006 A 
ENDBRANCH  52  66
BRANCH  53  74
ATOM     74  C   UNL A   1      37.137  31.426  29.361  1.00  0.00     0.057 A 
ATOM     75  C   UNL A   1      37.238  32.715  28.823  1.00  0.00     0.134 A 
ATOM     76  C   UNL A   1      35.959  30.712  29.117  1.00  0.00     0.134 A 
ATOM     77  F   UNL A   1      38.336  33.452  29.042  1.00  0.00    -0.206 F 
ATOM     78  C   UNL A   1      36.199  33.280  28.083  1.00  0.00     0.040 A 
ATOM     79  C   UNL A   1      34.920  31.257  28.360  1.00  0.00     0.040 A 
ATOM     80  F   UNL A   1      35.806  29.471  29.600  1.00  0.00    -0.206 F 
ATOM     81  C   UNL A   1      35.037  32.548  27.847  1.00  0.00     0.006 A 
ENDBRANCH  53  74
BRANCH  65  82
ATOM     82  C   UNL A   1      39.332  32.431  35.884  1.00  0.00     0.057 A 
ATOM     83  C   UNL A   1      39.832  33.730  36.027  1.00  0.00     0.134 A 
ATOM     84  C   UNL A   1      38.340  32.014  36.780  1.00  0.00     0.134 A 
ATOM     85  F   UNL A   1      40.795  34.181  35.208  1.00  0.00    -0.206 F 
ATOM     86  C   UNL A   1      39.373  34.580  37.033  1.00  0.00     0.040 A 
ATOM     87  C   UNL A   1      37.856  32.861  37.778  1.00  0.00     0.040 A 
ATOM     88  F   UNL A   1      37.815  30.782  36.692  1.00  0.00    -0.206 F 
ATOM     89  C   UNL A   1      38.376  34.148  37.908  1.00  0.00     0.006 A 
ENDBRANCH  65  82
ENDBRANCH  39  40
ENDBRANCH  31  34
ENDBRANCH  29  30
ENDBRANCH  28  29
ENDBRANCH   1  28
TORSDOF 13
ENDMDL
MODEL 2
REMARK VINA RESULT:     -12.5      3.809      7.637
REMARK SMILES CC(C)N1C[C@@]2(CCCN(c3ccc(C(=O)NCCCCNC(=O)c4ccc(-c5c6nc(c(-c7c(F)cccc7F)c7ccc([nH]7)c(-c7c(F)cccc7F)c7nc(c(-c8c(F)cccc8F)c8ccc5[nH]8)C=C7)C=C6)cc4)cn3)C2)CCC1=O
REMARK SMILES IDX 19 1 18 2 17 3 15 4 16 5 14 7 11 8 12 9 80 10 13 11 79 12
REMARK SMILES IDX 10 13 4 14 5 15 84 16 6 17 83 18 85 19 7 20 81 21 82 22 8 23
REMARK SMILES IDX 9 24 2 25 1 26 3 27 20 28 21 29 22 30 23 31 24 33 25 34
REMARK SMILES IDX 26 35 78 36 27 37 77 38 28 39 29 40 30 41 71 42 31 43 76 44
REMARK SMILES IDX 70 45 72 46 32 47 75 48 69 49 68 50 33 52 59 53 42 54 58 55
REMARK SMILES IDX 43 56 46 57 57 58 73 59 44 60 45 61 56 63 74 64 47 65 34 66
REMARK SMILES IDX 35 67 40 68 36 69 37 70 39 71 41 72 38 73 60 74 61 75 66 76
REMARK SMILES IDX 62 77 63 78 65 79 67 80 64 81 48 82 49 83 54 84 50 85 51 86
REMARK SMILES IDX 53 87 55 88 52 89
REMARK H PARENT 17 6 22 32 72 51 46 62
REMARK Flexibility Score: inf
ROOT
ATOM      1  C   UNL A   1      36.013  20.439  24.974  1.00  0.00     0.023 C 
ENDROOT
BRANCH   1   2
ATOM      2  C   UNL A   1      35.083  21.327  25.799  1.00  0.00     0.116 C 
BRANCH   2   3
ATOM      3  N   UNL A   1      33.693  21.280  25.367  1.00  0.00    -0.352 N 
ATOM      4  C   UNL A   1      32.930  22.297  24.827  1.00  0.00     0.252 C 
ATOM      5  O   UNL A   1      31.752  22.131  24.553  1.00  0.00    -0.269 OA
ATOM      6  H   UNL A   1      33.240  20.413  25.474  1.00  0.00     0.163 HD
BRANCH   4   7
ATOM      7  C   UNL A   1      33.552  23.613  24.645  1.00  0.00     0.058 A 
ATOM      8  C   UNL A   1      34.001  26.315  24.311  1.00  0.00     0.128 A 
ATOM      9  C   UNL A   1      34.336  25.698  25.521  1.00  0.00     0.048 A 
ATOM     10  N   UNL A   1      33.658  25.555  23.245  1.00  0.00    -0.239 NA
ATOM     11  C   UNL A   1      34.086  24.336  25.701  1.00  0.00     0.019 A 
ATOM     12  C   UNL A   1      33.447  24.229  23.417  1.00  0.00     0.127 A 
BRANCH   8  13
ATOM     13  N   UNL A   1      33.844  27.688  24.197  1.00  0.00    -0.356 N 
ATOM     14  N   UNL A   1      29.456  28.266  23.512  1.00  0.00    -0.340 N 
ATOM     15  C   UNL A   1      30.275  29.085  24.409  1.00  0.00     0.128 C 
ATOM     16  C   UNL A   1      29.174  26.950  23.873  1.00  0.00     0.222 C 
ATOM     17  C   UNL A   1      31.559  28.394  24.901  1.00  0.00     0.006 C 
ATOM     18  C   UNL A   1      30.237  26.235  24.679  1.00  0.00     0.101 C 
ATOM     19  O   UNL A   1      28.199  26.306  23.490  1.00  0.00    -0.275 OA
ATOM     20  C   UNL A   1      32.256  29.325  25.937  1.00  0.00     0.012 C 
ATOM     21  C   UNL A   1      32.533  28.153  23.704  1.00  0.00     0.127 C 
ATOM     22  C   UNL A   1      31.076  27.108  25.595  1.00  0.00     0.020 C 
ATOM     23  C   UNL A   1      33.681  28.891  26.306  1.00  0.00     0.022 C 
ATOM     24  C   UNL A   1      34.528  28.644  25.058  1.00  0.00     0.118 C 
BRANCH  14  25
ATOM     25  C   UNL A   1      28.726  28.989  22.440  1.00  0.00     0.078 C 
ATOM     26  C   UNL A   1      27.433  29.599  23.002  1.00  0.00     0.031 C 
ATOM     27  C   UNL A   1      29.483  30.102  21.709  1.00  0.00     0.031 C 
ENDBRANCH  14  25
ENDBRANCH   8  13
ENDBRANCH   4   7
ENDBRANCH   2   3
ENDBRANCH   1   2
BRANCH   1  28
ATOM     28  C   UNL A   1      37.360  21.054  24.602  1.00  0.00     0.023 C 
BRANCH  28  29
ATOM     29  C   UNL A   1      38.419  21.046  25.698  1.00  0.00     0.116 C 
BRANCH  29  30
ATOM     30  N   UNL A   1      39.354  19.935  25.598  1.00  0.00    -0.352 N 
ATOM     31  C   UNL A   1      40.687  19.881  25.939  1.00  0.00     0.251 C 
ATOM     32  H   UNL A   1      38.979  19.101  25.235  1.00  0.00     0.163 HD
ATOM     33  O   UNL A   1      41.344  18.874  25.698  1.00  0.00    -0.269 OA
BRANCH  31  34
ATOM     34  C   UNL A   1      41.342  21.058  26.556  1.00  0.00     0.039 A 
ATOM     35  C   UNL A   1      41.953  22.001  25.725  1.00  0.00     0.014 A 
ATOM     36  C   UNL A   1      41.327  21.250  27.939  1.00  0.00     0.014 A 
ATOM     37  C   UNL A   1      42.459  23.183  26.271  1.00  0.00     0.010 A 
ATOM     38  C   UNL A   1      41.768  22.458  28.475  1.00  0.00     0.010 A 
ATOM     39  C   UNL A   1      42.323  23.444  27.644  1.00  0.00    -0.014 A 
BRANCH  39  40
ATOM     40  C   UNL A   1      42.714  24.755  28.223  1.00  0.00     0.031 A 
ATOM     41  C   UNL A   1      41.686  25.828  28.449  1.00  0.00     0.074 A 
ATOM     42  C   UNL A   1      44.015  25.011  28.467  1.00  0.00     0.049 A 
ATOM     43  N   UNL A   1      41.854  27.058  28.863  1.00  0.00    -0.248 NA
ATOM     44  C   UNL A   1      40.290  25.481  28.142  1.00  0.00     0.031 C 
ATOM     45  C   UNL A   1      45.121  24.079  28.238  1.00  0.00     0.029 A 
ATOM     46  N   UNL A   1      44.629  26.141  28.949  1.00  0.00    -0.354 N 
ATOM     47  C   UNL A   1      40.592  27.637  28.848  1.00  0.00     0.074 A 
ATOM     48  C   UNL A   1      39.674  26.637  28.344  1.00  0.00     0.031 C 
ATOM     49  C   UNL A   1      46.274  24.666  28.597  1.00  0.00     0.029 A 
ATOM     50  C   UNL A   1      45.995  26.025  29.050  1.00  0.00     0.049 A 
ATOM     51  H   UNL A   1      44.138  26.957  29.199  1.00  0.00     0.167 HD
ATOM     52  C   UNL A   1      40.226  28.882  29.237  1.00  0.00     0.037 A 
ATOM     53  C   UNL A   1      46.920  26.915  29.455  1.00  0.00     0.037 A 
ATOM     54  C   UNL A   1      41.130  29.867  29.770  1.00  0.00     0.049 A 
ATOM     55  C   UNL A   1      46.487  28.284  29.897  1.00  0.00     0.074 A 
ATOM     56  C   UNL A   1      40.838  31.129  30.258  1.00  0.00     0.029 A 
ATOM     57  N   UNL A   1      42.501  29.699  29.885  1.00  0.00    -0.354 N 
ATOM     58  N   UNL A   1      45.280  28.793  29.943  1.00  0.00    -0.248 NA
ATOM     59  C   UNL A   1      47.544  29.202  30.348  1.00  0.00     0.031 C 
ATOM     60  C   UNL A   1      42.039  31.738  30.641  1.00  0.00     0.029 A 
ATOM     61  C   UNL A   1      43.072  30.841  30.423  1.00  0.00     0.049 A 
ATOM     62  H   UNL A   1      42.995  28.889  29.625  1.00  0.00     0.167 HD
ATOM     63  C   UNL A   1      45.428  30.077  30.449  1.00  0.00     0.074 A 
ATOM     64  C   UNL A   1      46.841  30.267  30.704  1.00  0.00     0.031 C 
ATOM     65  C   UNL A   1      44.477  31.013  30.682  1.00  0.00     0.037 A 
BRANCH  52  66
ATOM     66  C   UNL A   1      38.778  29.247  29.108  1.00  0.00     0.057 A 
ATOM     67  C   UNL A   1      38.223  29.633  27.881  1.00  0.00     0.134 A 
ATOM     68  C   UNL A   1      37.920  29.178  30.214  1.00  0.00     0.134 A 
ATOM     69  F   UNL A   1      38.994  29.729  26.787  1.00  0.00    -0.206 F 
ATOM     70  C   UNL A   1      36.871  29.959  27.762  1.00  0.00     0.040 A 
ATOM     71  C   UNL A   1      36.562  29.479  30.102  1.00  0.00     0.040 A 
ATOM     72  F   UNL A   1      38.388  28.811  31.416  1.00  0.00    -0.206 F 
ATOM     73  C   UNL A   1      36.035  29.876  28.874  1.00  0.00     0.006 A 
ENDBRANCH  52  66
BRANCH  53  74
ATOM     74  C   UNL A   1      48.353  26.531  29.489  1.00  0.00     0.057 A 
ATOM     75  C   UNL A   1      49.179  26.745  28.380  1.00  0.00     0.134 A 
ATOM     76  C   UNL A   1      48.927  25.945  30.622  1.00  0.00     0.134 A 
ATOM     77  F   UNL A   1      48.678  27.286  27.260  1.00  0.00    -0.206 F 
ATOM     78  C   UNL A   1      50.524  26.374  28.389  1.00  0.00     0.040 A 
ATOM     79  C   UNL A   1      50.277  25.588  30.653  1.00  0.00     0.040 A 
ATOM     80  F   UNL A   1      48.188  25.720  31.718  1.00  0.00    -0.206 F 
ATOM     81  C   UNL A   1      51.077  25.797  29.531  1.00  0.00     0.006 A 
ENDBRANCH  53  74
BRANCH  65  82
ATOM     82  C   UNL A   1      44.928  32.317  31.268  1.00  0.00     0.057 A 
ATOM     83  C   UNL A   1      45.028  32.507  32.651  1.00  0.00     0.134 A 
ATOM     84  C   UNL A   1      45.305  33.379  30.437  1.00  0.00     0.134 A 
ATOM     85  F   UNL A   1      44.667  31.532  33.499  1.00  0.00    -0.206 F 
ATOM     86  C   UNL A   1      45.476  33.714  33.189  1.00  0.00     0.040 A 
ATOM     87  C   UNL A   1      45.774  34.584  30.962  1.00  0.00     0.040 A 
ATOM     88  F   UNL A   1      45.237  33.258  29.102  1.00  0.00    -0.206 F 
ATOM     89  C   UNL A   1      45.856  34.755  32.342  1.00  0.00     0.006 A 
ENDBRANCH  65  82
ENDBRANCH  39  40
ENDBRANCH  31  34
ENDBRANCH  29  30
ENDBRANCH  28  29
ENDBRANCH   1  28
TORSDOF 13
ENDMDL
MODEL 3
REMARK VINA RESULT:     -12.5      3.802      5.098
REMARK SMILES CC(C)N1C[C@@]2(CCCN(c3ccc(C(=O)NCCCCNC(=O)c4ccc(-c5c6nc(c(-c7c(F)cccc7F)c7ccc([nH]7)c(-c7c(F)cccc7F)c7nc(c(-c8c(F)cccc8F)c8ccc5[nH]8)C=C7)C=C6)cc4)cn3)C2)CCC1=O
REMARK SMILES IDX 19 1 18 2 17 3 15 4 16 5 14 7 11 8 12 9 80 10 13 11 79 12
REMARK SMILES IDX 10 13 4 14 5 15 84 16 6 17 83 18 85 19 7 20 81 21 82 22 8 23
REMARK SMILES IDX 9 24 2 25 1 26 3 27 20 28 21 29 22 30 23 31 24 33 25 34
REMARK SMILES IDX 26 35 78 36 27 37 77 38 28 39 29 40 30 41 71 42 31 43 76 44
REMARK SMILES IDX 70 45 72 46 32 47 75 48 69 49 68 50 33 52 59 53 42 54 58 55
REMARK SMILES IDX 43 56 46 57 57 58 73 59 44 60 45 61 56 63 74 64 47 65 34 66
REMARK SMILES IDX 35 67 40 68 36 69 37 70 39 71 41 72 38 73 60 74 61 75 66 76
REMARK SMILES IDX 62 77 63 78 65 79 67 80 64 81 48 82 49 83 54 84 50 85 51 86
REMARK SMILES IDX 53 87 55 88 52 89
REMARK H PARENT 17 6 22 32 72 51 46 62
REMARK Flexibility Score: inf
ROOT
ATOM      1  C   UNL A   1      36.725  19.678  24.723  1.00  0.00     0.023 C 
ENDROOT
BRANCH   1   2
ATOM      2  C   UNL A   1      35.455  20.383  25.197  1.00  0.00     0.116 C 
BRANCH   2   3
ATOM      3  N   UNL A   1      34.279  19.525  25.209  1.00  0.00    -0.352 N 
ATOM      4  C   UNL A   1      32.963  19.874  24.978  1.00  0.00     0.252 C 
ATOM      5  O   UNL A   1      32.061  19.055  25.069  1.00  0.00    -0.269 OA
ATOM      6  H   UNL A   1      34.442  18.574  25.406  1.00  0.00     0.163 HD
BRANCH   4   7
ATOM      7  C   UNL A   1      32.657  21.278  24.680  1.00  0.00     0.058 A 
ATOM      8  C   UNL A   1      32.825  23.994  24.226  1.00  0.00     0.128 A 
ATOM      9  C   UNL A   1      32.571  23.125  23.160  1.00  0.00     0.048 A 
ATOM     10  N   UNL A   1      32.778  23.528  25.496  1.00  0.00    -0.239 NA
ATOM     11  C   UNL A   1      32.512  21.748  23.383  1.00  0.00     0.019 A 
ATOM     12  C   UNL A   1      32.688  22.193  25.708  1.00  0.00     0.127 A 
BRANCH   8  13
ATOM     13  N   UNL A   1      33.288  25.288  24.035  1.00  0.00    -0.356 N 
ATOM     14  N   UNL A   1      29.577  27.762  23.624  1.00  0.00    -0.340 N 
ATOM     15  C   UNL A   1      30.753  28.147  24.406  1.00  0.00     0.128 C 
ATOM     16  C   UNL A   1      28.771  26.724  24.088  1.00  0.00     0.222 C 
ATOM     17  C   UNL A   1      31.633  26.965  24.851  1.00  0.00     0.006 C 
ATOM     18  C   UNL A   1      29.473  25.628  24.862  1.00  0.00     0.101 C 
ATOM     19  O   UNL A   1      27.581  26.577  23.817  1.00  0.00    -0.275 OA
ATOM     20  C   UNL A   1      32.765  27.509  25.772  1.00  0.00     0.012 C 
ATOM     21  C   UNL A   1      32.283  26.280  23.606  1.00  0.00     0.127 C 
ATOM     22  C   UNL A   1      30.693  26.053  25.659  1.00  0.00     0.020 C 
ATOM     23  C   UNL A   1      33.873  26.490  26.068  1.00  0.00     0.022 C 
ATOM     24  C   UNL A   1      34.402  25.855  24.782  1.00  0.00     0.118 C 
BRANCH  14  25
ATOM     25  C   UNL A   1      29.152  28.707  22.561  1.00  0.00     0.078 C 
ATOM     26  C   UNL A   1      28.015  29.604  23.078  1.00  0.00     0.031 C 
ATOM     27  C   UNL A   1      30.229  29.621  21.968  1.00  0.00     0.031 C 
ENDBRANCH  14  25
ENDBRANCH   8  13
ENDBRANCH   4   7
ENDBRANCH   2   3
ENDBRANCH   1   2
BRANCH   1  28
ATOM     28  C   UNL A   1      37.978  20.546  24.651  1.00  0.00     0.023 C 
BRANCH  28  29
ATOM     29  C   UNL A   1      38.875  20.522  25.884  1.00  0.00     0.116 C 
BRANCH  29  30
ATOM     30  N   UNL A   1      39.903  19.492  25.837  1.00  0.00    -0.352 N 
ATOM     31  C   UNL A   1      41.241  19.579  26.150  1.00  0.00     0.251 C 
ATOM     32  H   UNL A   1      39.597  18.605  25.539  1.00  0.00     0.163 HD
ATOM     33  O   UNL A   1      41.981  18.618  25.962  1.00  0.00    -0.269 OA
BRANCH  31  34
ATOM     34  C   UNL A   1      41.800  20.848  26.671  1.00  0.00     0.039 A 
ATOM     35  C   UNL A   1      42.307  21.782  25.764  1.00  0.00     0.014 A 
ATOM     36  C   UNL A   1      41.794  21.131  28.038  1.00  0.00     0.014 A 
ATOM     37  C   UNL A   1      42.715  23.039  26.218  1.00  0.00     0.010 A 
ATOM     38  C   UNL A   1      42.135  22.407  28.482  1.00  0.00     0.010 A 
ATOM     39  C   UNL A   1      42.583  23.379  27.574  1.00  0.00    -0.014 A 
BRANCH  39  40
ATOM     40  C   UNL A   1      42.866  24.756  28.055  1.00  0.00     0.031 A 
ATOM     41  C   UNL A   1      44.257  25.154  28.460  1.00  0.00     0.074 A 
ATOM     42  C   UNL A   1      41.848  25.627  28.210  1.00  0.00     0.049 A 
ATOM     43  N   UNL A   1      44.677  26.279  28.982  1.00  0.00    -0.248 NA
ATOM     44  C   UNL A   1      45.313  24.144  28.280  1.00  0.00     0.031 C 
ATOM     45  C   UNL A   1      40.442  25.350  27.910  1.00  0.00     0.029 A 
ATOM     46  N   UNL A   1      41.839  26.919  28.674  1.00  0.00    -0.354 N 
ATOM     47  C   UNL A   1      46.035  26.106  29.211  1.00  0.00     0.074 A 
ATOM     48  C   UNL A   1      46.363  24.754  28.810  1.00  0.00     0.031 C 
ATOM     49  C   UNL A   1      39.711  26.444  28.179  1.00  0.00     0.029 A 
ATOM     50  C   UNL A   1      40.589  27.487  28.700  1.00  0.00     0.049 A 
ATOM     51  H   UNL A   1      42.652  27.395  28.961  1.00  0.00     0.167 HD
ATOM     52  C   UNL A   1      46.933  26.999  29.694  1.00  0.00     0.037 A 
ATOM     53  C   UNL A   1      40.190  28.708  29.102  1.00  0.00     0.037 A 
ATOM     54  C   UNL A   1      46.617  28.354  30.061  1.00  0.00     0.049 A 
ATOM     55  C   UNL A   1      41.208  29.686  29.618  1.00  0.00     0.074 A 
ATOM     56  C   UNL A   1      47.474  29.352  30.490  1.00  0.00     0.029 A 
ATOM     57  N   UNL A   1      45.343  28.900  30.042  1.00  0.00    -0.354 N 
ATOM     58  N   UNL A   1      42.502  29.531  29.763  1.00  0.00    -0.248 NA
ATOM     59  C   UNL A   1      40.712  31.010  30.022  1.00  0.00     0.031 C 
ATOM     60  C   UNL A   1      46.713  30.496  30.761  1.00  0.00     0.029 A 
ATOM     61  C   UNL A   1      45.389  30.217  30.466  1.00  0.00     0.049 A 
ATOM     62  H   UNL A   1      44.528  28.422  29.767  1.00  0.00     0.167 HD
ATOM     63  C   UNL A   1      42.977  30.741  30.249  1.00  0.00     0.074 A 
ATOM     64  C   UNL A   1      41.835  31.624  30.367  1.00  0.00     0.031 C 
ATOM     65  C   UNL A   1      44.247  31.088  30.569  1.00  0.00     0.037 A 
BRANCH  52  66
ATOM     66  C   UNL A   1      48.352  26.538  29.842  1.00  0.00     0.057 A 
ATOM     67  C   UNL A   1      48.789  25.864  30.989  1.00  0.00     0.134 A 
ATOM     68  C   UNL A   1      49.282  26.738  28.814  1.00  0.00     0.134 A 
ATOM     69  F   UNL A   1      47.950  25.651  32.014  1.00  0.00    -0.206 F 
ATOM     70  C   UNL A   1      50.108  25.424  31.118  1.00  0.00     0.040 A 
ATOM     71  C   UNL A   1      50.596  26.282  28.922  1.00  0.00     0.040 A 
ATOM     72  F   UNL A   1      48.925  27.372  27.687  1.00  0.00    -0.206 F 
ATOM     73  C   UNL A   1      51.014  25.627  30.079  1.00  0.00     0.006 A 
ENDBRANCH  52  66
BRANCH  53  74
ATOM     74  C   UNL A   1      38.760  29.090  29.009  1.00  0.00     0.057 A 
ATOM     75  C   UNL A   1      38.222  29.569  27.809  1.00  0.00     0.134 A 
ATOM     76  C   UNL A   1      37.902  28.986  30.109  1.00  0.00     0.134 A 
ATOM     77  F   UNL A   1      39.002  29.707  26.728  1.00  0.00    -0.206 F 
ATOM     78  C   UNL A   1      36.883  29.948  27.710  1.00  0.00     0.040 A 
ATOM     79  C   UNL A   1      36.555  29.342  30.018  1.00  0.00     0.040 A 
ATOM     80  F   UNL A   1      38.357  28.528  31.284  1.00  0.00    -0.206 F 
ATOM     81  C   UNL A   1      36.044  29.831  28.817  1.00  0.00     0.006 A 
ENDBRANCH  53  74
BRANCH  65  82
ATOM     82  C   UNL A   1      44.475  32.490  31.048  1.00  0.00     0.057 A 
ATOM     83  C   UNL A   1      44.718  33.542  30.158  1.00  0.00     0.134 A 
ATOM     84  C   UNL A   1      44.406  32.795  32.413  1.00  0.00     0.134 A 
ATOM     85  F   UNL A   1      44.810  33.310  28.840  1.00  0.00    -0.206 F 
ATOM     86  C   UNL A   1      44.901  34.849  30.610  1.00  0.00     0.040 A 
ATOM     87  C   UNL A   1      44.567  34.102  32.876  1.00  0.00     0.040 A 
ATOM     88  F   UNL A   1      44.170  31.832  33.317  1.00  0.00    -0.206 F 
ATOM     89  C   UNL A   1      44.819  35.133  31.973  1.00  0.00     0.006 A 
ENDBRANCH  65  82
ENDBRANCH  39  40
ENDBRANCH  31  34
ENDBRANCH  29  30
ENDBRANCH  28  29
ENDBRANCH   1  28
TORSDOF 13
ENDMDL
