MODEL 1
REMARK VINA RESULT:     -11.0      0.000      0.000
REMARK SMILES COCCS(=O)(=O)Cc1c(C(=O)NCCCCNC(=O)c2ccc(-c3c4nc(c(-c5c(F)cccc5F)c5ccc([nH]5)c(-c5c(F)cccc5F)c5nc(c(-c6c(F)cccc6F)c6ccc3[nH]6)C=C5)C=C4)cc2)oc2ccccc12
REMARK SMILES IDX 14 1 13 2 11 3 12 4 10 6 9 7 81 8 75 9 76 10 80 11 77 12
REMARK SMILES IDX 79 13 78 14 8 15 5 16 6 17 7 18 4 19 3 20 2 21 1 22 15 23
REMARK SMILES IDX 16 24 17 25 18 26 19 27 20 29 21 30 22 31 74 32 23 33 73 34
REMARK SMILES IDX 24 35 25 36 26 37 67 38 27 39 72 40 66 41 68 42 28 43 71 44
REMARK SMILES IDX 65 45 64 46 29 48 55 49 38 50 54 51 39 52 42 53 53 54 69 55
REMARK SMILES IDX 40 56 41 57 52 59 70 60 43 61 30 62 31 63 36 64 32 65 33 66
REMARK SMILES IDX 35 67 37 68 34 69 56 70 57 71 62 72 58 73 59 74 61 75 63 76
REMARK SMILES IDX 60 77 44 78 45 79 50 80 46 81 47 82 49 83 51 84 48 85
REMARK H PARENT 13 5 18 28 68 47 42 58
REMARK Flexibility Score: inf
ROOT
ATOM      1  C   UNL A   1      36.523  22.084  25.735  1.00  0.00     0.116 C 
ENDROOT
BRANCH   1   2
ATOM      2  N   UNL A   1      35.445  22.254  26.693  1.00  0.00    -0.349 N 
ATOM      3  C   UNL A   1      34.340  23.076  26.704  1.00  0.00     0.287 C 
ATOM      4  O   UNL A   1      33.557  22.891  27.639  1.00  0.00    -0.266 OA
ATOM      5  H   UNL A   1      35.517  21.672  27.484  1.00  0.00     0.163 HD
BRANCH   3   6
ATOM      6  C   UNL A   1      34.098  24.083  25.679  1.00  0.00     0.196 A 
ATOM      7  C   UNL A   1      33.857  23.966  24.304  1.00  0.00     0.027 A 
ATOM      8  C   UNL A   1      33.787  25.309  23.799  1.00  0.00     0.025 A 
ATOM      9  O   UNL A   1      34.080  25.402  26.022  1.00  0.00    -0.451 OA
ATOM     10  C   UNL A   1      33.922  26.137  24.902  1.00  0.00     0.135 A 
ATOM     11  C   UNL A   1      33.619  25.920  22.541  1.00  0.00     0.012 A 
ATOM     12  C   UNL A   1      33.903  27.529  24.859  1.00  0.00     0.048 A 
ATOM     13  C   UNL A   1      33.582  27.321  22.462  1.00  0.00     0.001 A 
ATOM     14  C   UNL A   1      33.726  28.111  23.603  1.00  0.00     0.004 A 
BRANCH   7  15
ATOM     15  C   UNL A   1      33.761  22.702  23.509  1.00  0.00     0.177 C 
BRANCH  15  16
ATOM     16  S   UNL A   1      32.167  21.858  23.484  1.00  0.00     0.156 S 
ATOM     17  O   UNL A   1      32.105  21.085  22.255  1.00  0.00    -0.228 OA
ATOM     18  O   UNL A   1      31.144  22.867  23.717  1.00  0.00    -0.228 OA
BRANCH  16  19
ATOM     19  C   UNL A   1      32.095  20.729  24.874  1.00  0.00     0.165 C 
BRANCH  19  20
ATOM     20  C   UNL A   1      32.560  19.320  24.564  1.00  0.00     0.176 C 
BRANCH  20  21
ATOM     21  O   UNL A   1      32.521  18.474  25.714  1.00  0.00    -0.384 OA
ATOM     22  C   UNL A   1      32.557  17.090  25.398  1.00  0.00     0.194 C 
ENDBRANCH  20  21
ENDBRANCH  19  20
ENDBRANCH  16  19
ENDBRANCH  15  16
ENDBRANCH   7  15
ENDBRANCH   3   6
ENDBRANCH   1   2
BRANCH   1  23
ATOM     23  C   UNL A   1      36.421  20.757  24.984  1.00  0.00     0.023 C 
BRANCH  23  24
ATOM     24  C   UNL A   1      37.760  20.052  24.742  1.00  0.00     0.023 C 
BRANCH  24  25
ATOM     25  C   UNL A   1      38.867  20.363  25.748  1.00  0.00     0.116 C 
BRANCH  25  26
ATOM     26  N   UNL A   1      39.937  19.378  25.758  1.00  0.00    -0.352 N 
ATOM     27  C   UNL A   1      41.260  19.529  26.110  1.00  0.00     0.251 C 
ATOM     28  H   UNL A   1      39.678  18.472  25.474  1.00  0.00     0.163 HD
ATOM     29  O   UNL A   1      42.045  18.605  25.960  1.00  0.00    -0.269 OA
BRANCH  27  30
ATOM     30  C   UNL A   1      41.739  20.829  26.632  1.00  0.00     0.039 A 
ATOM     31  C   UNL A   1      42.236  21.773  25.729  1.00  0.00     0.014 A 
ATOM     32  C   UNL A   1      41.691  21.125  27.997  1.00  0.00     0.014 A 
ATOM     33  C   UNL A   1      42.610  23.040  26.184  1.00  0.00     0.010 A 
ATOM     34  C   UNL A   1      41.995  22.410  28.438  1.00  0.00     0.010 A 
ATOM     35  C   UNL A   1      42.453  23.383  27.536  1.00  0.00    -0.014 A 
BRANCH  35  36
ATOM     36  C   UNL A   1      42.742  24.757  28.023  1.00  0.00     0.031 A 
ATOM     37  C   UNL A   1      44.138  25.143  28.425  1.00  0.00     0.074 A 
ATOM     38  C   UNL A   1      41.732  25.635  28.174  1.00  0.00     0.049 A 
ATOM     39  N   UNL A   1      44.568  26.265  28.945  1.00  0.00    -0.248 NA
ATOM     40  C   UNL A   1      45.183  24.123  28.245  1.00  0.00     0.031 C 
ATOM     41  C   UNL A   1      40.325  25.370  27.868  1.00  0.00     0.029 A 
ATOM     42  N   UNL A   1      41.732  26.927  28.639  1.00  0.00    -0.354 N 
ATOM     43  C   UNL A   1      45.927  26.080  29.168  1.00  0.00     0.074 A 
ATOM     44  C   UNL A   1      46.238  24.723  28.777  1.00  0.00     0.031 C 
ATOM     45  C   UNL A   1      39.602  26.470  28.132  1.00  0.00     0.029 A 
ATOM     46  C   UNL A   1      40.485  27.504  28.663  1.00  0.00     0.049 A 
ATOM     47  H   UNL A   1      42.548  27.396  28.927  1.00  0.00     0.167 HD
ATOM     48  C   UNL A   1      46.837  26.968  29.636  1.00  0.00     0.037 A 
ATOM     49  C   UNL A   1      40.094  28.725  29.073  1.00  0.00     0.037 A 
ATOM     50  C   UNL A   1      46.529  28.325  30.005  1.00  0.00     0.049 A 
ATOM     51  C   UNL A   1      41.121  29.692  29.593  1.00  0.00     0.074 A 
ATOM     52  C   UNL A   1      47.394  29.319  30.431  1.00  0.00     0.029 A 
ATOM     53  N   UNL A   1      45.258  28.879  29.996  1.00  0.00    -0.354 N 
ATOM     54  N   UNL A   1      42.414  29.527  29.734  1.00  0.00    -0.248 NA
ATOM     55  C   UNL A   1      40.636  31.016  30.007  1.00  0.00     0.031 C 
ATOM     56  C   UNL A   1      46.639  30.460  30.723  1.00  0.00     0.029 A 
ATOM     57  C   UNL A   1      45.311  30.193  30.430  1.00  0.00     0.049 A 
ATOM     58  H   UNL A   1      44.439  28.406  29.721  1.00  0.00     0.167 HD
ATOM     59  C   UNL A   1      42.901  30.733  30.223  1.00  0.00     0.074 A 
ATOM     60  C   UNL A   1      41.764  31.623  30.344  1.00  0.00     0.031 C 
ATOM     61  C   UNL A   1      44.174  31.071  30.540  1.00  0.00     0.037 A 
BRANCH  48  62
ATOM     62  C   UNL A   1      48.255  26.493  29.775  1.00  0.00     0.057 A 
ATOM     63  C   UNL A   1      48.704  25.835  30.928  1.00  0.00     0.134 A 
ATOM     64  C   UNL A   1      49.176  26.673  28.736  1.00  0.00     0.134 A 
ATOM     65  F   UNL A   1      47.875  25.640  31.966  1.00  0.00    -0.206 F 
ATOM     66  C   UNL A   1      50.025  25.401  31.055  1.00  0.00     0.040 A 
ATOM     67  C   UNL A   1      50.492  26.217  28.839  1.00  0.00     0.040 A 
ATOM     68  F   UNL A   1      48.812  27.288  27.601  1.00  0.00    -0.206 F 
ATOM     69  C   UNL A   1      50.921  25.587  30.006  1.00  0.00     0.006 A 
ENDBRANCH  48  62
BRANCH  49  70
ATOM     70  C   UNL A   1      38.664  29.113  28.985  1.00  0.00     0.057 A 
ATOM     71  C   UNL A   1      38.112  29.562  27.779  1.00  0.00     0.134 A 
ATOM     72  C   UNL A   1      37.816  29.044  30.097  1.00  0.00     0.134 A 
ATOM     73  F   UNL A   1      38.879  29.666  26.684  1.00  0.00    -0.206 F 
ATOM     74  C   UNL A   1      36.773  29.943  27.684  1.00  0.00     0.040 A 
ATOM     75  C   UNL A   1      36.468  29.399  30.010  1.00  0.00     0.040 A 
ATOM     76  F   UNL A   1      38.282  28.616  31.278  1.00  0.00    -0.206 F 
ATOM     77  C   UNL A   1      35.945  29.856  28.802  1.00  0.00     0.006 A 
ENDBRANCH  49  70
BRANCH  61  78
ATOM     78  C   UNL A   1      44.415  32.475  31.013  1.00  0.00     0.057 A 
ATOM     79  C   UNL A   1      44.409  32.811  32.372  1.00  0.00     0.134 A 
ATOM     80  C   UNL A   1      44.699  33.495  30.096  1.00  0.00     0.134 A 
ATOM     81  F   UNL A   1      44.131  31.884  33.301  1.00  0.00    -0.206 F 
ATOM     82  C   UNL A   1      44.655  34.117  32.802  1.00  0.00     0.040 A 
ATOM     83  C   UNL A   1      44.973  34.798  30.513  1.00  0.00     0.040 A 
ATOM     84  F   UNL A   1      44.729  33.239  28.779  1.00  0.00    -0.206 F 
ATOM     85  C   UNL A   1      44.946  35.113  31.870  1.00  0.00     0.006 A 
ENDBRANCH  61  78
ENDBRANCH  35  36
ENDBRANCH  27  30
ENDBRANCH  25  26
ENDBRANCH  24  25
ENDBRANCH  23  24
ENDBRANCH   1  23
TORSDOF 16
ENDMDL
MODEL 2
REMARK VINA RESULT:     -11.0      4.872      9.482
REMARK SMILES COCCS(=O)(=O)Cc1c(C(=O)NCCCCNC(=O)c2ccc(-c3c4nc(c(-c5c(F)cccc5F)c5ccc([nH]5)c(-c5c(F)cccc5F)c5nc(c(-c6c(F)cccc6F)c6ccc3[nH]6)C=C5)C=C4)cc2)oc2ccccc12
REMARK SMILES IDX 14 1 13 2 11 3 12 4 10 6 9 7 81 8 75 9 76 10 80 11 77 12
REMARK SMILES IDX 79 13 78 14 8 15 5 16 6 17 7 18 4 19 3 20 2 21 1 22 15 23
REMARK SMILES IDX 16 24 17 25 18 26 19 27 20 29 21 30 22 31 74 32 23 33 73 34
REMARK SMILES IDX 24 35 25 36 26 37 67 38 27 39 72 40 66 41 68 42 28 43 71 44
REMARK SMILES IDX 65 45 64 46 29 48 55 49 38 50 54 51 39 52 42 53 53 54 69 55
REMARK SMILES IDX 40 56 41 57 52 59 70 60 43 61 30 62 31 63 36 64 32 65 33 66
REMARK SMILES IDX 35 67 37 68 34 69 56 70 57 71 62 72 58 73 59 74 61 75 63 76
REMARK SMILES IDX 60 77 44 78 45 79 50 80 46 81 47 82 49 83 51 84 48 85
REMARK H PARENT 13 5 18 28 68 47 42 58
REMARK Flexibility Score: inf
ROOT
ATOM      1  C   UNL A   1      33.212  29.949  26.709  1.00  0.00     0.116 C 
ENDROOT
BRANCH   1   2
ATOM      2  N   UNL A   1      33.725  29.658  25.381  1.00  0.00    -0.349 N 
ATOM      3  C   UNL A   1      33.669  28.529  24.596  1.00  0.00     0.287 C 
ATOM      4  O   UNL A   1      34.127  28.657  23.458  1.00  0.00    -0.266 OA
ATOM      5  H   UNL A   1      34.203  30.411  24.964  1.00  0.00     0.163 HD
BRANCH   3   6
ATOM      6  C   UNL A   1      33.096  27.273  25.064  1.00  0.00     0.196 A 
ATOM      7  C   UNL A   1      31.766  26.870  25.239  1.00  0.00     0.027 A 
ATOM      8  C   UNL A   1      31.823  25.555  25.815  1.00  0.00     0.025 A 
ATOM      9  O   UNL A   1      33.921  26.245  25.412  1.00  0.00    -0.451 OA
ATOM     10  C   UNL A   1      33.168  25.230  25.885  1.00  0.00     0.135 A 
ATOM     11  C   UNL A   1      30.896  24.601  26.279  1.00  0.00     0.012 A 
ATOM     12  C   UNL A   1      33.672  24.029  26.379  1.00  0.00     0.048 A 
ATOM     13  C   UNL A   1      31.367  23.375  26.771  1.00  0.00     0.001 A 
ATOM     14  C   UNL A   1      32.734  23.097  26.823  1.00  0.00     0.004 A 
BRANCH   7  15
ATOM     15  C   UNL A   1      30.535  27.672  24.952  1.00  0.00     0.177 C 
BRANCH  15  16
ATOM     16  S   UNL A   1      29.693  27.364  23.387  1.00  0.00     0.156 S 
ATOM     17  O   UNL A   1      28.608  26.435  23.654  1.00  0.00    -0.228 OA
ATOM     18  O   UNL A   1      30.711  26.976  22.421  1.00  0.00    -0.228 OA
BRANCH  16  19
ATOM     19  C   UNL A   1      28.995  28.906  22.799  1.00  0.00     0.165 C 
BRANCH  19  20
ATOM     20  C   UNL A   1      27.492  29.018  22.960  1.00  0.00     0.176 C 
BRANCH  20  21
ATOM     21  O   UNL A   1      27.108  30.221  23.629  1.00  0.00    -0.384 OA
ATOM     22  C   UNL A   1      27.771  31.376  23.135  1.00  0.00     0.194 C 
ENDBRANCH  20  21
ENDBRANCH  19  20
ENDBRANCH  16  19
ENDBRANCH  15  16
ENDBRANCH   7  15
ENDBRANCH   3   6
ENDBRANCH   1   2
BRANCH   1  23
ATOM     23  C   UNL A   1      31.768  30.447  26.671  1.00  0.00     0.023 C 
BRANCH  23  24
ATOM     24  C   UNL A   1      31.615  31.972  26.650  1.00  0.00     0.023 C 
BRANCH  24  25
ATOM     25  C   UNL A   1      32.772  32.765  27.256  1.00  0.00     0.116 C 
BRANCH  25  26
ATOM     26  N   UNL A   1      32.417  34.128  27.616  1.00  0.00    -0.352 N 
ATOM     27  C   UNL A   1      32.988  34.961  28.552  1.00  0.00     0.251 C 
ATOM     28  H   UNL A   1      31.659  34.511  27.118  1.00  0.00     0.163 HD
ATOM     29  O   UNL A   1      32.490  36.050  28.791  1.00  0.00    -0.269 OA
BRANCH  27  30
ATOM     30  C   UNL A   1      34.187  34.517  29.300  1.00  0.00     0.039 A 
ATOM     31  C   UNL A   1      34.017  33.960  30.571  1.00  0.00     0.014 A 
ATOM     32  C   UNL A   1      35.468  34.634  28.753  1.00  0.00     0.014 A 
ATOM     33  C   UNL A   1      35.120  33.451  31.259  1.00  0.00     0.010 A 
ATOM     34  C   UNL A   1      36.555  34.062  29.408  1.00  0.00     0.010 A 
ATOM     35  C   UNL A   1      36.393  33.459  30.665  1.00  0.00    -0.014 A 
BRANCH  35  36
ATOM     36  C   UNL A   1      37.560  32.827  31.332  1.00  0.00     0.031 A 
ATOM     37  C   UNL A   1      38.220  31.620  30.727  1.00  0.00     0.074 A 
ATOM     38  C   UNL A   1      37.980  33.296  32.523  1.00  0.00     0.049 A 
ATOM     39  N   UNL A   1      39.196  30.887  31.200  1.00  0.00    -0.248 NA
ATOM     40  C   UNL A   1      37.694  31.159  29.433  1.00  0.00     0.031 C 
ATOM     41  C   UNL A   1      37.394  34.430  33.242  1.00  0.00     0.029 A 
ATOM     42  N   UNL A   1      38.989  32.867  33.349  1.00  0.00    -0.354 N 
ATOM     43  C   UNL A   1      39.390  29.872  30.272  1.00  0.00     0.074 A 
ATOM     44  C   UNL A   1      38.397  30.053  29.236  1.00  0.00     0.031 C 
ATOM     45  C   UNL A   1      38.067  34.619  34.388  1.00  0.00     0.029 A 
ATOM     46  C   UNL A   1      39.104  33.599  34.506  1.00  0.00     0.049 A 
ATOM     47  H   UNL A   1      39.576  32.107  33.132  1.00  0.00     0.167 HD
ATOM     48  C   UNL A   1      40.324  28.891  30.271  1.00  0.00     0.037 A 
ATOM     49  C   UNL A   1      39.944  33.460  35.549  1.00  0.00     0.037 A 
ATOM     50  C   UNL A   1      41.325  28.725  31.293  1.00  0.00     0.049 A 
ATOM     51  C   UNL A   1      40.970  32.361  35.528  1.00  0.00     0.074 A 
ATOM     52  C   UNL A   1      42.354  27.800  31.349  1.00  0.00     0.029 A 
ATOM     53  N   UNL A   1      41.422  29.499  32.440  1.00  0.00    -0.354 N 
ATOM     54  N   UNL A   1      41.186  31.450  34.610  1.00  0.00    -0.248 NA
ATOM     55  C   UNL A   1      41.871  32.273  36.686  1.00  0.00     0.031 C 
ATOM     56  C   UNL A   1      43.044  27.985  32.551  1.00  0.00     0.029 A 
ATOM     57  C   UNL A   1      42.478  29.059  33.220  1.00  0.00     0.049 A 
ATOM     58  H   UNL A   1      40.827  30.251  32.664  1.00  0.00     0.167 HD
ATOM     59  C   UNL A   1      42.265  30.702  35.064  1.00  0.00     0.074 A 
ATOM     60  C   UNL A   1      42.665  31.273  36.334  1.00  0.00     0.031 C 
ATOM     61  C   UNL A   1      42.870  29.640  34.479  1.00  0.00     0.037 A 
BRANCH  48  62
ATOM     62  C   UNL A   1      40.304  27.919  29.127  1.00  0.00     0.057 A 
ATOM     63  C   UNL A   1      39.528  26.753  29.162  1.00  0.00     0.134 A 
ATOM     64  C   UNL A   1      41.046  28.165  27.966  1.00  0.00     0.134 A 
ATOM     65  F   UNL A   1      38.801  26.452  30.249  1.00  0.00    -0.206 F 
ATOM     66  C   UNL A   1      39.517  25.850  28.097  1.00  0.00     0.040 A 
ATOM     67  C   UNL A   1      41.021  27.284  26.882  1.00  0.00     0.040 A 
ATOM     68  F   UNL A   1      41.804  29.267  27.861  1.00  0.00    -0.206 F 
ATOM     69  C   UNL A   1      40.261  26.118  26.950  1.00  0.00     0.006 A 
ENDBRANCH  48  62
BRANCH  49  70
ATOM     70  C   UNL A   1      39.867  34.404  36.692  1.00  0.00     0.057 A 
ATOM     71  C   UNL A   1      39.117  34.094  37.833  1.00  0.00     0.134 A 
ATOM     72  C   UNL A   1      40.539  35.632  36.675  1.00  0.00     0.134 A 
ATOM     73  F   UNL A   1      38.437  32.940  37.900  1.00  0.00    -0.206 F 
ATOM     74  C   UNL A   1      39.025  34.978  38.909  1.00  0.00     0.040 A 
ATOM     75  C   UNL A   1      40.475  36.515  37.755  1.00  0.00     0.040 A 
ATOM     76  F   UNL A   1      41.280  35.984  35.615  1.00  0.00    -0.206 F 
ATOM     77  C   UNL A   1      39.710  36.191  38.874  1.00  0.00     0.006 A 
ENDBRANCH  49  70
BRANCH  61  78
ATOM     78  C   UNL A   1      44.054  29.047  35.187  1.00  0.00     0.057 A 
ATOM     79  C   UNL A   1      45.361  29.481  34.935  1.00  0.00     0.134 A 
ATOM     80  C   UNL A   1      43.878  28.059  36.164  1.00  0.00     0.134 A 
ATOM     81  F   UNL A   1      45.601  30.416  34.002  1.00  0.00    -0.206 F 
ATOM     82  C   UNL A   1      46.454  28.938  35.614  1.00  0.00     0.040 A 
ATOM     83  C   UNL A   1      44.958  27.527  36.868  1.00  0.00     0.040 A 
ATOM     84  F   UNL A   1      42.650  27.605  36.459  1.00  0.00    -0.206 F 
ATOM     85  C   UNL A   1      46.251  27.963  36.590  1.00  0.00     0.006 A 
ENDBRANCH  61  78
ENDBRANCH  35  36
ENDBRANCH  27  30
ENDBRANCH  25  26
ENDBRANCH  24  25
ENDBRANCH  23  24
ENDBRANCH   1  23
TORSDOF 16
ENDMDL
MODEL 3
REMARK VINA RESULT:     -10.9      4.388      9.360
REMARK SMILES COCCS(=O)(=O)Cc1c(C(=O)NCCCCNC(=O)c2ccc(-c3c4nc(c(-c5c(F)cccc5F)c5ccc([nH]5)c(-c5c(F)cccc5F)c5nc(c(-c6c(F)cccc6F)c6ccc3[nH]6)C=C5)C=C4)cc2)oc2ccccc12
REMARK SMILES IDX 14 1 13 2 11 3 12 4 10 6 9 7 81 8 75 9 76 10 80 11 77 12
REMARK SMILES IDX 79 13 78 14 8 15 5 16 6 17 7 18 4 19 3 20 2 21 1 22 15 23
REMARK SMILES IDX 16 24 17 25 18 26 19 27 20 29 21 30 22 31 74 32 23 33 73 34
REMARK SMILES IDX 24 35 25 36 26 37 67 38 27 39 72 40 66 41 68 42 28 43 71 44
REMARK SMILES IDX 65 45 64 46 29 48 55 49 38 50 54 51 39 52 42 53 53 54 69 55
REMARK SMILES IDX 40 56 41 57 52 59 70 60 43 61 30 62 31 63 36 64 32 65 33 66
REMARK SMILES IDX 35 67 37 68 34 69 56 70 57 71 62 72 58 73 59 74 61 75 63 76
REMARK SMILES IDX 60 77 44 78 45 79 50 80 46 81 47 82 49 83 51 84 48 85
REMARK H PARENT 13 5 18 28 68 47 42 58
REMARK Flexibility Score: inf
ROOT
ATOM      1  C   UNL A   1      33.044  30.097  26.204  1.00  0.00     0.116 C 
ENDROOT
BRANCH   1   2
ATOM      2  N   UNL A   1      33.438  29.813  24.835  1.00  0.00    -0.349 N 
ATOM      3  C   UNL A   1      33.464  28.647  24.103  1.00  0.00     0.287 C 
ATOM      4  O   UNL A   1      33.763  28.780  22.914  1.00  0.00    -0.266 OA
ATOM      5  H   UNL A   1      33.744  30.604  24.335  1.00  0.00     0.163 HD
BRANCH   3   6
ATOM      6  C   UNL A   1      33.145  27.348  24.683  1.00  0.00     0.196 A 
ATOM      7  C   UNL A   1      31.929  26.793  25.102  1.00  0.00     0.027 A 
ATOM      8  C   UNL A   1      32.253  25.516  25.674  1.00  0.00     0.025 A 
ATOM      9  O   UNL A   1      34.142  26.441  24.888  1.00  0.00    -0.451 OA
ATOM     10  C   UNL A   1      33.619  25.358  25.502  1.00  0.00     0.135 A 
ATOM     11  C   UNL A   1      31.551  24.473  26.310  1.00  0.00     0.012 A 
ATOM     12  C   UNL A   1      34.350  24.246  25.911  1.00  0.00     0.048 A 
ATOM     13  C   UNL A   1      32.253  23.331  26.723  1.00  0.00     0.001 A 
ATOM     14  C   UNL A   1      33.631  23.222  26.530  1.00  0.00     0.004 A 
BRANCH   7  15
ATOM     15  C   UNL A   1      30.576  27.429  25.033  1.00  0.00     0.177 C 
BRANCH  15  16
ATOM     16  S   UNL A   1      29.673  27.288  23.479  1.00  0.00     0.156 S 
ATOM     17  O   UNL A   1      28.499  26.470  23.732  1.00  0.00    -0.228 OA
ATOM     18  O   UNL A   1      30.622  26.839  22.470  1.00  0.00    -0.228 OA
BRANCH  16  19
ATOM     19  C   UNL A   1      29.134  28.923  22.979  1.00  0.00     0.165 C 
BRANCH  19  20
ATOM     20  C   UNL A   1      27.631  29.082  22.863  1.00  0.00     0.176 C 
BRANCH  20  21
ATOM     21  O   UNL A   1      27.168  30.291  23.465  1.00  0.00    -0.384 OA
ATOM     22  C   UNL A   1      28.192  31.259  23.647  1.00  0.00     0.194 C 
ENDBRANCH  20  21
ENDBRANCH  19  20
ENDBRANCH  16  19
ENDBRANCH  15  16
ENDBRANCH   7  15
ENDBRANCH   3   6
ENDBRANCH   1   2
BRANCH   1  23
ATOM     23  C   UNL A   1      31.588  30.553  26.300  1.00  0.00     0.023 C 
BRANCH  23  24
ATOM     24  C   UNL A   1      31.401  32.034  26.650  1.00  0.00     0.023 C 
BRANCH  24  25
ATOM     25  C   UNL A   1      32.638  32.752  27.185  1.00  0.00     0.116 C 
BRANCH  25  26
ATOM     26  N   UNL A   1      32.376  34.114  27.623  1.00  0.00    -0.352 N 
ATOM     27  C   UNL A   1      33.046  34.876  28.554  1.00  0.00     0.251 C 
ATOM     28  H   UNL A   1      31.609  34.554  27.191  1.00  0.00     0.163 HD
ATOM     29  O   UNL A   1      32.619  35.976  28.869  1.00  0.00    -0.269 OA
BRANCH  27  30
ATOM     30  C   UNL A   1      34.265  34.342  29.204  1.00  0.00     0.039 A 
ATOM     31  C   UNL A   1      34.127  33.598  30.380  1.00  0.00     0.014 A 
ATOM     32  C   UNL A   1      35.533  34.558  28.658  1.00  0.00     0.014 A 
ATOM     33  C   UNL A   1      35.250  33.007  30.963  1.00  0.00     0.010 A 
ATOM     34  C   UNL A   1      36.639  33.910  29.199  1.00  0.00     0.010 A 
ATOM     35  C   UNL A   1      36.510  33.123  30.354  1.00  0.00    -0.014 A 
BRANCH  35  36
ATOM     36  C   UNL A   1      37.698  32.415  30.897  1.00  0.00     0.031 A 
ATOM     37  C   UNL A   1      38.405  32.938  32.115  1.00  0.00     0.074 A 
ATOM     38  C   UNL A   1      38.186  31.340  30.247  1.00  0.00     0.049 A 
ATOM     39  N   UNL A   1      39.499  32.504  32.687  1.00  0.00    -0.248 NA
ATOM     40  C   UNL A   1      37.820  34.125  32.758  1.00  0.00     0.031 C 
ATOM     41  C   UNL A   1      37.623  30.760  29.026  1.00  0.00     0.029 A 
ATOM     42  N   UNL A   1      39.277  30.552  30.515  1.00  0.00    -0.354 N 
ATOM     43  C   UNL A   1      39.742  33.371  33.745  1.00  0.00     0.074 A 
ATOM     44  C   UNL A   1      38.712  34.385  33.704  1.00  0.00     0.031 C 
ATOM     45  C   UNL A   1      38.359  29.698  28.663  1.00  0.00     0.029 A 
ATOM     46  C   UNL A   1      39.467  29.543  29.601  1.00  0.00     0.049 A 
ATOM     47  H   UNL A   1      39.867  30.694  31.290  1.00  0.00     0.167 HD
ATOM     48  C   UNL A   1      40.721  33.314  34.680  1.00  0.00     0.037 A 
ATOM     49  C   UNL A   1      40.430  28.605  29.520  1.00  0.00     0.037 A 
ATOM     50  C   UNL A   1      41.733  32.291  34.732  1.00  0.00     0.049 A 
ATOM     51  C   UNL A   1      41.509  28.565  30.566  1.00  0.00     0.074 A 
ATOM     52  C   UNL A   1      42.730  32.113  35.676  1.00  0.00     0.029 A 
ATOM     53  N   UNL A   1      41.880  31.275  33.799  1.00  0.00    -0.354 N 
ATOM     54  N   UNL A   1      41.686  29.350  31.602  1.00  0.00    -0.248 NA
ATOM     55  C   UNL A   1      42.519  27.506  30.436  1.00  0.00     0.031 C 
ATOM     56  C   UNL A   1      43.508  31.017  35.289  1.00  0.00     0.029 A 
ATOM     57  C   UNL A   1      42.964  30.481  34.133  1.00  0.00     0.049 A 
ATOM     58  H   UNL A   1      41.298  31.140  33.017  1.00  0.00     0.167 HD
ATOM     59  C   UNL A   1      42.807  28.863  32.261  1.00  0.00     0.074 A 
ATOM     60  C   UNL A   1      43.261  27.708  31.515  1.00  0.00     0.031 C 
ATOM     61  C   UNL A   1      43.403  29.329  33.385  1.00  0.00     0.037 A 
BRANCH  48  62
ATOM     62  C   UNL A   1      40.742  34.394  35.723  1.00  0.00     0.057 A 
ATOM     63  C   UNL A   1      40.044  34.268  36.932  1.00  0.00     0.134 A 
ATOM     64  C   UNL A   1      41.489  35.562  35.530  1.00  0.00     0.134 A 
ATOM     65  F   UNL A   1      39.299  33.179  37.177  1.00  0.00    -0.206 F 
ATOM     66  C   UNL A   1      40.063  35.278  37.896  1.00  0.00     0.040 A 
ATOM     67  C   UNL A   1      41.540  36.566  36.498  1.00  0.00     0.040 A 
ATOM     68  F   UNL A   1      42.189  35.745  34.399  1.00  0.00    -0.206 F 
ATOM     69  C   UNL A   1      40.817  36.429  37.682  1.00  0.00     0.006 A 
ENDBRANCH  48  62
BRANCH  49  70
ATOM     70  C   UNL A   1      40.402  27.609  28.421  1.00  0.00     0.057 A 
ATOM     71  C   UNL A   1      41.090  27.839  27.223  1.00  0.00     0.134 A 
ATOM     72  C   UNL A   1      39.693  26.408  28.538  1.00  0.00     0.134 A 
ATOM     73  F   UNL A   1      41.772  28.980  27.045  1.00  0.00    -0.206 F 
ATOM     74  C   UNL A   1      41.061  26.918  26.175  1.00  0.00     0.040 A 
ATOM     75  C   UNL A   1      39.677  25.466  27.507  1.00  0.00     0.040 A 
ATOM     76  F   UNL A   1      39.021  26.125  29.662  1.00  0.00    -0.206 F 
ATOM     77  C   UNL A   1      40.357  25.723  26.319  1.00  0.00     0.006 A 
ENDBRANCH  49  70
BRANCH  61  78
ATOM     78  C   UNL A   1      44.590  28.569  33.900  1.00  0.00     0.057 A 
ATOM     79  C   UNL A   1      44.450  27.428  34.700  1.00  0.00     0.134 A 
ATOM     80  C   UNL A   1      45.890  28.960  33.555  1.00  0.00     0.134 A 
ATOM     81  F   UNL A   1      43.233  27.007  35.078  1.00  0.00    -0.206 F 
ATOM     82  C   UNL A   1      45.561  26.716  35.156  1.00  0.00     0.040 A 
ATOM     83  C   UNL A   1      47.007  28.243  33.982  1.00  0.00     0.040 A 
ATOM     84  F   UNL A   1      46.095  30.040  32.784  1.00  0.00    -0.206 F 
ATOM     85  C   UNL A   1      46.844  27.120  34.790  1.00  0.00     0.006 A 
ENDBRANCH  61  78
ENDBRANCH  35  36
ENDBRANCH  27  30
ENDBRANCH  25  26
ENDBRANCH  24  25
ENDBRANCH  23  24
ENDBRANCH   1  23
TORSDOF 16
ENDMDL
