MODEL 1
REMARK VINA RESULT:     -12.1      0.000      0.000
REMARK SMILES O=C(NCCCCNC(=O)c1ccc(-c2c3nc(c(-c4c(F)cccc4F)c4ccc([nH]4)c(-c4c(F)cccc4F)c4nc(c(-c5c(F)cccc5F)c5ccc2[nH]5)C=C4)C=C3)cc1)C1=Cc2c(Cl)cc(Cl)cc2O[C@@H]1C(F)(F)F
REMARK SMILES IDX 6 1 5 2 4 3 3 4 1 5 2 6 65 8 66 9 76 10 67 11 75 12 68 13
REMARK SMILES IDX 74 14 69 15 70 16 73 17 71 18 72 19 77 20 78 21 79 22 80 23
REMARK SMILES IDX 7 24 8 25 9 26 10 28 11 29 12 30 64 31 13 32 63 33 14 34
REMARK SMILES IDX 15 35 16 36 57 37 17 38 62 39 56 40 58 41 18 42 61 43 55 44
REMARK SMILES IDX 54 45 19 47 45 48 28 49 44 50 29 51 32 52 43 53 59 54 30 55
REMARK SMILES IDX 31 56 42 58 60 59 33 60 20 61 21 62 26 63 22 64 23 65 25 66
REMARK SMILES IDX 27 67 24 68 46 69 47 70 52 71 48 72 49 73 51 74 53 75 50 76
REMARK SMILES IDX 34 77 35 78 40 79 36 80 37 81 39 82 41 83 38 84
REMARK H PARENT 3 7 8 27 58 46 32 57
REMARK Flexibility Score: inf
ROOT
ATOM      1  C   UNL A   1      37.464  21.202  24.763  1.00  0.00     0.023 C 
ENDROOT
BRANCH   1   2
ATOM      2  C   UNL A   1      36.402  20.121  24.948  1.00  0.00     0.023 C 
BRANCH   2   3
ATOM      3  C   UNL A   1      34.977  20.631  25.159  1.00  0.00     0.116 C 
BRANCH   3   4
ATOM      4  N   UNL A   1      34.709  21.167  26.492  1.00  0.00    -0.352 N 
ATOM      5  O   UNL A   1      33.745  22.551  28.007  1.00  0.00    -0.270 OA
ATOM      6  C   UNL A   1      34.109  22.355  26.854  1.00  0.00     0.251 C 
ATOM      7  H   UNL A   1      34.999  20.597  27.241  1.00  0.00     0.163 HD
BRANCH   6   8
ATOM      8  C   UNL A   1      33.773  23.320  25.785  1.00  0.00     0.067 C 
ATOM      9  C   UNL A   1      32.517  23.753  25.600  1.00  0.00     0.027 C 
ATOM     10  C   UNL A   1      34.918  24.024  25.126  1.00  0.00     0.314 C 
ATOM     11  C   UNL A   1      32.438  25.236  25.663  1.00  0.00     0.036 A 
ATOM     12  O   UNL A   1      34.882  25.442  25.400  1.00  0.00    -0.475 OA
ATOM     13  C   UNL A   1      31.269  25.879  26.122  1.00  0.00     0.053 A 
ATOM     14  C   UNL A   1      33.643  25.979  25.662  1.00  0.00     0.130 A 
ATOM     15  Cl  UNL A   1      29.762  25.043  26.307  1.00  0.00    -0.083 Cl
ATOM     16  C   UNL A   1      31.317  27.193  26.603  1.00  0.00     0.042 A 
ATOM     17  C   UNL A   1      33.679  27.299  26.115  1.00  0.00     0.067 A 
ATOM     18  C   UNL A   1      32.521  27.889  26.605  1.00  0.00     0.046 A 
ATOM     19  Cl  UNL A   1      32.598  29.464  27.290  1.00  0.00    -0.084 Cl
BRANCH  10  20
ATOM     20  C   UNL A   1      34.942  23.755  23.609  1.00  0.00     0.429 C 
ATOM     21  F   UNL A   1      34.448  24.811  22.918  1.00  0.00    -0.167 F 
ATOM     22  F   UNL A   1      36.198  23.540  23.153  1.00  0.00    -0.167 F 
ATOM     23  F   UNL A   1      34.200  22.675  23.263  1.00  0.00    -0.167 F 
ENDBRANCH  10  20
ENDBRANCH   6   8
ENDBRANCH   3   4
ENDBRANCH   2   3
ENDBRANCH   1   2
BRANCH   1  24
ATOM     24  C   UNL A   1      38.648  21.167  25.729  1.00  0.00     0.116 C 
BRANCH  24  25
ATOM     25  N   UNL A   1      39.496  19.987  25.619  1.00  0.00    -0.352 N 
ATOM     26  C   UNL A   1      40.816  19.831  25.985  1.00  0.00     0.251 C 
ATOM     27  H   UNL A   1      39.067  19.191  25.230  1.00  0.00     0.163 HD
ATOM     28  O   UNL A   1      41.402  18.771  25.781  1.00  0.00    -0.269 OA
BRANCH  26  29
ATOM     29  C   UNL A   1      41.546  20.978  26.567  1.00  0.00     0.039 A 
ATOM     30  C   UNL A   1      42.186  21.873  25.707  1.00  0.00     0.014 A 
ATOM     31  C   UNL A   1      41.492  21.230  27.939  1.00  0.00     0.014 A 
ATOM     32  C   UNL A   1      42.653  23.090  26.206  1.00  0.00     0.010 A 
ATOM     33  C   UNL A   1      41.884  22.475  28.419  1.00  0.00     0.010 A 
ATOM     34  C   UNL A   1      42.437  23.431  27.552  1.00  0.00    -0.014 A 
BRANCH  34  35
ATOM     35  C   UNL A   1      42.718  24.799  28.057  1.00  0.00     0.031 A 
ATOM     36  C   UNL A   1      44.103  25.176  28.497  1.00  0.00     0.074 A 
ATOM     37  C   UNL A   1      41.699  25.669  28.213  1.00  0.00     0.049 A 
ATOM     38  N   UNL A   1      44.517  26.283  29.059  1.00  0.00    -0.248 NA
ATOM     39  C   UNL A   1      45.154  24.165  28.309  1.00  0.00     0.031 C 
ATOM     40  C   UNL A   1      40.296  25.403  27.885  1.00  0.00     0.029 A 
ATOM     41  N   UNL A   1      41.684  26.952  28.702  1.00  0.00    -0.354 N 
ATOM     42  C   UNL A   1      45.869  26.093  29.311  1.00  0.00     0.074 A 
ATOM     43  C   UNL A   1      46.195  24.748  28.883  1.00  0.00     0.031 C 
ATOM     44  C   UNL A   1      39.564  26.495  28.156  1.00  0.00     0.029 A 
ATOM     45  C   UNL A   1      40.434  27.525  28.711  1.00  0.00     0.049 A 
ATOM     46  H   UNL A   1      42.492  27.418  29.017  1.00  0.00     0.167 HD
ATOM     47  C   UNL A   1      46.765  26.966  29.829  1.00  0.00     0.037 A 
ATOM     48  C   UNL A   1      40.035  28.742  29.126  1.00  0.00     0.037 A 
ATOM     49  C   UNL A   1      46.448  28.313  30.224  1.00  0.00     0.049 A 
ATOM     50  C   UNL A   1      41.050  29.701  29.681  1.00  0.00     0.074 A 
ATOM     51  C   UNL A   1      47.299  29.296  30.700  1.00  0.00     0.029 A 
ATOM     52  N   UNL A   1      45.177  28.868  30.185  1.00  0.00    -0.354 N 
ATOM     53  N   UNL A   1      42.338  29.528  29.851  1.00  0.00    -0.248 NA
ATOM     54  C   UNL A   1      40.558  31.021  30.099  1.00  0.00     0.031 C 
ATOM     55  C   UNL A   1      46.536  30.437  30.977  1.00  0.00     0.029 A 
ATOM     56  C   UNL A   1      45.218  30.175  30.641  1.00  0.00     0.049 A 
ATOM     57  H   UNL A   1      44.367  28.401  29.878  1.00  0.00     0.167 HD
ATOM     58  C   UNL A   1      42.815  30.724  30.373  1.00  0.00     0.074 A 
ATOM     59  C   UNL A   1      41.679  31.617  30.480  1.00  0.00     0.031 C 
ATOM     60  C   UNL A   1      44.080  31.051  30.732  1.00  0.00     0.037 A 
BRANCH  47  61
ATOM     61  C   UNL A   1      48.178  26.489  29.988  1.00  0.00     0.057 A 
ATOM     62  C   UNL A   1      48.605  25.831  31.149  1.00  0.00     0.134 A 
ATOM     63  C   UNL A   1      49.116  26.670  28.964  1.00  0.00     0.134 A 
ATOM     64  F   UNL A   1      47.759  25.639  32.172  1.00  0.00    -0.206 F 
ATOM     65  C   UNL A   1      49.923  25.395  31.297  1.00  0.00     0.040 A 
ATOM     66  C   UNL A   1      50.429  26.216  29.091  1.00  0.00     0.040 A 
ATOM     67  F   UNL A   1      48.770  27.288  27.825  1.00  0.00    -0.206 F 
ATOM     68  C   UNL A   1      50.837  25.582  30.263  1.00  0.00     0.006 A 
ENDBRANCH  47  61
BRANCH  48  69
ATOM     69  C   UNL A   1      38.609  29.139  29.004  1.00  0.00     0.057 A 
ATOM     70  C   UNL A   1      38.093  29.599  27.786  1.00  0.00     0.134 A 
ATOM     71  C   UNL A   1      37.732  29.075  30.093  1.00  0.00     0.134 A 
ATOM     72  F   UNL A   1      38.890  29.700  26.713  1.00  0.00    -0.206 F 
ATOM     73  C   UNL A   1      36.762  29.996  27.659  1.00  0.00     0.040 A 
ATOM     74  C   UNL A   1      36.392  29.449  29.975  1.00  0.00     0.040 A 
ATOM     75  F   UNL A   1      38.164  28.635  31.285  1.00  0.00    -0.206 F 
ATOM     76  C   UNL A   1      35.905  29.917  28.755  1.00  0.00     0.006 A 
ENDBRANCH  48  69
BRANCH  60  77
ATOM     77  C   UNL A   1      44.307  32.440  31.246  1.00  0.00     0.057 A 
ATOM     78  C   UNL A   1      44.258  32.737  32.614  1.00  0.00     0.134 A 
ATOM     79  C   UNL A   1      44.621  33.482  30.365  1.00  0.00     0.134 A 
ATOM     80  F   UNL A   1      43.946  31.783  33.505  1.00  0.00    -0.206 F 
ATOM     81  C   UNL A   1      44.499  34.027  33.087  1.00  0.00     0.040 A 
ATOM     82  C   UNL A   1      44.887  34.772  30.829  1.00  0.00     0.040 A 
ATOM     83  F   UNL A   1      44.691  33.261  29.044  1.00  0.00    -0.206 F 
ATOM     84  C   UNL A   1      44.823  35.047  32.194  1.00  0.00     0.006 A 
ENDBRANCH  60  77
ENDBRANCH  34  35
ENDBRANCH  26  29
ENDBRANCH  24  25
ENDBRANCH   1  24
TORSDOF 12
ENDMDL
MODEL 2
REMARK VINA RESULT:     -12.1      4.621      9.059
REMARK SMILES O=C(NCCCCNC(=O)c1ccc(-c2c3nc(c(-c4c(F)cccc4F)c4ccc([nH]4)c(-c4c(F)cccc4F)c4nc(c(-c5c(F)cccc5F)c5ccc2[nH]5)C=C4)C=C3)cc1)C1=Cc2c(Cl)cc(Cl)cc2O[C@@H]1C(F)(F)F
REMARK SMILES IDX 6 1 5 2 4 3 3 4 1 5 2 6 65 8 66 9 76 10 67 11 75 12 68 13
REMARK SMILES IDX 74 14 69 15 70 16 73 17 71 18 72 19 77 20 78 21 79 22 80 23
REMARK SMILES IDX 7 24 8 25 9 26 10 28 11 29 12 30 64 31 13 32 63 33 14 34
REMARK SMILES IDX 15 35 16 36 57 37 17 38 62 39 56 40 58 41 18 42 61 43 55 44
REMARK SMILES IDX 54 45 19 47 45 48 28 49 44 50 29 51 32 52 43 53 59 54 30 55
REMARK SMILES IDX 31 56 42 58 60 59 33 60 20 61 21 62 26 63 22 64 23 65 25 66
REMARK SMILES IDX 27 67 24 68 46 69 47 70 52 71 48 72 49 73 51 74 53 75 50 76
REMARK SMILES IDX 34 77 35 78 40 79 36 80 37 81 39 82 41 83 38 84
REMARK H PARENT 3 7 8 27 58 46 32 57
REMARK Flexibility Score: inf
ROOT
ATOM      1  C   UNL A   1      31.040  31.822  26.517  1.00  0.00     0.023 C 
ENDROOT
BRANCH   1   2
ATOM      2  C   UNL A   1      30.954  30.750  25.433  1.00  0.00     0.023 C 
BRANCH   2   3
ATOM      3  C   UNL A   1      32.049  29.686  25.476  1.00  0.00     0.116 C 
BRANCH   3   4
ATOM      4  N   UNL A   1      31.720  28.499  26.265  1.00  0.00    -0.352 N 
ATOM      5  O   UNL A   1      31.218  26.314  26.598  1.00  0.00    -0.270 OA
ATOM      6  C   UNL A   1      31.217  27.284  25.850  1.00  0.00     0.251 C 
ATOM      7  H   UNL A   1      31.880  28.581  27.233  1.00  0.00     0.163 HD
BRANCH   6   8
ATOM      8  C   UNL A   1      30.824  27.139  24.431  1.00  0.00     0.067 C 
ATOM      9  C   UNL A   1      29.536  27.073  24.064  1.00  0.00     0.027 C 
ATOM     10  C   UNL A   1      31.889  27.380  23.408  1.00  0.00     0.314 C 
ATOM     11  C   UNL A   1      29.199  28.124  23.069  1.00  0.00     0.036 A 
ATOM     12  O   UNL A   1      31.586  28.543  22.606  1.00  0.00    -0.475 OA
ATOM     13  C   UNL A   1      27.899  28.669  23.005  1.00  0.00     0.053 A 
ATOM     14  C   UNL A   1      30.254  28.864  22.481  1.00  0.00     0.130 A 
ATOM     15  Cl  UNL A   1      26.546  27.938  23.806  1.00  0.00    -0.083 Cl
ATOM     16  C   UNL A   1      27.675  29.921  22.420  1.00  0.00     0.042 A 
ATOM     17  C   UNL A   1      30.020  30.098  21.872  1.00  0.00     0.067 A 
ATOM     18  C   UNL A   1      28.736  30.630  21.866  1.00  0.00     0.046 A 
ATOM     19  Cl  UNL A   1      28.477  32.209  21.241  1.00  0.00    -0.084 Cl
BRANCH  10  20
ATOM     20  C   UNL A   1      32.104  26.139  22.520  1.00  0.00     0.429 C 
ATOM     21  F   UNL A   1      31.775  25.003  23.183  1.00  0.00    -0.167 F 
ATOM     22  F   UNL A   1      31.342  26.177  21.403  1.00  0.00    -0.167 F 
ATOM     23  F   UNL A   1      33.393  26.005  22.123  1.00  0.00    -0.167 F 
ENDBRANCH  10  20
ENDBRANCH   6   8
ENDBRANCH   3   4
ENDBRANCH   2   3
ENDBRANCH   1   2
BRANCH   1  24
ATOM     24  C   UNL A   1      32.252  32.752  26.462  1.00  0.00     0.116 C 
BRANCH  24  25
ATOM     25  N   UNL A   1      32.205  33.878  27.387  1.00  0.00    -0.352 N 
ATOM     26  C   UNL A   1      33.114  34.240  28.359  1.00  0.00     0.251 C 
ATOM     27  H   UNL A   1      31.415  34.461  27.306  1.00  0.00     0.163 HD
ATOM     28  O   UNL A   1      32.898  35.202  29.090  1.00  0.00    -0.269 OA
BRANCH  26  29
ATOM     29  C   UNL A   1      34.324  33.415  28.560  1.00  0.00     0.039 A 
ATOM     30  C   UNL A   1      35.563  34.052  28.658  1.00  0.00     0.014 A 
ATOM     31  C   UNL A   1      34.217  32.039  28.770  1.00  0.00     0.014 A 
ATOM     32  C   UNL A   1      36.673  33.331  29.102  1.00  0.00     0.010 A 
ATOM     33  C   UNL A   1      35.303  31.342  29.290  1.00  0.00     0.010 A 
ATOM     34  C   UNL A   1      36.533  31.989  29.493  1.00  0.00    -0.014 A 
BRANCH  34  35
ATOM     35  C   UNL A   1      37.633  31.264  30.178  1.00  0.00     0.031 A 
ATOM     36  C   UNL A   1      37.940  31.539  31.622  1.00  0.00     0.074 A 
ATOM     37  C   UNL A   1      38.420  30.430  29.468  1.00  0.00     0.049 A 
ATOM     38  N   UNL A   1      38.921  31.084  32.358  1.00  0.00    -0.248 NA
ATOM     39  C   UNL A   1      37.046  32.475  32.320  1.00  0.00     0.031 C 
ATOM     40  C   UNL A   1      38.268  30.127  28.042  1.00  0.00     0.029 A 
ATOM     41  N   UNL A   1      39.516  29.694  29.845  1.00  0.00    -0.354 N 
ATOM     42  C   UNL A   1      38.774  31.692  33.598  1.00  0.00     0.074 A 
ATOM     43  C   UNL A   1      37.638  32.584  33.500  1.00  0.00     0.031 C 
ATOM     44  C   UNL A   1      39.215  29.250  27.674  1.00  0.00     0.029 A 
ATOM     45  C   UNL A   1      40.065  28.956  28.823  1.00  0.00     0.049 A 
ATOM     46  H   UNL A   1      39.875  29.693  30.761  1.00  0.00     0.167 HD
ATOM     47  C   UNL A   1      39.504  31.507  34.723  1.00  0.00     0.037 A 
ATOM     48  C   UNL A   1      41.135  28.140  28.811  1.00  0.00     0.037 A 
ATOM     49  C   UNL A   1      40.613  30.596  34.829  1.00  0.00     0.049 A 
ATOM     50  C   UNL A   1      41.919  27.937  30.077  1.00  0.00     0.074 A 
ATOM     51  C   UNL A   1      41.376  30.291  35.943  1.00  0.00     0.029 A 
ATOM     52  N   UNL A   1      41.116  29.841  33.780  1.00  0.00    -0.354 N 
ATOM     53  N   UNL A   1      41.726  28.470  31.259  1.00  0.00    -0.248 NA
ATOM     54  C   UNL A   1      43.066  27.020  30.009  1.00  0.00     0.031 C 
ATOM     55  C   UNL A   1      42.360  29.372  35.561  1.00  0.00     0.029 A 
ATOM     56  C   UNL A   1      42.188  29.081  34.218  1.00  0.00     0.049 A 
ATOM     57  H   UNL A   1      40.763  29.846  32.861  1.00  0.00     0.167 HD
ATOM     58  C   UNL A   1      42.711  27.936  32.081  1.00  0.00     0.074 A 
ATOM     59  C   UNL A   1      43.491  27.029  31.264  1.00  0.00     0.031 C 
ATOM     60  C   UNL A   1      42.947  28.177  33.393  1.00  0.00     0.037 A 
BRANCH  47  61
ATOM     61  C   UNL A   1      39.115  32.302  35.933  1.00  0.00     0.057 A 
ATOM     62  C   UNL A   1      39.567  33.615  36.128  1.00  0.00     0.134 A 
ATOM     63  C   UNL A   1      38.264  31.761  36.905  1.00  0.00     0.134 A 
ATOM     64  F   UNL A   1      40.395  34.186  35.241  1.00  0.00    -0.206 F 
ATOM     65  C   UNL A   1      39.208  34.350  37.259  1.00  0.00     0.040 A 
ATOM     66  C   UNL A   1      37.879  32.495  38.027  1.00  0.00     0.040 A 
ATOM     67  F   UNL A   1      37.792  30.511  36.777  1.00  0.00    -0.206 F 
ATOM     68  C   UNL A   1      38.358  33.791  38.210  1.00  0.00     0.006 A 
ENDBRANCH  47  61
BRANCH  48  69
ATOM     69  C   UNL A   1      41.514  27.426  27.566  1.00  0.00     0.057 A 
ATOM     70  C   UNL A   1      41.070  26.121  27.323  1.00  0.00     0.134 A 
ATOM     71  C   UNL A   1      42.328  28.022  26.595  1.00  0.00     0.134 A 
ATOM     72  F   UNL A   1      40.302  25.492  28.224  1.00  0.00    -0.206 F 
ATOM     73  C   UNL A   1      41.433  25.428  26.168  1.00  0.00     0.040 A 
ATOM     74  C   UNL A   1      42.682  27.348  25.425  1.00  0.00     0.040 A 
ATOM     75  F   UNL A   1      42.780  29.274  26.766  1.00  0.00    -0.206 F 
ATOM     76  C   UNL A   1      42.239  26.043  25.212  1.00  0.00     0.006 A 
ENDBRANCH  48  69
BRANCH  60  77
ATOM     77  C   UNL A   1      44.075  27.428  34.034  1.00  0.00     0.057 A 
ATOM     78  C   UNL A   1      45.373  27.950  34.081  1.00  0.00     0.134 A 
ATOM     79  C   UNL A   1      43.849  26.189  34.648  1.00  0.00     0.134 A 
ATOM     80  F   UNL A   1      45.654  29.125  33.497  1.00  0.00    -0.206 F 
ATOM     81  C   UNL A   1      46.413  27.259  34.705  1.00  0.00     0.040 A 
ATOM     82  C   UNL A   1      44.876  25.500  35.294  1.00  0.00     0.040 A 
ATOM     83  F   UNL A   1      42.627  25.638  34.642  1.00  0.00    -0.206 F 
ATOM     84  C   UNL A   1      46.163  26.034  35.321  1.00  0.00     0.006 A 
ENDBRANCH  60  77
ENDBRANCH  34  35
ENDBRANCH  26  29
ENDBRANCH  24  25
ENDBRANCH   1  24
TORSDOF 12
ENDMDL
MODEL 3
REMARK VINA RESULT:     -12.0      4.671      8.489
REMARK SMILES O=C(NCCCCNC(=O)c1ccc(-c2c3nc(c(-c4c(F)cccc4F)c4ccc([nH]4)c(-c4c(F)cccc4F)c4nc(c(-c5c(F)cccc5F)c5ccc2[nH]5)C=C4)C=C3)cc1)C1=Cc2c(Cl)cc(Cl)cc2O[C@@H]1C(F)(F)F
REMARK SMILES IDX 6 1 5 2 4 3 3 4 1 5 2 6 65 8 66 9 76 10 67 11 75 12 68 13
REMARK SMILES IDX 74 14 69 15 70 16 73 17 71 18 72 19 77 20 78 21 79 22 80 23
REMARK SMILES IDX 7 24 8 25 9 26 10 28 11 29 12 30 64 31 13 32 63 33 14 34
REMARK SMILES IDX 15 35 16 36 57 37 17 38 62 39 56 40 58 41 18 42 61 43 55 44
REMARK SMILES IDX 54 45 19 47 45 48 28 49 44 50 29 51 32 52 43 53 59 54 30 55
REMARK SMILES IDX 31 56 42 58 60 59 33 60 20 61 21 62 26 63 22 64 23 65 25 66
REMARK SMILES IDX 27 67 24 68 46 69 47 70 52 71 48 72 49 73 51 74 53 75 50 76
REMARK SMILES IDX 34 77 35 78 40 79 36 80 37 81 39 82 41 83 38 84
REMARK H PARENT 3 7 8 27 58 46 32 57
REMARK Flexibility Score: inf
ROOT
ATOM      1  C   UNL A   1      31.413  31.651  26.820  1.00  0.00     0.023 C 
ENDROOT
BRANCH   1   2
ATOM      2  C   UNL A   1      32.110  30.294  26.774  1.00  0.00     0.023 C 
BRANCH   2   3
ATOM      3  C   UNL A   1      31.479  29.264  25.840  1.00  0.00     0.116 C 
BRANCH   3   4
ATOM      4  N   UNL A   1      31.402  27.909  26.384  1.00  0.00    -0.352 N 
ATOM      5  O   UNL A   1      31.320  25.645  26.287  1.00  0.00    -0.270 OA
ATOM      6  C   UNL A   1      31.114  26.723  25.743  1.00  0.00     0.251 C 
ATOM      7  H   UNL A   1      31.581  27.832  27.350  1.00  0.00     0.163 HD
BRANCH   6   8
ATOM      8  C   UNL A   1      30.700  26.780  24.323  1.00  0.00     0.067 C 
ATOM      9  C   UNL A   1      29.407  26.815  23.970  1.00  0.00     0.027 C 
ATOM     10  C   UNL A   1      31.764  27.108  23.323  1.00  0.00     0.314 C 
ATOM     11  C   UNL A   1      29.105  28.000  23.126  1.00  0.00     0.036 A 
ATOM     12  O   UNL A   1      31.502  28.378  22.684  1.00  0.00    -0.475 OA
ATOM     13  C   UNL A   1      27.828  28.602  23.154  1.00  0.00     0.053 A 
ATOM     14  C   UNL A   1      30.184  28.766  22.622  1.00  0.00     0.130 A 
ATOM     15  Cl  UNL A   1      26.454  27.828  23.875  1.00  0.00    -0.083 Cl
ATOM     16  C   UNL A   1      27.653  29.927  22.740  1.00  0.00     0.042 A 
ATOM     17  C   UNL A   1      29.997  30.078  22.183  1.00  0.00     0.067 A 
ATOM     18  C   UNL A   1      28.737  30.658  22.266  1.00  0.00     0.046 A 
ATOM     19  Cl  UNL A   1      28.539  32.315  21.855  1.00  0.00    -0.084 Cl
BRANCH  10  20
ATOM     20  C   UNL A   1      31.916  25.985  22.278  1.00  0.00     0.429 C 
ATOM     21  F   UNL A   1      33.222  25.680  22.078  1.00  0.00    -0.167 F 
ATOM     22  F   UNL A   1      31.301  24.845  22.667  1.00  0.00    -0.167 F 
ATOM     23  F   UNL A   1      31.402  26.328  21.072  1.00  0.00    -0.167 F 
ENDBRANCH  10  20
ENDBRANCH   6   8
ENDBRANCH   3   4
ENDBRANCH   2   3
ENDBRANCH   1   2
BRANCH   1  24
ATOM     24  C   UNL A   1      32.275  32.872  26.501  1.00  0.00     0.116 C 
BRANCH  24  25
ATOM     25  N   UNL A   1      32.152  33.975  27.446  1.00  0.00    -0.352 N 
ATOM     26  C   UNL A   1      33.006  34.343  28.465  1.00  0.00     0.251 C 
ATOM     27  H   UNL A   1      31.349  34.536  27.342  1.00  0.00     0.163 HD
ATOM     28  O   UNL A   1      32.728  35.282  29.205  1.00  0.00    -0.269 OA
BRANCH  26  29
ATOM     29  C   UNL A   1      34.231  33.551  28.703  1.00  0.00     0.039 A 
ATOM     30  C   UNL A   1      35.470  34.191  28.629  1.00  0.00     0.014 A 
ATOM     31  C   UNL A   1      34.145  32.219  29.114  1.00  0.00     0.014 A 
ATOM     32  C   UNL A   1      36.611  33.536  29.099  1.00  0.00     0.010 A 
ATOM     33  C   UNL A   1      35.266  31.600  29.657  1.00  0.00     0.010 A 
ATOM     34  C   UNL A   1      36.503  32.265  29.686  1.00  0.00    -0.014 A 
BRANCH  34  35
ATOM     35  C   UNL A   1      37.649  31.640  30.394  1.00  0.00     0.031 A 
ATOM     36  C   UNL A   1      38.500  30.614  29.704  1.00  0.00     0.074 A 
ATOM     37  C   UNL A   1      37.860  31.928  31.695  1.00  0.00     0.049 A 
ATOM     38  N   UNL A   1      39.475  29.888  30.189  1.00  0.00    -0.248 NA
ATOM     39  C   UNL A   1      38.194  30.345  28.291  1.00  0.00     0.031 C 
ATOM     40  C   UNL A   1      37.064  32.859  32.500  1.00  0.00     0.029 A 
ATOM     41  N   UNL A   1      38.800  31.454  32.576  1.00  0.00    -0.354 N 
ATOM     42  C   UNL A   1      39.883  29.064  29.149  1.00  0.00     0.074 A 
ATOM     43  C   UNL A   1      39.021  29.346  28.022  1.00  0.00     0.031 C 
ATOM     44  C   UNL A   1      37.565  32.907  33.744  1.00  0.00     0.029 A 
ATOM     45  C   UNL A   1      38.692  31.986  33.839  1.00  0.00     0.049 A 
ATOM     46  H   UNL A   1      39.488  30.795  32.328  1.00  0.00     0.167 HD
ATOM     47  C   UNL A   1      40.900  28.170  29.127  1.00  0.00     0.037 A 
ATOM     48  C   UNL A   1      39.416  31.753  34.950  1.00  0.00     0.037 A 
ATOM     49  C   UNL A   1      41.778  27.914  30.239  1.00  0.00     0.049 A 
ATOM     50  C   UNL A   1      40.550  30.770  34.897  1.00  0.00     0.074 A 
ATOM     51  C   UNL A   1      42.877  27.073  30.295  1.00  0.00     0.029 A 
ATOM     52  N   UNL A   1      41.657  28.499  31.491  1.00  0.00    -0.354 N 
ATOM     53  N   UNL A   1      40.966  30.047  33.886  1.00  0.00    -0.248 NA
ATOM     54  C   UNL A   1      41.317  30.571  36.135  1.00  0.00     0.031 C 
ATOM     55  C   UNL A   1      43.403  27.129  31.591  1.00  0.00     0.029 A 
ATOM     56  C   UNL A   1      42.653  28.028  32.330  1.00  0.00     0.049 A 
ATOM     57  H   UNL A   1      40.965  29.152  31.744  1.00  0.00     0.167 HD
ATOM     58  C   UNL A   1      42.056  29.326  34.357  1.00  0.00     0.074 A 
ATOM     59  C   UNL A   1      42.243  29.709  35.742  1.00  0.00     0.031 C 
ATOM     60  C   UNL A   1      42.829  28.427  33.702  1.00  0.00     0.037 A 
BRANCH  47  61
ATOM     61  C   UNL A   1      41.121  27.411  27.853  1.00  0.00     0.057 A 
ATOM     62  C   UNL A   1      40.528  26.162  27.629  1.00  0.00     0.134 A 
ATOM     63  C   UNL A   1      41.917  27.942  26.831  1.00  0.00     0.134 A 
ATOM     64  F   UNL A   1      39.765  25.592  28.574  1.00  0.00    -0.206 F 
ATOM     65  C   UNL A   1      40.741  25.455  26.445  1.00  0.00     0.040 A 
ATOM     66  C   UNL A   1      42.118  27.256  25.633  1.00  0.00     0.040 A 
ATOM     67  F   UNL A   1      42.511  29.136  26.980  1.00  0.00    -0.206 F 
ATOM     68  C   UNL A   1      41.534  26.005  25.440  1.00  0.00     0.006 A 
ENDBRANCH  47  61
BRANCH  48  69
ATOM     69  C   UNL A   1      39.111  32.487  36.204  1.00  0.00     0.057 A 
ATOM     70  C   UNL A   1      39.675  33.744  36.456  1.00  0.00     0.134 A 
ATOM     71  C   UNL A   1      38.260  31.955  37.180  1.00  0.00     0.134 A 
ATOM     72  F   UNL A   1      40.512  34.297  35.567  1.00  0.00    -0.206 F 
ATOM     73  C   UNL A   1      39.417  34.439  37.638  1.00  0.00     0.040 A 
ATOM     74  C   UNL A   1      37.977  32.648  38.358  1.00  0.00     0.040 A 
ATOM     75  F   UNL A   1      37.683  30.758  36.995  1.00  0.00    -0.206 F 
ATOM     76  C   UNL A   1      38.561  33.892  38.592  1.00  0.00     0.006 A 
ENDBRANCH  48  69
BRANCH  60  77
ATOM     77  C   UNL A   1      43.966  27.819  34.465  1.00  0.00     0.057 A 
ATOM     78  C   UNL A   1      45.220  28.439  34.538  1.00  0.00     0.134 A 
ATOM     79  C   UNL A   1      43.791  26.622  35.170  1.00  0.00     0.134 A 
ATOM     80  F   UNL A   1      45.453  29.580  33.871  1.00  0.00    -0.206 F 
ATOM     81  C   UNL A   1      46.265  27.881  35.274  1.00  0.00     0.040 A 
ATOM     82  C   UNL A   1      44.822  26.066  35.928  1.00  0.00     0.040 A 
ATOM     83  F   UNL A   1      42.612  25.982  35.145  1.00  0.00    -0.206 F 
ATOM     84  C   UNL A   1      46.065  26.695  35.979  1.00  0.00     0.006 A 
ENDBRANCH  60  77
ENDBRANCH  34  35
ENDBRANCH  26  29
ENDBRANCH  24  25
ENDBRANCH   1  24
TORSDOF 12
ENDMDL
