MODEL 1
REMARK VINA RESULT:     -10.6      0.000      0.000
REMARK SMILES CC(=O)N(C)n1cnn(CC(=O)NCCCCNC(=O)c2ccc(-c3c4nc(c(-c5c(F)cccc5F)c5ccc([nH]5)c(-c5c(F)cccc5F)c5nc(c(-c6c(F)cccc6F)c6ccc3[nH]6)C=C5)C=C4)cc2)c1=S
REMARK SMILES IDX 15 1 14 2 13 3 11 4 12 5 10 7 9 8 6 9 7 10 75 11 8 12 76 13
REMARK SMILES IDX 4 14 5 15 2 16 1 17 3 18 16 19 17 20 18 21 19 22 20 24 21 25
REMARK SMILES IDX 22 26 74 27 23 28 73 29 24 30 25 31 26 32 67 33 27 34 72 35
REMARK SMILES IDX 66 36 68 37 28 38 71 39 65 40 64 41 29 43 55 44 38 45 54 46
REMARK SMILES IDX 39 47 42 48 53 49 69 50 40 51 41 52 52 54 70 55 43 56 30 57
REMARK SMILES IDX 31 58 36 59 32 60 33 61 35 62 37 63 34 64 56 65 57 66 62 67
REMARK SMILES IDX 58 68 59 69 61 70 63 71 60 72 44 73 45 74 50 75 46 76 47 77
REMARK SMILES IDX 49 78 51 79 48 80
REMARK H PARENT 13 6 18 23 68 42 42 53
REMARK Flexibility Score: inf
ROOT
ATOM      1  C   UNL A   1      40.842  21.575  27.506  1.00  0.00     0.023 C 
ENDROOT
BRANCH   1   2
ATOM      2  C   UNL A   1      39.728  21.531  26.458  1.00  0.00     0.116 C 
BRANCH   2   3
ATOM      3  N   UNL A   1      38.829  22.662  26.534  1.00  0.00    -0.354 N 
ATOM      4  C   UNL A   1      37.718  22.946  25.788  1.00  0.00     0.241 C 
ATOM      5  O   UNL A   1      37.007  23.875  26.186  1.00  0.00    -0.273 OA
ATOM      6  H   UNL A   1      39.050  23.327  27.224  1.00  0.00     0.163 HD
BRANCH   4   7
ATOM      7  C   UNL A   1      37.247  22.038  24.647  1.00  0.00     0.247 C 
BRANCH   7   8
ATOM      8  N   UNL A   1      35.933  22.351  24.098  1.00  0.00    -0.227 N 
ATOM      9  N   UNL A   1      33.784  22.519  23.590  1.00  0.00    -0.211 N 
ATOM     10  C   UNL A   1      34.549  23.331  22.824  1.00  0.00     0.247 A 
ATOM     11  C   UNL A   1      34.652  21.871  24.459  1.00  0.00     0.217 A 
ATOM     12  N   UNL A   1      35.816  23.287  23.083  1.00  0.00    -0.158 NA
ATOM     13  S   UNL A   1      34.305  20.792  25.683  1.00  0.00    -0.037 S 
BRANCH   9  14
ATOM     14  N   UNL A   1      32.400  22.349  23.413  1.00  0.00    -0.250 N 
ATOM     15  C   UNL A   1      32.013  21.317  22.464  1.00  0.00     0.176 C 
BRANCH  14  16
ATOM     16  C   UNL A   1      31.540  23.160  24.141  1.00  0.00     0.238 C 
ATOM     17  C   UNL A   1      30.603  24.034  23.345  1.00  0.00     0.116 C 
ATOM     18  O   UNL A   1      31.498  23.168  25.372  1.00  0.00    -0.273 OA
ENDBRANCH  14  16
ENDBRANCH   9  14
ENDBRANCH   7   8
ENDBRANCH   4   7
ENDBRANCH   2   3
ENDBRANCH   1   2
BRANCH   1  19
ATOM     19  C   UNL A   1      42.049  20.664  27.231  1.00  0.00     0.023 C 
BRANCH  19  20
ATOM     20  C   UNL A   1      42.117  20.095  25.820  1.00  0.00     0.116 C 
BRANCH  20  21
ATOM     21  N   UNL A   1      43.487  19.850  25.352  1.00  0.00    -0.352 N 
ATOM     22  C   UNL A   1      44.419  20.781  24.932  1.00  0.00     0.251 C 
ATOM     23  H   UNL A   1      43.777  18.909  25.335  1.00  0.00     0.163 HD
ATOM     24  O   UNL A   1      45.361  20.463  24.200  1.00  0.00    -0.269 OA
BRANCH  22  25
ATOM     25  C   UNL A   1      44.291  22.166  25.404  1.00  0.00     0.039 A 
ATOM     26  C   UNL A   1      43.370  23.078  24.873  1.00  0.00     0.014 A 
ATOM     27  C   UNL A   1      45.123  22.527  26.456  1.00  0.00     0.014 A 
ATOM     28  C   UNL A   1      43.253  24.336  25.465  1.00  0.00     0.010 A 
ATOM     29  C   UNL A   1      44.853  23.658  27.165  1.00  0.00     0.010 A 
ATOM     30  C   UNL A   1      44.000  24.609  26.619  1.00  0.00    -0.014 A 
BRANCH  30  31
ATOM     31  C   UNL A   1      43.863  25.841  27.386  1.00  0.00     0.031 A 
ATOM     32  C   UNL A   1      44.844  26.897  27.015  1.00  0.00     0.074 A 
ATOM     33  C   UNL A   1      42.735  26.074  28.099  1.00  0.00     0.049 A 
ATOM     34  N   UNL A   1      45.743  27.442  27.765  1.00  0.00    -0.248 NA
ATOM     35  C   UNL A   1      44.945  27.284  25.596  1.00  0.00     0.031 C 
ATOM     36  C   UNL A   1      41.567  25.191  28.250  1.00  0.00     0.029 A 
ATOM     37  N   UNL A   1      42.319  27.209  28.722  1.00  0.00    -0.354 N 
ATOM     38  C   UNL A   1      46.354  28.414  26.973  1.00  0.00     0.074 A 
ATOM     39  C   UNL A   1      45.998  28.103  25.617  1.00  0.00     0.031 C 
ATOM     40  C   UNL A   1      40.509  25.900  28.699  1.00  0.00     0.029 A 
ATOM     41  C   UNL A   1      40.955  27.239  29.023  1.00  0.00     0.049 A 
ATOM     42  H   UNL A   1      42.929  27.950  28.943  1.00  0.00     0.167 HD
ATOM     43  C   UNL A   1      46.836  29.561  27.529  1.00  0.00     0.037 A 
ATOM     44  C   UNL A   1      40.247  28.308  29.473  1.00  0.00     0.037 A 
ATOM     45  C   UNL A   1      46.983  29.406  28.958  1.00  0.00     0.049 A 
ATOM     46  C   UNL A   1      41.232  29.288  29.994  1.00  0.00     0.074 A 
ATOM     47  C   UNL A   1      47.680  28.539  29.777  1.00  0.00     0.029 A 
ATOM     48  N   UNL A   1      46.025  29.982  29.757  1.00  0.00    -0.354 N 
ATOM     49  N   UNL A   1      41.954  29.082  31.061  1.00  0.00    -0.248 NA
ATOM     50  C   UNL A   1      41.767  30.262  29.055  1.00  0.00     0.031 C 
ATOM     51  C   UNL A   1      46.801  28.276  30.869  1.00  0.00     0.029 A 
ATOM     52  C   UNL A   1      45.661  29.064  30.706  1.00  0.00     0.049 A 
ATOM     53  H   UNL A   1      45.664  30.894  29.663  1.00  0.00     0.167 HD
ATOM     54  C   UNL A   1      43.219  29.542  30.723  1.00  0.00     0.074 A 
ATOM     55  C   UNL A   1      43.025  30.328  29.504  1.00  0.00     0.031 C 
ATOM     56  C   UNL A   1      44.338  28.988  31.277  1.00  0.00     0.037 A 
BRANCH  43  57
ATOM     57  C   UNL A   1      46.757  30.930  26.882  1.00  0.00     0.057 A 
ATOM     58  C   UNL A   1      47.911  31.737  26.874  1.00  0.00     0.134 A 
ATOM     59  C   UNL A   1      45.564  31.609  26.555  1.00  0.00     0.134 A 
ATOM     60  F   UNL A   1      49.118  31.216  27.148  1.00  0.00    -0.206 F 
ATOM     61  C   UNL A   1      47.864  33.124  26.684  1.00  0.00     0.040 A 
ATOM     62  C   UNL A   1      45.513  32.986  26.315  1.00  0.00     0.040 A 
ATOM     63  F   UNL A   1      44.366  31.017  26.539  1.00  0.00    -0.206 F 
ATOM     64  C   UNL A   1      46.658  33.756  26.421  1.00  0.00     0.006 A 
ENDBRANCH  43  57
BRANCH  44  65
ATOM     65  C   UNL A   1      38.828  28.666  29.239  1.00  0.00     0.057 A 
ATOM     66  C   UNL A   1      37.905  28.724  30.295  1.00  0.00     0.134 A 
ATOM     67  C   UNL A   1      38.401  29.230  28.023  1.00  0.00     0.134 A 
ATOM     68  F   UNL A   1      38.228  28.250  31.507  1.00  0.00    -0.206 F 
ATOM     69  C   UNL A   1      36.646  29.328  30.158  1.00  0.00     0.040 A 
ATOM     70  C   UNL A   1      37.147  29.832  27.872  1.00  0.00     0.040 A 
ATOM     71  F   UNL A   1      39.223  29.294  26.965  1.00  0.00    -0.206 F 
ATOM     72  C   UNL A   1      36.269  29.896  28.946  1.00  0.00     0.006 A 
ENDBRANCH  44  65
BRANCH  56  73
ATOM     73  C   UNL A   1      44.155  28.039  32.432  1.00  0.00     0.057 A 
ATOM     74  C   UNL A   1      43.907  28.438  33.754  1.00  0.00     0.134 A 
ATOM     75  C   UNL A   1      44.070  26.670  32.163  1.00  0.00     0.134 A 
ATOM     76  F   UNL A   1      43.867  29.731  34.094  1.00  0.00    -0.206 F 
ATOM     77  C   UNL A   1      43.624  27.516  34.767  1.00  0.00     0.040 A 
ATOM     78  C   UNL A   1      43.756  25.741  33.157  1.00  0.00     0.040 A 
ATOM     79  F   UNL A   1      44.238  26.217  30.911  1.00  0.00    -0.206 F 
ATOM     80  C   UNL A   1      43.541  26.161  34.467  1.00  0.00     0.006 A 
ENDBRANCH  56  73
ENDBRANCH  30  31
ENDBRANCH  22  25
ENDBRANCH  20  21
ENDBRANCH  19  20
ENDBRANCH   1  19
TORSDOF 14
ENDMDL
MODEL 2
REMARK VINA RESULT:     -10.6      2.487      6.277
REMARK SMILES CC(=O)N(C)n1cnn(CC(=O)NCCCCNC(=O)c2ccc(-c3c4nc(c(-c5c(F)cccc5F)c5ccc([nH]5)c(-c5c(F)cccc5F)c5nc(c(-c6c(F)cccc6F)c6ccc3[nH]6)C=C5)C=C4)cc2)c1=S
REMARK SMILES IDX 15 1 14 2 13 3 11 4 12 5 10 7 9 8 6 9 7 10 75 11 8 12 76 13
REMARK SMILES IDX 4 14 5 15 2 16 1 17 3 18 16 19 17 20 18 21 19 22 20 24 21 25
REMARK SMILES IDX 22 26 74 27 23 28 73 29 24 30 25 31 26 32 67 33 27 34 72 35
REMARK SMILES IDX 66 36 68 37 28 38 71 39 65 40 64 41 29 43 55 44 38 45 54 46
REMARK SMILES IDX 39 47 42 48 53 49 69 50 40 51 41 52 52 54 70 55 43 56 30 57
REMARK SMILES IDX 31 58 36 59 32 60 33 61 35 62 37 63 34 64 56 65 57 66 62 67
REMARK SMILES IDX 58 68 59 69 61 70 63 71 60 72 44 73 45 74 50 75 46 76 47 77
REMARK SMILES IDX 49 78 51 79 48 80
REMARK H PARENT 13 6 18 23 68 42 42 53
REMARK Flexibility Score: inf
ROOT
ATOM      1  C   UNL A   1      36.379  20.957  24.642  1.00  0.00     0.023 C 
ENDROOT
BRANCH   1   2
ATOM      2  C   UNL A   1      35.353  21.307  25.722  1.00  0.00     0.116 C 
BRANCH   2   3
ATOM      3  N   UNL A   1      34.311  20.314  25.862  1.00  0.00    -0.354 N 
ATOM      4  C   UNL A   1      33.101  20.221  25.230  1.00  0.00     0.241 C 
ATOM      5  O   UNL A   1      32.478  19.164  25.379  1.00  0.00    -0.273 OA
ATOM      6  H   UNL A   1      34.500  19.597  26.510  1.00  0.00     0.163 HD
BRANCH   4   7
ATOM      7  C   UNL A   1      32.628  21.269  24.217  1.00  0.00     0.247 C 
BRANCH   7   8
ATOM      8  N   UNL A   1      31.971  22.441  24.784  1.00  0.00    -0.227 N 
ATOM      9  N   UNL A   1      31.155  24.441  25.268  1.00  0.00    -0.211 N 
ATOM     10  C   UNL A   1      30.786  23.512  26.179  1.00  0.00     0.247 A 
ATOM     11  C   UNL A   1      31.919  23.776  24.319  1.00  0.00     0.217 A 
ATOM     12  N   UNL A   1      31.222  22.316  25.943  1.00  0.00    -0.158 NA
ATOM     13  S   UNL A   1      32.608  24.366  22.918  1.00  0.00    -0.037 S 
BRANCH   9  14
ATOM     14  N   UNL A   1      30.864  25.811  25.384  1.00  0.00    -0.250 N 
ATOM     15  C   UNL A   1      29.805  26.302  24.516  1.00  0.00     0.176 C 
BRANCH  14  16
ATOM     16  C   UNL A   1      31.595  26.563  26.294  1.00  0.00     0.238 C 
ATOM     17  C   UNL A   1      33.079  26.668  26.045  1.00  0.00     0.116 C 
ATOM     18  O   UNL A   1      31.085  27.151  27.249  1.00  0.00    -0.273 OA
ENDBRANCH  14  16
ENDBRANCH   9  14
ENDBRANCH   7   8
ENDBRANCH   4   7
ENDBRANCH   2   3
ENDBRANCH   1   2
BRANCH   1  19
ATOM     19  C   UNL A   1      37.375  19.847  25.008  1.00  0.00     0.023 C 
BRANCH  19  20
ATOM     20  C   UNL A   1      38.728  20.336  25.509  1.00  0.00     0.116 C 
BRANCH  20  21
ATOM     21  N   UNL A   1      39.695  19.255  25.738  1.00  0.00    -0.352 N 
ATOM     22  C   UNL A   1      41.054  19.366  25.965  1.00  0.00     0.251 C 
ATOM     23  H   UNL A   1      39.331  18.340  25.728  1.00  0.00     0.163 HD
ATOM     24  O   UNL A   1      41.822  18.425  25.748  1.00  0.00    -0.269 OA
BRANCH  22  25
ATOM     25  C   UNL A   1      41.574  20.627  26.511  1.00  0.00     0.039 A 
ATOM     26  C   UNL A   1      42.342  21.530  25.765  1.00  0.00     0.014 A 
ATOM     27  C   UNL A   1      41.226  20.908  27.826  1.00  0.00     0.014 A 
ATOM     28  C   UNL A   1      42.696  22.750  26.343  1.00  0.00     0.010 A 
ATOM     29  C   UNL A   1      41.377  22.175  28.302  1.00  0.00     0.010 A 
ATOM     30  C   UNL A   1      42.197  23.062  27.615  1.00  0.00    -0.014 A 
BRANCH  30  31
ATOM     31  C   UNL A   1      42.402  24.353  28.258  1.00  0.00     0.031 A 
ATOM     32  C   UNL A   1      41.288  25.317  28.049  1.00  0.00     0.074 A 
ATOM     33  C   UNL A   1      43.351  24.491  29.215  1.00  0.00     0.049 A 
ATOM     34  N   UNL A   1      41.335  26.469  27.468  1.00  0.00    -0.248 NA
ATOM     35  C   UNL A   1      39.920  24.882  28.386  1.00  0.00     0.031 C 
ATOM     36  C   UNL A   1      44.290  23.468  29.706  1.00  0.00     0.029 A 
ATOM     37  N   UNL A   1      43.586  25.527  30.064  1.00  0.00    -0.354 N 
ATOM     38  C   UNL A   1      40.053  27.004  27.589  1.00  0.00     0.074 A 
ATOM     39  C   UNL A   1      39.194  25.905  27.932  1.00  0.00     0.031 C 
ATOM     40  C   UNL A   1      44.805  23.849  30.894  1.00  0.00     0.029 A 
ATOM     41  C   UNL A   1      44.368  25.201  31.174  1.00  0.00     0.049 A 
ATOM     42  H   UNL A   1      43.234  26.434  29.908  1.00  0.00     0.167 HD
ATOM     43  C   UNL A   1      39.869  28.350  27.702  1.00  0.00     0.037 A 
ATOM     44  C   UNL A   1      44.603  25.985  32.259  1.00  0.00     0.037 A 
ATOM     45  C   UNL A   1      41.055  29.059  27.278  1.00  0.00     0.049 A 
ATOM     46  C   UNL A   1      44.256  27.374  31.870  1.00  0.00     0.074 A 
ATOM     47  C   UNL A   1      41.796  29.107  26.113  1.00  0.00     0.029 A 
ATOM     48  N   UNL A   1      41.872  29.565  28.260  1.00  0.00    -0.354 N 
ATOM     49  N   UNL A   1      44.932  28.064  30.994  1.00  0.00    -0.248 NA
ATOM     50  C   UNL A   1      42.881  27.803  32.078  1.00  0.00     0.031 C 
ATOM     51  C   UNL A   1      43.154  29.168  26.544  1.00  0.00     0.029 A 
ATOM     52  C   UNL A   1      43.165  29.248  27.936  1.00  0.00     0.049 A 
ATOM     53  H   UNL A   1      41.580  30.067  29.056  1.00  0.00     0.167 HD
ATOM     54  C   UNL A   1      43.965  28.702  30.229  1.00  0.00     0.074 A 
ATOM     55  C   UNL A   1      42.724  28.566  30.992  1.00  0.00     0.031 C 
ATOM     56  C   UNL A   1      44.196  29.003  28.916  1.00  0.00     0.037 A 
BRANCH  43  57
ATOM     57  C   UNL A   1      38.826  29.004  28.588  1.00  0.00     0.057 A 
ATOM     58  C   UNL A   1      38.793  28.659  29.953  1.00  0.00     0.134 A 
ATOM     59  C   UNL A   1      37.684  29.695  28.129  1.00  0.00     0.134 A 
ATOM     60  F   UNL A   1      39.823  28.016  30.526  1.00  0.00    -0.206 F 
ATOM     61  C   UNL A   1      37.668  28.870  30.760  1.00  0.00     0.040 A 
ATOM     62  C   UNL A   1      36.575  29.954  28.941  1.00  0.00     0.040 A 
ATOM     63  F   UNL A   1      37.522  30.078  26.860  1.00  0.00    -0.206 F 
ATOM     64  C   UNL A   1      36.546  29.504  30.249  1.00  0.00     0.006 A 
ENDBRANCH  43  57
BRANCH  44  65
ATOM     65  C   UNL A   1      44.834  25.597  33.671  1.00  0.00     0.057 A 
ATOM     66  C   UNL A   1      43.774  25.210  34.506  1.00  0.00     0.134 A 
ATOM     67  C   UNL A   1      46.126  25.329  34.159  1.00  0.00     0.134 A 
ATOM     68  F   UNL A   1      42.503  25.386  34.116  1.00  0.00    -0.206 F 
ATOM     69  C   UNL A   1      43.984  24.573  35.738  1.00  0.00     0.040 A 
ATOM     70  C   UNL A   1      46.350  24.697  35.388  1.00  0.00     0.040 A 
ATOM     71  F   UNL A   1      47.213  25.591  33.419  1.00  0.00    -0.206 F 
ATOM     72  C   UNL A   1      45.276  24.303  36.176  1.00  0.00     0.006 A 
ENDBRANCH  44  65
BRANCH  56  73
ATOM     73  C   UNL A   1      45.598  28.841  28.392  1.00  0.00     0.057 A 
ATOM     74  C   UNL A   1      46.627  29.777  28.579  1.00  0.00     0.134 A 
ATOM     75  C   UNL A   1      45.959  27.618  27.818  1.00  0.00     0.134 A 
ATOM     76  F   UNL A   1      46.406  30.936  29.209  1.00  0.00    -0.206 F 
ATOM     77  C   UNL A   1      47.942  29.524  28.178  1.00  0.00     0.040 A 
ATOM     78  C   UNL A   1      47.275  27.339  27.443  1.00  0.00     0.040 A 
ATOM     79  F   UNL A   1      45.043  26.651  27.660  1.00  0.00    -0.206 F 
ATOM     80  C   UNL A   1      48.271  28.297  27.613  1.00  0.00     0.006 A 
ENDBRANCH  56  73
ENDBRANCH  30  31
ENDBRANCH  22  25
ENDBRANCH  20  21
ENDBRANCH  19  20
ENDBRANCH   1  19
TORSDOF 14
ENDMDL
MODEL 3
REMARK VINA RESULT:     -10.3      4.094      9.040
REMARK SMILES CC(=O)N(C)n1cnn(CC(=O)NCCCCNC(=O)c2ccc(-c3c4nc(c(-c5c(F)cccc5F)c5ccc([nH]5)c(-c5c(F)cccc5F)c5nc(c(-c6c(F)cccc6F)c6ccc3[nH]6)C=C5)C=C4)cc2)c1=S
REMARK SMILES IDX 15 1 14 2 13 3 11 4 12 5 10 7 9 8 6 9 7 10 75 11 8 12 76 13
REMARK SMILES IDX 4 14 5 15 2 16 1 17 3 18 16 19 17 20 18 21 19 22 20 24 21 25
REMARK SMILES IDX 22 26 74 27 23 28 73 29 24 30 25 31 26 32 67 33 27 34 72 35
REMARK SMILES IDX 66 36 68 37 28 38 71 39 65 40 64 41 29 43 55 44 38 45 54 46
REMARK SMILES IDX 39 47 42 48 53 49 69 50 40 51 41 52 52 54 70 55 43 56 30 57
REMARK SMILES IDX 31 58 36 59 32 60 33 61 35 62 37 63 34 64 56 65 57 66 62 67
REMARK SMILES IDX 58 68 59 69 61 70 63 71 60 72 44 73 45 74 50 75 46 76 47 77
REMARK SMILES IDX 49 78 51 79 48 80
REMARK H PARENT 13 6 18 23 68 42 42 53
REMARK Flexibility Score: inf
ROOT
ATOM      1  C   UNL A   1      31.553  30.233  26.005  1.00  0.00     0.023 C 
ENDROOT
BRANCH   1   2
ATOM      2  C   UNL A   1      31.027  29.842  24.622  1.00  0.00     0.116 C 
BRANCH   2   3
ATOM      3  N   UNL A   1      32.074  29.447  23.705  1.00  0.00    -0.354 N 
ATOM      4  C   UNL A   1      32.499  28.196  23.351  1.00  0.00     0.241 C 
ATOM      5  O   UNL A   1      33.277  28.126  22.392  1.00  0.00    -0.273 OA
ATOM      6  H   UNL A   1      32.552  30.189  23.270  1.00  0.00     0.163 HD
BRANCH   4   7
ATOM      7  C   UNL A   1      31.891  26.926  23.956  1.00  0.00     0.247 C 
BRANCH   7   8
ATOM      8  N   UNL A   1      32.846  25.890  24.333  1.00  0.00    -0.227 N 
ATOM      9  N   UNL A   1      34.227  24.165  24.463  1.00  0.00    -0.211 N 
ATOM     10  C   UNL A   1      34.204  24.880  25.611  1.00  0.00     0.247 A 
ATOM     11  C   UNL A   1      33.365  24.807  23.585  1.00  0.00     0.217 A 
ATOM     12  N   UNL A   1      33.423  25.911  25.593  1.00  0.00    -0.158 NA
ATOM     13  S   UNL A   1      33.014  24.441  21.995  1.00  0.00    -0.037 S 
BRANCH   9  14
ATOM     14  N   UNL A   1      34.937  22.962  24.302  1.00  0.00    -0.250 N 
ATOM     15  C   UNL A   1      34.198  21.752  24.625  1.00  0.00     0.176 C 
BRANCH  14  16
ATOM     16  C   UNL A   1      36.252  23.029  23.861  1.00  0.00     0.238 C 
ATOM     17  C   UNL A   1      37.319  23.073  24.924  1.00  0.00     0.116 C 
ATOM     18  O   UNL A   1      36.565  23.024  22.669  1.00  0.00    -0.273 OA
ENDBRANCH  14  16
ENDBRANCH   9  14
ENDBRANCH   7   8
ENDBRANCH   4   7
ENDBRANCH   2   3
ENDBRANCH   1   2
BRANCH   1  19
ATOM     19  C   UNL A   1      31.357  31.705  26.398  1.00  0.00     0.023 C 
BRANCH  19  20
ATOM     20  C   UNL A   1      32.458  32.287  27.275  1.00  0.00     0.116 C 
BRANCH  20  21
ATOM     21  N   UNL A   1      32.334  33.735  27.487  1.00  0.00    -0.352 N 
ATOM     22  C   UNL A   1      32.993  34.516  28.419  1.00  0.00     0.251 C 
ATOM     23  H   UNL A   1      31.706  34.208  26.894  1.00  0.00     0.163 HD
ATOM     24  O   UNL A   1      32.540  35.605  28.781  1.00  0.00    -0.269 OA
BRANCH  22  25
ATOM     25  C   UNL A   1      34.275  34.039  28.954  1.00  0.00     0.039 A 
ATOM     26  C   UNL A   1      34.416  33.479  30.230  1.00  0.00     0.014 A 
ATOM     27  C   UNL A   1      35.364  34.137  28.098  1.00  0.00     0.014 A 
ATOM     28  C   UNL A   1      35.655  32.958  30.602  1.00  0.00     0.010 A 
ATOM     29  C   UNL A   1      36.497  33.435  28.372  1.00  0.00     0.010 A 
ATOM     30  C   UNL A   1      36.688  32.937  29.656  1.00  0.00    -0.014 A 
BRANCH  30  31
ATOM     31  C   UNL A   1      37.980  32.307  29.897  1.00  0.00     0.031 A 
ATOM     32  C   UNL A   1      38.061  30.895  29.434  1.00  0.00     0.074 A 
ATOM     33  C   UNL A   1      39.061  33.068  30.193  1.00  0.00     0.049 A 
ATOM     34  N   UNL A   1      38.284  29.839  30.144  1.00  0.00    -0.248 NA
ATOM     35  C   UNL A   1      37.694  30.599  28.036  1.00  0.00     0.031 C 
ATOM     36  C   UNL A   1      39.115  34.530  30.353  1.00  0.00     0.029 A 
ATOM     37  N   UNL A   1      40.374  32.722  30.271  1.00  0.00    -0.354 N 
ATOM     38  C   UNL A   1      38.329  28.780  29.238  1.00  0.00     0.074 A 
ATOM     39  C   UNL A   1      37.728  29.266  28.028  1.00  0.00     0.031 C 
ATOM     40  C   UNL A   1      40.394  34.956  30.264  1.00  0.00     0.029 A 
ATOM     41  C   UNL A   1      41.261  33.798  30.206  1.00  0.00     0.049 A 
ATOM     42  H   UNL A   1      40.674  31.789  30.364  1.00  0.00     0.167 HD
ATOM     43  C   UNL A   1      39.134  27.704  29.465  1.00  0.00     0.037 A 
ATOM     44  C   UNL A   1      42.612  33.728  30.078  1.00  0.00     0.037 A 
ATOM     45  C   UNL A   1      39.540  27.662  30.851  1.00  0.00     0.049 A 
ATOM     46  C   UNL A   1      43.009  32.348  30.453  1.00  0.00     0.074 A 
ATOM     47  C   UNL A   1      38.872  27.607  32.060  1.00  0.00     0.029 A 
ATOM     48  N   UNL A   1      40.814  28.082  31.150  1.00  0.00    -0.354 N 
ATOM     49  N   UNL A   1      42.914  31.878  31.665  1.00  0.00    -0.248 NA
ATOM     50  C   UNL A   1      43.035  31.350  29.394  1.00  0.00     0.031 C 
ATOM     51  C   UNL A   1      39.616  28.458  32.930  1.00  0.00     0.029 A 
ATOM     52  C   UNL A   1      40.739  28.909  32.239  1.00  0.00     0.049 A 
ATOM     53  H   UNL A   1      41.634  27.833  30.665  1.00  0.00     0.167 HD
ATOM     54  C   UNL A   1      42.421  30.590  31.504  1.00  0.00     0.074 A 
ATOM     55  C   UNL A   1      42.589  30.294  30.081  1.00  0.00     0.031 C 
ATOM     56  C   UNL A   1      41.642  30.013  32.466  1.00  0.00     0.037 A 
BRANCH  43  57
ATOM     57  C   UNL A   1      39.904  26.963  28.389  1.00  0.00     0.057 A 
ATOM     58  C   UNL A   1      40.720  27.707  27.515  1.00  0.00     0.134 A 
ATOM     59  C   UNL A   1      39.653  25.638  27.973  1.00  0.00     0.134 A 
ATOM     60  F   UNL A   1      41.055  28.976  27.797  1.00  0.00    -0.206 F 
ATOM     61  C   UNL A   1      41.144  27.216  26.274  1.00  0.00     0.040 A 
ATOM     62  C   UNL A   1      40.113  25.122  26.757  1.00  0.00     0.040 A 
ATOM     63  F   UNL A   1      38.878  24.792  28.657  1.00  0.00    -0.206 F 
ATOM     64  C   UNL A   1      40.825  25.924  25.883  1.00  0.00     0.006 A 
ENDBRANCH  43  57
BRANCH  44  65
ATOM     65  C   UNL A   1      43.546  34.660  29.402  1.00  0.00     0.057 A 
ATOM     66  C   UNL A   1      43.321  35.094  28.086  1.00  0.00     0.134 A 
ATOM     67  C   UNL A   1      44.529  35.367  30.118  1.00  0.00     0.134 A 
ATOM     68  F   UNL A   1      42.377  34.512  27.331  1.00  0.00    -0.206 F 
ATOM     69  C   UNL A   1      44.011  36.178  27.525  1.00  0.00     0.040 A 
ATOM     70  C   UNL A   1      45.228  36.448  29.569  1.00  0.00     0.040 A 
ATOM     71  F   UNL A   1      44.782  35.088  31.404  1.00  0.00    -0.206 F 
ATOM     72  C   UNL A   1      44.961  36.867  28.272  1.00  0.00     0.006 A 
ENDBRANCH  44  65
BRANCH  56  73
ATOM     73  C   UNL A   1      41.533  30.710  33.796  1.00  0.00     0.057 A 
ATOM     74  C   UNL A   1      40.554  31.665  34.113  1.00  0.00     0.134 A 
ATOM     75  C   UNL A   1      42.350  30.279  34.845  1.00  0.00     0.134 A 
ATOM     76  F   UNL A   1      39.658  32.069  33.205  1.00  0.00    -0.206 F 
ATOM     77  C   UNL A   1      40.421  32.192  35.401  1.00  0.00     0.040 A 
ATOM     78  C   UNL A   1      42.208  30.772  36.143  1.00  0.00     0.040 A 
ATOM     79  F   UNL A   1      43.271  29.325  34.633  1.00  0.00    -0.206 F 
ATOM     80  C   UNL A   1      41.247  31.740  36.424  1.00  0.00     0.006 A 
ENDBRANCH  56  73
ENDBRANCH  30  31
ENDBRANCH  22  25
ENDBRANCH  20  21
ENDBRANCH  19  20
ENDBRANCH   1  19
TORSDOF 14
ENDMDL
