MODEL 1
REMARK VINA RESULT:     -11.8      0.000      0.000
REMARK SMILES Cc1cc(=O)n2cc(-c3ccccc3)nc2n1[C@H](C)C(=O)NCCCCNC(=O)c1ccc(-c2c3nc(c(-c4c(F)cccc4F)c4ccc([nH]4)c(-c4c(F)cccc4F)c4nc(c(-c5c(F)cccc5F)c5ccc2[nH]5)C=C4)C=C3)cc1
REMARK SMILES IDX 24 1 23 2 22 3 20 4 21 5 18 7 19 8 17 9 1 10 2 11 3 12 4 13
REMARK SMILES IDX 16 14 5 15 6 16 15 17 7 18 8 19 9 20 10 21 14 22 11 23 13 24
REMARK SMILES IDX 12 25 25 26 26 27 27 28 28 29 29 31 30 32 31 33 83 34 32 35
REMARK SMILES IDX 82 36 33 37 34 38 35 39 76 40 36 41 81 42 75 43 77 44 37 45
REMARK SMILES IDX 80 46 74 47 73 48 38 50 64 51 47 52 63 53 48 54 51 55 62 56
REMARK SMILES IDX 78 57 49 58 50 59 61 61 79 62 52 63 39 64 40 65 45 66 41 67
REMARK SMILES IDX 42 68 44 69 46 70 43 71 65 72 66 73 71 74 67 75 68 76 70 77
REMARK SMILES IDX 72 78 69 79 53 80 54 81 59 82 55 83 56 84 58 85 60 86 57 87
REMARK H PARENT 22 6 27 30 77 49 51 60
REMARK Flexibility Score: inf
ROOT
ATOM      1  C   UNL A   1      35.326  30.140  27.191  1.00  0.00     0.023 C 
ENDROOT
BRANCH   1   2
ATOM      2  C   UNL A   1      34.582  28.831  26.918  1.00  0.00     0.116 C 
BRANCH   2   3
ATOM      3  N   UNL A   1      34.015  28.788  25.586  1.00  0.00    -0.354 N 
ATOM      4  C   UNL A   1      33.138  27.892  25.034  1.00  0.00     0.242 C 
ATOM      5  O   UNL A   1      32.909  28.013  23.824  1.00  0.00    -0.273 OA
ATOM      6  H   UNL A   1      34.305  29.512  24.986  1.00  0.00     0.163 HD
BRANCH   4   7
ATOM      7  C   UNL A   1      32.574  26.683  25.841  1.00  0.00     0.176 C 
ATOM      8  C   UNL A   1      31.537  27.290  26.773  1.00  0.00     0.042 C 
BRANCH   7   9
ATOM      9  N   UNL A   1      32.174  25.500  24.978  1.00  0.00    -0.303 N 
ATOM     10  C   UNL A   1      29.731  26.106  24.375  1.00  0.00     0.065 C 
ATOM     11  C   UNL A   1      30.949  25.222  24.317  1.00  0.00     0.024 A 
ATOM     12  C   UNL A   1      30.786  24.102  23.577  1.00  0.00     0.093 A 
ATOM     13  C   UNL A   1      31.865  23.110  23.418  1.00  0.00     0.259 A 
ATOM     14  C   UNL A   1      33.148  24.522  24.949  1.00  0.00     0.218 A 
ATOM     15  O   UNL A   1      31.799  22.116  22.727  1.00  0.00    -0.269 OA
ATOM     16  N   UNL A   1      33.003  23.408  24.147  1.00  0.00    -0.251 N 
ATOM     17  N   UNL A   1      34.302  24.492  25.573  1.00  0.00    -0.212 NA
ATOM     18  C   UNL A   1      34.190  22.714  24.184  1.00  0.00     0.127 A 
ATOM     19  C   UNL A   1      34.974  23.419  25.062  1.00  0.00     0.091 A 
BRANCH  19  20
ATOM     20  C   UNL A   1      36.361  23.188  25.351  1.00  0.00     0.002 A 
ATOM     21  C   UNL A   1      37.101  24.184  25.987  1.00  0.00     0.010 A 
ATOM     22  C   UNL A   1      36.918  21.924  25.132  1.00  0.00     0.010 A 
ATOM     23  C   UNL A   1      38.373  23.887  26.455  1.00  0.00     0.001 A 
ATOM     24  C   UNL A   1      38.217  21.652  25.548  1.00  0.00     0.001 A 
ATOM     25  C   UNL A   1      38.931  22.626  26.233  1.00  0.00     0.000 A 
ENDBRANCH  19  20
ENDBRANCH   7   9
ENDBRANCH   4   7
ENDBRANCH   2   3
ENDBRANCH   1   2
BRANCH   1  26
ATOM     26  C   UNL A   1      34.469  31.329  27.646  1.00  0.00     0.023 C 
BRANCH  26  27
ATOM     27  C   UNL A   1      35.258  32.504  28.200  1.00  0.00     0.116 C 
BRANCH  27  28
ATOM     28  N   UNL A   1      35.056  32.717  29.632  1.00  0.00    -0.352 N 
ATOM     29  C   UNL A   1      35.569  31.960  30.670  1.00  0.00     0.251 C 
ATOM     30  H   UNL A   1      34.493  33.483  29.886  1.00  0.00     0.163 HD
ATOM     31  O   UNL A   1      35.033  31.956  31.773  1.00  0.00    -0.269 OA
BRANCH  29  32
ATOM     32  C   UNL A   1      36.788  31.165  30.428  1.00  0.00     0.039 A 
ATOM     33  C   UNL A   1      38.036  31.767  30.265  1.00  0.00     0.014 A 
ATOM     34  C   UNL A   1      36.665  29.775  30.392  1.00  0.00     0.014 A 
ATOM     35  C   UNL A   1      39.156  30.946  30.137  1.00  0.00     0.010 A 
ATOM     36  C   UNL A   1      37.780  28.974  30.443  1.00  0.00     0.010 A 
ATOM     37  C   UNL A   1      39.025  29.545  30.254  1.00  0.00    -0.014 A 
BRANCH  37  38
ATOM     38  C   UNL A   1      40.210  28.690  30.345  1.00  0.00     0.031 A 
ATOM     39  C   UNL A   1      40.762  28.669  31.723  1.00  0.00     0.074 A 
ATOM     40  C   UNL A   1      40.697  27.904  29.352  1.00  0.00     0.049 A 
ATOM     41  N   UNL A   1      41.784  29.335  32.144  1.00  0.00    -0.248 NA
ATOM     42  C   UNL A   1      39.985  28.041  32.806  1.00  0.00     0.031 C 
ATOM     43  C   UNL A   1      40.093  27.609  28.047  1.00  0.00     0.029 A 
ATOM     44  N   UNL A   1      41.846  27.154  29.314  1.00  0.00    -0.354 N 
ATOM     45  C   UNL A   1      41.950  28.971  33.477  1.00  0.00     0.074 A 
ATOM     46  C   UNL A   1      40.708  28.374  33.879  1.00  0.00     0.031 C 
ATOM     47  C   UNL A   1      40.766  26.602  27.436  1.00  0.00     0.029 A 
ATOM     48  C   UNL A   1      41.956  26.297  28.212  1.00  0.00     0.049 A 
ATOM     49  H   UNL A   1      42.541  27.216  30.009  1.00  0.00     0.167 HD
ATOM     50  C   UNL A   1      43.212  28.887  33.985  1.00  0.00     0.037 A 
ATOM     51  C   UNL A   1      42.977  25.437  27.938  1.00  0.00     0.037 A 
ATOM     52  C   UNL A   1      44.140  29.558  33.102  1.00  0.00     0.049 A 
ATOM     53  C   UNL A   1      44.166  25.936  28.641  1.00  0.00     0.074 A 
ATOM     54  C   UNL A   1      44.490  30.856  32.796  1.00  0.00     0.029 A 
ATOM     55  N   UNL A   1      44.533  28.774  32.051  1.00  0.00    -0.354 N 
ATOM     56  N   UNL A   1      44.772  27.036  28.303  1.00  0.00    -0.248 NA
ATOM     57  C   UNL A   1      44.478  25.410  29.964  1.00  0.00     0.031 C 
ATOM     58  C   UNL A   1      44.996  30.831  31.459  1.00  0.00     0.029 A 
ATOM     59  C   UNL A   1      45.005  29.517  31.006  1.00  0.00     0.049 A 
ATOM     60  H   UNL A   1      44.483  27.791  32.049  1.00  0.00     0.167 HD
ATOM     61  C   UNL A   1      45.179  27.564  29.508  1.00  0.00     0.074 A 
ATOM     62  C   UNL A   1      45.147  26.454  30.455  1.00  0.00     0.031 C 
ATOM     63  C   UNL A   1      45.164  28.910  29.709  1.00  0.00     0.037 A 
BRANCH  50  64
ATOM     64  C   UNL A   1      43.699  27.774  34.900  1.00  0.00     0.057 A 
ATOM     65  C   UNL A   1      43.585  26.440  34.458  1.00  0.00     0.134 A 
ATOM     66  C   UNL A   1      43.971  27.914  36.277  1.00  0.00     0.134 A 
ATOM     67  F   UNL A   1      43.322  26.159  33.173  1.00  0.00    -0.206 F 
ATOM     68  C   UNL A   1      43.655  25.344  35.329  1.00  0.00     0.040 A 
ATOM     69  C   UNL A   1      44.082  26.825  37.148  1.00  0.00     0.040 A 
ATOM     70  F   UNL A   1      44.052  29.101  36.885  1.00  0.00    -0.206 F 
ATOM     71  C   UNL A   1      43.894  25.534  36.683  1.00  0.00     0.006 A 
ENDBRANCH  50  64
BRANCH  51  72
ATOM     72  C   UNL A   1      42.975  24.050  27.409  1.00  0.00     0.057 A 
ATOM     73  C   UNL A   1      42.529  22.937  28.131  1.00  0.00     0.134 A 
ATOM     74  C   UNL A   1      43.035  23.875  26.026  1.00  0.00     0.134 A 
ATOM     75  F   UNL A   1      42.289  23.033  29.447  1.00  0.00    -0.206 F 
ATOM     76  C   UNL A   1      42.205  21.719  27.503  1.00  0.00     0.040 A 
ATOM     77  C   UNL A   1      42.775  22.661  25.381  1.00  0.00     0.040 A 
ATOM     78  F   UNL A   1      43.141  24.955  25.253  1.00  0.00    -0.206 F 
ATOM     79  C   UNL A   1      42.343  21.573  26.125  1.00  0.00     0.006 A 
ENDBRANCH  51  72
BRANCH  63  80
ATOM     80  C   UNL A   1      45.169  29.791  28.500  1.00  0.00     0.057 A 
ATOM     81  C   UNL A   1      44.035  30.382  27.928  1.00  0.00     0.134 A 
ATOM     82  C   UNL A   1      46.408  30.116  27.940  1.00  0.00     0.134 A 
ATOM     83  F   UNL A   1      42.812  30.167  28.429  1.00  0.00    -0.206 F 
ATOM     84  C   UNL A   1      44.132  31.251  26.836  1.00  0.00     0.040 A 
ATOM     85  C   UNL A   1      46.522  31.002  26.869  1.00  0.00     0.040 A 
ATOM     86  F   UNL A   1      47.535  29.601  28.455  1.00  0.00    -0.206 F 
ATOM     87  C   UNL A   1      45.381  31.571  26.309  1.00  0.00     0.006 A 
ENDBRANCH  63  80
ENDBRANCH  37  38
ENDBRANCH  29  32
ENDBRANCH  27  28
ENDBRANCH  26  27
ENDBRANCH   1  26
TORSDOF 13
ENDMDL
MODEL 2
REMARK VINA RESULT:     -11.7      7.730     13.469
REMARK SMILES Cc1cc(=O)n2cc(-c3ccccc3)nc2n1[C@H](C)C(=O)NCCCCNC(=O)c1ccc(-c2c3nc(c(-c4c(F)cccc4F)c4ccc([nH]4)c(-c4c(F)cccc4F)c4nc(c(-c5c(F)cccc5F)c5ccc2[nH]5)C=C4)C=C3)cc1
REMARK SMILES IDX 24 1 23 2 22 3 20 4 21 5 18 7 19 8 17 9 1 10 2 11 3 12 4 13
REMARK SMILES IDX 16 14 5 15 6 16 15 17 7 18 8 19 9 20 10 21 14 22 11 23 13 24
REMARK SMILES IDX 12 25 25 26 26 27 27 28 28 29 29 31 30 32 31 33 83 34 32 35
REMARK SMILES IDX 82 36 33 37 34 38 35 39 76 40 36 41 81 42 75 43 77 44 37 45
REMARK SMILES IDX 80 46 74 47 73 48 38 50 64 51 47 52 63 53 48 54 51 55 62 56
REMARK SMILES IDX 78 57 49 58 50 59 61 61 79 62 52 63 39 64 40 65 45 66 41 67
REMARK SMILES IDX 42 68 44 69 46 70 43 71 65 72 66 73 71 74 67 75 68 76 70 77
REMARK SMILES IDX 72 78 69 79 53 80 54 81 59 82 55 83 56 84 58 85 60 86 57 87
REMARK H PARENT 22 6 27 30 77 49 51 60
REMARK Flexibility Score: inf
ROOT
ATOM      1  C   UNL A   1      46.956  38.892  25.458  1.00  0.00     0.023 C 
ENDROOT
BRANCH   1   2
ATOM      2  C   UNL A   1      46.691  40.229  24.764  1.00  0.00     0.116 C 
BRANCH   2   3
ATOM      3  N   UNL A   1      47.160  40.241  23.394  1.00  0.00    -0.354 N 
ATOM      4  C   UNL A   1      47.129  41.246  22.464  1.00  0.00     0.242 C 
ATOM      5  O   UNL A   1      47.485  40.953  21.315  1.00  0.00    -0.273 OA
ATOM      6  H   UNL A   1      47.562  39.398  23.084  1.00  0.00     0.163 HD
BRANCH   4   7
ATOM      7  C   UNL A   1      46.529  42.650  22.784  1.00  0.00     0.176 C 
ATOM      8  C   UNL A   1      47.651  43.629  22.476  1.00  0.00     0.042 C 
BRANCH   7   9
ATOM      9  N   UNL A   1      45.163  42.891  22.168  1.00  0.00    -0.303 N 
ATOM     10  C   UNL A   1      45.803  43.947  19.893  1.00  0.00     0.065 C 
ATOM     11  C   UNL A   1      44.811  43.444  20.909  1.00  0.00     0.024 A 
ATOM     12  C   UNL A   1      43.519  43.571  20.531  1.00  0.00     0.093 A 
ATOM     13  C   UNL A   1      42.408  43.145  21.402  1.00  0.00     0.259 A 
ATOM     14  C   UNL A   1      44.137  42.610  23.048  1.00  0.00     0.218 A 
ATOM     15  O   UNL A   1      41.234  43.183  21.100  1.00  0.00    -0.269 OA
ATOM     16  N   UNL A   1      42.821  42.684  22.641  1.00  0.00    -0.251 N 
ATOM     17  N   UNL A   1      44.210  42.210  24.295  1.00  0.00    -0.212 NA
ATOM     18  C   UNL A   1      42.043  42.181  23.658  1.00  0.00     0.127 A 
ATOM     19  C   UNL A   1      42.935  41.885  24.657  1.00  0.00     0.091 A 
BRANCH  19  20
ATOM     20  C   UNL A   1      42.649  41.206  25.889  1.00  0.00     0.002 A 
ATOM     21  C   UNL A   1      43.620  41.166  26.889  1.00  0.00     0.010 A 
ATOM     22  C   UNL A   1      41.359  40.724  26.137  1.00  0.00     0.010 A 
ATOM     23  C   UNL A   1      43.275  40.700  28.150  1.00  0.00     0.001 A 
ATOM     24  C   UNL A   1      41.037  40.200  27.385  1.00  0.00     0.001 A 
ATOM     25  C   UNL A   1      41.988  40.215  28.396  1.00  0.00     0.000 A 
ENDBRANCH  19  20
ENDBRANCH   7   9
ENDBRANCH   4   7
ENDBRANCH   2   3
ENDBRANCH   1   2
BRANCH   1  26
ATOM     26  C   UNL A   1      46.286  38.689  26.823  1.00  0.00     0.023 C 
BRANCH  26  27
ATOM     27  C   UNL A   1      46.062  37.236  27.210  1.00  0.00     0.116 C 
BRANCH  27  28
ATOM     28  N   UNL A   1      45.561  36.412  26.111  1.00  0.00    -0.352 N 
ATOM     29  C   UNL A   1      44.743  35.301  26.204  1.00  0.00     0.251 C 
ATOM     30  H   UNL A   1      45.837  36.677  25.204  1.00  0.00     0.163 HD
ATOM     31  O   UNL A   1      44.716  34.460  25.312  1.00  0.00    -0.269 OA
BRANCH  29  32
ATOM     32  C   UNL A   1      43.888  35.152  27.398  1.00  0.00     0.039 A 
ATOM     33  C   UNL A   1      42.857  36.048  27.677  1.00  0.00     0.014 A 
ATOM     34  C   UNL A   1      44.124  34.063  28.239  1.00  0.00     0.014 A 
ATOM     35  C   UNL A   1      42.031  35.788  28.770  1.00  0.00     0.010 A 
ATOM     36  C   UNL A   1      43.209  33.714  29.202  1.00  0.00     0.010 A 
ATOM     37  C   UNL A   1      42.195  34.601  29.517  1.00  0.00    -0.014 A 
BRANCH  37  38
ATOM     38  C   UNL A   1      41.203  34.206  30.518  1.00  0.00     0.031 A 
ATOM     39  C   UNL A   1      41.807  34.097  31.870  1.00  0.00     0.074 A 
ATOM     40  C   UNL A   1      39.870  34.072  30.302  1.00  0.00     0.049 A 
ATOM     41  N   UNL A   1      42.153  33.005  32.463  1.00  0.00    -0.248 NA
ATOM     42  C   UNL A   1      42.294  35.312  32.547  1.00  0.00     0.031 C 
ATOM     43  C   UNL A   1      39.104  34.425  29.100  1.00  0.00     0.029 A 
ATOM     44  N   UNL A   1      38.889  33.615  31.145  1.00  0.00    -0.354 N 
ATOM     45  C   UNL A   1      42.629  33.388  33.713  1.00  0.00     0.074 A 
ATOM     46  C   UNL A   1      42.905  34.793  33.616  1.00  0.00     0.031 C 
ATOM     47  C   UNL A   1      37.774  34.362  29.356  1.00  0.00     0.029 A 
ATOM     48  C   UNL A   1      37.580  33.792  30.679  1.00  0.00     0.049 A 
ATOM     49  H   UNL A   1      39.090  33.194  32.012  1.00  0.00     0.167 HD
ATOM     50  C   UNL A   1      42.406  32.571  34.782  1.00  0.00     0.037 A 
ATOM     51  C   UNL A   1      36.426  33.446  31.317  1.00  0.00     0.037 A 
ATOM     52  C   UNL A   1      42.012  31.258  34.320  1.00  0.00     0.049 A 
ATOM     53  C   UNL A   1      36.761  32.385  32.276  1.00  0.00     0.074 A 
ATOM     54  C   UNL A   1      42.623  30.153  33.768  1.00  0.00     0.029 A 
ATOM     55  N   UNL A   1      40.681  31.183  34.010  1.00  0.00    -0.354 N 
ATOM     56  N   UNL A   1      37.117  31.190  31.906  1.00  0.00    -0.248 NA
ATOM     57  C   UNL A   1      37.061  32.748  33.655  1.00  0.00     0.031 C 
ATOM     58  C   UNL A   1      41.620  29.477  33.006  1.00  0.00     0.029 A 
ATOM     59  C   UNL A   1      40.411  30.146  33.162  1.00  0.00     0.049 A 
ATOM     60  H   UNL A   1      39.999  31.802  34.357  1.00  0.00     0.167 HD
ATOM     61  C   UNL A   1      38.062  30.831  32.841  1.00  0.00     0.074 A 
ATOM     62  C   UNL A   1      37.850  31.722  33.978  1.00  0.00     0.031 C 
ATOM     63  C   UNL A   1      39.146  30.092  32.475  1.00  0.00     0.037 A 
BRANCH  50  64
ATOM     64  C   UNL A   1      41.980  33.054  36.160  1.00  0.00     0.057 A 
ATOM     65  C   UNL A   1      42.660  32.554  37.289  1.00  0.00     0.134 A 
ATOM     66  C   UNL A   1      40.769  33.717  36.451  1.00  0.00     0.134 A 
ATOM     67  F   UNL A   1      43.823  31.896  37.159  1.00  0.00    -0.206 F 
ATOM     68  C   UNL A   1      42.138  32.635  38.587  1.00  0.00     0.040 A 
ATOM     69  C   UNL A   1      40.259  33.838  37.748  1.00  0.00     0.040 A 
ATOM     70  F   UNL A   1      39.961  34.202  35.505  1.00  0.00    -0.206 F 
ATOM     71  C   UNL A   1      40.927  33.271  38.820  1.00  0.00     0.006 A 
ENDBRANCH  50  64
BRANCH  51  72
ATOM     72  C   UNL A   1      35.124  34.149  31.436  1.00  0.00     0.057 A 
ATOM     73  C   UNL A   1      34.856  35.143  32.385  1.00  0.00     0.134 A 
ATOM     74  C   UNL A   1      34.262  34.127  30.339  1.00  0.00     0.134 A 
ATOM     75  F   UNL A   1      35.701  35.356  33.403  1.00  0.00    -0.206 F 
ATOM     76  C   UNL A   1      33.767  36.027  32.253  1.00  0.00     0.040 A 
ATOM     77  C   UNL A   1      33.142  34.954  30.211  1.00  0.00     0.040 A 
ATOM     78  F   UNL A   1      34.628  33.437  29.259  1.00  0.00    -0.206 F 
ATOM     79  C   UNL A   1      32.896  35.923  31.170  1.00  0.00     0.006 A 
ENDBRANCH  51  72
BRANCH  63  80
ATOM     80  C   UNL A   1      39.047  29.299  31.211  1.00  0.00     0.057 A 
ATOM     81  C   UNL A   1      39.377  29.773  29.934  1.00  0.00     0.134 A 
ATOM     82  C   UNL A   1      38.673  27.956  31.315  1.00  0.00     0.134 A 
ATOM     83  F   UNL A   1      39.794  31.031  29.747  1.00  0.00    -0.206 F 
ATOM     84  C   UNL A   1      39.324  28.945  28.808  1.00  0.00     0.040 A 
ATOM     85  C   UNL A   1      38.643  27.113  30.205  1.00  0.00     0.040 A 
ATOM     86  F   UNL A   1      38.366  27.435  32.512  1.00  0.00    -0.206 F 
ATOM     87  C   UNL A   1      38.965  27.607  28.944  1.00  0.00     0.006 A 
ENDBRANCH  63  80
ENDBRANCH  37  38
ENDBRANCH  29  32
ENDBRANCH  27  28
ENDBRANCH  26  27
ENDBRANCH   1  26
TORSDOF 13
ENDMDL
MODEL 3
REMARK VINA RESULT:     -11.6      2.940      5.179
REMARK SMILES Cc1cc(=O)n2cc(-c3ccccc3)nc2n1[C@H](C)C(=O)NCCCCNC(=O)c1ccc(-c2c3nc(c(-c4c(F)cccc4F)c4ccc([nH]4)c(-c4c(F)cccc4F)c4nc(c(-c5c(F)cccc5F)c5ccc2[nH]5)C=C4)C=C3)cc1
REMARK SMILES IDX 24 1 23 2 22 3 20 4 21 5 18 7 19 8 17 9 1 10 2 11 3 12 4 13
REMARK SMILES IDX 16 14 5 15 6 16 15 17 7 18 8 19 9 20 10 21 14 22 11 23 13 24
REMARK SMILES IDX 12 25 25 26 26 27 27 28 28 29 29 31 30 32 31 33 83 34 32 35
REMARK SMILES IDX 82 36 33 37 34 38 35 39 76 40 36 41 81 42 75 43 77 44 37 45
REMARK SMILES IDX 80 46 74 47 73 48 38 50 64 51 47 52 63 53 48 54 51 55 62 56
REMARK SMILES IDX 78 57 49 58 50 59 61 61 79 62 52 63 39 64 40 65 45 66 41 67
REMARK SMILES IDX 42 68 44 69 46 70 43 71 65 72 66 73 71 74 67 75 68 76 70 77
REMARK SMILES IDX 72 78 69 79 53 80 54 81 59 82 55 83 56 84 58 85 60 86 57 87
REMARK H PARENT 22 6 27 30 77 49 51 60
REMARK Flexibility Score: inf
ROOT
ATOM      1  C   UNL A   1      33.786  32.573  28.174  1.00  0.00     0.023 C 
ENDROOT
BRANCH   1   2
ATOM      2  C   UNL A   1      33.319  31.585  27.102  1.00  0.00     0.116 C 
BRANCH   2   3
ATOM      3  N   UNL A   1      32.562  30.485  27.661  1.00  0.00    -0.354 N 
ATOM      4  C   UNL A   1      32.388  29.211  27.190  1.00  0.00     0.242 C 
ATOM      5  O   UNL A   1      31.581  28.497  27.800  1.00  0.00    -0.273 OA
ATOM      6  H   UNL A   1      32.101  30.684  28.508  1.00  0.00     0.163 HD
BRANCH   4   7
ATOM      7  C   UNL A   1      33.046  28.723  25.863  1.00  0.00     0.176 C 
ATOM      8  C   UNL A   1      34.521  28.568  26.197  1.00  0.00     0.042 C 
BRANCH   7   9
ATOM      9  N   UNL A   1      32.322  27.561  25.208  1.00  0.00    -0.303 N 
ATOM     10  C   UNL A   1      33.632  25.539  26.153  1.00  0.00     0.065 C 
ATOM     11  C   UNL A   1      32.545  26.163  25.319  1.00  0.00     0.024 A 
ATOM     12  C   UNL A   1      31.777  25.272  24.652  1.00  0.00     0.093 A 
ATOM     13  C   UNL A   1      30.672  25.700  23.774  1.00  0.00     0.259 A 
ATOM     14  C   UNL A   1      31.381  27.984  24.290  1.00  0.00     0.218 A 
ATOM     15  O   UNL A   1      29.916  24.950  23.193  1.00  0.00    -0.269 OA
ATOM     16  N   UNL A   1      30.560  27.074  23.655  1.00  0.00    -0.251 N 
ATOM     17  N   UNL A   1      31.082  29.207  23.923  1.00  0.00    -0.212 NA
ATOM     18  C   UNL A   1      29.618  27.788  22.951  1.00  0.00     0.127 A 
ATOM     19  C   UNL A   1      29.962  29.101  23.150  1.00  0.00     0.091 A 
BRANCH  19  20
ATOM     20  C   UNL A   1      29.215  30.256  22.739  1.00  0.00     0.002 A 
ATOM     21  C   UNL A   1      29.135  31.357  23.589  1.00  0.00     0.010 A 
ATOM     22  C   UNL A   1      28.703  30.328  21.439  1.00  0.00     0.010 A 
ATOM     23  C   UNL A   1      28.599  32.545  23.112  1.00  0.00     0.001 A 
ATOM     24  C   UNL A   1      28.110  31.503  20.987  1.00  0.00     0.001 A 
ATOM     25  C   UNL A   1      28.085  32.616  21.815  1.00  0.00     0.000 A 
ENDBRANCH  19  20
ENDBRANCH   7   9
ENDBRANCH   4   7
ENDBRANCH   2   3
ENDBRANCH   1   2
BRANCH   1  26
ATOM     26  C   UNL A   1      33.026  33.903  28.252  1.00  0.00     0.023 C 
BRANCH  26  27
ATOM     27  C   UNL A   1      33.837  35.068  28.795  1.00  0.00     0.116 C 
BRANCH  27  28
ATOM     28  N   UNL A   1      33.369  35.545  30.095  1.00  0.00    -0.352 N 
ATOM     29  C   UNL A   1      33.552  34.937  31.325  1.00  0.00     0.251 C 
ATOM     30  H   UNL A   1      32.870  36.393  30.097  1.00  0.00     0.163 HD
ATOM     31  O   UNL A   1      32.801  35.176  32.264  1.00  0.00    -0.269 OA
BRANCH  29  32
ATOM     32  C   UNL A   1      34.682  34.002  31.489  1.00  0.00     0.039 A 
ATOM     33  C   UNL A   1      34.482  32.627  31.610  1.00  0.00     0.014 A 
ATOM     34  C   UNL A   1      35.973  34.531  31.493  1.00  0.00     0.014 A 
ATOM     35  C   UNL A   1      35.602  31.798  31.664  1.00  0.00     0.010 A 
ATOM     36  C   UNL A   1      37.065  33.708  31.368  1.00  0.00     0.010 A 
ATOM     37  C   UNL A   1      36.896  32.343  31.516  1.00  0.00    -0.014 A 
BRANCH  37  38
ATOM     38  C   UNL A   1      38.059  31.469  31.346  1.00  0.00     0.031 A 
ATOM     39  C   UNL A   1      38.664  31.108  32.653  1.00  0.00     0.074 A 
ATOM     40  C   UNL A   1      38.483  30.935  30.173  1.00  0.00     0.049 A 
ATOM     41  N   UNL A   1      39.721  31.633  33.173  1.00  0.00    -0.248 NA
ATOM     42  C   UNL A   1      37.913  30.252  33.587  1.00  0.00     0.031 C 
ATOM     43  C   UNL A   1      37.819  30.974  28.864  1.00  0.00     0.029 A 
ATOM     44  N   UNL A   1      39.607  30.196  29.904  1.00  0.00    -0.354 N 
ATOM     45  C   UNL A   1      39.930  30.957  34.371  1.00  0.00     0.074 A 
ATOM     46  C   UNL A   1      38.688  30.304  34.675  1.00  0.00     0.031 C 
ATOM     47  C   UNL A   1      38.436  30.131  27.999  1.00  0.00     0.029 A 
ATOM     48  C   UNL A   1      39.647  29.626  28.625  1.00  0.00     0.049 A 
ATOM     49  H   UNL A   1      40.330  30.076  30.560  1.00  0.00     0.167 HD
ATOM     50  C   UNL A   1      41.208  30.730  34.786  1.00  0.00     0.037 A 
ATOM     51  C   UNL A   1      40.632  28.838  28.106  1.00  0.00     0.037 A 
ATOM     52  C   UNL A   1      42.119  31.576  34.048  1.00  0.00     0.049 A 
ATOM     53  C   UNL A   1      41.861  29.132  28.854  1.00  0.00     0.074 A 
ATOM     54  C   UNL A   1      42.494  32.902  34.045  1.00  0.00     0.029 A 
ATOM     55  N   UNL A   1      42.447  31.060  32.823  1.00  0.00    -0.354 N 
ATOM     56  N   UNL A   1      42.486  30.270  28.761  1.00  0.00    -0.248 NA
ATOM     57  C   UNL A   1      42.210  28.298  29.996  1.00  0.00     0.031 C 
ATOM     58  C   UNL A   1      42.946  33.190  32.720  1.00  0.00     0.029 A 
ATOM     59  C   UNL A   1      42.898  32.023  31.966  1.00  0.00     0.049 A 
ATOM     60  H   UNL A   1      42.368  30.107  32.588  1.00  0.00     0.167 HD
ATOM     61  C   UNL A   1      42.955  30.485  30.037  1.00  0.00     0.074 A 
ATOM     62  C   UNL A   1      42.929  29.180  30.692  1.00  0.00     0.031 C 
ATOM     63  C   UNL A   1      42.987  31.743  30.555  1.00  0.00     0.037 A 
BRANCH  50  64
ATOM     64  C   UNL A   1      41.698  29.421  35.385  1.00  0.00     0.057 A 
ATOM     65  C   UNL A   1      42.613  29.471  36.456  1.00  0.00     0.134 A 
ATOM     66  C   UNL A   1      41.573  28.152  34.780  1.00  0.00     0.134 A 
ATOM     67  F   UNL A   1      42.838  30.615  37.120  1.00  0.00    -0.206 F 
ATOM     68  C   UNL A   1      43.396  28.372  36.837  1.00  0.00     0.040 A 
ATOM     69  C   UNL A   1      42.321  27.039  35.179  1.00  0.00     0.040 A 
ATOM     70  F   UNL A   1      40.800  27.929  33.714  1.00  0.00    -0.206 F 
ATOM     71  C   UNL A   1      43.259  27.152  36.191  1.00  0.00     0.006 A 
ENDBRANCH  50  64
BRANCH  51  72
ATOM     72  C   UNL A   1      40.568  27.620  27.261  1.00  0.00     0.057 A 
ATOM     73  C   UNL A   1      41.370  27.407  26.133  1.00  0.00     0.134 A 
ATOM     74  C   UNL A   1      39.992  26.472  27.806  1.00  0.00     0.134 A 
ATOM     75  F   UNL A   1      42.091  28.410  25.614  1.00  0.00    -0.206 F 
ATOM     76  C   UNL A   1      41.544  26.127  25.572  1.00  0.00     0.040 A 
ATOM     77  C   UNL A   1      40.102  25.199  27.237  1.00  0.00     0.040 A 
ATOM     78  F   UNL A   1      39.485  26.539  29.037  1.00  0.00    -0.206 F 
ATOM     79  C   UNL A   1      40.896  25.020  26.115  1.00  0.00     0.006 A 
ENDBRANCH  51  72
BRANCH  63  80
ATOM     80  C   UNL A   1      42.970  32.889  29.593  1.00  0.00     0.057 A 
ATOM     81  C   UNL A   1      41.899  33.772  29.411  1.00  0.00     0.134 A 
ATOM     82  C   UNL A   1      44.140  33.148  28.873  1.00  0.00     0.134 A 
ATOM     83  F   UNL A   1      40.757  33.630  30.096  1.00  0.00    -0.206 F 
ATOM     84  C   UNL A   1      41.987  34.863  28.539  1.00  0.00     0.040 A 
ATOM     85  C   UNL A   1      44.251  34.247  28.022  1.00  0.00     0.040 A 
ATOM     86  F   UNL A   1      45.210  32.352  29.019  1.00  0.00    -0.206 F 
ATOM     87  C   UNL A   1      43.171  35.108  27.848  1.00  0.00     0.006 A 
ENDBRANCH  63  80
ENDBRANCH  37  38
ENDBRANCH  29  32
ENDBRANCH  27  28
ENDBRANCH  26  27
ENDBRANCH   1  26
TORSDOF 13
ENDMDL
