MODEL 1
REMARK VINA RESULT:     -11.2      0.000      0.000
REMARK SMILES COc1cc(/C=C/C(=O)NCCCCNC(=O)c2ccc(-c3c4nc(c(-c5c(F)cccc5F)c5ccc([nH]5)c(-c5c(F)cccc5F)c5nc(c(-c6c(F)cccc6F)c6ccc3[nH]6)C=C5)C=C4)cc2)cc(OC)c1O
REMARK SMILES IDX 12 1 11 2 10 3 8 4 9 5 7 7 6 8 5 9 3 10 4 11 76 12 73 13
REMARK SMILES IDX 72 14 2 15 1 16 77 17 74 19 75 20 13 21 14 22 15 23 16 24
REMARK SMILES IDX 17 26 18 27 19 28 71 29 20 30 70 31 21 32 22 33 23 34 64 35
REMARK SMILES IDX 24 36 69 37 63 38 65 39 25 40 68 41 62 42 61 43 26 45 52 46
REMARK SMILES IDX 35 47 51 48 36 49 39 50 50 51 66 52 37 53 38 54 49 56 67 57
REMARK SMILES IDX 40 58 27 59 28 60 33 61 29 62 30 63 32 64 34 65 31 66 53 67
REMARK SMILES IDX 54 68 59 69 55 70 56 71 58 72 60 73 57 74 41 75 42 76 47 77
REMARK SMILES IDX 43 78 44 79 46 80 48 81 45 82
REMARK H PARENT 10 6 77 18 15 25 65 44 39 55
REMARK Flexibility Score: inf
ROOT
ATOM      1  C   UNL A   1      31.785  30.406  26.458  1.00  0.00     0.023 C 
ENDROOT
BRANCH   1   2
ATOM      2  C   UNL A   1      33.254  29.997  26.341  1.00  0.00     0.116 C 
BRANCH   2   3
ATOM      3  N   UNL A   1      33.595  29.667  24.971  1.00  0.00    -0.353 N 
ATOM      4  C   UNL A   1      33.783  28.458  24.376  1.00  0.00     0.243 C 
ATOM      5  O   UNL A   1      33.977  28.403  23.164  1.00  0.00    -0.270 OA
ATOM      6  H   UNL A   1      33.709  30.442  24.375  1.00  0.00     0.163 HD
BRANCH   4   7
ATOM      7  C   UNL A   1      33.660  27.201  25.146  1.00  0.00     0.072 C 
ATOM      8  C   UNL A   1      34.036  25.990  24.702  1.00  0.00     0.014 C 
BRANCH   8   9
ATOM      9  C   UNL A   1      33.899  24.758  25.492  1.00  0.00    -0.018 A 
ATOM     10  C   UNL A   1      34.736  22.626  26.313  1.00  0.00     0.165 A 
ATOM     11  C   UNL A   1      34.910  23.796  25.564  1.00  0.00     0.058 A 
ATOM     12  C   UNL A   1      33.528  22.406  26.993  1.00  0.00     0.200 A 
ATOM     13  C   UNL A   1      32.524  23.382  26.977  1.00  0.00     0.165 A 
ATOM     14  C   UNL A   1      32.721  24.548  26.220  1.00  0.00     0.058 A 
BRANCH  10  15
ATOM     15  O   UNL A   1      35.777  21.737  26.224  1.00  0.00    -0.493 OA
ATOM     16  C   UNL A   1      35.763  20.846  25.112  1.00  0.00     0.278 C 
ENDBRANCH  10  15
BRANCH  12  17
ATOM     17  O   UNL A   1      33.301  21.197  27.590  1.00  0.00    -0.502 OA
ATOM     18  H   UNL A   1      32.443  20.822  27.577  1.00  0.00     0.293 HD
ENDBRANCH  12  17
BRANCH  13  19
ATOM     19  O   UNL A   1      31.287  23.338  27.566  1.00  0.00    -0.493 OA
ATOM     20  C   UNL A   1      30.170  22.991  26.758  1.00  0.00     0.278 C 
ENDBRANCH  13  19
ENDBRANCH   8   9
ENDBRANCH   4   7
ENDBRANCH   2   3
ENDBRANCH   1   2
BRANCH   1  21
ATOM     21  C   UNL A   1      31.555  31.912  26.615  1.00  0.00     0.023 C 
BRANCH  21  22
ATOM     22  C   UNL A   1      32.679  32.674  27.313  1.00  0.00     0.116 C 
BRANCH  22  23
ATOM     23  N   UNL A   1      32.346  34.059  27.603  1.00  0.00    -0.352 N 
ATOM     24  C   UNL A   1      32.951  34.924  28.486  1.00  0.00     0.251 C 
ATOM     25  H   UNL A   1      31.585  34.429  27.100  1.00  0.00     0.163 HD
ATOM     26  O   UNL A   1      32.484  36.037  28.680  1.00  0.00    -0.269 OA
BRANCH  24  27
ATOM     27  C   UNL A   1      34.146  34.480  29.232  1.00  0.00     0.039 A 
ATOM     28  C   UNL A   1      33.968  33.869  30.476  1.00  0.00     0.014 A 
ATOM     29  C   UNL A   1      35.428  34.637  28.699  1.00  0.00     0.014 A 
ATOM     30  C   UNL A   1      35.072  33.349  31.154  1.00  0.00     0.010 A 
ATOM     31  C   UNL A   1      36.520  34.064  29.345  1.00  0.00     0.010 A 
ATOM     32  C   UNL A   1      36.350  33.408  30.574  1.00  0.00    -0.014 A 
BRANCH  32  33
ATOM     33  C   UNL A   1      37.515  32.765  31.229  1.00  0.00     0.031 A 
ATOM     34  C   UNL A   1      38.168  31.562  30.610  1.00  0.00     0.074 A 
ATOM     35  C   UNL A   1      37.943  33.228  32.419  1.00  0.00     0.049 A 
ATOM     36  N   UNL A   1      39.161  30.839  31.061  1.00  0.00    -0.248 NA
ATOM     37  C   UNL A   1      37.615  31.095  29.329  1.00  0.00     0.031 C 
ATOM     38  C   UNL A   1      37.355  34.353  33.150  1.00  0.00     0.029 A 
ATOM     39  N   UNL A   1      38.965  32.804  33.229  1.00  0.00    -0.354 N 
ATOM     40  C   UNL A   1      39.342  29.825  30.128  1.00  0.00     0.074 A 
ATOM     41  C   UNL A   1      38.327  29.999  29.112  1.00  0.00     0.031 C 
ATOM     42  C   UNL A   1      38.040  34.544  34.289  1.00  0.00     0.029 A 
ATOM     43  C   UNL A   1      39.094  33.539  34.384  1.00  0.00     0.049 A 
ATOM     44  H   UNL A   1      39.551  32.046  33.006  1.00  0.00     0.167 HD
ATOM     45  C   UNL A   1      40.285  28.853  30.109  1.00  0.00     0.037 A 
ATOM     46  C   UNL A   1      39.963  33.415  35.403  1.00  0.00     0.037 A 
ATOM     47  C   UNL A   1      41.310  28.698  31.107  1.00  0.00     0.049 A 
ATOM     48  C   UNL A   1      41.006  32.334  35.353  1.00  0.00     0.074 A 
ATOM     49  C   UNL A   1      42.349  27.784  31.142  1.00  0.00     0.029 A 
ATOM     50  N   UNL A   1      41.423  29.475  32.249  1.00  0.00    -0.354 N 
ATOM     51  N   UNL A   1      41.213  31.428  34.428  1.00  0.00    -0.248 NA
ATOM     52  C   UNL A   1      41.943  32.264  36.483  1.00  0.00     0.031 C 
ATOM     53  C   UNL A   1      43.070  27.987  32.324  1.00  0.00     0.029 A 
ATOM     54  C   UNL A   1      42.504  29.052  33.005  1.00  0.00     0.049 A 
ATOM     55  H   UNL A   1      40.823  30.219  32.488  1.00  0.00     0.167 HD
ATOM     56  C   UNL A   1      42.314  30.696  34.852  1.00  0.00     0.074 A 
ATOM     57  C   UNL A   1      42.741  31.274  36.109  1.00  0.00     0.031 C 
ATOM     58  C   UNL A   1      42.917  29.640  34.253  1.00  0.00     0.037 A 
BRANCH  45  59
ATOM     59  C   UNL A   1      40.253  27.885  28.963  1.00  0.00     0.057 A 
ATOM     60  C   UNL A   1      39.511  26.697  29.023  1.00  0.00     0.134 A 
ATOM     61  C   UNL A   1      40.945  28.155  27.776  1.00  0.00     0.134 A 
ATOM     62  F   UNL A   1      38.837  26.373  30.137  1.00  0.00    -0.206 F 
ATOM     63  C   UNL A   1      39.481  25.801  27.954  1.00  0.00     0.040 A 
ATOM     64  C   UNL A   1      40.902  27.278  26.691  1.00  0.00     0.040 A 
ATOM     65  F   UNL A   1      41.670  29.277  27.649  1.00  0.00    -0.206 F 
ATOM     66  C   UNL A   1      40.172  26.093  26.781  1.00  0.00     0.006 A 
ENDBRANCH  45  59
BRANCH  46  67
ATOM     67  C   UNL A   1      39.905  34.357  36.547  1.00  0.00     0.057 A 
ATOM     68  C   UNL A   1      39.165  34.051  37.694  1.00  0.00     0.134 A 
ATOM     69  C   UNL A   1      40.582  35.582  36.522  1.00  0.00     0.134 A 
ATOM     70  F   UNL A   1      38.482  32.900  37.769  1.00  0.00    -0.206 F 
ATOM     71  C   UNL A   1      39.084  34.937  38.770  1.00  0.00     0.040 A 
ATOM     72  C   UNL A   1      40.529  36.468  37.600  1.00  0.00     0.040 A 
ATOM     73  F   UNL A   1      41.316  35.930  35.454  1.00  0.00    -0.206 F 
ATOM     74  C   UNL A   1      39.772  36.149  38.726  1.00  0.00     0.006 A 
ENDBRANCH  46  67
BRANCH  58  75
ATOM     75  C   UNL A   1      44.118  29.061  34.940  1.00  0.00     0.057 A 
ATOM     76  C   UNL A   1      44.006  28.013  35.862  1.00  0.00     0.134 A 
ATOM     77  C   UNL A   1      45.402  29.539  34.653  1.00  0.00     0.134 A 
ATOM     78  F   UNL A   1      42.801  27.521  36.189  1.00  0.00    -0.206 F 
ATOM     79  C   UNL A   1      45.129  27.475  36.492  1.00  0.00     0.040 A 
ATOM     80  C   UNL A   1      46.534  28.992  35.258  1.00  0.00     0.040 A 
ATOM     81  F   UNL A   1      45.578  30.536  33.774  1.00  0.00    -0.206 F 
ATOM     82  C   UNL A   1      46.399  27.960  36.185  1.00  0.00     0.006 A 
ENDBRANCH  58  75
ENDBRANCH  32  33
ENDBRANCH  24  27
ENDBRANCH  22  23
ENDBRANCH  21  22
ENDBRANCH   1  21
TORSDOF 15
ENDMDL
MODEL 2
REMARK VINA RESULT:     -11.2      5.671     11.068
REMARK SMILES COc1cc(/C=C/C(=O)NCCCCNC(=O)c2ccc(-c3c4nc(c(-c5c(F)cccc5F)c5ccc([nH]5)c(-c5c(F)cccc5F)c5nc(c(-c6c(F)cccc6F)c6ccc3[nH]6)C=C5)C=C4)cc2)cc(OC)c1O
REMARK SMILES IDX 12 1 11 2 10 3 8 4 9 5 7 7 6 8 5 9 3 10 4 11 76 12 73 13
REMARK SMILES IDX 72 14 2 15 1 16 77 17 74 19 75 20 13 21 14 22 15 23 16 24
REMARK SMILES IDX 17 26 18 27 19 28 71 29 20 30 70 31 21 32 22 33 23 34 64 35
REMARK SMILES IDX 24 36 69 37 63 38 65 39 25 40 68 41 62 42 61 43 26 45 52 46
REMARK SMILES IDX 35 47 51 48 36 49 39 50 50 51 66 52 37 53 38 54 49 56 67 57
REMARK SMILES IDX 40 58 27 59 28 60 33 61 29 62 30 63 32 64 34 65 31 66 53 67
REMARK SMILES IDX 54 68 59 69 55 70 56 71 58 72 60 73 57 74 41 75 42 76 47 77
REMARK SMILES IDX 43 78 44 79 46 80 48 81 45 82
REMARK H PARENT 10 6 77 18 15 25 65 44 39 55
REMARK Flexibility Score: inf
ROOT
ATOM      1  C   UNL A   1      45.883  21.362  25.177  1.00  0.00     0.023 C 
ENDROOT
BRANCH   1   2
ATOM      2  C   UNL A   1      45.577  22.832  24.888  1.00  0.00     0.116 C 
BRANCH   2   3
ATOM      3  N   UNL A   1      46.707  23.485  24.257  1.00  0.00    -0.353 N 
ATOM      4  C   UNL A   1      47.080  24.793  24.250  1.00  0.00     0.243 C 
ATOM      5  O   UNL A   1      48.140  25.119  23.722  1.00  0.00    -0.270 OA
ATOM      6  H   UNL A   1      47.301  22.884  23.750  1.00  0.00     0.163 HD
BRANCH   4   7
ATOM      7  C   UNL A   1      46.278  25.818  24.955  1.00  0.00     0.072 C 
ATOM      8  C   UNL A   1      46.610  27.115  25.054  1.00  0.00     0.014 C 
BRANCH   8   9
ATOM      9  C   UNL A   1      45.792  28.109  25.764  1.00  0.00    -0.018 A 
ATOM     10  C   UNL A   1      43.675  28.908  26.659  1.00  0.00     0.165 A 
ATOM     11  C   UNL A   1      44.425  27.932  25.993  1.00  0.00     0.058 A 
ATOM     12  C   UNL A   1      44.297  30.090  27.092  1.00  0.00     0.200 A 
ATOM     13  C   UNL A   1      45.676  30.264  26.919  1.00  0.00     0.165 A 
ATOM     14  C   UNL A   1      46.407  29.269  26.251  1.00  0.00     0.058 A 
BRANCH  10  15
ATOM     15  O   UNL A   1      42.333  28.635  26.737  1.00  0.00    -0.493 OA
ATOM     16  C   UNL A   1      41.696  28.207  25.537  1.00  0.00     0.278 C 
ENDBRANCH  10  15
BRANCH  12  17
ATOM     17  O   UNL A   1      43.535  31.107  27.597  1.00  0.00    -0.502 OA
ATOM     18  H   UNL A   1      43.772  31.997  27.428  1.00  0.00     0.293 HD
ENDBRANCH  12  17
BRANCH  13  19
ATOM     19  O   UNL A   1      46.446  31.344  27.264  1.00  0.00    -0.493 OA
ATOM     20  C   UNL A   1      47.851  31.162  27.368  1.00  0.00     0.278 C 
ENDBRANCH  13  19
ENDBRANCH   8   9
ENDBRANCH   4   7
ENDBRANCH   2   3
ENDBRANCH   1   2
BRANCH   1  21
ATOM     21  C   UNL A   1      44.817  20.381  24.678  1.00  0.00     0.023 C 
BRANCH  21  22
ATOM     22  C   UNL A   1      44.335  19.363  25.709  1.00  0.00     0.116 C 
BRANCH  22  23
ATOM     23  N   UNL A   1      42.947  18.968  25.527  1.00  0.00    -0.352 N 
ATOM     24  C   UNL A   1      41.805  19.649  25.876  1.00  0.00     0.251 C 
ATOM     25  H   UNL A   1      42.807  18.094  25.096  1.00  0.00     0.163 HD
ATOM     26  O   UNL A   1      40.706  19.129  25.737  1.00  0.00    -0.269 OA
BRANCH  24  27
ATOM     27  C   UNL A   1      41.917  21.001  26.462  1.00  0.00     0.039 A 
ATOM     28  C   UNL A   1      42.067  21.118  27.847  1.00  0.00     0.014 A 
ATOM     29  C   UNL A   1      41.903  22.141  25.655  1.00  0.00     0.014 A 
ATOM     30  C   UNL A   1      42.277  22.375  28.415  1.00  0.00     0.010 A 
ATOM     31  C   UNL A   1      42.175  23.387  26.214  1.00  0.00     0.010 A 
ATOM     32  C   UNL A   1      42.373  23.513  27.597  1.00  0.00    -0.014 A 
BRANCH  32  33
ATOM     33  C   UNL A   1      42.704  24.840  28.172  1.00  0.00     0.031 A 
ATOM     34  C   UNL A   1      44.125  25.190  28.509  1.00  0.00     0.074 A 
ATOM     35  C   UNL A   1      41.711  25.705  28.452  1.00  0.00     0.049 A 
ATOM     36  N   UNL A   1      44.599  26.277  29.062  1.00  0.00    -0.248 NA
ATOM     37  C   UNL A   1      45.146  24.173  28.209  1.00  0.00     0.031 C 
ATOM     38  C   UNL A   1      40.285  25.459  28.224  1.00  0.00     0.029 A 
ATOM     39  N   UNL A   1      41.747  26.963  28.997  1.00  0.00    -0.354 N 
ATOM     40  C   UNL A   1      45.967  26.071  29.189  1.00  0.00     0.074 A 
ATOM     41  C   UNL A   1      46.240  24.737  28.700  1.00  0.00     0.031 C 
ATOM     42  C   UNL A   1      39.586  26.539  28.606  1.00  0.00     0.029 A 
ATOM     43  C   UNL A   1      40.508  27.541  29.133  1.00  0.00     0.049 A 
ATOM     44  H   UNL A   1      42.582  27.410  29.267  1.00  0.00     0.167 HD
ATOM     45  C   UNL A   1      46.911  26.925  29.649  1.00  0.00     0.037 A 
ATOM     46  C   UNL A   1      40.155  28.742  29.626  1.00  0.00     0.037 A 
ATOM     47  C   UNL A   1      46.640  28.261  30.112  1.00  0.00     0.049 A 
ATOM     48  C   UNL A   1      41.224  29.676  30.121  1.00  0.00     0.074 A 
ATOM     49  C   UNL A   1      47.537  29.225  30.537  1.00  0.00     0.029 A 
ATOM     50  N   UNL A   1      45.375  28.819  30.212  1.00  0.00    -0.354 N 
ATOM     51  N   UNL A   1      42.521  29.496  30.166  1.00  0.00    -0.248 NA
ATOM     52  C   UNL A   1      40.779  30.983  30.625  1.00  0.00     0.031 C 
ATOM     53  C   UNL A   1      46.811  30.356  30.927  1.00  0.00     0.029 A 
ATOM     54  C   UNL A   1      45.466  30.110  30.708  1.00  0.00     0.049 A 
ATOM     55  H   UNL A   1      44.536  28.366  29.966  1.00  0.00     0.167 HD
ATOM     56  C   UNL A   1      43.050  30.672  30.681  1.00  0.00     0.074 A 
ATOM     57  C   UNL A   1      41.935  31.564  30.918  1.00  0.00     0.031 C 
ATOM     58  C   UNL A   1      44.345  30.985  30.935  1.00  0.00     0.037 A 
BRANCH  45  59
ATOM     59  C   UNL A   1      48.330  26.438  29.667  1.00  0.00     0.057 A 
ATOM     60  C   UNL A   1      48.850  25.724  30.755  1.00  0.00     0.134 A 
ATOM     61  C   UNL A   1      49.178  26.660  28.575  1.00  0.00     0.134 A 
ATOM     62  F   UNL A   1      48.093  25.490  31.838  1.00  0.00    -0.206 F 
ATOM     63  C   UNL A   1      50.170  25.270  30.766  1.00  0.00     0.040 A 
ATOM     64  C   UNL A   1      50.492  26.188  28.564  1.00  0.00     0.040 A 
ATOM     65  F   UNL A   1      48.743  27.332  27.498  1.00  0.00    -0.206 F 
ATOM     66  C   UNL A   1      50.993  25.496  29.665  1.00  0.00     0.006 A 
ENDBRANCH  45  59
BRANCH  46  67
ATOM     67  C   UNL A   1      38.728  29.145  29.650  1.00  0.00     0.057 A 
ATOM     68  C   UNL A   1      38.105  29.654  28.505  1.00  0.00     0.134 A 
ATOM     69  C   UNL A   1      37.955  29.035  30.811  1.00  0.00     0.134 A 
ATOM     70  F   UNL A   1      38.800  29.799  27.367  1.00  0.00    -0.206 F 
ATOM     71  C   UNL A   1      36.769  30.058  28.517  1.00  0.00     0.040 A 
ATOM     72  C   UNL A   1      36.611  29.413  30.832  1.00  0.00     0.040 A 
ATOM     73  F   UNL A   1      38.492  28.547  31.939  1.00  0.00    -0.206 F 
ATOM     74  C   UNL A   1      36.016  29.933  29.683  1.00  0.00     0.006 A 
ENDBRANCH  46  67
BRANCH  58  75
ATOM     75  C   UNL A   1      44.622  32.357  31.473  1.00  0.00     0.057 A 
ATOM     76  C   UNL A   1      44.636  32.621  32.847  1.00  0.00     0.134 A 
ATOM     77  C   UNL A   1      44.905  33.419  30.605  1.00  0.00     0.134 A 
ATOM     78  F   UNL A   1      44.359  31.649  33.729  1.00  0.00    -0.206 F 
ATOM     79  C   UNL A   1      44.902  33.900  33.340  1.00  0.00     0.040 A 
ATOM     80  C   UNL A   1      45.196  34.695  31.086  1.00  0.00     0.040 A 
ATOM     81  F   UNL A   1      44.914  33.230  29.276  1.00  0.00    -0.206 F 
ATOM     82  C   UNL A   1      45.190  34.940  32.459  1.00  0.00     0.006 A 
ENDBRANCH  58  75
ENDBRANCH  32  33
ENDBRANCH  24  27
ENDBRANCH  22  23
ENDBRANCH  21  22
ENDBRANCH   1  21
TORSDOF 15
ENDMDL
MODEL 3
REMARK VINA RESULT:     -11.2      4.345      9.315
REMARK SMILES COc1cc(/C=C/C(=O)NCCCCNC(=O)c2ccc(-c3c4nc(c(-c5c(F)cccc5F)c5ccc([nH]5)c(-c5c(F)cccc5F)c5nc(c(-c6c(F)cccc6F)c6ccc3[nH]6)C=C5)C=C4)cc2)cc(OC)c1O
REMARK SMILES IDX 12 1 11 2 10 3 8 4 9 5 7 7 6 8 5 9 3 10 4 11 76 12 73 13
REMARK SMILES IDX 72 14 2 15 1 16 77 17 74 19 75 20 13 21 14 22 15 23 16 24
REMARK SMILES IDX 17 26 18 27 19 28 71 29 20 30 70 31 21 32 22 33 23 34 64 35
REMARK SMILES IDX 24 36 69 37 63 38 65 39 25 40 68 41 62 42 61 43 26 45 52 46
REMARK SMILES IDX 35 47 51 48 36 49 39 50 50 51 66 52 37 53 38 54 49 56 67 57
REMARK SMILES IDX 40 58 27 59 28 60 33 61 29 62 30 63 32 64 34 65 31 66 53 67
REMARK SMILES IDX 54 68 59 69 55 70 56 71 58 72 60 73 57 74 41 75 42 76 47 77
REMARK SMILES IDX 43 78 44 79 46 80 48 81 45 82
REMARK H PARENT 10 6 77 18 15 25 65 44 39 55
REMARK Flexibility Score: inf
ROOT
ATOM      1  C   UNL A   1      36.733  21.264  24.772  1.00  0.00     0.023 C 
ENDROOT
BRANCH   1   2
ATOM      2  C   UNL A   1      35.277  20.851  24.988  1.00  0.00     0.116 C 
BRANCH   2   3
ATOM      3  N   UNL A   1      34.843  21.157  26.337  1.00  0.00    -0.353 N 
ATOM      4  C   UNL A   1      34.500  22.344  26.905  1.00  0.00     0.243 C 
ATOM      5  O   UNL A   1      34.066  22.363  28.054  1.00  0.00    -0.270 OA
ATOM      6  H   UNL A   1      34.788  20.380  26.938  1.00  0.00     0.163 HD
BRANCH   4   7
ATOM      7  C   UNL A   1      34.549  23.604  26.130  1.00  0.00     0.072 C 
ATOM      8  C   UNL A   1      33.504  24.426  25.937  1.00  0.00     0.014 C 
BRANCH   8   9
ATOM      9  C   UNL A   1      33.584  25.670  25.159  1.00  0.00    -0.018 A 
ATOM     10  C   UNL A   1      33.658  26.888  23.053  1.00  0.00     0.165 A 
ATOM     11  C   UNL A   1      33.563  25.684  23.761  1.00  0.00     0.058 A 
ATOM     12  C   UNL A   1      33.791  28.099  23.752  1.00  0.00     0.200 A 
ATOM     13  C   UNL A   1      33.761  28.111  25.152  1.00  0.00     0.165 A 
ATOM     14  C   UNL A   1      33.662  26.891  25.839  1.00  0.00     0.058 A 
BRANCH  10  15
ATOM     15  O   UNL A   1      33.708  26.741  21.690  1.00  0.00    -0.493 OA
ATOM     16  C   UNL A   1      32.713  25.909  21.101  1.00  0.00     0.278 C 
ENDBRANCH  10  15
BRANCH  12  17
ATOM     17  O   UNL A   1      34.043  29.252  23.061  1.00  0.00    -0.502 OA
ATOM     18  H   UNL A   1      34.749  29.809  23.321  1.00  0.00     0.293 HD
ENDBRANCH  12  17
BRANCH  13  19
ATOM     19  O   UNL A   1      33.886  29.184  25.995  1.00  0.00    -0.493 OA
ATOM     20  C   UNL A   1      32.730  29.963  26.267  1.00  0.00     0.278 C 
ENDBRANCH  13  19
ENDBRANCH   8   9
ENDBRANCH   4   7
ENDBRANCH   2   3
ENDBRANCH   1   2
BRANCH   1  21
ATOM     21  C   UNL A   1      37.747  20.126  24.935  1.00  0.00     0.023 C 
BRANCH  21  22
ATOM     22  C   UNL A   1      38.932  20.434  25.847  1.00  0.00     0.116 C 
BRANCH  22  23
ATOM     23  N   UNL A   1      39.995  19.446  25.769  1.00  0.00    -0.352 N 
ATOM     24  C   UNL A   1      41.329  19.589  26.071  1.00  0.00     0.251 C 
ATOM     25  H   UNL A   1      39.724  18.552  25.457  1.00  0.00     0.163 HD
ATOM     26  O   UNL A   1      42.115  18.676  25.858  1.00  0.00    -0.269 OA
BRANCH  24  27
ATOM     27  C   UNL A   1      41.815  20.874  26.616  1.00  0.00     0.039 A 
ATOM     28  C   UNL A   1      42.266  21.850  25.723  1.00  0.00     0.014 A 
ATOM     29  C   UNL A   1      41.799  21.126  27.989  1.00  0.00     0.014 A 
ATOM     30  C   UNL A   1      42.634  23.107  26.202  1.00  0.00     0.010 A 
ATOM     31  C   UNL A   1      42.107  22.400  28.461  1.00  0.00     0.010 A 
ATOM     32  C   UNL A   1      42.518  23.404  27.570  1.00  0.00    -0.014 A 
BRANCH  32  33
ATOM     33  C   UNL A   1      42.800  24.767  28.083  1.00  0.00     0.031 A 
ATOM     34  C   UNL A   1      44.192  25.155  28.490  1.00  0.00     0.074 A 
ATOM     35  C   UNL A   1      41.782  25.635  28.244  1.00  0.00     0.049 A 
ATOM     36  N   UNL A   1      44.619  26.279  29.005  1.00  0.00    -0.248 NA
ATOM     37  C   UNL A   1      45.239  24.135  28.319  1.00  0.00     0.031 C 
ATOM     38  C   UNL A   1      40.377  25.357  27.940  1.00  0.00     0.029 A 
ATOM     39  N   UNL A   1      41.772  26.924  28.713  1.00  0.00    -0.354 N 
ATOM     40  C   UNL A   1      45.977  26.099  29.233  1.00  0.00     0.074 A 
ATOM     41  C   UNL A   1      46.294  24.742  28.845  1.00  0.00     0.031 C 
ATOM     42  C   UNL A   1      39.644  26.450  28.209  1.00  0.00     0.029 A 
ATOM     43  C   UNL A   1      40.521  27.493  28.732  1.00  0.00     0.049 A 
ATOM     44  H   UNL A   1      42.583  27.397  29.009  1.00  0.00     0.167 HD
ATOM     45  C   UNL A   1      46.882  26.991  29.700  1.00  0.00     0.037 A 
ATOM     46  C   UNL A   1      40.126  28.717  29.127  1.00  0.00     0.037 A 
ATOM     47  C   UNL A   1      46.569  28.349  30.062  1.00  0.00     0.049 A 
ATOM     48  C   UNL A   1      41.152  29.693  29.632  1.00  0.00     0.074 A 
ATOM     49  C   UNL A   1      47.427  29.349  30.484  1.00  0.00     0.029 A 
ATOM     50  N   UNL A   1      45.296  28.897  30.045  1.00  0.00    -0.354 N 
ATOM     51  N   UNL A   1      42.445  29.532  29.772  1.00  0.00    -0.248 NA
ATOM     52  C   UNL A   1      40.664  31.022  30.025  1.00  0.00     0.031 C 
ATOM     53  C   UNL A   1      46.668  30.492  30.757  1.00  0.00     0.029 A 
ATOM     54  C   UNL A   1      45.342  30.216  30.466  1.00  0.00     0.049 A 
ATOM     55  H   UNL A   1      44.478  28.418  29.773  1.00  0.00     0.167 HD
ATOM     56  C   UNL A   1      42.929  30.744  30.248  1.00  0.00     0.074 A 
ATOM     57  C   UNL A   1      41.792  31.635  30.356  1.00  0.00     0.031 C 
ATOM     58  C   UNL A   1      44.201  31.088  30.566  1.00  0.00     0.037 A 
BRANCH  45  59
ATOM     59  C   UNL A   1      48.301  26.525  29.840  1.00  0.00     0.057 A 
ATOM     60  C   UNL A   1      48.759  25.900  31.008  1.00  0.00     0.134 A 
ATOM     61  C   UNL A   1      49.212  26.674  28.787  1.00  0.00     0.134 A 
ATOM     62  F   UNL A   1      47.940  25.739  32.058  1.00  0.00    -0.206 F 
ATOM     63  C   UNL A   1      50.079  25.465  31.132  1.00  0.00     0.040 A 
ATOM     64  C   UNL A   1      50.528  26.220  28.891  1.00  0.00     0.040 A 
ATOM     65  F   UNL A   1      48.838  27.259  27.639  1.00  0.00    -0.206 F 
ATOM     66  C   UNL A   1      50.966  25.618  30.069  1.00  0.00     0.006 A 
ENDBRANCH  45  59
BRANCH  46  67
ATOM     67  C   UNL A   1      38.697  29.103  29.033  1.00  0.00     0.057 A 
ATOM     68  C   UNL A   1      37.856  29.021  30.148  1.00  0.00     0.134 A 
ATOM     69  C   UNL A   1      38.138  29.558  27.833  1.00  0.00     0.134 A 
ATOM     70  F   UNL A   1      38.330  28.576  31.320  1.00  0.00    -0.206 F 
ATOM     71  C   UNL A   1      36.504  29.360  30.070  1.00  0.00     0.040 A 
ATOM     72  C   UNL A   1      36.793  29.922  27.747  1.00  0.00     0.040 A 
ATOM     73  F   UNL A   1      38.895  29.666  26.731  1.00  0.00    -0.206 F 
ATOM     74  C   UNL A   1      35.970  29.817  28.867  1.00  0.00     0.006 A 
ENDBRANCH  46  67
BRANCH  58  75
ATOM     75  C   UNL A   1      44.430  32.494  31.035  1.00  0.00     0.057 A 
ATOM     76  C   UNL A   1      44.324  32.847  32.386  1.00  0.00     0.134 A 
ATOM     77  C   UNL A   1      44.789  33.499  30.128  1.00  0.00     0.134 A 
ATOM     78  F   UNL A   1      43.969  31.932  33.301  1.00  0.00    -0.206 F 
ATOM     79  C   UNL A   1      44.546  34.156  32.816  1.00  0.00     0.040 A 
ATOM     80  C   UNL A   1      45.037  34.805  30.550  1.00  0.00     0.040 A 
ATOM     81  F   UNL A   1      44.915  33.225  28.821  1.00  0.00    -0.206 F 
ATOM     82  C   UNL A   1      44.910  35.138  31.897  1.00  0.00     0.006 A 
ENDBRANCH  58  75
ENDBRANCH  32  33
ENDBRANCH  24  27
ENDBRANCH  22  23
ENDBRANCH  21  22
ENDBRANCH   1  21
TORSDOF 15
ENDMDL
