MODEL 1
REMARK VINA RESULT:     -12.0      0.000      0.000
REMARK SMILES Cc1ccc2c(c1C)O[C@@H](C(=O)NCCCCNC(=O)c1ccc(-c3c4nc(c(-c5c(F)cccc5F)c5ccc([nH]5)c(-c5c(F)cccc5F)c5nc(c(-c6c(F)cccc6F)c6ccc3[nH]6)C=C5)C=C4)cc1)CC2=O
REMARK SMILES IDX 16 1 15 2 14 3 13 4 11 5 12 6 10 8 1 9 2 10 3 11 7 12 4 13
REMARK SMILES IDX 6 14 8 15 5 16 9 17 76 18 75 19 77 20 17 21 18 22 19 23
REMARK SMILES IDX 20 25 21 26 22 27 74 28 23 29 73 30 24 31 25 32 26 33 67 34
REMARK SMILES IDX 27 35 72 36 66 37 68 38 28 39 71 40 65 41 64 42 29 44 55 45
REMARK SMILES IDX 38 46 54 47 39 48 42 49 53 50 69 51 40 52 41 53 52 55 70 56
REMARK SMILES IDX 43 57 30 58 31 59 36 60 32 61 33 62 35 63 37 64 34 65 56 66
REMARK SMILES IDX 57 67 62 68 58 69 59 70 61 71 63 72 60 73 44 74 45 75 50 76
REMARK SMILES IDX 46 77 47 78 49 79 51 80 48 81
REMARK H PARENT 13 7 18 24 68 43 42 54
REMARK Flexibility Score: inf
ROOT
ATOM      1  C   UNL A   1      31.618  31.950  26.730  1.00  0.00     0.023 C 
ENDROOT
BRANCH   1   2
ATOM      2  C   UNL A   1      31.837  30.445  26.873  1.00  0.00     0.023 C 
BRANCH   2   3
ATOM      3  C   UNL A   1      33.308  30.027  26.863  1.00  0.00     0.116 C 
BRANCH   3   4
ATOM      4  N   UNL A   1      33.761  29.648  25.543  1.00  0.00    -0.353 N 
ATOM      5  C   UNL A   1      33.666  28.494  24.834  1.00  0.00     0.261 C 
ATOM      6  O   UNL A   1      34.114  28.531  23.681  1.00  0.00    -0.271 OA
ATOM      7  H   UNL A   1      34.234  30.367  25.065  1.00  0.00     0.163 HD
BRANCH   5   8
ATOM      8  C   UNL A   1      33.112  27.162  25.398  1.00  0.00     0.269 C 
ATOM      9  C   UNL A   1      36.536  22.426  23.550  1.00  0.00     0.045 C 
ATOM     10  C   UNL A   1      35.291  23.261  23.685  1.00  0.00    -0.044 A 
ATOM     11  C   UNL A   1      34.258  23.082  22.751  1.00  0.00     0.005 A 
ATOM     12  C   UNL A   1      35.147  24.230  24.703  1.00  0.00    -0.005 A 
ATOM     13  C   UNL A   1      33.106  23.862  22.806  1.00  0.00     0.016 A 
ATOM     14  C   UNL A   1      34.004  25.059  24.705  1.00  0.00     0.134 A 
ATOM     15  C   UNL A   1      36.205  24.453  25.754  1.00  0.00     0.049 C 
ATOM     16  C   UNL A   1      32.990  24.860  23.775  1.00  0.00     0.060 A 
ATOM     17  O   UNL A   1      34.012  26.090  25.601  1.00  0.00    -0.479 OA
ATOM     18  C   UNL A   1      31.830  25.762  23.758  1.00  0.00     0.170 C 
ATOM     19  C   UNL A   1      31.752  26.810  24.820  1.00  0.00     0.136 C 
ATOM     20  O   UNL A   1      30.948  25.629  22.914  1.00  0.00    -0.294 OA
ENDBRANCH   5   8
ENDBRANCH   3   4
ENDBRANCH   2   3
ENDBRANCH   1   2
BRANCH   1  21
ATOM     21  C   UNL A   1      32.723  32.815  27.328  1.00  0.00     0.116 C 
BRANCH  21  22
ATOM     22  N   UNL A   1      32.313  34.176  27.642  1.00  0.00    -0.352 N 
ATOM     23  C   UNL A   1      32.918  35.037  28.531  1.00  0.00     0.251 C 
ATOM     24  H   UNL A   1      31.521  34.517  27.169  1.00  0.00     0.163 HD
ATOM     25  O   UNL A   1      32.475  36.158  28.747  1.00  0.00    -0.269 OA
BRANCH  23  26
ATOM     26  C   UNL A   1      34.107  34.547  29.256  1.00  0.00     0.039 A 
ATOM     27  C   UNL A   1      33.929  33.865  30.461  1.00  0.00     0.014 A 
ATOM     28  C   UNL A   1      35.369  34.646  28.663  1.00  0.00     0.014 A 
ATOM     29  C   UNL A   1      35.016  33.211  31.042  1.00  0.00     0.010 A 
ATOM     30  C   UNL A   1      36.437  33.948  29.216  1.00  0.00     0.010 A 
ATOM     31  C   UNL A   1      36.267  33.218  30.404  1.00  0.00    -0.014 A 
BRANCH  31  32
ATOM     32  C   UNL A   1      37.422  32.484  30.971  1.00  0.00     0.031 A 
ATOM     33  C   UNL A   1      38.051  32.968  32.245  1.00  0.00     0.074 A 
ATOM     34  C   UNL A   1      37.944  31.431  30.313  1.00  0.00     0.049 A 
ATOM     35  N   UNL A   1      39.111  32.522  32.867  1.00  0.00    -0.248 NA
ATOM     36  C   UNL A   1      37.414  34.127  32.890  1.00  0.00     0.031 C 
ATOM     37  C   UNL A   1      37.449  30.888  29.048  1.00  0.00     0.029 A 
ATOM     38  N   UNL A   1      39.021  30.638  30.618  1.00  0.00    -0.354 N 
ATOM     39  C   UNL A   1      39.273  33.348  33.970  1.00  0.00     0.074 A 
ATOM     40  C   UNL A   1      38.235  34.355  33.903  1.00  0.00     0.031 C 
ATOM     41  C   UNL A   1      38.210  29.838  28.693  1.00  0.00     0.029 A 
ATOM     42  C   UNL A   1      39.260  29.653  29.690  1.00  0.00     0.049 A 
ATOM     43  H   UNL A   1      39.571  30.762  31.424  1.00  0.00     0.167 HD
ATOM     44  C   UNL A   1      40.187  33.263  34.964  1.00  0.00     0.037 A 
ATOM     45  C   UNL A   1      40.220  28.709  29.654  1.00  0.00     0.037 A 
ATOM     46  C   UNL A   1      41.204  32.252  35.045  1.00  0.00     0.049 A 
ATOM     47  C   UNL A   1      41.233  28.644  30.762  1.00  0.00     0.074 A 
ATOM     48  C   UNL A   1      42.149  32.052  36.036  1.00  0.00     0.029 A 
ATOM     49  N   UNL A   1      41.407  31.265  34.093  1.00  0.00    -0.354 N 
ATOM     50  N   UNL A   1      41.343  29.400  31.828  1.00  0.00    -0.248 NA
ATOM     51  C   UNL A   1      42.256  27.593  30.662  1.00  0.00     0.031 C 
ATOM     52  C   UNL A   1      42.940  30.956  35.672  1.00  0.00     0.029 A 
ATOM     53  C   UNL A   1      42.469  30.459  34.466  1.00  0.00     0.049 A 
ATOM     54  H   UNL A   1      40.874  31.153  33.273  1.00  0.00     0.167 HD
ATOM     55  C   UNL A   1      42.427  28.901  32.537  1.00  0.00     0.074 A 
ATOM     56  C   UNL A   1      42.937  27.773  31.786  1.00  0.00     0.031 C 
ATOM     57  C   UNL A   1      42.954  29.336  33.708  1.00  0.00     0.037 A 
BRANCH  44  58
ATOM     58  C   UNL A   1      40.107  34.298  36.045  1.00  0.00     0.057 A 
ATOM     59  C   UNL A   1      39.339  34.080  37.194  1.00  0.00     0.134 A 
ATOM     60  C   UNL A   1      40.809  35.507  35.952  1.00  0.00     0.134 A 
ATOM     61  F   UNL A   1      38.645  32.941  37.344  1.00  0.00    -0.206 F 
ATOM     62  C   UNL A   1      39.278  35.025  38.218  1.00  0.00     0.040 A 
ATOM     63  C   UNL A   1      40.773  36.451  36.978  1.00  0.00     0.040 A 
ATOM     64  F   UNL A   1      41.578  35.766  34.883  1.00  0.00    -0.206 F 
ATOM     65  C   UNL A   1      40.004  36.212  38.115  1.00  0.00     0.006 A 
ENDBRANCH  44  58
BRANCH  45  66
ATOM     66  C   UNL A   1      40.260  27.724  28.546  1.00  0.00     0.057 A 
ATOM     67  C   UNL A   1      40.984  27.967  27.374  1.00  0.00     0.134 A 
ATOM     68  C   UNL A   1      39.595  26.497  28.653  1.00  0.00     0.134 A 
ATOM     69  F   UNL A   1      41.640  29.125  27.211  1.00  0.00    -0.206 F 
ATOM     70  C   UNL A   1      41.048  27.023  26.348  1.00  0.00     0.040 A 
ATOM     71  C   UNL A   1      39.665  25.537  27.644  1.00  0.00     0.040 A 
ATOM     72  F   UNL A   1      38.904  26.201  29.764  1.00  0.00    -0.206 F 
ATOM     73  C   UNL A   1      40.393  25.801  26.485  1.00  0.00     0.006 A 
ENDBRANCH  45  66
BRANCH  57  74
ATOM     74  C   UNL A   1      44.118  28.570  34.256  1.00  0.00     0.057 A 
ATOM     75  C   UNL A   1      45.429  28.934  33.925  1.00  0.00     0.134 A 
ATOM     76  C   UNL A   1      43.940  27.457  35.085  1.00  0.00     0.134 A 
ATOM     77  F   UNL A   1      45.664  29.989  33.132  1.00  0.00    -0.206 F 
ATOM     78  C   UNL A   1      46.525  28.212  34.398  1.00  0.00     0.040 A 
ATOM     79  C   UNL A   1      45.029  26.738  35.580  1.00  0.00     0.040 A 
ATOM     80  F   UNL A   1      42.708  27.070  35.450  1.00  0.00    -0.206 F 
ATOM     81  C   UNL A   1      46.326  27.112  35.232  1.00  0.00     0.006 A 
ENDBRANCH  57  74
ENDBRANCH  31  32
ENDBRANCH  23  26
ENDBRANCH  21  22
ENDBRANCH   1  21
TORSDOF 11
ENDMDL
MODEL 2
REMARK VINA RESULT:     -12.0      4.996     10.130
REMARK SMILES Cc1ccc2c(c1C)O[C@@H](C(=O)NCCCCNC(=O)c1ccc(-c3c4nc(c(-c5c(F)cccc5F)c5ccc([nH]5)c(-c5c(F)cccc5F)c5nc(c(-c6c(F)cccc6F)c6ccc3[nH]6)C=C5)C=C4)cc1)CC2=O
REMARK SMILES IDX 16 1 15 2 14 3 13 4 11 5 12 6 10 8 1 9 2 10 3 11 7 12 4 13
REMARK SMILES IDX 6 14 8 15 5 16 9 17 76 18 75 19 77 20 17 21 18 22 19 23
REMARK SMILES IDX 20 25 21 26 22 27 74 28 23 29 73 30 24 31 25 32 26 33 67 34
REMARK SMILES IDX 27 35 72 36 66 37 68 38 28 39 71 40 65 41 64 42 29 44 55 45
REMARK SMILES IDX 38 46 54 47 39 48 42 49 53 50 69 51 40 52 41 53 52 55 70 56
REMARK SMILES IDX 43 57 30 58 31 59 36 60 32 61 33 62 35 63 37 64 34 65 56 66
REMARK SMILES IDX 57 67 62 68 58 69 59 70 61 71 63 72 60 73 44 74 45 75 50 76
REMARK SMILES IDX 46 77 47 78 49 79 51 80 48 81
REMARK H PARENT 13 7 18 24 68 43 42 54
REMARK Flexibility Score: inf
ROOT
ATOM      1  C   UNL A   1      38.024  20.042  25.015  1.00  0.00     0.023 C 
ENDROOT
BRANCH   1   2
ATOM      2  C   UNL A   1      37.334  21.329  24.565  1.00  0.00     0.023 C 
BRANCH   2   3
ATOM      3  C   UNL A   1      37.470  22.486  25.556  1.00  0.00     0.116 C 
BRANCH   3   4
ATOM      4  N   UNL A   1      36.375  22.531  26.501  1.00  0.00    -0.353 N 
ATOM      5  C   UNL A   1      35.115  23.029  26.425  1.00  0.00     0.261 C 
ATOM      6  O   UNL A   1      34.399  22.837  27.416  1.00  0.00    -0.271 OA
ATOM      7  H   UNL A   1      36.586  22.121  27.370  1.00  0.00     0.163 HD
BRANCH   5   8
ATOM      8  C   UNL A   1      34.571  23.860  25.237  1.00  0.00     0.269 C 
ATOM      9  C   UNL A   1      31.698  28.893  27.233  1.00  0.00     0.045 C 
ATOM     10  C   UNL A   1      31.836  27.567  26.534  1.00  0.00    -0.044 A 
ATOM     11  C   UNL A   1      30.679  26.809  26.297  1.00  0.00     0.005 A 
ATOM     12  C   UNL A   1      33.093  27.058  26.139  1.00  0.00    -0.005 A 
ATOM     13  C   UNL A   1      30.759  25.556  25.695  1.00  0.00     0.016 A 
ATOM     14  C   UNL A   1      33.167  25.758  25.593  1.00  0.00     0.134 A 
ATOM     15  C   UNL A   1      34.372  27.832  26.339  1.00  0.00     0.049 C 
ATOM     16  C   UNL A   1      32.007  25.027  25.359  1.00  0.00     0.060 A 
ATOM     17  O   UNL A   1      34.423  25.257  25.401  1.00  0.00    -0.479 OA
ATOM     18  C   UNL A   1      32.102  23.657  24.837  1.00  0.00     0.170 C 
ATOM     19  C   UNL A   1      33.461  23.141  24.489  1.00  0.00     0.136 C 
ATOM     20  O   UNL A   1      31.091  22.981  24.669  1.00  0.00    -0.294 OA
ENDBRANCH   5   8
ENDBRANCH   3   4
ENDBRANCH   2   3
ENDBRANCH   1   2
BRANCH   1  21
ATOM     21  C   UNL A   1      39.288  20.252  25.842  1.00  0.00     0.116 C 
BRANCH  21  22
ATOM     22  N   UNL A   1      40.211  19.126  25.818  1.00  0.00    -0.352 N 
ATOM     23  C   UNL A   1      41.564  19.161  26.075  1.00  0.00     0.251 C 
ATOM     24  H   UNL A   1      39.828  18.248  25.594  1.00  0.00     0.163 HD
ATOM     25  O   UNL A   1      42.261  18.158  25.999  1.00  0.00    -0.269 OA
BRANCH  23  26
ATOM     26  C   UNL A   1      42.163  20.469  26.408  1.00  0.00     0.039 A 
ATOM     27  C   UNL A   1      42.531  21.327  25.370  1.00  0.00     0.014 A 
ATOM     28  C   UNL A   1      42.221  20.883  27.742  1.00  0.00     0.014 A 
ATOM     29  C   UNL A   1      42.891  22.641  25.668  1.00  0.00     0.010 A 
ATOM     30  C   UNL A   1      42.529  22.208  28.030  1.00  0.00     0.010 A 
ATOM     31  C   UNL A   1      42.857  23.100  26.995  1.00  0.00    -0.014 A 
BRANCH  31  32
ATOM     32  C   UNL A   1      43.181  24.506  27.330  1.00  0.00     0.031 A 
ATOM     33  C   UNL A   1      44.612  24.957  27.317  1.00  0.00     0.074 A 
ATOM     34  C   UNL A   1      42.205  25.354  27.708  1.00  0.00     0.049 A 
ATOM     35  N   UNL A   1      45.119  26.116  27.651  1.00  0.00    -0.248 NA
ATOM     36  C   UNL A   1      45.609  23.960  26.894  1.00  0.00     0.031 C 
ATOM     37  C   UNL A   1      40.782  25.027  27.799  1.00  0.00     0.029 A 
ATOM     38  N   UNL A   1      42.270  26.667  28.099  1.00  0.00    -0.354 N 
ATOM     39  C   UNL A   1      46.490  25.985  27.488  1.00  0.00     0.074 A 
ATOM     40  C   UNL A   1      46.742  24.621  27.076  1.00  0.00     0.031 C 
ATOM     41  C   UNL A   1      40.105  26.116  28.202  1.00  0.00     0.029 A 
ATOM     42  C   UNL A   1      41.049  27.207  28.424  1.00  0.00     0.049 A 
ATOM     43  H   UNL A   1      43.112  27.175  28.144  1.00  0.00     0.167 HD
ATOM     44  C   UNL A   1      47.454  26.923  27.641  1.00  0.00     0.037 A 
ATOM     45  C   UNL A   1      40.734  28.444  28.851  1.00  0.00     0.037 A 
ATOM     46  C   UNL A   1      47.205  28.284  28.027  1.00  0.00     0.049 A 
ATOM     47  C   UNL A   1      41.823  29.464  29.028  1.00  0.00     0.074 A 
ATOM     48  C   UNL A   1      48.108  29.324  28.166  1.00  0.00     0.029 A 
ATOM     49  N   UNL A   1      45.955  28.796  28.336  1.00  0.00    -0.354 N 
ATOM     50  N   UNL A   1      43.112  29.343  28.819  1.00  0.00    -0.248 NA
ATOM     51  C   UNL A   1      41.413  30.795  29.500  1.00  0.00     0.031 C 
ATOM     52  C   UNL A   1      47.406  30.461  28.581  1.00  0.00     0.029 A 
ATOM     53  C   UNL A   1      46.062  30.134  28.676  1.00  0.00     0.049 A 
ATOM     54  H   UNL A   1      45.114  28.284  28.316  1.00  0.00     0.167 HD
ATOM     55  C   UNL A   1      43.662  30.585  29.108  1.00  0.00     0.074 A 
ATOM     56  C   UNL A   1      42.567  31.448  29.499  1.00  0.00     0.031 C 
ATOM     57  C   UNL A   1      44.958  30.977  29.053  1.00  0.00     0.037 A 
BRANCH  44  58
ATOM     58  C   UNL A   1      48.864  26.492  27.376  1.00  0.00     0.057 A 
ATOM     59  C   UNL A   1      49.673  26.005  28.409  1.00  0.00     0.134 A 
ATOM     60  C   UNL A   1      49.415  26.544  26.089  1.00  0.00     0.134 A 
ATOM     61  F   UNL A   1      49.204  25.928  29.664  1.00  0.00    -0.206 F 
ATOM     62  C   UNL A   1      50.979  25.577  28.169  1.00  0.00     0.040 A 
ATOM     63  C   UNL A   1      50.712  26.100  25.832  1.00  0.00     0.040 A 
ATOM     64  F   UNL A   1      48.682  26.982  25.054  1.00  0.00    -0.206 F 
ATOM     65  C   UNL A   1      51.499  25.616  26.876  1.00  0.00     0.006 A 
ENDBRANCH  44  58
BRANCH  45  66
ATOM     66  C   UNL A   1      39.320  28.806  29.117  1.00  0.00     0.057 A 
ATOM     67  C   UNL A   1      38.734  28.603  30.371  1.00  0.00     0.134 A 
ATOM     68  C   UNL A   1      38.533  29.397  28.123  1.00  0.00     0.134 A 
ATOM     69  F   UNL A   1      39.437  28.039  31.364  1.00  0.00    -0.206 F 
ATOM     70  C   UNL A   1      37.414  28.977  30.628  1.00  0.00     0.040 A 
ATOM     71  C   UNL A   1      37.217  29.793  28.370  1.00  0.00     0.040 A 
ATOM     72  F   UNL A   1      39.050  29.637  26.908  1.00  0.00    -0.206 F 
ATOM     73  C   UNL A   1      36.655  29.581  29.628  1.00  0.00     0.006 A 
ENDBRANCH  45  66
BRANCH  57  74
ATOM     74  C   UNL A   1      45.251  32.405  29.393  1.00  0.00     0.057 A 
ATOM     75  C   UNL A   1      45.592  32.770  30.702  1.00  0.00     0.134 A 
ATOM     76  C   UNL A   1      45.166  33.421  28.435  1.00  0.00     0.134 A 
ATOM     77  F   UNL A   1      45.686  31.842  31.665  1.00  0.00    -0.206 F 
ATOM     78  C   UNL A   1      45.836  34.100  31.046  1.00  0.00     0.040 A 
ATOM     79  C   UNL A   1      45.425  34.753  28.763  1.00  0.00     0.040 A 
ATOM     80  F   UNL A   1      44.859  33.131  27.161  1.00  0.00    -0.206 F 
ATOM     81  C   UNL A   1      45.756  35.096  30.073  1.00  0.00     0.006 A 
ENDBRANCH  57  74
ENDBRANCH  31  32
ENDBRANCH  23  26
ENDBRANCH  21  22
ENDBRANCH   1  21
TORSDOF 11
ENDMDL
MODEL 3
REMARK VINA RESULT:     -12.0      4.483      9.512
REMARK SMILES Cc1ccc2c(c1C)O[C@@H](C(=O)NCCCCNC(=O)c1ccc(-c3c4nc(c(-c5c(F)cccc5F)c5ccc([nH]5)c(-c5c(F)cccc5F)c5nc(c(-c6c(F)cccc6F)c6ccc3[nH]6)C=C5)C=C4)cc1)CC2=O
REMARK SMILES IDX 16 1 15 2 14 3 13 4 11 5 12 6 10 8 1 9 2 10 3 11 7 12 4 13
REMARK SMILES IDX 6 14 8 15 5 16 9 17 76 18 75 19 77 20 17 21 18 22 19 23
REMARK SMILES IDX 20 25 21 26 22 27 74 28 23 29 73 30 24 31 25 32 26 33 67 34
REMARK SMILES IDX 27 35 72 36 66 37 68 38 28 39 71 40 65 41 64 42 29 44 55 45
REMARK SMILES IDX 38 46 54 47 39 48 42 49 53 50 69 51 40 52 41 53 52 55 70 56
REMARK SMILES IDX 43 57 30 58 31 59 36 60 32 61 33 62 35 63 37 64 34 65 56 66
REMARK SMILES IDX 57 67 62 68 58 69 59 70 61 71 63 72 60 73 44 74 45 75 50 76
REMARK SMILES IDX 46 77 47 78 49 79 51 80 48 81
REMARK H PARENT 13 7 18 24 68 43 42 54
REMARK Flexibility Score: inf
ROOT
ATOM      1  C   UNL A   1      37.792  20.285  24.998  1.00  0.00     0.023 C 
ENDROOT
BRANCH   1   2
ATOM      2  C   UNL A   1      37.071  21.543  24.517  1.00  0.00     0.023 C 
BRANCH   2   3
ATOM      3  C   UNL A   1      36.800  22.564  25.622  1.00  0.00     0.116 C 
BRANCH   3   4
ATOM      4  N   UNL A   1      35.821  22.092  26.578  1.00  0.00    -0.353 N 
ATOM      5  C   UNL A   1      34.479  21.904  26.502  1.00  0.00     0.261 C 
ATOM      6  O   UNL A   1      33.946  21.413  27.506  1.00  0.00    -0.271 OA
ATOM      7  H   UNL A   1      36.203  21.864  27.456  1.00  0.00     0.163 HD
BRANCH   5   8
ATOM      8  C   UNL A   1      33.602  22.324  25.297  1.00  0.00     0.269 C 
ATOM      9  C   UNL A   1      31.831  28.168  25.827  1.00  0.00     0.045 C 
ATOM     10  C   UNL A   1      31.658  26.677  25.721  1.00  0.00    -0.044 A 
ATOM     11  C   UNL A   1      30.454  26.107  26.164  1.00  0.00     0.005 A 
ATOM     12  C   UNL A   1      32.677  25.840  25.215  1.00  0.00    -0.005 A 
ATOM     13  C   UNL A   1      30.263  24.728  26.129  1.00  0.00     0.016 A 
ATOM     14  C   UNL A   1      32.498  24.440  25.249  1.00  0.00     0.134 A 
ATOM     15  C   UNL A   1      33.983  26.389  24.696  1.00  0.00     0.049 C 
ATOM     16  C   UNL A   1      31.294  23.897  25.685  1.00  0.00     0.060 A 
ATOM     17  O   UNL A   1      33.587  23.686  24.916  1.00  0.00    -0.479 OA
ATOM     18  C   UNL A   1      31.139  22.438  25.762  1.00  0.00     0.170 C 
ATOM     19  C   UNL A   1      32.269  21.594  25.270  1.00  0.00     0.136 C 
ATOM     20  O   UNL A   1      30.099  21.942  26.189  1.00  0.00    -0.294 OA
ENDBRANCH   5   8
ENDBRANCH   3   4
ENDBRANCH   2   3
ENDBRANCH   1   2
BRANCH   1  21
ATOM     21  C   UNL A   1      39.086  20.544  25.762  1.00  0.00     0.116 C 
BRANCH  21  22
ATOM     22  N   UNL A   1      40.026  19.432  25.742  1.00  0.00    -0.352 N 
ATOM     23  C   UNL A   1      41.344  19.457  26.139  1.00  0.00     0.251 C 
ATOM     24  H   UNL A   1      39.682  18.572  25.409  1.00  0.00     0.163 HD
ATOM     25  O   UNL A   1      42.062  18.469  26.054  1.00  0.00    -0.269 OA
BRANCH  23  26
ATOM     26  C   UNL A   1      41.884  20.737  26.638  1.00  0.00     0.039 A 
ATOM     27  C   UNL A   1      42.356  21.676  25.718  1.00  0.00     0.014 A 
ATOM     28  C   UNL A   1      41.786  21.047  27.997  1.00  0.00     0.014 A 
ATOM     29  C   UNL A   1      42.663  22.964  26.154  1.00  0.00     0.010 A 
ATOM     30  C   UNL A   1      42.040  22.347  28.419  1.00  0.00     0.010 A 
ATOM     31  C   UNL A   1      42.472  23.318  27.500  1.00  0.00    -0.014 A 
BRANCH  31  32
ATOM     32  C   UNL A   1      42.738  24.695  27.977  1.00  0.00     0.031 A 
ATOM     33  C   UNL A   1      44.138  25.094  28.339  1.00  0.00     0.074 A 
ATOM     34  C   UNL A   1      41.719  25.560  28.146  1.00  0.00     0.049 A 
ATOM     35  N   UNL A   1      44.574  26.218  28.847  1.00  0.00    -0.248 NA
ATOM     36  C   UNL A   1      45.184  24.081  28.124  1.00  0.00     0.031 C 
ATOM     37  C   UNL A   1      40.310  25.281  27.868  1.00  0.00     0.029 A 
ATOM     38  N   UNL A   1      41.718  26.852  28.610  1.00  0.00    -0.354 N 
ATOM     39  C   UNL A   1      45.940  26.045  29.019  1.00  0.00     0.074 A 
ATOM     40  C   UNL A   1      46.252  24.692  28.613  1.00  0.00     0.031 C 
ATOM     41  C   UNL A   1      39.582  26.376  28.149  1.00  0.00     0.029 A 
ATOM     42  C   UNL A   1      40.468  27.421  28.651  1.00  0.00     0.049 A 
ATOM     43  H   UNL A   1      42.534  27.326  28.885  1.00  0.00     0.167 HD
ATOM     44  C   UNL A   1      46.858  26.939  29.453  1.00  0.00     0.037 A 
ATOM     45  C   UNL A   1      40.087  28.648  29.051  1.00  0.00     0.037 A 
ATOM     46  C   UNL A   1      46.555  28.290  29.836  1.00  0.00     0.049 A 
ATOM     47  C   UNL A   1      41.123  29.620  29.543  1.00  0.00     0.074 A 
ATOM     48  C   UNL A   1      47.421  29.289  30.246  1.00  0.00     0.029 A 
ATOM     49  N   UNL A   1      45.280  28.833  29.854  1.00  0.00    -0.354 N 
ATOM     50  N   UNL A   1      42.419  29.461  29.652  1.00  0.00    -0.248 NA
ATOM     51  C   UNL A   1      40.641  30.942  29.967  1.00  0.00     0.031 C 
ATOM     52  C   UNL A   1      46.665  30.431  30.535  1.00  0.00     0.029 A 
ATOM     53  C   UNL A   1      45.332  30.150  30.279  1.00  0.00     0.049 A 
ATOM     54  H   UNL A   1      44.457  28.353  29.602  1.00  0.00     0.167 HD
ATOM     55  C   UNL A   1      42.911  30.668  30.130  1.00  0.00     0.074 A 
ATOM     56  C   UNL A   1      41.775  31.552  30.284  1.00  0.00     0.031 C 
ATOM     57  C   UNL A   1      44.190  31.015  30.416  1.00  0.00     0.037 A 
BRANCH  44  58
ATOM     58  C   UNL A   1      48.279  26.469  29.521  1.00  0.00     0.057 A 
ATOM     59  C   UNL A   1      49.148  26.646  28.439  1.00  0.00     0.134 A 
ATOM     60  C   UNL A   1      48.791  25.854  30.672  1.00  0.00     0.134 A 
ATOM     61  F   UNL A   1      48.719  27.230  27.309  1.00  0.00    -0.206 F 
ATOM     62  C   UNL A   1      50.480  26.236  28.501  1.00  0.00     0.040 A 
ATOM     63  C   UNL A   1      50.126  25.458  30.754  1.00  0.00     0.040 A 
ATOM     64  F   UNL A   1      48.012  25.674  31.750  1.00  0.00    -0.206 F 
ATOM     65  C   UNL A   1      50.974  25.647  29.665  1.00  0.00     0.006 A 
ENDBRANCH  44  58
BRANCH  45  66
ATOM     66  C   UNL A   1      38.660  29.050  28.980  1.00  0.00     0.057 A 
ATOM     67  C   UNL A   1      37.814  28.953  30.090  1.00  0.00     0.134 A 
ATOM     68  C   UNL A   1      38.121  29.572  27.799  1.00  0.00     0.134 A 
ATOM     69  F   UNL A   1      38.273  28.458  31.249  1.00  0.00    -0.206 F 
ATOM     70  C   UNL A   1      36.482  29.364  30.029  1.00  0.00     0.040 A 
ATOM     71  C   UNL A   1      36.796  30.004  27.728  1.00  0.00     0.040 A 
ATOM     72  F   UNL A   1      38.892  29.709  26.710  1.00  0.00    -0.206 F 
ATOM     73  C   UNL A   1      35.972  29.898  28.848  1.00  0.00     0.006 A 
ENDBRANCH  45  66
BRANCH  57  74
ATOM     74  C   UNL A   1      44.424  32.415  30.891  1.00  0.00     0.057 A 
ATOM     75  C   UNL A   1      44.696  33.442  29.978  1.00  0.00     0.134 A 
ATOM     76  C   UNL A   1      44.412  32.741  32.252  1.00  0.00     0.134 A 
ATOM     77  F   UNL A   1      44.726  33.191  28.661  1.00  0.00    -0.206 F 
ATOM     78  C   UNL A   1      44.951  34.745  30.404  1.00  0.00     0.040 A 
ATOM     79  C   UNL A   1      44.647  34.045  32.690  1.00  0.00     0.040 A 
ATOM     80  F   UNL A   1      44.142  31.804  33.173  1.00  0.00    -0.206 F 
ATOM     81  C   UNL A   1      44.923  35.051  31.764  1.00  0.00     0.006 A 
ENDBRANCH  57  74
ENDBRANCH  31  32
ENDBRANCH  23  26
ENDBRANCH  21  22
ENDBRANCH   1  21
TORSDOF 11
ENDMDL
