MODEL 1
REMARK VINA RESULT:     -11.6      0.000      0.000
REMARK SMILES CC1(C)C(=O)N([C@H]2COC[C@@H]2C(=O)NCCCCNC(=O)c2ccc(-c3c4nc(c(-c5c(F)cccc5F)c5ccc([nH]5)c(-c5c(F)cccc5F)c5nc(c(-c6c(F)cccc6F)c6ccc3[nH]6)C=C5)C=C4)cc2)S1(=O)=O
REMARK SMILES IDX 17 1 16 2 15 3 14 4 12 5 13 6 11 8 7 9 8 10 9 11 10 12 6 13
REMARK SMILES IDX 1 14 2 15 3 16 4 17 76 18 5 19 77 20 78 21 18 22 19 23 20 24
REMARK SMILES IDX 21 26 22 27 23 28 75 29 24 30 74 31 25 32 26 33 27 34 68 35
REMARK SMILES IDX 28 36 73 37 67 38 69 39 29 40 72 41 66 42 65 43 30 45 56 46
REMARK SMILES IDX 39 47 55 48 40 49 43 50 54 51 70 52 41 53 42 54 53 56 71 57
REMARK SMILES IDX 44 58 31 59 32 60 37 61 33 62 34 63 36 64 38 65 35 66 57 67
REMARK SMILES IDX 58 68 63 69 59 70 60 71 62 72 64 73 61 74 45 75 46 76 51 77
REMARK SMILES IDX 47 78 48 79 50 80 52 81 49 82
REMARK H PARENT 14 7 19 25 69 44 43 55
REMARK Flexibility Score: inf
ROOT
ATOM      1  C   UNL A   1      37.754  20.049  24.671  1.00  0.00     0.023 C 
ENDROOT
BRANCH   1   2
ATOM      2  C   UNL A   1      36.329  20.481  25.036  1.00  0.00     0.023 C 
BRANCH   2   3
ATOM      3  C   UNL A   1      36.231  21.852  25.706  1.00  0.00     0.116 C 
BRANCH   3   4
ATOM      4  N   UNL A   1      35.352  21.811  26.864  1.00  0.00    -0.356 N 
ATOM      5  C   UNL A   1      34.148  22.415  27.076  1.00  0.00     0.227 C 
ATOM      6  O   UNL A   1      33.685  22.383  28.217  1.00  0.00    -0.275 OA
ATOM      7  H   UNL A   1      35.679  21.262  27.614  1.00  0.00     0.163 HD
BRANCH   5   8
ATOM      8  C   UNL A   1      33.403  23.061  25.921  1.00  0.00     0.130 C 
ATOM      9  C   UNL A   1      32.201  23.836  26.430  1.00  0.00     0.143 C 
ATOM     10  C   UNL A   1      31.098  22.777  26.400  1.00  0.00     0.187 C 
ATOM     11  O   UNL A   1      31.410  21.873  25.328  1.00  0.00    -0.378 OA
ATOM     12  C   UNL A   1      32.805  21.994  25.024  1.00  0.00     0.176 C 
BRANCH   9  13
ATOM     13  N   UNL A   1      31.811  24.975  25.555  1.00  0.00    -0.231 N 
ATOM     14  C   UNL A   1      30.765  27.802  24.168  1.00  0.00     0.041 C 
ATOM     15  C   UNL A   1      31.464  27.178  25.372  1.00  0.00     0.165 C 
ATOM     16  C   UNL A   1      31.697  28.219  26.470  1.00  0.00     0.041 C 
ATOM     17  C   UNL A   1      30.803  25.895  25.900  1.00  0.00     0.259 C 
ATOM     18  S   UNL A   1      32.855  26.157  25.037  1.00  0.00     0.252 S 
ATOM     19  O   UNL A   1      29.785  25.646  26.520  1.00  0.00    -0.272 OA
ATOM     20  O   UNL A   1      33.100  25.964  23.628  1.00  0.00    -0.205 OA
ATOM     21  O   UNL A   1      33.912  26.328  26.005  1.00  0.00    -0.205 OA
ENDBRANCH   9  13
ENDBRANCH   5   8
ENDBRANCH   3   4
ENDBRANCH   2   3
ENDBRANCH   1   2
BRANCH   1  22
ATOM     22  C   UNL A   1      38.820  20.336  25.727  1.00  0.00     0.116 C 
BRANCH  22  23
ATOM     23  N   UNL A   1      39.902  19.365  25.729  1.00  0.00    -0.352 N 
ATOM     24  C   UNL A   1      41.221  19.538  26.073  1.00  0.00     0.251 C 
ATOM     25  H   UNL A   1      39.656  18.456  25.444  1.00  0.00     0.163 HD
ATOM     26  O   UNL A   1      42.025  18.626  25.906  1.00  0.00    -0.269 OA
BRANCH  24  27
ATOM     27  C   UNL A   1      41.684  20.837  26.607  1.00  0.00     0.039 A 
ATOM     28  C   UNL A   1      42.199  21.784  25.716  1.00  0.00     0.014 A 
ATOM     29  C   UNL A   1      41.610  21.127  27.973  1.00  0.00     0.014 A 
ATOM     30  C   UNL A   1      42.573  23.045  26.183  1.00  0.00     0.010 A 
ATOM     31  C   UNL A   1      41.926  22.406  28.427  1.00  0.00     0.010 A 
ATOM     32  C   UNL A   1      42.405  23.379  27.537  1.00  0.00    -0.014 A 
BRANCH  32  33
ATOM     33  C   UNL A   1      42.705  24.745  28.034  1.00  0.00     0.031 A 
ATOM     34  C   UNL A   1      44.102  25.114  28.448  1.00  0.00     0.074 A 
ATOM     35  C   UNL A   1      41.702  25.633  28.183  1.00  0.00     0.049 A 
ATOM     36  N   UNL A   1      44.539  26.227  28.982  1.00  0.00    -0.248 NA
ATOM     37  C   UNL A   1      45.140  24.087  28.264  1.00  0.00     0.031 C 
ATOM     38  C   UNL A   1      40.295  25.383  27.867  1.00  0.00     0.029 A 
ATOM     39  N   UNL A   1      41.712  26.923  28.652  1.00  0.00    -0.354 N 
ATOM     40  C   UNL A   1      45.894  26.029  29.211  1.00  0.00     0.074 A 
ATOM     41  C   UNL A   1      46.199  24.676  28.799  1.00  0.00     0.031 C 
ATOM     42  C   UNL A   1      39.581  26.487  28.137  1.00  0.00     0.029 A 
ATOM     43  C   UNL A   1      40.471  27.510  28.676  1.00  0.00     0.049 A 
ATOM     44  H   UNL A   1      42.532  27.384  28.945  1.00  0.00     0.167 HD
ATOM     45  C   UNL A   1      46.805  26.903  29.704  1.00  0.00     0.037 A 
ATOM     46  C   UNL A   1      40.090  28.732  29.093  1.00  0.00     0.037 A 
ATOM     47  C   UNL A   1      46.508  28.258  30.084  1.00  0.00     0.049 A 
ATOM     48  C   UNL A   1      41.123  29.689  29.619  1.00  0.00     0.074 A 
ATOM     49  C   UNL A   1      47.378  29.238  30.531  1.00  0.00     0.029 A 
ATOM     50  N   UNL A   1      45.243  28.827  30.062  1.00  0.00    -0.354 N 
ATOM     51  N   UNL A   1      42.412  29.508  29.772  1.00  0.00    -0.248 NA
ATOM     52  C   UNL A   1      40.649  31.020  30.023  1.00  0.00     0.031 C 
ATOM     53  C   UNL A   1      46.634  30.389  30.813  1.00  0.00     0.029 A 
ATOM     54  C   UNL A   1      45.308  30.138  30.502  1.00  0.00     0.049 A 
ATOM     55  H   UNL A   1      44.422  28.366  29.775  1.00  0.00     0.167 HD
ATOM     56  C   UNL A   1      42.907  30.708  30.267  1.00  0.00     0.074 A 
ATOM     57  C   UNL A   1      41.781  31.612  30.377  1.00  0.00     0.031 C 
ATOM     58  C   UNL A   1      44.180  31.029  30.602  1.00  0.00     0.037 A 
BRANCH  45  59
ATOM     59  C   UNL A   1      48.217  26.418  29.853  1.00  0.00     0.057 A 
ATOM     60  C   UNL A   1      49.168  26.594  28.840  1.00  0.00     0.134 A 
ATOM     61  C   UNL A   1      48.641  25.806  31.039  1.00  0.00     0.134 A 
ATOM     62  F   UNL A   1      48.822  27.163  27.675  1.00  0.00    -0.206 F 
ATOM     63  C   UNL A   1      50.485  26.160  28.992  1.00  0.00     0.040 A 
ATOM     64  C   UNL A   1      49.962  25.389  31.213  1.00  0.00     0.040 A 
ATOM     65  F   UNL A   1      47.783  25.612  32.051  1.00  0.00    -0.206 F 
ATOM     66  C   UNL A   1      50.887  25.562  30.184  1.00  0.00     0.006 A 
ENDBRANCH  45  59
BRANCH  46  67
ATOM     67  C   UNL A   1      38.663  29.129  29.009  1.00  0.00     0.057 A 
ATOM     68  C   UNL A   1      38.115  29.601  27.811  1.00  0.00     0.134 A 
ATOM     69  C   UNL A   1      37.816  29.046  30.120  1.00  0.00     0.134 A 
ATOM     70  F   UNL A   1      38.883  29.719  26.719  1.00  0.00    -0.206 F 
ATOM     71  C   UNL A   1      36.777  29.990  27.724  1.00  0.00     0.040 A 
ATOM     72  C   UNL A   1      36.470  29.412  30.041  1.00  0.00     0.040 A 
ATOM     73  F   UNL A   1      38.280  28.596  31.295  1.00  0.00    -0.206 F 
ATOM     74  C   UNL A   1      35.949  29.890  28.841  1.00  0.00     0.006 A 
ENDBRANCH  46  67
BRANCH  58  75
ATOM     75  C   UNL A   1      44.430  32.425  31.089  1.00  0.00     0.057 A 
ATOM     76  C   UNL A   1      44.407  32.745  32.452  1.00  0.00     0.134 A 
ATOM     77  C   UNL A   1      44.738  33.451  30.187  1.00  0.00     0.134 A 
ATOM     78  F   UNL A   1      44.105  31.809  33.366  1.00  0.00    -0.206 F 
ATOM     79  C   UNL A   1      44.663  34.042  32.900  1.00  0.00     0.040 A 
ATOM     80  C   UNL A   1      45.019  34.746  30.624  1.00  0.00     0.040 A 
ATOM     81  F   UNL A   1      44.784  33.207  28.869  1.00  0.00    -0.206 F 
ATOM     82  C   UNL A   1      44.978  35.045  31.985  1.00  0.00     0.006 A 
ENDBRANCH  58  75
ENDBRANCH  32  33
ENDBRANCH  24  27
ENDBRANCH  22  23
ENDBRANCH   1  22
TORSDOF 12
ENDMDL
MODEL 2
REMARK VINA RESULT:     -11.5      4.344      8.971
REMARK SMILES CC1(C)C(=O)N([C@H]2COC[C@@H]2C(=O)NCCCCNC(=O)c2ccc(-c3c4nc(c(-c5c(F)cccc5F)c5ccc([nH]5)c(-c5c(F)cccc5F)c5nc(c(-c6c(F)cccc6F)c6ccc3[nH]6)C=C5)C=C4)cc2)S1(=O)=O
REMARK SMILES IDX 17 1 16 2 15 3 14 4 12 5 13 6 11 8 7 9 8 10 9 11 10 12 6 13
REMARK SMILES IDX 1 14 2 15 3 16 4 17 76 18 5 19 77 20 78 21 18 22 19 23 20 24
REMARK SMILES IDX 21 26 22 27 23 28 75 29 24 30 74 31 25 32 26 33 27 34 68 35
REMARK SMILES IDX 28 36 73 37 67 38 69 39 29 40 72 41 66 42 65 43 30 45 56 46
REMARK SMILES IDX 39 47 55 48 40 49 43 50 54 51 70 52 41 53 42 54 53 56 71 57
REMARK SMILES IDX 44 58 31 59 32 60 37 61 33 62 34 63 36 64 38 65 35 66 57 67
REMARK SMILES IDX 58 68 63 69 59 70 60 71 62 72 64 73 61 74 45 75 46 76 51 77
REMARK SMILES IDX 47 78 48 79 50 80 52 81 49 82
REMARK H PARENT 14 7 19 25 69 44 43 55
REMARK Flexibility Score: inf
ROOT
ATOM      1  C   UNL A   1      31.532  31.705  26.503  1.00  0.00     0.023 C 
ENDROOT
BRANCH   1   2
ATOM      2  C   UNL A   1      31.641  30.178  26.426  1.00  0.00     0.023 C 
BRANCH   2   3
ATOM      3  C   UNL A   1      33.036  29.655  26.080  1.00  0.00     0.116 C 
BRANCH   3   4
ATOM      4  N   UNL A   1      33.276  29.703  24.646  1.00  0.00    -0.356 N 
ATOM      5  C   UNL A   1      33.213  28.714  23.710  1.00  0.00     0.227 C 
ATOM      6  O   UNL A   1      33.648  28.962  22.585  1.00  0.00    -0.275 OA
ATOM      7  H   UNL A   1      33.524  30.590  24.296  1.00  0.00     0.163 HD
BRANCH   5   8
ATOM      8  C   UNL A   1      32.585  27.374  24.055  1.00  0.00     0.130 C 
ATOM      9  C   UNL A   1      32.915  26.343  22.992  1.00  0.00     0.143 C 
ATOM     10  C   UNL A   1      31.752  26.507  22.012  1.00  0.00     0.187 C 
ATOM     11  O   UNL A   1      30.610  26.924  22.777  1.00  0.00    -0.378 OA
ATOM     12  C   UNL A   1      31.072  27.481  24.014  1.00  0.00     0.176 C 
BRANCH   9  13
ATOM     13  N   UNL A   1      32.932  24.945  23.502  1.00  0.00    -0.231 N 
ATOM     14  C   UNL A   1      33.496  21.761  24.248  1.00  0.00     0.041 C 
ATOM     15  C   UNL A   1      34.137  23.105  23.915  1.00  0.00     0.165 C 
ATOM     16  C   UNL A   1      35.648  22.957  23.720  1.00  0.00     0.041 C 
ATOM     17  C   UNL A   1      33.462  23.867  22.766  1.00  0.00     0.259 C 
ATOM     18  S   UNL A   1      33.667  24.473  24.913  1.00  0.00     0.252 S 
ATOM     19  O   UNL A   1      33.414  23.733  21.556  1.00  0.00    -0.272 OA
ATOM     20  O   UNL A   1      32.642  24.155  25.878  1.00  0.00    -0.205 OA
ATOM     21  O   UNL A   1      34.775  25.353  25.201  1.00  0.00    -0.205 OA
ENDBRANCH   9  13
ENDBRANCH   5   8
ENDBRANCH   3   4
ENDBRANCH   2   3
ENDBRANCH   1   2
BRANCH   1  22
ATOM     22  C   UNL A   1      32.736  32.422  27.109  1.00  0.00     0.116 C 
BRANCH  22  23
ATOM     23  N   UNL A   1      32.450  33.792  27.505  1.00  0.00    -0.352 N 
ATOM     24  C   UNL A   1      33.060  34.562  28.466  1.00  0.00     0.251 C 
ATOM     25  H   UNL A   1      31.716  34.229  27.016  1.00  0.00     0.163 HD
ATOM     26  O   UNL A   1      32.609  35.669  28.744  1.00  0.00    -0.269 OA
BRANCH  24  27
ATOM     27  C   UNL A   1      34.236  34.043  29.196  1.00  0.00     0.039 A 
ATOM     28  C   UNL A   1      34.028  33.187  30.282  1.00  0.00     0.014 A 
ATOM     29  C   UNL A   1      35.536  34.389  28.816  1.00  0.00     0.014 A 
ATOM     30  C   UNL A   1      35.122  32.624  30.941  1.00  0.00     0.010 A 
ATOM     31  C   UNL A   1      36.625  33.779  29.435  1.00  0.00     0.010 A 
ATOM     32  C   UNL A   1      36.428  32.886  30.500  1.00  0.00    -0.014 A 
BRANCH  32  33
ATOM     33  C   UNL A   1      37.599  32.221  31.126  1.00  0.00     0.031 A 
ATOM     34  C   UNL A   1      38.330  31.127  30.401  1.00  0.00     0.074 A 
ATOM     35  C   UNL A   1      37.959  32.555  32.381  1.00  0.00     0.049 A 
ATOM     36  N   UNL A   1      39.319  30.377  30.818  1.00  0.00    -0.248 NA
ATOM     37  C   UNL A   1      37.871  30.815  29.038  1.00  0.00     0.031 C 
ATOM     38  C   UNL A   1      37.300  33.564  33.212  1.00  0.00     0.029 A 
ATOM     39  N   UNL A   1      38.961  32.068  33.183  1.00  0.00    -0.354 N 
ATOM     40  C   UNL A   1      39.589  29.496  29.778  1.00  0.00     0.074 A 
ATOM     41  C   UNL A   1      38.633  29.776  28.728  1.00  0.00     0.031 C 
ATOM     42  C   UNL A   1      37.924  33.631  34.399  1.00  0.00     0.029 A 
ATOM     43  C   UNL A   1      39.002  32.649  34.427  1.00  0.00     0.049 A 
ATOM     44  H   UNL A   1      39.591  31.368  32.894  1.00  0.00     0.167 HD
ATOM     45  C   UNL A   1      40.557  28.553  29.700  1.00  0.00     0.037 A 
ATOM     46  C   UNL A   1      39.812  32.412  35.476  1.00  0.00     0.037 A 
ATOM     47  C   UNL A   1      41.528  28.296  30.731  1.00  0.00     0.049 A 
ATOM     48  C   UNL A   1      40.891  31.372  35.356  1.00  0.00     0.074 A 
ATOM     49  C   UNL A   1      42.588  27.405  30.714  1.00  0.00     0.029 A 
ATOM     50  N   UNL A   1      41.557  28.929  31.964  1.00  0.00    -0.354 N 
ATOM     51  N   UNL A   1      41.174  30.589  34.343  1.00  0.00    -0.248 NA
ATOM     52  C   UNL A   1      41.767  31.187  36.522  1.00  0.00     0.031 C 
ATOM     53  C   UNL A   1      43.237  27.474  31.951  1.00  0.00     0.029 A 
ATOM     54  C   UNL A   1      42.607  28.437  32.722  1.00  0.00     0.049 A 
ATOM     55  H   UNL A   1      40.925  29.625  32.257  1.00  0.00     0.167 HD
ATOM     56  C   UNL A   1      42.272  29.837  34.739  1.00  0.00     0.074 A 
ATOM     57  C   UNL A   1      42.611  30.266  36.080  1.00  0.00     0.031 C 
ATOM     58  C   UNL A   1      42.937  28.876  34.053  1.00  0.00     0.037 A 
BRANCH  45  59
ATOM     59  C   UNL A   1      40.619  27.729  28.447  1.00  0.00     0.057 A 
ATOM     60  C   UNL A   1      41.365  28.137  27.333  1.00  0.00     0.134 A 
ATOM     61  C   UNL A   1      39.962  26.496  28.368  1.00  0.00     0.134 A 
ATOM     62  F   UNL A   1      42.009  29.314  27.341  1.00  0.00    -0.206 F 
ATOM     63  C   UNL A   1      41.437  27.357  26.178  1.00  0.00     0.040 A 
ATOM     64  C   UNL A   1      40.046  25.695  27.228  1.00  0.00     0.040 A 
ATOM     65  F   UNL A   1      39.236  26.043  29.402  1.00  0.00    -0.206 F 
ATOM     66  C   UNL A   1      40.781  26.129  26.126  1.00  0.00     0.006 A 
ENDBRANCH  45  59
BRANCH  46  67
ATOM     67  C   UNL A   1      39.649  33.192  36.727  1.00  0.00     0.057 A 
ATOM     68  C   UNL A   1      40.386  34.360  36.950  1.00  0.00     0.134 A 
ATOM     69  C   UNL A   1      38.754  32.791  37.725  1.00  0.00     0.134 A 
ATOM     70  F   UNL A   1      41.272  34.784  36.037  1.00  0.00    -0.206 F 
ATOM     71  C   UNL A   1      40.251  35.096  38.128  1.00  0.00     0.040 A 
ATOM     72  C   UNL A   1      38.592  33.529  38.899  1.00  0.00     0.040 A 
ATOM     73  F   UNL A   1      38.013  31.684  37.567  1.00  0.00    -0.206 F 
ATOM     74  C   UNL A   1      39.346  34.682  39.105  1.00  0.00     0.006 A 
ENDBRANCH  46  67
BRANCH  58  75
ATOM     75  C   UNL A   1      44.117  28.245  34.728  1.00  0.00     0.057 A 
ATOM     76  C   UNL A   1      43.996  27.067  35.476  1.00  0.00     0.134 A 
ATOM     77  C   UNL A   1      45.397  28.798  34.592  1.00  0.00     0.134 A 
ATOM     78  F   UNL A   1      42.794  26.495  35.655  1.00  0.00    -0.206 F 
ATOM     79  C   UNL A   1      45.104  26.472  36.082  1.00  0.00     0.040 A 
ATOM     80  C   UNL A   1      46.515  28.199  35.174  1.00  0.00     0.040 A 
ATOM     81  F   UNL A   1      45.582  29.920  33.882  1.00  0.00    -0.206 F 
ATOM     82  C   UNL A   1      46.369  27.034  35.925  1.00  0.00     0.006 A 
ENDBRANCH  58  75
ENDBRANCH  32  33
ENDBRANCH  24  27
ENDBRANCH  22  23
ENDBRANCH   1  22
TORSDOF 12
ENDMDL
MODEL 3
REMARK VINA RESULT:     -11.5      4.219      9.281
REMARK SMILES CC1(C)C(=O)N([C@H]2COC[C@@H]2C(=O)NCCCCNC(=O)c2ccc(-c3c4nc(c(-c5c(F)cccc5F)c5ccc([nH]5)c(-c5c(F)cccc5F)c5nc(c(-c6c(F)cccc6F)c6ccc3[nH]6)C=C5)C=C4)cc2)S1(=O)=O
REMARK SMILES IDX 17 1 16 2 15 3 14 4 12 5 13 6 11 8 7 9 8 10 9 11 10 12 6 13
REMARK SMILES IDX 1 14 2 15 3 16 4 17 76 18 5 19 77 20 78 21 18 22 19 23 20 24
REMARK SMILES IDX 21 26 22 27 23 28 75 29 24 30 74 31 25 32 26 33 27 34 68 35
REMARK SMILES IDX 28 36 73 37 67 38 69 39 29 40 72 41 66 42 65 43 30 45 56 46
REMARK SMILES IDX 39 47 55 48 40 49 43 50 54 51 70 52 41 53 42 54 53 56 71 57
REMARK SMILES IDX 44 58 31 59 32 60 37 61 33 62 34 63 36 64 38 65 35 66 57 67
REMARK SMILES IDX 58 68 63 69 59 70 60 71 62 72 64 73 61 74 45 75 46 76 51 77
REMARK SMILES IDX 47 78 48 79 50 80 52 81 49 82
REMARK H PARENT 14 7 19 25 69 44 43 55
REMARK Flexibility Score: inf
ROOT
ATOM      1  C   UNL A   1      31.403  31.673  26.792  1.00  0.00     0.023 C 
ENDROOT
BRANCH   1   2
ATOM      2  C   UNL A   1      31.417  30.585  25.711  1.00  0.00     0.023 C 
BRANCH   2   3
ATOM      3  C   UNL A   1      32.656  29.688  25.725  1.00  0.00     0.116 C 
BRANCH   3   4
ATOM      4  N   UNL A   1      33.279  29.629  24.412  1.00  0.00    -0.356 N 
ATOM      5  C   UNL A   1      33.450  28.574  23.567  1.00  0.00     0.227 C 
ATOM      6  O   UNL A   1      34.182  28.735  22.590  1.00  0.00    -0.275 OA
ATOM      7  H   UNL A   1      33.634  30.486  24.083  1.00  0.00     0.163 HD
BRANCH   5   8
ATOM      8  C   UNL A   1      32.720  27.265  23.820  1.00  0.00     0.130 C 
ATOM      9  C   UNL A   1      33.210  26.190  22.868  1.00  0.00     0.143 C 
ATOM     10  C   UNL A   1      32.263  26.357  21.678  1.00  0.00     0.187 C 
ATOM     11  O   UNL A   1      31.012  26.833  22.198  1.00  0.00    -0.378 OA
ATOM     12  C   UNL A   1      31.248  27.417  23.486  1.00  0.00     0.176 C 
BRANCH   9  13
ATOM     13  N   UNL A   1      33.079  24.809  23.409  1.00  0.00    -0.231 N 
ATOM     14  C   UNL A   1      33.341  21.617  24.277  1.00  0.00     0.041 C 
ATOM     15  C   UNL A   1      34.105  22.903  23.977  1.00  0.00     0.165 C 
ATOM     16  C   UNL A   1      35.613  22.646  23.931  1.00  0.00     0.041 C 
ATOM     17  C   UNL A   1      33.597  23.677  22.751  1.00  0.00     0.259 C 
ATOM     18  S   UNL A   1      33.643  24.330  24.894  1.00  0.00     0.252 S 
ATOM     19  O   UNL A   1      33.653  23.511  21.546  1.00  0.00    -0.272 OA
ATOM     20  O   UNL A   1      32.512  24.112  25.764  1.00  0.00    -0.205 OA
ATOM     21  O   UNL A   1      34.779  25.139  25.266  1.00  0.00    -0.205 OA
ENDBRANCH   9  13
ENDBRANCH   5   8
ENDBRANCH   3   4
ENDBRANCH   2   3
ENDBRANCH   1   2
BRANCH   1  22
ATOM     22  C   UNL A   1      32.699  32.466  26.945  1.00  0.00     0.116 C 
BRANCH  22  23
ATOM     23  N   UNL A   1      32.487  33.828  27.409  1.00  0.00    -0.352 N 
ATOM     24  C   UNL A   1      33.137  34.515  28.405  1.00  0.00     0.251 C 
ATOM     25  H   UNL A   1      31.778  34.328  26.943  1.00  0.00     0.163 HD
ATOM     26  O   UNL A   1      32.747  35.630  28.738  1.00  0.00    -0.269 OA
BRANCH  24  27
ATOM     27  C   UNL A   1      34.283  33.898  29.106  1.00  0.00     0.039 A 
ATOM     28  C   UNL A   1      34.028  32.987  30.136  1.00  0.00     0.014 A 
ATOM     29  C   UNL A   1      35.600  34.205  28.753  1.00  0.00     0.014 A 
ATOM     30  C   UNL A   1      35.090  32.334  30.763  1.00  0.00     0.010 A 
ATOM     31  C   UNL A   1      36.655  33.508  29.337  1.00  0.00     0.010 A 
ATOM     32  C   UNL A   1      36.411  32.561  30.344  1.00  0.00    -0.014 A 
BRANCH  32  33
ATOM     33  C   UNL A   1      37.545  31.805  30.932  1.00  0.00     0.031 A 
ATOM     34  C   UNL A   1      38.047  32.136  32.308  1.00  0.00     0.074 A 
ATOM     35  C   UNL A   1      38.171  30.867  30.193  1.00  0.00     0.049 A 
ATOM     36  N   UNL A   1      39.075  31.642  32.954  1.00  0.00    -0.248 NA
ATOM     37  C   UNL A   1      37.317  33.177  33.047  1.00  0.00     0.031 C 
ATOM     38  C   UNL A   1      37.814  30.488  28.825  1.00  0.00     0.029 A 
ATOM     39  N   UNL A   1      39.251  30.071  30.487  1.00  0.00    -0.354 N 
ATOM     40  C   UNL A   1      39.123  32.323  34.163  1.00  0.00     0.074 A 
ATOM     41  C   UNL A   1      38.049  33.293  34.146  1.00  0.00     0.031 C 
ATOM     42  C   UNL A   1      38.649  29.524  28.404  1.00  0.00     0.029 A 
ATOM     43  C   UNL A   1      39.619  29.241  29.457  1.00  0.00     0.049 A 
ATOM     44  H   UNL A   1      39.717  30.094  31.354  1.00  0.00     0.167 HD
ATOM     45  C   UNL A   1      39.974  32.142  35.202  1.00  0.00     0.037 A 
ATOM     46  C   UNL A   1      40.630  28.357  29.366  1.00  0.00     0.037 A 
ATOM     47  C   UNL A   1      41.022  31.156  35.232  1.00  0.00     0.049 A 
ATOM     48  C   UNL A   1      41.549  28.163  30.540  1.00  0.00     0.074 A 
ATOM     49  C   UNL A   1      41.892  30.855  36.266  1.00  0.00     0.029 A 
ATOM     50  N   UNL A   1      41.342  30.311  34.181  1.00  0.00    -0.354 N 
ATOM     51  N   UNL A   1      41.544  28.771  31.701  1.00  0.00    -0.248 NA
ATOM     52  C   UNL A   1      42.610  27.156  30.392  1.00  0.00     0.031 C 
ATOM     53  C   UNL A   1      42.762  29.851  35.828  1.00  0.00     0.029 A 
ATOM     54  C   UNL A   1      42.407  29.499  34.536  1.00  0.00     0.049 A 
ATOM     55  H   UNL A   1      40.881  30.291  33.312  1.00  0.00     0.167 HD
ATOM     56  C   UNL A   1      42.582  28.205  32.430  1.00  0.00     0.074 A 
ATOM     57  C   UNL A   1      43.188  27.197  31.584  1.00  0.00     0.031 C 
ATOM     58  C   UNL A   1      42.997  28.496  33.687  1.00  0.00     0.037 A 
BRANCH  45  59
ATOM     59  C   UNL A   1      39.801  33.030  36.399  1.00  0.00     0.057 A 
ATOM     60  C   UNL A   1      40.515  34.227  36.538  1.00  0.00     0.134 A 
ATOM     61  C   UNL A   1      38.880  32.706  37.402  1.00  0.00     0.134 A 
ATOM     62  F   UNL A   1      41.422  34.588  35.617  1.00  0.00    -0.206 F 
ATOM     63  C   UNL A   1      40.335  35.060  37.644  1.00  0.00     0.040 A 
ATOM     64  C   UNL A   1      38.673  33.543  38.500  1.00  0.00     0.040 A 
ATOM     65  F   UNL A   1      38.158  31.578  37.327  1.00  0.00    -0.206 F 
ATOM     66  C   UNL A   1      39.407  34.722  38.625  1.00  0.00     0.006 A 
ENDBRANCH  45  59
BRANCH  46  67
ATOM     67  C   UNL A   1      40.813  27.569  28.122  1.00  0.00     0.057 A 
ATOM     68  C   UNL A   1      41.599  28.053  27.071  1.00  0.00     0.134 A 
ATOM     69  C   UNL A   1      40.209  26.318  27.956  1.00  0.00     0.134 A 
ATOM     70  F   UNL A   1      42.188  29.255  27.166  1.00  0.00    -0.206 F 
ATOM     71  C   UNL A   1      41.768  27.328  25.891  1.00  0.00     0.040 A 
ATOM     72  C   UNL A   1      40.387  25.571  26.790  1.00  0.00     0.040 A 
ATOM     73  F   UNL A   1      39.449  25.797  28.930  1.00  0.00    -0.206 F 
ATOM     74  C   UNL A   1      41.164  26.079  25.751  1.00  0.00     0.006 A 
ENDBRANCH  46  67
BRANCH  58  75
ATOM     75  C   UNL A   1      44.139  27.696  34.235  1.00  0.00     0.057 A 
ATOM     76  C   UNL A   1      45.461  28.150  34.157  1.00  0.00     0.134 A 
ATOM     77  C   UNL A   1      43.909  26.478  34.886  1.00  0.00     0.134 A 
ATOM     78  F   UNL A   1      45.750  29.303  33.534  1.00  0.00    -0.206 F 
ATOM     79  C   UNL A   1      46.519  27.409  34.691  1.00  0.00     0.040 A 
ATOM     80  C   UNL A   1      44.954  25.740  35.445  1.00  0.00     0.040 A 
ATOM     81  F   UNL A   1      42.664  25.992  35.002  1.00  0.00    -0.206 F 
ATOM     82  C   UNL A   1      46.264  26.204  35.343  1.00  0.00     0.006 A 
ENDBRANCH  58  75
ENDBRANCH  32  33
ENDBRANCH  24  27
ENDBRANCH  22  23
ENDBRANCH   1  22
TORSDOF 12
ENDMDL
