MODEL 1
REMARK VINA RESULT:     -10.3      0.000      0.000
REMARK SMILES O=C(C[NH+]1CC(c2nc(-c3cccs3)no2)C1)NCCCCNC(=O)c1ccc(-c2c3nc(c(-c4c(F)cccc4F)c4ccc([nH]4)c(-c4c(F)cccc4F)c4nc(c(-c5c(F)cccc5F)c5ccc2[nH]5)C=C4)C=C3)cc1
REMARK SMILES IDX 20 1 19 2 18 3 1 4 2 5 3 7 4 8 5 9 17 10 6 12 7 13 8 14
REMARK SMILES IDX 16 15 9 16 15 17 10 18 11 19 14 20 12 21 13 22 21 23 22 24
REMARK SMILES IDX 23 25 24 26 25 28 26 29 27 30 79 31 28 32 78 33 29 34 30 35
REMARK SMILES IDX 31 36 72 37 32 38 77 39 71 40 73 41 33 42 76 43 70 44 69 45
REMARK SMILES IDX 34 47 60 48 43 49 59 50 44 51 47 52 58 53 74 54 45 55 46 56
REMARK SMILES IDX 57 58 75 59 48 60 35 61 36 62 41 63 37 64 38 65 40 66 42 67
REMARK SMILES IDX 39 68 61 69 62 70 67 71 63 72 64 73 66 74 68 75 65 76 49 77
REMARK SMILES IDX 50 78 55 79 51 80 52 81 54 82 56 83 53 84
REMARK H PARENT 18 6 4 11 23 27 73 46 47 57
REMARK Flexibility Score: inf
ROOT
ATOM      1  C   UNL A   1      33.292  34.585  28.498  1.00  0.00     0.023 C 
ENDROOT
BRANCH   1   2
ATOM      2  C   UNL A   1      32.922  35.906  29.174  1.00  0.00     0.116 C 
BRANCH   2   3
ATOM      3  N   UNL A   1      33.656  36.106  30.405  1.00  0.00    -0.351 N 
ATOM      4  O   UNL A   1      31.823  36.417  31.759  1.00  0.00    -0.269 OA
ATOM      5  C   UNL A   1      33.039  36.322  31.623  1.00  0.00     0.275 C 
ATOM      6  H   UNL A   1      34.640  36.087  30.374  1.00  0.00     0.163 HD
BRANCH   5   7
ATOM      7  C   UNL A   1      34.029  36.430  32.789  1.00  0.00     0.363 C 
BRANCH   7   8
ATOM      8  N   UNL A   1      34.001  35.210  33.614  1.00  0.00    -0.325 N 
ATOM      9  C   UNL A   1      34.036  33.967  32.810  1.00  0.00     0.282 C 
ATOM     10  C   UNL A   1      35.371  34.889  34.087  1.00  0.00     0.282 C 
ATOM     11  H   UNL A   1      33.223  35.393  34.248  1.00  0.00     0.348 HD
ATOM     12  C   UNL A   1      35.047  33.387  33.834  1.00  0.00     0.188 C 
BRANCH  12  13
ATOM     13  C   UNL A   1      36.216  32.646  33.221  1.00  0.00     0.241 A 
ATOM     14  N   UNL A   1      36.961  31.783  33.875  1.00  0.00    -0.190 NA
ATOM     15  O   UNL A   1      36.645  32.851  31.941  1.00  0.00    -0.338 OA
ATOM     16  C   UNL A   1      37.950  31.487  32.961  1.00  0.00     0.212 A 
ATOM     17  N   UNL A   1      37.781  32.073  31.767  1.00  0.00    -0.056 NA
BRANCH  16  18
ATOM     18  C   UNL A   1      39.144  30.660  33.312  1.00  0.00     0.075 A 
ATOM     19  C   UNL A   1      39.299  29.339  32.945  1.00  0.00     0.024 A 
ATOM     20  S   UNL A   1      40.453  31.217  34.258  1.00  0.00    -0.140 S 
ATOM     21  C   UNL A   1      40.489  28.769  33.488  1.00  0.00     0.012 A 
ATOM     22  C   UNL A   1      41.204  29.680  34.233  1.00  0.00     0.065 A 
ENDBRANCH  16  18
ENDBRANCH  12  13
ENDBRANCH   7   8
ENDBRANCH   5   7
ENDBRANCH   2   3
ENDBRANCH   1   2
BRANCH   1  23
ATOM     23  C   UNL A   1      34.791  34.264  28.447  1.00  0.00     0.023 C 
BRANCH  23  24
ATOM     24  C   UNL A   1      35.194  32.904  29.009  1.00  0.00     0.116 C 
BRANCH  24  25
ATOM     25  N   UNL A   1      34.353  31.827  28.515  1.00  0.00    -0.352 N 
ATOM     26  C   UNL A   1      34.695  30.555  28.129  1.00  0.00     0.251 C 
ATOM     27  H   UNL A   1      33.395  32.042  28.446  1.00  0.00     0.163 HD
ATOM     28  O   UNL A   1      33.854  29.843  27.573  1.00  0.00    -0.269 OA
BRANCH  26  29
ATOM     29  C   UNL A   1      36.063  30.034  28.345  1.00  0.00     0.039 A 
ATOM     30  C   UNL A   1      36.985  30.112  27.296  1.00  0.00     0.014 A 
ATOM     31  C   UNL A   1      36.437  29.443  29.555  1.00  0.00     0.014 A 
ATOM     32  C   UNL A   1      38.295  29.661  27.482  1.00  0.00     0.010 A 
ATOM     33  C   UNL A   1      37.761  29.054  29.761  1.00  0.00     0.010 A 
ATOM     34  C   UNL A   1      38.705  29.160  28.728  1.00  0.00    -0.014 A 
BRANCH  34  35
ATOM     35  C   UNL A   1      40.116  28.758  28.971  1.00  0.00     0.031 A 
ATOM     36  C   UNL A   1      41.086  29.719  29.602  1.00  0.00     0.074 A 
ATOM     37  C   UNL A   1      40.544  27.547  28.565  1.00  0.00     0.049 A 
ATOM     38  N   UNL A   1      42.368  29.573  29.825  1.00  0.00    -0.248 NA
ATOM     39  C   UNL A   1      40.550  31.025  30.017  1.00  0.00     0.031 C 
ATOM     40  C   UNL A   1      39.716  26.534  27.904  1.00  0.00     0.029 A 
ATOM     41  N   UNL A   1      41.785  26.964  28.636  1.00  0.00    -0.354 N 
ATOM     42  C   UNL A   1      42.795  30.769  30.387  1.00  0.00     0.074 A 
ATOM     43  C   UNL A   1      41.645  31.646  30.433  1.00  0.00     0.031 C 
ATOM     44  C   UNL A   1      40.467  25.451  27.650  1.00  0.00     0.029 A 
ATOM     45  C   UNL A   1      41.836  25.704  28.091  1.00  0.00     0.049 A 
ATOM     46  H   UNL A   1      42.566  27.408  29.040  1.00  0.00     0.167 HD
ATOM     47  C   UNL A   1      44.028  31.102  30.841  1.00  0.00     0.037 A 
ATOM     48  C   UNL A   1      42.869  24.851  27.953  1.00  0.00     0.037 A 
ATOM     49  C   UNL A   1      45.167  30.220  30.821  1.00  0.00     0.049 A 
ATOM     50  C   UNL A   1      44.228  25.249  28.455  1.00  0.00     0.074 A 
ATOM     51  C   UNL A   1      46.439  30.446  31.321  1.00  0.00     0.029 A 
ATOM     52  N   UNL A   1      45.174  28.948  30.272  1.00  0.00    -0.354 N 
ATOM     53  N   UNL A   1      44.600  26.358  29.046  1.00  0.00    -0.248 NA
ATOM     54  C   UNL A   1      45.313  24.272  28.274  1.00  0.00     0.031 C 
ATOM     55  C   UNL A   1      47.226  29.325  31.034  1.00  0.00     0.029 A 
ATOM     56  C   UNL A   1      46.434  28.384  30.398  1.00  0.00     0.049 A 
ATOM     57  H   UNL A   1      44.399  28.509  29.852  1.00  0.00     0.167 HD
ATOM     58  C   UNL A   1      45.950  26.201  29.334  1.00  0.00     0.074 A 
ATOM     59  C   UNL A   1      46.330  24.886  28.863  1.00  0.00     0.031 C 
ATOM     60  C   UNL A   1      46.798  27.071  29.936  1.00  0.00     0.037 A 
BRANCH  47  61
ATOM     61  C   UNL A   1      44.213  32.481  31.400  1.00  0.00     0.057 A 
ATOM     62  C   UNL A   1      44.065  32.749  32.768  1.00  0.00     0.134 A 
ATOM     63  C   UNL A   1      44.587  33.547  30.571  1.00  0.00     0.134 A 
ATOM     64  F   UNL A   1      43.699  31.776  33.616  1.00  0.00    -0.206 F 
ATOM     65  C   UNL A   1      44.258  34.031  33.286  1.00  0.00     0.040 A 
ATOM     66  C   UNL A   1      44.808  34.826  31.081  1.00  0.00     0.040 A 
ATOM     67  F   UNL A   1      44.753  33.357  29.253  1.00  0.00    -0.206 F 
ATOM     68  C   UNL A   1      44.638  35.073  32.442  1.00  0.00     0.006 A 
ENDBRANCH  47  61
BRANCH  48  69
ATOM     69  C   UNL A   1      42.657  23.522  27.327  1.00  0.00     0.057 A 
ATOM     70  C   UNL A   1      42.318  22.407  28.103  1.00  0.00     0.134 A 
ATOM     71  C   UNL A   1      42.802  23.329  25.948  1.00  0.00     0.134 A 
ATOM     72  F   UNL A   1      42.187  22.526  29.432  1.00  0.00    -0.206 F 
ATOM     73  C   UNL A   1      42.151  21.144  27.533  1.00  0.00     0.040 A 
ATOM     74  C   UNL A   1      42.613  22.076  25.362  1.00  0.00     0.040 A 
ATOM     75  F   UNL A   1      43.118  24.358  25.149  1.00  0.00    -0.206 F 
ATOM     76  C   UNL A   1      42.294  20.977  26.158  1.00  0.00     0.006 A 
ENDBRANCH  48  69
BRANCH  60  77
ATOM     77  C   UNL A   1      48.210  26.613  30.155  1.00  0.00     0.057 A 
ATOM     78  C   UNL A   1      49.229  26.891  29.237  1.00  0.00     0.134 A 
ATOM     79  C   UNL A   1      48.559  25.915  31.319  1.00  0.00     0.134 A 
ATOM     80  F   UNL A   1      48.958  27.543  28.096  1.00  0.00    -0.206 F 
ATOM     81  C   UNL A   1      50.543  26.473  29.459  1.00  0.00     0.040 A 
ATOM     82  C   UNL A   1      49.873  25.515  31.564  1.00  0.00     0.040 A 
ATOM     83  F   UNL A   1      47.630  25.623  32.243  1.00  0.00    -0.206 F 
ATOM     84  C   UNL A   1      50.869  25.789  30.628  1.00  0.00     0.006 A 
ENDBRANCH  60  77
ENDBRANCH  34  35
ENDBRANCH  26  29
ENDBRANCH  24  25
ENDBRANCH  23  24
ENDBRANCH   1  23
TORSDOF 14
ENDMDL
MODEL 2
REMARK VINA RESULT:     -10.3      5.333     10.301
REMARK SMILES O=C(C[NH+]1CC(c2nc(-c3cccs3)no2)C1)NCCCCNC(=O)c1ccc(-c2c3nc(c(-c4c(F)cccc4F)c4ccc([nH]4)c(-c4c(F)cccc4F)c4nc(c(-c5c(F)cccc5F)c5ccc2[nH]5)C=C4)C=C3)cc1
REMARK SMILES IDX 20 1 19 2 18 3 1 4 2 5 3 7 4 8 5 9 17 10 6 12 7 13 8 14
REMARK SMILES IDX 16 15 9 16 15 17 10 18 11 19 14 20 12 21 13 22 21 23 22 24
REMARK SMILES IDX 23 25 24 26 25 28 26 29 27 30 79 31 28 32 78 33 29 34 30 35
REMARK SMILES IDX 31 36 72 37 32 38 77 39 71 40 73 41 33 42 76 43 70 44 69 45
REMARK SMILES IDX 34 47 60 48 43 49 59 50 44 51 47 52 58 53 74 54 45 55 46 56
REMARK SMILES IDX 57 58 75 59 48 60 35 61 36 62 41 63 37 64 38 65 40 66 42 67
REMARK SMILES IDX 39 68 61 69 62 70 67 71 63 72 64 73 66 74 68 75 65 76 49 77
REMARK SMILES IDX 50 78 55 79 51 80 52 81 54 82 56 83 53 84
REMARK H PARENT 18 6 4 11 23 27 73 46 47 57
REMARK Flexibility Score: inf
ROOT
ATOM      1  C   UNL A   1      31.476  30.507  25.864  1.00  0.00     0.023 C 
ENDROOT
BRANCH   1   2
ATOM      2  C   UNL A   1      32.446  29.584  26.601  1.00  0.00     0.116 C 
BRANCH   2   3
ATOM      3  N   UNL A   1      32.599  28.312  25.926  1.00  0.00    -0.351 N 
ATOM      4  O   UNL A   1      31.027  27.169  27.155  1.00  0.00    -0.269 OA
ATOM      5  C   UNL A   1      31.847  27.196  26.243  1.00  0.00     0.275 C 
ATOM      6  H   UNL A   1      33.269  28.239  25.208  1.00  0.00     0.163 HD
BRANCH   5   7
ATOM      7  C   UNL A   1      32.143  25.995  25.337  1.00  0.00     0.363 C 
BRANCH   7   8
ATOM      8  N   UNL A   1      31.353  24.822  25.751  1.00  0.00    -0.325 N 
ATOM      9  C   UNL A   1      31.243  23.795  24.689  1.00  0.00     0.282 C 
ATOM     10  C   UNL A   1      32.212  23.878  26.511  1.00  0.00     0.282 C 
ATOM     11  H   UNL A   1      30.515  25.250  26.144  1.00  0.00     0.348 HD
ATOM     12  C   UNL A   1      31.490  22.713  25.772  1.00  0.00     0.188 C 
BRANCH  12  13
ATOM     13  C   UNL A   1      32.447  21.613  25.365  1.00  0.00     0.241 A 
ATOM     14  N   UNL A   1      32.082  20.373  25.129  1.00  0.00    -0.190 NA
ATOM     15  O   UNL A   1      33.798  21.795  25.265  1.00  0.00    -0.338 OA
ATOM     16  C   UNL A   1      33.289  19.737  24.933  1.00  0.00     0.212 A 
ATOM     17  N   UNL A   1      34.349  20.557  24.964  1.00  0.00    -0.056 NA
BRANCH  16  18
ATOM     18  C   UNL A   1      33.400  18.254  24.793  1.00  0.00     0.075 A 
ATOM     19  C   UNL A   1      34.186  17.627  23.848  1.00  0.00     0.024 A 
ATOM     20  S   UNL A   1      32.528  17.131  25.743  1.00  0.00    -0.140 S 
ATOM     21  C   UNL A   1      34.035  16.209  23.880  1.00  0.00     0.012 A 
ATOM     22  C   UNL A   1      33.152  15.806  24.857  1.00  0.00     0.065 A 
ENDBRANCH  16  18
ENDBRANCH  12  13
ENDBRANCH   7   8
ENDBRANCH   5   7
ENDBRANCH   2   3
ENDBRANCH   1   2
BRANCH   1  23
ATOM     23  C   UNL A   1      31.308  31.908  26.465  1.00  0.00     0.023 C 
BRANCH  23  24
ATOM     24  C   UNL A   1      32.540  32.479  27.160  1.00  0.00     0.116 C 
BRANCH  24  25
ATOM     25  N   UNL A   1      32.372  33.874  27.533  1.00  0.00    -0.352 N 
ATOM     26  C   UNL A   1      33.037  34.616  28.477  1.00  0.00     0.251 C 
ATOM     27  H   UNL A   1      31.675  34.360  27.034  1.00  0.00     0.163 HD
ATOM     28  O   UNL A   1      32.627  35.744  28.763  1.00  0.00    -0.269 OA
BRANCH  26  29
ATOM     29  C   UNL A   1      34.223  34.073  29.175  1.00  0.00     0.039 A 
ATOM     30  C   UNL A   1      34.029  33.275  30.308  1.00  0.00     0.014 A 
ATOM     31  C   UNL A   1      35.520  34.366  28.747  1.00  0.00     0.014 A 
ATOM     32  C   UNL A   1      35.128  32.719  30.968  1.00  0.00     0.010 A 
ATOM     33  C   UNL A   1      36.613  33.758  29.366  1.00  0.00     0.010 A 
ATOM     34  C   UNL A   1      36.429  32.926  30.482  1.00  0.00    -0.014 A 
BRANCH  34  35
ATOM     35  C   UNL A   1      37.603  32.271  31.118  1.00  0.00     0.031 A 
ATOM     36  C   UNL A   1      38.333  31.160  30.414  1.00  0.00     0.074 A 
ATOM     37  C   UNL A   1      37.977  32.633  32.361  1.00  0.00     0.049 A 
ATOM     38  N   UNL A   1      39.329  30.424  30.840  1.00  0.00    -0.248 NA
ATOM     39  C   UNL A   1      37.868  30.815  29.061  1.00  0.00     0.031 C 
ATOM     40  C   UNL A   1      37.331  33.669  33.171  1.00  0.00     0.029 A 
ATOM     41  N   UNL A   1      38.983  32.163  33.167  1.00  0.00    -0.354 N 
ATOM     42  C   UNL A   1      39.597  29.520  29.820  1.00  0.00     0.074 A 
ATOM     43  C   UNL A   1      38.632  29.772  28.770  1.00  0.00     0.031 C 
ATOM     44  C   UNL A   1      37.969  33.767  34.348  1.00  0.00     0.029 A 
ATOM     45  C   UNL A   1      39.042  32.778  34.394  1.00  0.00     0.049 A 
ATOM     46  H   UNL A   1      39.605  31.449  32.892  1.00  0.00     0.167 HD
ATOM     47  C   UNL A   1      40.568  28.578  29.754  1.00  0.00     0.037 A 
ATOM     48  C   UNL A   1      39.860  32.565  35.443  1.00  0.00     0.037 A 
ATOM     49  C   UNL A   1      41.546  28.344  30.785  1.00  0.00     0.049 A 
ATOM     50  C   UNL A   1      40.923  31.506  35.347  1.00  0.00     0.074 A 
ATOM     51  C   UNL A   1      42.610  27.458  30.779  1.00  0.00     0.029 A 
ATOM     52  N   UNL A   1      41.579  28.997  32.008  1.00  0.00    -0.354 N 
ATOM     53  N   UNL A   1      41.207  30.706  34.349  1.00  0.00    -0.248 NA
ATOM     54  C   UNL A   1      41.784  31.325  36.526  1.00  0.00     0.031 C 
ATOM     55  C   UNL A   1      43.260  27.545  32.015  1.00  0.00     0.029 A 
ATOM     56  C   UNL A   1      42.630  28.518  32.773  1.00  0.00     0.049 A 
ATOM     57  H   UNL A   1      40.948  29.698  32.291  1.00  0.00     0.167 HD
ATOM     58  C   UNL A   1      42.294  29.949  34.766  1.00  0.00     0.074 A 
ATOM     59  C   UNL A   1      42.627  30.392  36.104  1.00  0.00     0.031 C 
ATOM     60  C   UNL A   1      42.958  28.974  34.098  1.00  0.00     0.037 A 
BRANCH  47  61
ATOM     61  C   UNL A   1      40.625  27.724  28.522  1.00  0.00     0.057 A 
ATOM     62  C   UNL A   1      41.395  28.086  27.408  1.00  0.00     0.134 A 
ATOM     63  C   UNL A   1      39.939  26.504  28.463  1.00  0.00     0.134 A 
ATOM     64  F   UNL A   1      42.070  29.246  27.395  1.00  0.00    -0.206 F 
ATOM     65  C   UNL A   1      41.461  27.277  26.272  1.00  0.00     0.040 A 
ATOM     66  C   UNL A   1      40.017  25.675  27.343  1.00  0.00     0.040 A 
ATOM     67  F   UNL A   1      39.190  26.094  29.498  1.00  0.00    -0.206 F 
ATOM     68  C   UNL A   1      40.776  26.064  26.240  1.00  0.00     0.006 A 
ENDBRANCH  47  61
BRANCH  48  69
ATOM     69  C   UNL A   1      39.723  33.384  36.672  1.00  0.00     0.057 A 
ATOM     70  C   UNL A   1      38.861  32.994  37.705  1.00  0.00     0.134 A 
ATOM     71  C   UNL A   1      40.433  34.579  36.840  1.00  0.00     0.134 A 
ATOM     72  F   UNL A   1      38.139  31.870  37.591  1.00  0.00    -0.206 F 
ATOM     73  C   UNL A   1      38.695  33.772  38.851  1.00  0.00     0.040 A 
ATOM     74  C   UNL A   1      40.294  35.354  37.993  1.00  0.00     0.040 A 
ATOM     75  F   UNL A   1      41.279  35.004  35.891  1.00  0.00    -0.206 F 
ATOM     76  C   UNL A   1      39.417  34.955  38.999  1.00  0.00     0.006 A 
ENDBRANCH  48  69
BRANCH  60  77
ATOM     77  C   UNL A   1      44.134  28.347  34.788  1.00  0.00     0.057 A 
ATOM     78  C   UNL A   1      44.007  27.189  35.564  1.00  0.00     0.134 A 
ATOM     79  C   UNL A   1      45.417  28.891  34.642  1.00  0.00     0.134 A 
ATOM     80  F   UNL A   1      42.803  26.627  35.754  1.00  0.00    -0.206 F 
ATOM     81  C   UNL A   1      45.111  26.606  36.189  1.00  0.00     0.040 A 
ATOM     82  C   UNL A   1      46.531  28.303  35.241  1.00  0.00     0.040 A 
ATOM     83  F   UNL A   1      45.609  29.996  33.905  1.00  0.00    -0.206 F 
ATOM     84  C   UNL A   1      46.379  27.159  36.022  1.00  0.00     0.006 A 
ENDBRANCH  60  77
ENDBRANCH  34  35
ENDBRANCH  26  29
ENDBRANCH  24  25
ENDBRANCH  23  24
ENDBRANCH   1  23
TORSDOF 14
ENDMDL
MODEL 3
REMARK VINA RESULT:     -10.1      5.191      8.280
REMARK SMILES O=C(C[NH+]1CC(c2nc(-c3cccs3)no2)C1)NCCCCNC(=O)c1ccc(-c2c3nc(c(-c4c(F)cccc4F)c4ccc([nH]4)c(-c4c(F)cccc4F)c4nc(c(-c5c(F)cccc5F)c5ccc2[nH]5)C=C4)C=C3)cc1
REMARK SMILES IDX 20 1 19 2 18 3 1 4 2 5 3 7 4 8 5 9 17 10 6 12 7 13 8 14
REMARK SMILES IDX 16 15 9 16 15 17 10 18 11 19 14 20 12 21 13 22 21 23 22 24
REMARK SMILES IDX 23 25 24 26 25 28 26 29 27 30 79 31 28 32 78 33 29 34 30 35
REMARK SMILES IDX 31 36 72 37 32 38 77 39 71 40 73 41 33 42 76 43 70 44 69 45
REMARK SMILES IDX 34 47 60 48 43 49 59 50 44 51 47 52 58 53 74 54 45 55 46 56
REMARK SMILES IDX 57 58 75 59 48 60 35 61 36 62 41 63 37 64 38 65 40 66 42 67
REMARK SMILES IDX 39 68 61 69 62 70 67 71 63 72 64 73 66 74 68 75 65 76 49 77
REMARK SMILES IDX 50 78 55 79 51 80 52 81 54 82 56 83 53 84
REMARK H PARENT 18 6 4 11 23 27 73 46 47 57
REMARK Flexibility Score: inf
ROOT
ATOM      1  C   UNL A   1      31.368  30.889  25.788  1.00  0.00     0.023 C 
ENDROOT
BRANCH   1   2
ATOM      2  C   UNL A   1      32.388  29.866  26.289  1.00  0.00     0.116 C 
BRANCH   2   3
ATOM      3  N   UNL A   1      32.029  28.516  25.909  1.00  0.00    -0.351 N 
ATOM      4  O   UNL A   1      31.307  27.839  27.986  1.00  0.00    -0.269 OA
ATOM      5  C   UNL A   1      31.483  27.605  26.794  1.00  0.00     0.275 C 
ATOM      6  H   UNL A   1      32.180  28.234  24.978  1.00  0.00     0.163 HD
BRANCH   5   7
ATOM      7  C   UNL A   1      31.121  26.269  26.135  1.00  0.00     0.363 C 
BRANCH   7   8
ATOM      8  N   UNL A   1      32.256  25.746  25.354  1.00  0.00    -0.325 N 
ATOM      9  C   UNL A   1      33.019  24.700  26.073  1.00  0.00     0.282 C 
ATOM     10  C   UNL A   1      31.783  24.694  24.418  1.00  0.00     0.282 C 
ATOM     11  H   UNL A   1      32.719  26.600  25.043  1.00  0.00     0.348 HD
ATOM     12  C   UNL A   1      33.079  23.897  24.747  1.00  0.00     0.188 C 
BRANCH  12  13
ATOM     13  C   UNL A   1      32.817  22.413  24.891  1.00  0.00     0.241 A 
ATOM     14  N   UNL A   1      33.614  21.479  24.422  1.00  0.00    -0.190 NA
ATOM     15  O   UNL A   1      31.689  21.904  25.470  1.00  0.00    -0.338 OA
ATOM     16  C   UNL A   1      32.902  20.325  24.671  1.00  0.00     0.212 A 
ATOM     17  N   UNL A   1      31.755  20.524  25.338  1.00  0.00    -0.056 NA
BRANCH  16  18
ATOM     18  C   UNL A   1      33.335  18.990  24.160  1.00  0.00     0.075 A 
ATOM     19  C   UNL A   1      34.459  18.323  24.604  1.00  0.00     0.024 A 
ATOM     20  S   UNL A   1      32.533  18.131  22.918  1.00  0.00    -0.140 S 
ATOM     21  C   UNL A   1      34.684  17.113  23.882  1.00  0.00     0.012 A 
ATOM     22  C   UNL A   1      33.716  16.894  22.927  1.00  0.00     0.065 A 
ENDBRANCH  16  18
ENDBRANCH  12  13
ENDBRANCH   7   8
ENDBRANCH   5   7
ENDBRANCH   2   3
ENDBRANCH   1   2
BRANCH   1  23
ATOM     23  C   UNL A   1      31.280  32.188  26.599  1.00  0.00     0.023 C 
BRANCH  23  24
ATOM     24  C   UNL A   1      32.605  32.722  27.136  1.00  0.00     0.116 C 
BRANCH  24  25
ATOM     25  N   UNL A   1      32.494  34.080  27.641  1.00  0.00    -0.352 N 
ATOM     26  C   UNL A   1      33.193  34.702  28.645  1.00  0.00     0.251 C 
ATOM     27  H   UNL A   1      31.814  34.637  27.197  1.00  0.00     0.163 HD
ATOM     28  O   UNL A   1      32.829  35.812  29.041  1.00  0.00    -0.269 OA
BRANCH  26  29
ATOM     29  C   UNL A   1      34.361  34.050  29.278  1.00  0.00     0.039 A 
ATOM     30  C   UNL A   1      34.140  33.119  30.299  1.00  0.00     0.014 A 
ATOM     31  C   UNL A   1      35.668  34.366  28.899  1.00  0.00     0.014 A 
ATOM     32  C   UNL A   1      35.220  32.460  30.891  1.00  0.00     0.010 A 
ATOM     33  C   UNL A   1      36.742  33.661  29.444  1.00  0.00     0.010 A 
ATOM     34  C   UNL A   1      36.530  32.699  30.444  1.00  0.00    -0.014 A 
BRANCH  34  35
ATOM     35  C   UNL A   1      37.684  31.943  31.000  1.00  0.00     0.031 A 
ATOM     36  C   UNL A   1      38.238  32.283  32.357  1.00  0.00     0.074 A 
ATOM     37  C   UNL A   1      38.277  30.989  30.256  1.00  0.00     0.049 A 
ATOM     38  N   UNL A   1      39.280  31.784  32.974  1.00  0.00    -0.248 NA
ATOM     39  C   UNL A   1      37.542  33.337  33.112  1.00  0.00     0.031 C 
ATOM     40  C   UNL A   1      37.865  30.588  28.909  1.00  0.00     0.029 A 
ATOM     41  N   UNL A   1      39.362  30.191  30.521  1.00  0.00    -0.354 N 
ATOM     42  C   UNL A   1      39.376  32.473  34.176  1.00  0.00     0.074 A 
ATOM     43  C   UNL A   1      38.312  33.454  34.184  1.00  0.00     0.031 C 
ATOM     44  C   UNL A   1      38.674  29.608  28.476  1.00  0.00     0.029 A 
ATOM     45  C   UNL A   1      39.685  29.338  29.494  1.00  0.00     0.049 A 
ATOM     46  H   UNL A   1      39.863  30.227  31.369  1.00  0.00     0.167 HD
ATOM     47  C   UNL A   1      40.258  32.295  35.188  1.00  0.00     0.037 A 
ATOM     48  C   UNL A   1      40.686  28.444  29.379  1.00  0.00     0.037 A 
ATOM     49  C   UNL A   1      41.301  31.300  35.194  1.00  0.00     0.049 A 
ATOM     50  C   UNL A   1      41.657  28.273  30.514  1.00  0.00     0.074 A 
ATOM     51  C   UNL A   1      42.199  31.000  36.203  1.00  0.00     0.029 A 
ATOM     52  N   UNL A   1      41.586  30.448  34.138  1.00  0.00    -0.354 N 
ATOM     53  N   UNL A   1      41.693  28.886  31.671  1.00  0.00    -0.248 NA
ATOM     54  C   UNL A   1      42.726  27.281  30.325  1.00  0.00     0.031 C 
ATOM     55  C   UNL A   1      43.056  29.994  35.742  1.00  0.00     0.029 A 
ATOM     56  C   UNL A   1      42.662  29.637  34.463  1.00  0.00     0.049 A 
ATOM     57  H   UNL A   1      41.098  30.422  33.284  1.00  0.00     0.167 HD
ATOM     58  C   UNL A   1      42.767  28.334  32.360  1.00  0.00     0.074 A 
ATOM     59  C   UNL A   1      43.349  27.330  31.495  1.00  0.00     0.031 C 
ATOM     60  C   UNL A   1      43.227  28.634  33.599  1.00  0.00     0.037 A 
BRANCH  47  61
ATOM     61  C   UNL A   1      40.136  33.195  36.382  1.00  0.00     0.057 A 
ATOM     62  C   UNL A   1      39.231  32.928  37.419  1.00  0.00     0.134 A 
ATOM     63  C   UNL A   1      40.964  34.317  36.521  1.00  0.00     0.134 A 
ATOM     64  F   UNL A   1      38.403  31.875  37.344  1.00  0.00    -0.206 F 
ATOM     65  C   UNL A   1      39.136  33.758  38.537  1.00  0.00     0.040 A 
ATOM     66  C   UNL A   1      40.897  35.139  37.646  1.00  0.00     0.040 A 
ATOM     67  F   UNL A   1      41.858  34.624  35.570  1.00  0.00    -0.206 F 
ATOM     68  C   UNL A   1      39.976  34.864  38.656  1.00  0.00     0.006 A 
ENDBRANCH  47  61
BRANCH  48  69
ATOM     69  C   UNL A   1      40.813  27.623  28.149  1.00  0.00     0.057 A 
ATOM     70  C   UNL A   1      41.539  28.088  27.046  1.00  0.00     0.134 A 
ATOM     71  C   UNL A   1      40.204  26.368  28.039  1.00  0.00     0.134 A 
ATOM     72  F   UNL A   1      42.127  29.292  27.085  1.00  0.00    -0.206 F 
ATOM     73  C   UNL A   1      41.638  27.343  25.870  1.00  0.00     0.040 A 
ATOM     74  C   UNL A   1      40.316  25.602  26.878  1.00  0.00     0.040 A 
ATOM     75  F   UNL A   1      39.501  25.863  29.063  1.00  0.00    -0.206 F 
ATOM     76  C   UNL A   1      41.029  26.093  25.786  1.00  0.00     0.006 A 
ENDBRANCH  48  69
BRANCH  60  77
ATOM     77  C   UNL A   1      44.393  27.840  34.110  1.00  0.00     0.057 A 
ATOM     78  C   UNL A   1      45.711  28.289  33.972  1.00  0.00     0.134 A 
ATOM     79  C   UNL A   1      44.189  26.626  34.779  1.00  0.00     0.134 A 
ATOM     80  F   UNL A   1      45.975  29.437  33.329  1.00  0.00    -0.206 F 
ATOM     81  C   UNL A   1      46.789  27.549  34.464  1.00  0.00     0.040 A 
ATOM     82  C   UNL A   1      45.255  25.890  35.297  1.00  0.00     0.040 A 
ATOM     83  F   UNL A   1      42.949  26.142  34.951  1.00  0.00    -0.206 F 
ATOM     84  C   UNL A   1      46.561  26.349  35.135  1.00  0.00     0.006 A 
ENDBRANCH  60  77
ENDBRANCH  34  35
ENDBRANCH  26  29
ENDBRANCH  24  25
ENDBRANCH  23  24
ENDBRANCH   1  23
TORSDOF 14
ENDMDL
