MODEL 1
REMARK VINA RESULT:     -11.9      0.000      0.000
REMARK SMILES O=C(NCCCCNC(=O)[C@H]1[C@@H](C(=O)n2cc(Cl)cn2)[C@H]2CC[C@@H]1O2)c1ccc(-c2c3nc(c(-c4c(F)cccc4F)c4ccc([nH]4)c(-c4c(F)cccc4F)c4nc(c(-c5c(F)cccc5F)c5ccc2[nH]5)C=C4)C=C3)cc1
REMARK SMILES IDX 5 1 4 2 3 3 1 4 2 5 26 7 27 8 79 9 28 10 78 11 29 12 30 13
REMARK SMILES IDX 31 14 72 15 32 16 77 17 71 18 73 19 33 20 76 21 70 22 69 23
REMARK SMILES IDX 34 25 60 26 43 27 59 28 44 29 47 30 58 31 74 32 45 33 46 34
REMARK SMILES IDX 57 36 75 37 48 38 35 39 36 40 41 41 37 42 38 43 40 44 42 45
REMARK SMILES IDX 39 46 61 47 62 48 67 49 63 50 64 51 66 52 68 53 65 54 49 55
REMARK SMILES IDX 50 56 55 57 51 58 52 59 54 60 56 61 53 62 6 63 7 64 8 65
REMARK SMILES IDX 9 66 10 68 11 69 12 70 24 71 21 72 23 73 25 74 22 75 13 76
REMARK SMILES IDX 14 77 15 78 16 79 20 80 17 81 19 82 18 83
REMARK H PARENT 3 6 73 24 47 35 8 67
REMARK Flexibility Score: inf
ROOT
ATOM      1  C   UNL A   1      33.905  30.575  27.186  1.00  0.00     0.023 C 
ENDROOT
BRANCH   1   2
ATOM      2  C   UNL A   1      34.415  31.946  27.626  1.00  0.00     0.116 C 
BRANCH   2   3
ATOM      3  N   UNL A   1      34.326  32.168  29.055  1.00  0.00    -0.352 N 
ATOM      4  O   UNL A   1      34.750  32.326  31.216  1.00  0.00    -0.269 OA
ATOM      5  C   UNL A   1      35.152  31.933  30.118  1.00  0.00     0.251 C 
ATOM      6  H   UNL A   1      33.474  32.584  29.321  1.00  0.00     0.163 HD
BRANCH   5   7
ATOM      7  C   UNL A   1      36.451  31.209  30.055  1.00  0.00     0.039 A 
ATOM      8  C   UNL A   1      37.713  31.799  29.984  1.00  0.00     0.014 A 
ATOM      9  C   UNL A   1      36.373  29.802  30.094  1.00  0.00     0.014 A 
ATOM     10  C   UNL A   1      38.859  31.012  29.889  1.00  0.00     0.010 A 
ATOM     11  C   UNL A   1      37.514  29.010  30.018  1.00  0.00     0.010 A 
ATOM     12  C   UNL A   1      38.760  29.618  29.891  1.00  0.00    -0.014 A 
BRANCH  12  13
ATOM     13  C   UNL A   1      39.999  28.843  29.923  1.00  0.00     0.031 A 
ATOM     14  C   UNL A   1      40.622  28.690  31.274  1.00  0.00     0.074 A 
ATOM     15  C   UNL A   1      40.482  28.158  28.867  1.00  0.00     0.049 A 
ATOM     16  N   UNL A   1      41.822  28.996  31.653  1.00  0.00    -0.248 NA
ATOM     17  C   UNL A   1      39.764  28.186  32.360  1.00  0.00     0.031 C 
ATOM     18  C   UNL A   1      39.847  27.934  27.567  1.00  0.00     0.029 A 
ATOM     19  N   UNL A   1      41.628  27.423  28.781  1.00  0.00    -0.354 N 
ATOM     20  C   UNL A   1      41.926  28.580  32.982  1.00  0.00     0.074 A 
ATOM     21  C   UNL A   1      40.605  28.188  33.395  1.00  0.00     0.031 C 
ATOM     22  C   UNL A   1      40.510  26.956  26.909  1.00  0.00     0.029 A 
ATOM     23  C   UNL A   1      41.685  26.581  27.680  1.00  0.00     0.049 A 
ATOM     24  H   UNL A   1      42.353  27.485  29.444  1.00  0.00     0.167 HD
ATOM     25  C   UNL A   1      43.125  28.418  33.607  1.00  0.00     0.037 A 
ATOM     26  C   UNL A   1      42.598  25.605  27.449  1.00  0.00     0.037 A 
ATOM     27  C   UNL A   1      44.177  29.144  32.950  1.00  0.00     0.049 A 
ATOM     28  C   UNL A   1      43.776  25.866  28.309  1.00  0.00     0.074 A 
ATOM     29  C   UNL A   1      44.416  30.477  32.678  1.00  0.00     0.029 A 
ATOM     30  N   UNL A   1      45.059  28.447  32.164  1.00  0.00    -0.354 N 
ATOM     31  N   UNL A   1      44.605  26.856  28.139  1.00  0.00    -0.248 NA
ATOM     32  C   UNL A   1      43.808  25.241  29.621  1.00  0.00     0.031 C 
ATOM     33  C   UNL A   1      45.044  30.483  31.398  1.00  0.00     0.029 A 
ATOM     34  C   UNL A   1      45.185  29.155  30.996  1.00  0.00     0.049 A 
ATOM     35  H   UNL A   1      45.513  27.604  32.393  1.00  0.00     0.167 HD
ATOM     36  C   UNL A   1      44.945  27.254  29.423  1.00  0.00     0.074 A 
ATOM     37  C   UNL A   1      44.507  26.161  30.288  1.00  0.00     0.031 C 
ATOM     38  C   UNL A   1      45.298  28.544  29.694  1.00  0.00     0.037 A 
BRANCH  25  39
ATOM     39  C   UNL A   1      43.399  27.359  34.643  1.00  0.00     0.057 A 
ATOM     40  C   UNL A   1      43.525  26.012  34.259  1.00  0.00     0.134 A 
ATOM     41  C   UNL A   1      43.263  27.577  36.029  1.00  0.00     0.134 A 
ATOM     42  F   UNL A   1      43.630  25.671  32.966  1.00  0.00    -0.206 F 
ATOM     43  C   UNL A   1      43.469  24.959  35.183  1.00  0.00     0.040 A 
ATOM     44  C   UNL A   1      43.255  26.537  36.964  1.00  0.00     0.040 A 
ATOM     45  F   UNL A   1      43.032  28.793  36.538  1.00  0.00    -0.206 F 
ATOM     46  C   UNL A   1      43.331  25.220  36.540  1.00  0.00     0.006 A 
ENDBRANCH  25  39
BRANCH  26  47
ATOM     47  C   UNL A   1      42.415  24.310  26.755  1.00  0.00     0.057 A 
ATOM     48  C   UNL A   1      43.168  23.979  25.619  1.00  0.00     0.134 A 
ATOM     49  C   UNL A   1      41.703  23.257  27.354  1.00  0.00     0.134 A 
ATOM     50  F   UNL A   1      43.917  24.906  25.004  1.00  0.00    -0.206 F 
ATOM     51  C   UNL A   1      43.228  22.670  25.121  1.00  0.00     0.040 A 
ATOM     52  C   UNL A   1      41.747  21.948  26.861  1.00  0.00     0.040 A 
ATOM     53  F   UNL A   1      41.014  23.443  28.488  1.00  0.00    -0.206 F 
ATOM     54  C   UNL A   1      42.524  21.648  25.749  1.00  0.00     0.006 A 
ENDBRANCH  26  47
BRANCH  38  55
ATOM     55  C   UNL A   1      45.555  29.461  28.530  1.00  0.00     0.057 A 
ATOM     56  C   UNL A   1      44.557  30.215  27.892  1.00  0.00     0.134 A 
ATOM     57  C   UNL A   1      46.874  29.699  28.134  1.00  0.00     0.134 A 
ATOM     58  F   UNL A   1      43.276  30.137  28.273  1.00  0.00    -0.206 F 
ATOM     59  C   UNL A   1      44.857  31.125  26.875  1.00  0.00     0.040 A 
ATOM     60  C   UNL A   1      47.192  30.632  27.144  1.00  0.00     0.040 A 
ATOM     61  F   UNL A   1      47.888  29.060  28.740  1.00  0.00    -0.206 F 
ATOM     62  C   UNL A   1      46.180  31.341  26.501  1.00  0.00     0.006 A 
ENDBRANCH  38  55
ENDBRANCH  12  13
ENDBRANCH   5   7
ENDBRANCH   2   3
ENDBRANCH   1   2
BRANCH   1  63
ATOM     63  C   UNL A   1      32.374  30.446  27.160  1.00  0.00     0.023 C 
BRANCH  63  64
ATOM     64  C   UNL A   1      31.752  30.433  25.760  1.00  0.00     0.116 C 
BRANCH  64  65
ATOM     65  N   UNL A   1      32.579  29.686  24.832  1.00  0.00    -0.356 N 
ATOM     66  C   UNL A   1      32.647  28.349  24.579  1.00  0.00     0.226 C 
ATOM     67  H   UNL A   1      33.194  30.236  24.295  1.00  0.00     0.163 HD
ATOM     68  O   UNL A   1      33.589  27.938  23.906  1.00  0.00    -0.275 OA
BRANCH  66  69
ATOM     69  C   UNL A   1      31.556  27.441  25.107  1.00  0.00     0.122 C 
ATOM     70  C   UNL A   1      30.296  27.215  24.226  1.00  0.00     0.125 C 
ATOM     71  C   UNL A   1      32.013  26.008  25.405  1.00  0.00     0.132 C 
ATOM     72  C   UNL A   1      30.185  25.675  24.279  1.00  0.00     0.132 C 
ATOM     73  C   UNL A   1      32.507  25.192  24.213  1.00  0.00     0.035 C 
ATOM     74  O   UNL A   1      30.705  25.396  25.604  1.00  0.00    -0.373 OA
ATOM     75  C   UNL A   1      31.228  24.958  23.422  1.00  0.00     0.035 C 
BRANCH  70  76
ATOM     76  C   UNL A   1      30.312  27.768  22.813  1.00  0.00     0.253 C 
ATOM     77  O   UNL A   1      31.021  27.399  21.890  1.00  0.00    -0.272 OA
BRANCH  76  78
ATOM     78  N   UNL A   1      29.452  28.864  22.606  1.00  0.00    -0.206 N 
ATOM     79  C   UNL A   1      29.717  30.077  22.008  1.00  0.00     0.138 A 
ATOM     80  N   UNL A   1      28.174  28.799  23.068  1.00  0.00    -0.172 NA
ATOM     81  C   UNL A   1      28.554  30.805  22.076  1.00  0.00     0.079 A 
ATOM     82  C   UNL A   1      27.652  29.990  22.773  1.00  0.00     0.156 A 
ATOM     83  Cl  UNL A   1      28.241  32.342  21.449  1.00  0.00    -0.081 Cl
ENDBRANCH  76  78
ENDBRANCH  70  76
ENDBRANCH  66  69
ENDBRANCH  64  65
ENDBRANCH  63  64
ENDBRANCH   1  63
TORSDOF 13
ENDMDL
MODEL 2
REMARK VINA RESULT:     -11.8      4.176      8.766
REMARK SMILES O=C(NCCCCNC(=O)[C@H]1[C@@H](C(=O)n2cc(Cl)cn2)[C@H]2CC[C@@H]1O2)c1ccc(-c2c3nc(c(-c4c(F)cccc4F)c4ccc([nH]4)c(-c4c(F)cccc4F)c4nc(c(-c5c(F)cccc5F)c5ccc2[nH]5)C=C4)C=C3)cc1
REMARK SMILES IDX 5 1 4 2 3 3 1 4 2 5 26 7 27 8 79 9 28 10 78 11 29 12 30 13
REMARK SMILES IDX 31 14 72 15 32 16 77 17 71 18 73 19 33 20 76 21 70 22 69 23
REMARK SMILES IDX 34 25 60 26 43 27 59 28 44 29 47 30 58 31 74 32 45 33 46 34
REMARK SMILES IDX 57 36 75 37 48 38 35 39 36 40 41 41 37 42 38 43 40 44 42 45
REMARK SMILES IDX 39 46 61 47 62 48 67 49 63 50 64 51 66 52 68 53 65 54 49 55
REMARK SMILES IDX 50 56 55 57 51 58 52 59 54 60 56 61 53 62 6 63 7 64 8 65
REMARK SMILES IDX 9 66 10 68 11 69 12 70 24 71 21 72 23 73 25 74 22 75 13 76
REMARK SMILES IDX 14 77 15 78 16 79 20 80 17 81 19 82 18 83
REMARK H PARENT 3 6 73 24 47 35 8 67
REMARK Flexibility Score: inf
ROOT
ATOM      1  C   UNL A   1      38.436  22.325  26.040  1.00  0.00     0.023 C 
ENDROOT
BRANCH   1   2
ATOM      2  C   UNL A   1      39.711  21.743  26.648  1.00  0.00     0.116 C 
BRANCH   2   3
ATOM      3  N   UNL A   1      40.904  22.030  25.878  1.00  0.00    -0.352 N 
ATOM      4  O   UNL A   1      42.762  22.917  25.079  1.00  0.00    -0.269 OA
ATOM      5  C   UNL A   1      41.808  23.054  25.850  1.00  0.00     0.251 C 
ATOM      6  H   UNL A   1      41.112  21.323  25.224  1.00  0.00     0.163 HD
BRANCH   5   7
ATOM      7  C   UNL A   1      41.701  24.318  26.629  1.00  0.00     0.039 A 
ATOM      8  C   UNL A   1      42.397  24.618  27.801  1.00  0.00     0.014 A 
ATOM      9  C   UNL A   1      40.827  25.291  26.104  1.00  0.00     0.014 A 
ATOM     10  C   UNL A   1      42.182  25.824  28.465  1.00  0.00     0.010 A 
ATOM     11  C   UNL A   1      40.621  26.505  26.752  1.00  0.00     0.010 A 
ATOM     12  C   UNL A   1      41.283  26.761  27.949  1.00  0.00    -0.014 A 
BRANCH  12  13
ATOM     13  C   UNL A   1      41.194  28.062  28.612  1.00  0.00     0.031 A 
ATOM     14  C   UNL A   1      42.289  29.025  28.278  1.00  0.00     0.074 A 
ATOM     15  C   UNL A   1      40.133  28.460  29.341  1.00  0.00     0.049 A 
ATOM     16  N   UNL A   1      43.098  29.643  29.078  1.00  0.00    -0.248 NA
ATOM     17  C   UNL A   1      42.550  29.280  26.851  1.00  0.00     0.031 C 
ATOM     18  C   UNL A   1      38.846  27.781  29.512  1.00  0.00     0.029 A 
ATOM     19  N   UNL A   1      39.954  29.634  30.013  1.00  0.00    -0.354 N 
ATOM     20  C   UNL A   1      43.869  30.485  28.275  1.00  0.00     0.074 A 
ATOM     21  C   UNL A   1      43.564  30.145  26.910  1.00  0.00     0.031 C 
ATOM     22  C   UNL A   1      37.957  28.643  30.057  1.00  0.00     0.029 A 
ATOM     23  C   UNL A   1      38.641  29.881  30.391  1.00  0.00     0.049 A 
ATOM     24  H   UNL A   1      40.692  30.253  30.212  1.00  0.00     0.167 HD
ATOM     25  C   UNL A   1      44.580  31.530  28.781  1.00  0.00     0.037 A 
ATOM     26  C   UNL A   1      38.143  31.040  30.886  1.00  0.00     0.037 A 
ATOM     27  C   UNL A   1      44.827  31.383  30.188  1.00  0.00     0.049 A 
ATOM     28  C   UNL A   1      39.278  31.852  31.386  1.00  0.00     0.074 A 
ATOM     29  C   UNL A   1      45.494  30.457  30.967  1.00  0.00     0.029 A 
ATOM     30  N   UNL A   1      44.073  32.122  31.064  1.00  0.00    -0.354 N 
ATOM     31  N   UNL A   1      39.983  31.558  32.441  1.00  0.00    -0.248 NA
ATOM     32  C   UNL A   1      39.890  32.798  30.467  1.00  0.00     0.031 C 
ATOM     33  C   UNL A   1      44.722  30.359  32.161  1.00  0.00     0.029 A 
ATOM     34  C   UNL A   1      43.664  31.261  32.050  1.00  0.00     0.049 A 
ATOM     35  H   UNL A   1      43.866  33.082  30.999  1.00  0.00     0.167 HD
ATOM     36  C   UNL A   1      41.278  31.931  32.113  1.00  0.00     0.074 A 
ATOM     37  C   UNL A   1      41.141  32.780  30.932  1.00  0.00     0.031 C 
ATOM     38  C   UNL A   1      42.357  31.299  32.660  1.00  0.00     0.037 A 
BRANCH  25  39
ATOM     39  C   UNL A   1      44.794  32.834  28.055  1.00  0.00     0.057 A 
ATOM     40  C   UNL A   1      43.758  33.783  27.987  1.00  0.00     0.134 A 
ATOM     41  C   UNL A   1      45.878  33.068  27.185  1.00  0.00     0.134 A 
ATOM     42  F   UNL A   1      42.657  33.655  28.742  1.00  0.00    -0.206 F 
ATOM     43  C   UNL A   1      43.779  34.855  27.085  1.00  0.00     0.040 A 
ATOM     44  C   UNL A   1      45.932  34.161  26.316  1.00  0.00     0.040 A 
ATOM     45  F   UNL A   1      46.890  32.199  27.060  1.00  0.00    -0.206 F 
ATOM     46  C   UNL A   1      44.868  35.045  26.243  1.00  0.00     0.006 A 
ENDBRANCH  25  39
BRANCH  26  47
ATOM     47  C   UNL A   1      36.794  31.623  30.704  1.00  0.00     0.057 A 
ATOM     48  C   UNL A   1      35.964  31.897  31.800  1.00  0.00     0.134 A 
ATOM     49  C   UNL A   1      36.403  32.183  29.476  1.00  0.00     0.134 A 
ATOM     50  F   UNL A   1      36.277  31.444  33.023  1.00  0.00    -0.206 F 
ATOM     51  C   UNL A   1      34.822  32.702  31.687  1.00  0.00     0.040 A 
ATOM     52  C   UNL A   1      35.261  32.980  29.347  1.00  0.00     0.040 A 
ATOM     53  F   UNL A   1      37.163  32.051  28.381  1.00  0.00    -0.206 F 
ATOM     54  C   UNL A   1      34.474  33.255  30.459  1.00  0.00     0.006 A 
ENDBRANCH  26  47
BRANCH  38  55
ATOM     55  C   UNL A   1      42.113  30.364  33.812  1.00  0.00     0.057 A 
ATOM     56  C   UNL A   1      41.779  29.009  33.664  1.00  0.00     0.134 A 
ATOM     57  C   UNL A   1      42.366  30.812  35.112  1.00  0.00     0.134 A 
ATOM     58  F   UNL A   1      41.622  28.460  32.453  1.00  0.00    -0.206 F 
ATOM     59  C   UNL A   1      41.654  28.155  34.764  1.00  0.00     0.040 A 
ATOM     60  C   UNL A   1      42.279  29.961  36.217  1.00  0.00     0.040 A 
ATOM     61  F   UNL A   1      42.749  32.081  35.328  1.00  0.00    -0.206 F 
ATOM     62  C   UNL A   1      41.911  28.629  36.046  1.00  0.00     0.006 A 
ENDBRANCH  38  55
ENDBRANCH  12  13
ENDBRANCH   5   7
ENDBRANCH   2   3
ENDBRANCH   1   2
BRANCH   1  63
ATOM     63  C   UNL A   1      37.811  21.464  24.931  1.00  0.00     0.023 C 
BRANCH  63  64
ATOM     64  C   UNL A   1      36.505  20.763  25.317  1.00  0.00     0.116 C 
BRANCH  64  65
ATOM     65  N   UNL A   1      35.637  21.657  26.060  1.00  0.00    -0.356 N 
ATOM     66  C   UNL A   1      34.880  22.711  25.644  1.00  0.00     0.226 C 
ATOM     67  H   UNL A   1      35.585  21.471  27.026  1.00  0.00     0.163 HD
ATOM     68  O   UNL A   1      34.407  23.452  26.501  1.00  0.00    -0.275 OA
BRANCH  66  69
ATOM     69  C   UNL A   1      34.637  22.906  24.162  1.00  0.00     0.122 C 
ATOM     70  C   UNL A   1      33.417  22.191  23.517  1.00  0.00     0.125 C 
ATOM     71  C   UNL A   1      34.425  24.365  23.741  1.00  0.00     0.132 C 
ATOM     72  C   UNL A   1      32.785  23.360  22.731  1.00  0.00     0.132 C 
ATOM     73  C   UNL A   1      33.202  25.069  24.323  1.00  0.00     0.035 C 
ATOM     74  O   UNL A   1      33.958  24.136  22.378  1.00  0.00    -0.373 OA
ATOM     75  C   UNL A   1      32.051  24.366  23.618  1.00  0.00     0.035 C 
BRANCH  70  76
ATOM     76  C   UNL A   1      32.438  21.489  24.440  1.00  0.00     0.253 C 
ATOM     77  O   UNL A   1      31.639  22.016  25.198  1.00  0.00    -0.272 OA
BRANCH  76  78
ATOM     78  N   UNL A   1      32.543  20.084  24.442  1.00  0.00    -0.206 N 
ATOM     79  C   UNL A   1      32.933  19.242  25.461  1.00  0.00     0.138 A 
ATOM     80  N   UNL A   1      32.270  19.399  23.299  1.00  0.00    -0.172 NA
ATOM     81  C   UNL A   1      32.887  17.967  24.950  1.00  0.00     0.079 A 
ATOM     82  C   UNL A   1      32.516  18.125  23.608  1.00  0.00     0.156 A 
ATOM     83  Cl  UNL A   1      33.188  16.508  25.744  1.00  0.00    -0.081 Cl
ENDBRANCH  76  78
ENDBRANCH  70  76
ENDBRANCH  66  69
ENDBRANCH  64  65
ENDBRANCH  63  64
ENDBRANCH   1  63
TORSDOF 13
ENDMDL
MODEL 3
REMARK VINA RESULT:     -11.6      1.442      2.049
REMARK SMILES O=C(NCCCCNC(=O)[C@H]1[C@@H](C(=O)n2cc(Cl)cn2)[C@H]2CC[C@@H]1O2)c1ccc(-c2c3nc(c(-c4c(F)cccc4F)c4ccc([nH]4)c(-c4c(F)cccc4F)c4nc(c(-c5c(F)cccc5F)c5ccc2[nH]5)C=C4)C=C3)cc1
REMARK SMILES IDX 5 1 4 2 3 3 1 4 2 5 26 7 27 8 79 9 28 10 78 11 29 12 30 13
REMARK SMILES IDX 31 14 72 15 32 16 77 17 71 18 73 19 33 20 76 21 70 22 69 23
REMARK SMILES IDX 34 25 60 26 43 27 59 28 44 29 47 30 58 31 74 32 45 33 46 34
REMARK SMILES IDX 57 36 75 37 48 38 35 39 36 40 41 41 37 42 38 43 40 44 42 45
REMARK SMILES IDX 39 46 61 47 62 48 67 49 63 50 64 51 66 52 68 53 65 54 49 55
REMARK SMILES IDX 50 56 55 57 51 58 52 59 54 60 56 61 53 62 6 63 7 64 8 65
REMARK SMILES IDX 9 66 10 68 11 69 12 70 24 71 21 72 23 73 25 74 22 75 13 76
REMARK SMILES IDX 14 77 15 78 16 79 20 80 17 81 19 82 18 83
REMARK H PARENT 3 6 73 24 47 35 8 67
REMARK Flexibility Score: inf
ROOT
ATOM      1  C   UNL A   1      33.114  30.007  27.253  1.00  0.00     0.023 C 
ENDROOT
BRANCH   1   2
ATOM      2  C   UNL A   1      34.017  31.237  27.333  1.00  0.00     0.116 C 
BRANCH   2   3
ATOM      3  N   UNL A   1      34.059  31.841  28.650  1.00  0.00    -0.352 N 
ATOM      4  O   UNL A   1      34.690  32.605  30.623  1.00  0.00    -0.269 OA
ATOM      5  C   UNL A   1      35.004  31.941  29.632  1.00  0.00     0.251 C 
ATOM      6  H   UNL A   1      33.212  32.281  28.892  1.00  0.00     0.163 HD
BRANCH   5   7
ATOM      7  C   UNL A   1      36.337  31.278  29.614  1.00  0.00     0.039 A 
ATOM      8  C   UNL A   1      37.572  31.926  29.570  1.00  0.00     0.014 A 
ATOM      9  C   UNL A   1      36.324  29.870  29.670  1.00  0.00     0.014 A 
ATOM     10  C   UNL A   1      38.756  31.193  29.518  1.00  0.00     0.010 A 
ATOM     11  C   UNL A   1      37.503  29.132  29.637  1.00  0.00     0.010 A 
ATOM     12  C   UNL A   1      38.722  29.797  29.536  1.00  0.00    -0.014 A 
BRANCH  12  13
ATOM     13  C   UNL A   1      39.995  29.081  29.612  1.00  0.00     0.031 A 
ATOM     14  C   UNL A   1      40.531  28.878  30.994  1.00  0.00     0.074 A 
ATOM     15  C   UNL A   1      40.584  28.485  28.557  1.00  0.00     0.049 A 
ATOM     16  N   UNL A   1      41.685  29.218  31.474  1.00  0.00    -0.248 NA
ATOM     17  C   UNL A   1      39.629  28.269  31.986  1.00  0.00     0.031 C 
ATOM     18  C   UNL A   1      40.052  28.309  27.204  1.00  0.00     0.029 A 
ATOM     19  N   UNL A   1      41.771  27.813  28.511  1.00  0.00    -0.354 N 
ATOM     20  C   UNL A   1      41.720  28.730  32.781  1.00  0.00     0.074 A 
ATOM     21  C   UNL A   1      40.395  28.250  33.077  1.00  0.00     0.031 C 
ATOM     22  C   UNL A   1      40.809  27.405  26.541  1.00  0.00     0.029 A 
ATOM     23  C   UNL A   1      41.947  27.041  27.371  1.00  0.00     0.049 A 
ATOM     24  H   UNL A   1      42.444  27.870  29.227  1.00  0.00     0.167 HD
ATOM     25  C   UNL A   1      42.880  28.589  33.480  1.00  0.00     0.037 A 
ATOM     26  C   UNL A   1      42.922  26.127  27.152  1.00  0.00     0.037 A 
ATOM     27  C   UNL A   1      43.934  29.402  32.942  1.00  0.00     0.049 A 
ATOM     28  C   UNL A   1      44.024  26.392  28.107  1.00  0.00     0.074 A 
ATOM     29  C   UNL A   1      44.121  30.759  32.763  1.00  0.00     0.029 A 
ATOM     30  N   UNL A   1      44.903  28.797  32.183  1.00  0.00    -0.354 N 
ATOM     31  N   UNL A   1      44.810  27.429  28.053  1.00  0.00    -0.248 NA
ATOM     32  C   UNL A   1      43.999  25.692  29.381  1.00  0.00     0.031 C 
ATOM     33  C   UNL A   1      44.834  30.872  31.533  1.00  0.00     0.029 A 
ATOM     34  C   UNL A   1      45.072  29.578  31.068  1.00  0.00     0.049 A 
ATOM     35  H   UNL A   1      45.384  27.964  32.395  1.00  0.00     0.167 HD
ATOM     36  C   UNL A   1      45.040  27.766  29.378  1.00  0.00     0.074 A 
ATOM     37  C   UNL A   1      44.602  26.604  30.146  1.00  0.00     0.031 C 
ATOM     38  C   UNL A   1      45.305  29.053  29.746  1.00  0.00     0.037 A 
BRANCH  25  39
ATOM     39  C   UNL A   1      43.137  27.483  34.471  1.00  0.00     0.057 A 
ATOM     40  C   UNL A   1      43.403  26.178  34.021  1.00  0.00     0.134 A 
ATOM     41  C   UNL A   1      42.856  27.596  35.848  1.00  0.00     0.134 A 
ATOM     42  F   UNL A   1      43.653  25.934  32.726  1.00  0.00    -0.206 F 
ATOM     43  C   UNL A   1      43.342  25.064  34.869  1.00  0.00     0.040 A 
ATOM     44  C   UNL A   1      42.842  26.498  36.713  1.00  0.00     0.040 A 
ATOM     45  F   UNL A   1      42.484  28.756  36.405  1.00  0.00    -0.206 F 
ATOM     46  C   UNL A   1      43.059  25.222  36.220  1.00  0.00     0.006 A 
ENDBRANCH  25  39
BRANCH  26  47
ATOM     47  C   UNL A   1      42.856  24.868  26.375  1.00  0.00     0.057 A 
ATOM     48  C   UNL A   1      43.706  24.639  25.283  1.00  0.00     0.134 A 
ATOM     49  C   UNL A   1      42.154  23.751  26.857  1.00  0.00     0.134 A 
ATOM     50  F   UNL A   1      44.452  25.633  24.780  1.00  0.00    -0.206 F 
ATOM     51  C   UNL A   1      43.867  23.366  24.719  1.00  0.00     0.040 A 
ATOM     52  C   UNL A   1      42.298  22.477  26.297  1.00  0.00     0.040 A 
ATOM     53  F   UNL A   1      41.374  23.838  27.943  1.00  0.00    -0.206 F 
ATOM     54  C   UNL A   1      43.169  22.278  25.233  1.00  0.00     0.006 A 
ENDBRANCH  26  47
BRANCH  38  55
ATOM     55  C   UNL A   1      45.593  30.049  28.656  1.00  0.00     0.057 A 
ATOM     56  C   UNL A   1      46.867  30.265  28.109  1.00  0.00     0.134 A 
ATOM     57  C   UNL A   1      44.523  30.707  28.041  1.00  0.00     0.134 A 
ATOM     58  F   UNL A   1      47.939  29.601  28.559  1.00  0.00    -0.206 F 
ATOM     59  C   UNL A   1      47.071  31.133  27.033  1.00  0.00     0.040 A 
ATOM     60  C   UNL A   1      44.708  31.550  26.941  1.00  0.00     0.040 A 
ATOM     61  F   UNL A   1      43.267  30.504  28.469  1.00  0.00    -0.206 F 
ATOM     62  C   UNL A   1      45.988  31.775  26.441  1.00  0.00     0.006 A 
ENDBRANCH  38  55
ENDBRANCH  12  13
ENDBRANCH   5   7
ENDBRANCH   2   3
ENDBRANCH   1   2
BRANCH   1  63
ATOM     63  C   UNL A   1      33.789  28.761  26.660  1.00  0.00     0.023 C 
BRANCH  63  64
ATOM     64  C   UNL A   1      32.826  27.660  26.206  1.00  0.00     0.116 C 
BRANCH  64  65
ATOM     65  N   UNL A   1      33.542  26.584  25.547  1.00  0.00    -0.356 N 
ATOM     66  C   UNL A   1      33.446  25.232  25.690  1.00  0.00     0.226 C 
ATOM     67  H   UNL A   1      34.210  26.880  24.885  1.00  0.00     0.163 HD
ATOM     68  O   UNL A   1      34.321  24.537  25.181  1.00  0.00    -0.275 OA
BRANCH  66  69
ATOM     69  C   UNL A   1      32.264  24.652  26.437  1.00  0.00     0.122 C 
ATOM     70  C   UNL A   1      30.955  24.377  25.646  1.00  0.00     0.125 C 
ATOM     71  C   UNL A   1      32.538  23.298  27.103  1.00  0.00     0.132 C 
ATOM     72  C   UNL A   1      30.644  22.935  26.102  1.00  0.00     0.132 C 
ATOM     73  C   UNL A   1      32.879  22.139  26.169  1.00  0.00     0.035 C 
ATOM     74  O   UNL A   1      31.168  22.943  27.455  1.00  0.00    -0.373 OA
ATOM     75  C   UNL A   1      31.553  21.884  25.465  1.00  0.00     0.035 C 
BRANCH  70  76
ATOM     76  C   UNL A   1      30.995  24.534  24.137  1.00  0.00     0.253 C 
ATOM     77  O   UNL A   1      31.366  23.703  23.323  1.00  0.00    -0.272 OA
BRANCH  76  78
ATOM     78  N   UNL A   1      30.621  25.810  23.673  1.00  0.00    -0.206 N 
ATOM     79  C   UNL A   1      29.417  26.467  23.808  1.00  0.00     0.138 A 
ATOM     80  N   UNL A   1      31.513  26.539  22.949  1.00  0.00    -0.172 NA
ATOM     81  C   UNL A   1      29.557  27.671  23.161  1.00  0.00     0.079 A 
ATOM     82  C   UNL A   1      30.847  27.645  22.616  1.00  0.00     0.156 A 
ATOM     83  Cl  UNL A   1      28.442  28.935  23.045  1.00  0.00    -0.081 Cl
ENDBRANCH  76  78
ENDBRANCH  70  76
ENDBRANCH  66  69
ENDBRANCH  64  65
ENDBRANCH  63  64
ENDBRANCH   1  63
TORSDOF 13
ENDMDL
