MODEL 1
REMARK VINA RESULT:     -10.5      0.000      0.000
REMARK SMILES CC(C)Cc1cc(C(=O)N[C@@H](CO)C(=O)NCCCCNC(=O)c2ccc(-c3c4nc(c(-c5c(F)cccc5F)c5ccc([nH]5)c(-c5c(F)cccc5F)c5nc(c(-c6c(F)cccc6F)c6ccc3[nH]6)C=C5)C=C4)cc2)n(C)n1
REMARK SMILES IDX 17 1 16 2 14 3 15 4 11 6 10 7 8 8 9 9 7 11 5 12 6 13 80 14
REMARK SMILES IDX 78 15 79 16 4 17 2 18 1 19 3 20 12 21 13 22 18 24 19 25
REMARK SMILES IDX 20 26 21 27 22 28 23 30 24 31 25 32 77 33 26 34 76 35 27 36
REMARK SMILES IDX 28 37 29 38 70 39 30 40 75 41 69 42 71 43 31 44 74 45 68 46
REMARK SMILES IDX 67 47 32 49 58 50 41 51 57 52 42 53 45 54 56 55 72 56 43 57
REMARK SMILES IDX 44 58 55 60 73 61 46 62 33 63 34 64 39 65 35 66 36 67 38 68
REMARK SMILES IDX 40 69 37 70 59 71 60 72 65 73 61 74 62 75 64 76 66 77 63 78
REMARK SMILES IDX 47 79 48 80 53 81 49 82 50 83 52 84 54 85 51 86
REMARK H PARENT 16 5 10 10 13 23 21 29 71 48 45 59
REMARK Flexibility Score: inf
ROOT
ATOM      1  C   UNL A   1      31.416  26.264  25.811  1.00  0.00     0.116 C 
ENDROOT
BRANCH   1   2
ATOM      2  N   UNL A   1      30.325  26.685  24.965  1.00  0.00    -0.354 N 
ATOM      3  C   UNL A   1      30.340  27.331  23.777  1.00  0.00     0.244 C 
ATOM      4  O   UNL A   1      29.262  27.434  23.181  1.00  0.00    -0.273 OA
ATOM      5  H   UNL A   1      29.427  26.468  25.307  1.00  0.00     0.163 HD
BRANCH   3   6
ATOM      6  C   UNL A   1      31.631  27.819  23.111  1.00  0.00     0.197 C 
BRANCH   6   7
ATOM      7  N   UNL A   1      32.094  27.107  21.930  1.00  0.00    -0.337 N 
ATOM      8  C   UNL A   1      32.795  25.946  21.758  1.00  0.00     0.270 C 
ATOM      9  O   UNL A   1      33.032  25.692  20.572  1.00  0.00    -0.268 OA
ATOM     10  H   UNL A   1      31.856  27.552  21.086  1.00  0.00     0.164 HD
BRANCH   8  11
ATOM     11  C   UNL A   1      33.195  25.025  22.808  1.00  0.00     0.126 A 
ATOM     12  C   UNL A   1      34.456  24.096  24.435  1.00  0.00     0.064 A 
ATOM     13  C   UNL A   1      34.332  25.226  23.606  1.00  0.00     0.059 A 
ATOM     14  N   UNL A   1      33.543  23.196  24.091  1.00  0.00    -0.178 NA
ATOM     15  N   UNL A   1      32.668  23.870  23.342  1.00  0.00    -0.263 N 
ATOM     16  C   UNL A   1      31.326  23.356  23.447  1.00  0.00     0.174 C 
BRANCH  12  17
ATOM     17  C   UNL A   1      35.412  23.790  25.540  1.00  0.00     0.061 C 
BRANCH  17  18
ATOM     18  C   UNL A   1      36.891  23.671  25.077  1.00  0.00    -0.011 C 
ATOM     19  C   UNL A   1      37.906  23.736  26.231  1.00  0.00     0.008 C 
ATOM     20  C   UNL A   1      37.102  22.357  24.326  1.00  0.00     0.008 C 
ENDBRANCH  17  18
ENDBRANCH  12  17
ENDBRANCH   8  11
ENDBRANCH   6   7
BRANCH   6  21
ATOM     21  C   UNL A   1      31.625  29.346  22.902  1.00  0.00     0.191 C 
BRANCH  21  22
ATOM     22  O   UNL A   1      31.091  29.761  21.647  1.00  0.00    -0.394 OA
ATOM     23  H   UNL A   1      31.082  30.729  21.603  1.00  0.00     0.210 HD
ENDBRANCH  21  22
ENDBRANCH   6  21
ENDBRANCH   3   6
ENDBRANCH   1   2
BRANCH   1  24
ATOM     24  C   UNL A   1      32.063  27.450  26.509  1.00  0.00     0.023 C 
BRANCH  24  25
ATOM     25  C   UNL A   1      33.588  27.405  26.536  1.00  0.00     0.023 C 
BRANCH  25  26
ATOM     26  C   UNL A   1      34.272  28.616  25.915  1.00  0.00     0.116 C 
BRANCH  26  27
ATOM     27  N   UNL A   1      33.776  29.876  26.449  1.00  0.00    -0.352 N 
ATOM     28  C   UNL A   1      34.294  30.652  27.452  1.00  0.00     0.251 C 
ATOM     29  H   UNL A   1      32.954  30.219  26.030  1.00  0.00     0.163 HD
ATOM     30  O   UNL A   1      33.660  31.612  27.883  1.00  0.00    -0.269 OA
BRANCH  28  31
ATOM     31  C   UNL A   1      35.602  30.301  28.034  1.00  0.00     0.039 A 
ATOM     32  C   UNL A   1      35.634  29.661  29.271  1.00  0.00     0.014 A 
ATOM     33  C   UNL A   1      36.787  30.574  27.342  1.00  0.00     0.014 A 
ATOM     34  C   UNL A   1      36.857  29.247  29.793  1.00  0.00     0.010 A 
ATOM     35  C   UNL A   1      37.993  30.073  27.818  1.00  0.00     0.010 A 
ATOM     36  C   UNL A   1      38.042  29.418  29.055  1.00  0.00    -0.014 A 
BRANCH  36  37
ATOM     37  C   UNL A   1      39.333  28.916  29.588  1.00  0.00     0.031 A 
ATOM     38  C   UNL A   1      39.930  29.516  30.830  1.00  0.00     0.074 A 
ATOM     39  C   UNL A   1      39.973  27.926  28.936  1.00  0.00     0.049 A 
ATOM     40  N   UNL A   1      41.015  29.166  31.474  1.00  0.00    -0.248 NA
ATOM     41  C   UNL A   1      39.237  30.676  31.412  1.00  0.00     0.031 C 
ATOM     42  C   UNL A   1      39.531  27.318  27.678  1.00  0.00     0.029 A 
ATOM     43  N   UNL A   1      41.124  27.249  29.246  1.00  0.00    -0.354 N 
ATOM     44  C   UNL A   1      41.134  30.062  32.529  1.00  0.00     0.074 A 
ATOM     45  C   UNL A   1      40.052  31.014  32.400  1.00  0.00     0.031 C 
ATOM     46  C   UNL A   1      40.374  26.325  27.352  1.00  0.00     0.029 A 
ATOM     47  C   UNL A   1      41.428  26.247  28.356  1.00  0.00     0.049 A 
ATOM     48  H   UNL A   1      41.678  27.459  30.031  1.00  0.00     0.167 HD
ATOM     49  C   UNL A   1      42.042  30.072  33.533  1.00  0.00     0.037 A 
ATOM     50  C   UNL A   1      42.440  25.359  28.359  1.00  0.00     0.037 A 
ATOM     51  C   UNL A   1      43.107  29.113  33.665  1.00  0.00     0.049 A 
ATOM     52  C   UNL A   1      43.423  25.379  29.495  1.00  0.00     0.074 A 
ATOM     53  C   UNL A   1      44.043  28.997  34.676  1.00  0.00     0.029 A 
ATOM     54  N   UNL A   1      43.379  28.106  32.751  1.00  0.00    -0.354 N 
ATOM     55  N   UNL A   1      43.469  26.174  30.538  1.00  0.00    -0.248 NA
ATOM     56  C   UNL A   1      44.484  24.366  29.465  1.00  0.00     0.031 C 
ATOM     57  C   UNL A   1      44.916  27.953  34.346  1.00  0.00     0.029 A 
ATOM     58  C   UNL A   1      44.484  27.378  33.162  1.00  0.00     0.049 A 
ATOM     59  H   UNL A   1      42.862  27.933  31.930  1.00  0.00     0.167 HD
ATOM     60  C   UNL A   1      44.547  25.741  31.299  1.00  0.00     0.074 A 
ATOM     61  C   UNL A   1      45.107  24.595  30.611  1.00  0.00     0.031 C 
ATOM     62  C   UNL A   1      45.034  26.246  32.460  1.00  0.00     0.037 A 
BRANCH  49  63
ATOM     63  C   UNL A   1      41.920  31.155  34.567  1.00  0.00     0.057 A 
ATOM     64  C   UNL A   1      41.131  30.997  35.717  1.00  0.00     0.134 A 
ATOM     65  C   UNL A   1      42.622  32.359  34.431  1.00  0.00     0.134 A 
ATOM     66  F   UNL A   1      40.420  29.875  35.905  1.00  0.00    -0.206 F 
ATOM     67  C   UNL A   1      41.026  32.006  36.677  1.00  0.00     0.040 A 
ATOM     68  C   UNL A   1      42.549  33.363  35.398  1.00  0.00     0.040 A 
ATOM     69  F   UNL A   1      43.397  32.577  33.358  1.00  0.00    -0.206 F 
ATOM     70  C   UNL A   1      41.742  33.190  36.522  1.00  0.00     0.006 A 
ENDBRANCH  49  63
BRANCH  50  71
ATOM     71  C   UNL A   1      42.555  24.356  27.270  1.00  0.00     0.057 A 
ATOM     72  C   UNL A   1      43.325  24.608  26.128  1.00  0.00     0.134 A 
ATOM     73  C   UNL A   1      41.887  23.126  27.337  1.00  0.00     0.134 A 
ATOM     74  F   UNL A   1      43.976  25.772  25.996  1.00  0.00    -0.206 F 
ATOM     75  C   UNL A   1      43.403  23.689  25.081  1.00  0.00     0.040 A 
ATOM     76  C   UNL A   1      41.981  22.185  26.311  1.00  0.00     0.040 A 
ATOM     77  F   UNL A   1      41.143  22.818  28.410  1.00  0.00    -0.206 F 
ATOM     78  C   UNL A   1      42.733  22.471  25.173  1.00  0.00     0.006 A 
ENDBRANCH  50  71
BRANCH  62  79
ATOM     79  C   UNL A   1      46.213  25.537  33.065  1.00  0.00     0.057 A 
ATOM     80  C   UNL A   1      46.059  24.479  33.970  1.00  0.00     0.134 A 
ATOM     81  C   UNL A   1      47.520  25.926  32.743  1.00  0.00     0.134 A 
ATOM     82  F   UNL A   1      44.835  24.063  34.330  1.00  0.00    -0.206 F 
ATOM     83  C   UNL A   1      47.160  23.865  34.568  1.00  0.00     0.040 A 
ATOM     84  C   UNL A   1      48.629  25.296  33.309  1.00  0.00     0.040 A 
ATOM     85  F   UNL A   1      47.740  26.924  31.873  1.00  0.00    -0.206 F 
ATOM     86  C   UNL A   1      48.450  24.272  34.235  1.00  0.00     0.006 A 
ENDBRANCH  62  79
ENDBRANCH  36  37
ENDBRANCH  28  31
ENDBRANCH  26  27
ENDBRANCH  25  26
ENDBRANCH  24  25
ENDBRANCH   1  24
TORSDOF 17
ENDMDL
MODEL 2
REMARK VINA RESULT:     -10.5      3.893      8.143
REMARK SMILES CC(C)Cc1cc(C(=O)N[C@@H](CO)C(=O)NCCCCNC(=O)c2ccc(-c3c4nc(c(-c5c(F)cccc5F)c5ccc([nH]5)c(-c5c(F)cccc5F)c5nc(c(-c6c(F)cccc6F)c6ccc3[nH]6)C=C5)C=C4)cc2)n(C)n1
REMARK SMILES IDX 17 1 16 2 14 3 15 4 11 6 10 7 8 8 9 9 7 11 5 12 6 13 80 14
REMARK SMILES IDX 78 15 79 16 4 17 2 18 1 19 3 20 12 21 13 22 18 24 19 25
REMARK SMILES IDX 20 26 21 27 22 28 23 30 24 31 25 32 77 33 26 34 76 35 27 36
REMARK SMILES IDX 28 37 29 38 70 39 30 40 75 41 69 42 71 43 31 44 74 45 68 46
REMARK SMILES IDX 67 47 32 49 58 50 41 51 57 52 42 53 45 54 56 55 72 56 43 57
REMARK SMILES IDX 44 58 55 60 73 61 46 62 33 63 34 64 39 65 35 66 36 67 38 68
REMARK SMILES IDX 40 69 37 70 59 71 60 72 65 73 61 74 62 75 64 76 66 77 63 78
REMARK SMILES IDX 47 79 48 80 53 81 49 82 50 83 52 84 54 85 51 86
REMARK H PARENT 16 5 10 10 13 23 21 29 71 48 45 59
REMARK Flexibility Score: inf
ROOT
ATOM      1  C   UNL A   1      37.288  22.521  25.451  1.00  0.00     0.116 C 
ENDROOT
BRANCH   1   2
ATOM      2  N   UNL A   1      36.218  22.408  26.413  1.00  0.00    -0.354 N 
ATOM      3  C   UNL A   1      35.060  23.100  26.517  1.00  0.00     0.244 C 
ATOM      4  O   UNL A   1      34.239  22.695  27.347  1.00  0.00    -0.273 OA
ATOM      5  H   UNL A   1      36.352  21.719  27.103  1.00  0.00     0.163 HD
BRANCH   3   6
ATOM      6  C   UNL A   1      34.697  24.259  25.583  1.00  0.00     0.197 C 
BRANCH   6   7
ATOM      7  N   UNL A   1      34.508  23.958  24.172  1.00  0.00    -0.337 N 
ATOM      8  C   UNL A   1      33.993  22.877  23.512  1.00  0.00     0.270 C 
ATOM      9  O   UNL A   1      34.042  22.989  22.282  1.00  0.00    -0.268 OA
ATOM     10  H   UNL A   1      34.812  24.677  23.573  1.00  0.00     0.164 HD
BRANCH   8  11
ATOM     11  C   UNL A   1      33.376  21.713  24.127  1.00  0.00     0.126 A 
ATOM     12  C   UNL A   1      33.087  19.567  24.765  1.00  0.00     0.064 A 
ATOM     13  C   UNL A   1      34.012  20.465  24.202  1.00  0.00     0.059 A 
ATOM     14  N   UNL A   1      31.916  20.174  24.910  1.00  0.00    -0.178 NA
ATOM     15  N   UNL A   1      32.192  21.474  24.788  1.00  0.00    -0.263 N 
ATOM     16  C   UNL A   1      31.311  22.310  25.564  1.00  0.00     0.174 C 
BRANCH  12  17
ATOM     17  C   UNL A   1      33.228  18.135  25.166  1.00  0.00     0.061 C 
BRANCH  17  18
ATOM     18  C   UNL A   1      34.393  17.395  24.452  1.00  0.00    -0.011 C 
ATOM     19  C   UNL A   1      34.898  16.158  25.214  1.00  0.00     0.008 C 
ATOM     20  C   UNL A   1      33.957  16.952  23.055  1.00  0.00     0.008 C 
ENDBRANCH  17  18
ENDBRANCH  12  17
ENDBRANCH   8  11
ENDBRANCH   6   7
BRANCH   6  21
ATOM     21  C   UNL A   1      33.547  25.113  26.152  1.00  0.00     0.191 C 
BRANCH  21  22
ATOM     22  O   UNL A   1      33.611  26.490  25.793  1.00  0.00    -0.394 OA
ATOM     23  H   UNL A   1      34.500  26.700  25.469  1.00  0.00     0.210 HD
ENDBRANCH  21  22
ENDBRANCH   6  21
ENDBRANCH   3   6
ENDBRANCH   1   2
BRANCH   1  24
ATOM     24  C   UNL A   1      37.258  21.373  24.454  1.00  0.00     0.023 C 
BRANCH  24  25
ATOM     25  C   UNL A   1      37.944  20.101  24.944  1.00  0.00     0.023 C 
BRANCH  25  26
ATOM     26  C   UNL A   1      39.046  20.327  25.972  1.00  0.00     0.116 C 
BRANCH  26  27
ATOM     27  N   UNL A   1      40.146  19.386  25.831  1.00  0.00    -0.352 N 
ATOM     28  C   UNL A   1      41.488  19.592  26.019  1.00  0.00     0.251 C 
ATOM     29  H   UNL A   1      39.891  18.473  25.564  1.00  0.00     0.163 HD
ATOM     30  O   UNL A   1      42.298  18.724  25.706  1.00  0.00    -0.269 OA
BRANCH  28  31
ATOM     31  C   UNL A   1      41.951  20.879  26.567  1.00  0.00     0.039 A 
ATOM     32  C   UNL A   1      42.349  21.879  25.682  1.00  0.00     0.014 A 
ATOM     33  C   UNL A   1      41.956  21.107  27.948  1.00  0.00     0.014 A 
ATOM     34  C   UNL A   1      42.707  23.129  26.181  1.00  0.00     0.010 A 
ATOM     35  C   UNL A   1      42.218  22.383  28.434  1.00  0.00     0.010 A 
ATOM     36  C   UNL A   1      42.611  23.402  27.557  1.00  0.00    -0.014 A 
BRANCH  36  37
ATOM     37  C   UNL A   1      42.931  24.755  28.074  1.00  0.00     0.031 A 
ATOM     38  C   UNL A   1      44.360  25.173  28.285  1.00  0.00     0.074 A 
ATOM     39  C   UNL A   1      41.925  25.602  28.369  1.00  0.00     0.049 A 
ATOM     40  N   UNL A   1      44.831  26.333  28.670  1.00  0.00    -0.248 NA
ATOM     41  C   UNL A   1      45.395  24.152  28.061  1.00  0.00     0.031 C 
ATOM     42  C   UNL A   1      40.498  25.282  28.280  1.00  0.00     0.029 A 
ATOM     43  N   UNL A   1      41.948  26.905  28.791  1.00  0.00    -0.354 N 
ATOM     44  C   UNL A   1      46.210  26.177  28.737  1.00  0.00     0.074 A 
ATOM     45  C   UNL A   1      46.495  24.794  28.422  1.00  0.00     0.031 C 
ATOM     46  C   UNL A   1      39.784  26.377  28.588  1.00  0.00     0.029 A 
ATOM     47  C   UNL A   1      40.699  27.461  28.926  1.00  0.00     0.049 A 
ATOM     48  H   UNL A   1      42.780  27.397  28.978  1.00  0.00     0.167 HD
ATOM     49  C   UNL A   1      47.154  27.109  29.005  1.00  0.00     0.037 A 
ATOM     50  C   UNL A   1      40.335  28.710  29.272  1.00  0.00     0.037 A 
ATOM     51  C   UNL A   1      46.864  28.487  29.302  1.00  0.00     0.049 A 
ATOM     52  C   UNL A   1      41.404  29.730  29.545  1.00  0.00     0.074 A 
ATOM     53  C   UNL A   1      47.750  29.525  29.528  1.00  0.00     0.029 A 
ATOM     54  N   UNL A   1      45.588  29.017  29.420  1.00  0.00    -0.354 N 
ATOM     55  N   UNL A   1      42.708  29.593  29.513  1.00  0.00    -0.248 NA
ATOM     56  C   UNL A   1      40.950  31.085  29.884  1.00  0.00     0.031 C 
ATOM     57  C   UNL A   1      47.009  30.672  29.836  1.00  0.00     0.029 A 
ATOM     58  C   UNL A   1      45.662  30.363  29.740  1.00  0.00     0.049 A 
ATOM     59  H   UNL A   1      44.753  28.510  29.294  1.00  0.00     0.167 HD
ATOM     60  C   UNL A   1      43.230  30.848  29.803  1.00  0.00     0.074 A 
ATOM     61  C   UNL A   1      42.099  31.736  29.977  1.00  0.00     0.031 C 
ATOM     62  C   UNL A   1      44.525  31.231  29.918  1.00  0.00     0.037 A 
BRANCH  49  63
ATOM     63  C   UNL A   1      48.590  26.665  28.986  1.00  0.00     0.057 A 
ATOM     64  C   UNL A   1      49.386  26.778  27.836  1.00  0.00     0.134 A 
ATOM     65  C   UNL A   1      49.195  26.148  30.138  1.00  0.00     0.134 A 
ATOM     66  F   UNL A   1      48.867  27.251  26.693  1.00  0.00    -0.206 F 
ATOM     67  C   UNL A   1      50.721  26.368  27.828  1.00  0.00     0.040 A 
ATOM     68  C   UNL A   1      50.537  25.763  30.150  1.00  0.00     0.040 A 
ATOM     69  F   UNL A   1      48.494  26.015  31.274  1.00  0.00    -0.206 F 
ATOM     70  C   UNL A   1      51.302  25.866  28.989  1.00  0.00     0.006 A 
ENDBRANCH  49  63
BRANCH  50  71
ATOM     71  C   UNL A   1      38.897  29.075  29.347  1.00  0.00     0.057 A 
ATOM     72  C   UNL A   1      38.210  29.555  28.225  1.00  0.00     0.134 A 
ATOM     73  C   UNL A   1      38.177  28.965  30.543  1.00  0.00     0.134 A 
ATOM     74  F   UNL A   1      38.847  29.697  27.053  1.00  0.00    -0.206 F 
ATOM     75  C   UNL A   1      36.871  29.941  28.296  1.00  0.00     0.040 A 
ATOM     76  C   UNL A   1      36.830  29.318  30.622  1.00  0.00     0.040 A 
ATOM     77  F   UNL A   1      38.773  28.500  31.651  1.00  0.00    -0.206 F 
ATOM     78  C   UNL A   1      36.176  29.819  29.498  1.00  0.00     0.006 A 
ENDBRANCH  50  71
BRANCH  62  79
ATOM     79  C   UNL A   1      44.779  32.681  30.220  1.00  0.00     0.057 A 
ATOM     80  C   UNL A   1      44.896  33.641  29.206  1.00  0.00     0.134 A 
ATOM     81  C   UNL A   1      44.913  33.121  31.544  1.00  0.00     0.134 A 
ATOM     82  F   UNL A   1      44.788  33.287  27.917  1.00  0.00    -0.206 F 
ATOM     83  C   UNL A   1      45.187  34.976  29.495  1.00  0.00     0.040 A 
ATOM     84  C   UNL A   1      45.169  34.459  31.846  1.00  0.00     0.040 A 
ATOM     85  F   UNL A   1      44.798  32.257  32.564  1.00  0.00    -0.206 F 
ATOM     86  C   UNL A   1      45.321  35.388  30.819  1.00  0.00     0.006 A 
ENDBRANCH  62  79
ENDBRANCH  36  37
ENDBRANCH  28  31
ENDBRANCH  26  27
ENDBRANCH  25  26
ENDBRANCH  24  25
ENDBRANCH   1  24
TORSDOF 17
ENDMDL
MODEL 3
REMARK VINA RESULT:     -10.4      2.561      4.769
REMARK SMILES CC(C)Cc1cc(C(=O)N[C@@H](CO)C(=O)NCCCCNC(=O)c2ccc(-c3c4nc(c(-c5c(F)cccc5F)c5ccc([nH]5)c(-c5c(F)cccc5F)c5nc(c(-c6c(F)cccc6F)c6ccc3[nH]6)C=C5)C=C4)cc2)n(C)n1
REMARK SMILES IDX 17 1 16 2 14 3 15 4 11 6 10 7 8 8 9 9 7 11 5 12 6 13 80 14
REMARK SMILES IDX 78 15 79 16 4 17 2 18 1 19 3 20 12 21 13 22 18 24 19 25
REMARK SMILES IDX 20 26 21 27 22 28 23 30 24 31 25 32 77 33 26 34 76 35 27 36
REMARK SMILES IDX 28 37 29 38 70 39 30 40 75 41 69 42 71 43 31 44 74 45 68 46
REMARK SMILES IDX 67 47 32 49 58 50 41 51 57 52 42 53 45 54 56 55 72 56 43 57
REMARK SMILES IDX 44 58 55 60 73 61 46 62 33 63 34 64 39 65 35 66 36 67 38 68
REMARK SMILES IDX 40 69 37 70 59 71 60 72 65 73 61 74 62 75 64 76 66 77 63 78
REMARK SMILES IDX 47 79 48 80 53 81 49 82 50 83 52 84 54 85 51 86
REMARK H PARENT 16 5 10 10 13 23 21 29 71 48 45 59
REMARK Flexibility Score: inf
ROOT
ATOM      1  C   UNL A   1      33.250  29.686  26.873  1.00  0.00     0.116 C 
ENDROOT
BRANCH   1   2
ATOM      2  N   UNL A   1      33.641  29.375  25.519  1.00  0.00    -0.354 N 
ATOM      3  C   UNL A   1      33.831  28.179  24.917  1.00  0.00     0.244 C 
ATOM      4  O   UNL A   1      34.013  28.189  23.695  1.00  0.00    -0.273 OA
ATOM      5  H   UNL A   1      33.794  30.158  24.941  1.00  0.00     0.163 HD
BRANCH   3   6
ATOM      6  C   UNL A   1      33.712  26.845  25.662  1.00  0.00     0.197 C 
BRANCH   6   7
ATOM      7  N   UNL A   1      32.394  26.449  26.135  1.00  0.00    -0.337 N 
ATOM      8  C   UNL A   1      31.134  26.623  25.633  1.00  0.00     0.270 C 
ATOM      9  O   UNL A   1      30.251  26.164  26.366  1.00  0.00    -0.268 OA
ATOM     10  H   UNL A   1      32.415  25.959  26.988  1.00  0.00     0.164 HD
BRANCH   8  11
ATOM     11  C   UNL A   1      30.799  27.217  24.350  1.00  0.00     0.126 A 
ATOM     12  C   UNL A   1      29.985  28.706  22.861  1.00  0.00     0.064 A 
ATOM     13  C   UNL A   1      30.277  28.513  24.224  1.00  0.00     0.059 A 
ATOM     14  N   UNL A   1      30.186  27.571  22.203  1.00  0.00    -0.178 NA
ATOM     15  N   UNL A   1      30.908  26.820  23.036  1.00  0.00    -0.263 N 
ATOM     16  C   UNL A   1      31.800  25.920  22.350  1.00  0.00     0.174 C 
BRANCH  12  17
ATOM     17  C   UNL A   1      29.499  29.910  22.123  1.00  0.00     0.061 C 
BRANCH  17  18
ATOM     18  C   UNL A   1      28.020  30.278  22.426  1.00  0.00    -0.011 C 
ATOM     19  C   UNL A   1      27.199  29.112  23.001  1.00  0.00     0.008 C 
ATOM     20  C   UNL A   1      27.960  31.442  23.416  1.00  0.00     0.008 C 
ENDBRANCH  17  18
ENDBRANCH  12  17
ENDBRANCH   8  11
ENDBRANCH   6   7
BRANCH   6  21
ATOM     21  C   UNL A   1      34.424  25.704  24.909  1.00  0.00     0.191 C 
BRANCH  21  22
ATOM     22  O   UNL A   1      33.949  24.402  25.239  1.00  0.00    -0.394 OA
ATOM     23  H   UNL A   1      34.168  23.786  24.523  1.00  0.00     0.210 HD
ENDBRANCH  21  22
ENDBRANCH   6  21
ENDBRANCH   3   6
ENDBRANCH   1   2
BRANCH   1  24
ATOM     24  C   UNL A   1      31.798  30.134  26.940  1.00  0.00     0.023 C 
BRANCH  24  25
ATOM     25  C   UNL A   1      31.596  31.633  26.741  1.00  0.00     0.023 C 
BRANCH  25  26
ATOM     26  C   UNL A   1      32.833  32.483  27.004  1.00  0.00     0.116 C 
BRANCH  26  27
ATOM     27  N   UNL A   1      32.508  33.803  27.520  1.00  0.00    -0.352 N 
ATOM     28  C   UNL A   1      33.092  34.496  28.549  1.00  0.00     0.251 C 
ATOM     29  H   UNL A   1      31.765  34.264  27.068  1.00  0.00     0.163 HD
ATOM     30  O   UNL A   1      32.591  35.540  28.956  1.00  0.00    -0.269 OA
BRANCH  28  31
ATOM     31  C   UNL A   1      34.307  33.956  29.184  1.00  0.00     0.039 A 
ATOM     32  C   UNL A   1      34.172  32.941  30.131  1.00  0.00     0.014 A 
ATOM     33  C   UNL A   1      35.573  34.426  28.819  1.00  0.00     0.014 A 
ATOM     34  C   UNL A   1      35.315  32.362  30.676  1.00  0.00     0.010 A 
ATOM     35  C   UNL A   1      36.709  33.780  29.291  1.00  0.00     0.010 A 
ATOM     36  C   UNL A   1      36.593  32.752  30.236  1.00  0.00    -0.014 A 
BRANCH  36  37
ATOM     37  C   UNL A   1      37.804  32.086  30.773  1.00  0.00     0.031 A 
ATOM     38  C   UNL A   1      38.345  32.462  32.125  1.00  0.00     0.074 A 
ATOM     39  C   UNL A   1      38.425  31.149  30.029  1.00  0.00     0.049 A 
ATOM     40  N   UNL A   1      39.354  31.945  32.781  1.00  0.00    -0.248 NA
ATOM     41  C   UNL A   1      37.689  33.579  32.821  1.00  0.00     0.031 C 
ATOM     42  C   UNL A   1      38.039  30.756  28.672  1.00  0.00     0.029 A 
ATOM     43  N   UNL A   1      39.502  30.351  30.313  1.00  0.00    -0.354 N 
ATOM     44  C   UNL A   1      39.452  32.675  33.959  1.00  0.00     0.074 A 
ATOM     45  C   UNL A   1      38.448  33.715  33.897  1.00  0.00     0.031 C 
ATOM     46  C   UNL A   1      38.837  29.756  28.262  1.00  0.00     0.029 A 
ATOM     47  C   UNL A   1      39.806  29.461  29.311  1.00  0.00     0.049 A 
ATOM     48  H   UNL A   1      40.009  30.408  31.155  1.00  0.00     0.167 HD
ATOM     49  C   UNL A   1      40.282  32.478  35.010  1.00  0.00     0.037 A 
ATOM     50  C   UNL A   1      40.754  28.508  29.252  1.00  0.00     0.037 A 
ATOM     51  C   UNL A   1      41.268  31.432  35.072  1.00  0.00     0.049 A 
ATOM     52  C   UNL A   1      41.649  28.296  30.441  1.00  0.00     0.074 A 
ATOM     53  C   UNL A   1      42.117  31.108  36.114  1.00  0.00     0.029 A 
ATOM     54  N   UNL A   1      41.541  30.543  34.043  1.00  0.00    -0.354 N 
ATOM     55  N   UNL A   1      41.669  28.934  31.587  1.00  0.00    -0.248 NA
ATOM     56  C   UNL A   1      42.640  27.219  30.335  1.00  0.00     0.031 C 
ATOM     57  C   UNL A   1      42.941  30.056  35.696  1.00  0.00     0.029 A 
ATOM     58  C   UNL A   1      42.563  29.685  34.416  1.00  0.00     0.049 A 
ATOM     59  H   UNL A   1      41.076  30.525  33.174  1.00  0.00     0.167 HD
ATOM     60  C   UNL A   1      42.656  28.320  32.347  1.00  0.00     0.074 A 
ATOM     61  C   UNL A   1      43.189  27.241  31.540  1.00  0.00     0.031 C 
ATOM     62  C   UNL A   1      43.087  28.622  33.597  1.00  0.00     0.037 A 
BRANCH  49  63
ATOM     63  C   UNL A   1      40.154  33.414  36.179  1.00  0.00     0.057 A 
ATOM     64  C   UNL A   1      40.850  34.631  36.235  1.00  0.00     0.134 A 
ATOM     65  C   UNL A   1      39.301  33.112  37.247  1.00  0.00     0.134 A 
ATOM     66  F   UNL A   1      41.696  34.977  35.253  1.00  0.00    -0.206 F 
ATOM     67  C   UNL A   1      40.722  35.497  37.323  1.00  0.00     0.040 A 
ATOM     68  C   UNL A   1      39.141  33.984  38.325  1.00  0.00     0.040 A 
ATOM     69  F   UNL A   1      38.602  31.967  37.258  1.00  0.00    -0.206 F 
ATOM     70  C   UNL A   1      39.859  35.178  38.368  1.00  0.00     0.006 A 
ENDBRANCH  49  63
BRANCH  50  71
ATOM     71  C   UNL A   1      40.883  27.658  28.040  1.00  0.00     0.057 A 
ATOM     72  C   UNL A   1      41.662  28.063  26.949  1.00  0.00     0.134 A 
ATOM     73  C   UNL A   1      40.223  26.428  27.938  1.00  0.00     0.134 A 
ATOM     74  F   UNL A   1      42.307  29.238  26.979  1.00  0.00    -0.206 F 
ATOM     75  C   UNL A   1      41.754  27.292  25.790  1.00  0.00     0.040 A 
ATOM     76  C   UNL A   1      40.330  25.632  26.797  1.00  0.00     0.040 A 
ATOM     77  F   UNL A   1      39.471  25.976  28.953  1.00  0.00    -0.206 F 
ATOM     78  C   UNL A   1      41.090  26.070  25.713  1.00  0.00     0.006 A 
ENDBRANCH  50  71
BRANCH  62  79
ATOM     79  C   UNL A   1      44.169  27.750  34.170  1.00  0.00     0.057 A 
ATOM     80  C   UNL A   1      45.526  28.076  34.054  1.00  0.00     0.134 A 
ATOM     81  C   UNL A   1      43.846  26.563  34.840  1.00  0.00     0.134 A 
ATOM     82  F   UNL A   1      45.906  29.193  33.415  1.00  0.00    -0.206 F 
ATOM     83  C   UNL A   1      46.524  27.231  34.542  1.00  0.00     0.040 A 
ATOM     84  C   UNL A   1      44.834  25.727  35.363  1.00  0.00     0.040 A 
ATOM     85  F   UNL A   1      42.565  26.195  34.999  1.00  0.00    -0.206 F 
ATOM     86  C   UNL A   1      46.178  26.054  35.201  1.00  0.00     0.006 A 
ENDBRANCH  62  79
ENDBRANCH  36  37
ENDBRANCH  28  31
ENDBRANCH  26  27
ENDBRANCH  25  26
ENDBRANCH  24  25
ENDBRANCH   1  24
TORSDOF 17
ENDMDL
