MODEL 1
REMARK VINA RESULT:     -11.6      0.000      0.000
REMARK SMILES CCc1ccc2nc(O)c(C(=O)NCCCCNC(=O)c3ccc(-c4c5nc(c(-c6c(F)cccc6F)c6ccc([nH]6)c(-c6c(F)cccc6F)c6nc(c(-c7c(F)cccc7F)c7ccc4[nH]7)C=C6)C=C5)cc3)cc2c1
REMARK SMILES IDX 16 1 15 2 14 3 13 4 11 5 12 6 10 8 3 9 4 10 77 11 5 12 76 13
REMARK SMILES IDX 6 14 75 15 7 16 8 17 2 18 1 19 9 20 17 22 18 23 19 24 20 26
REMARK SMILES IDX 21 27 22 28 74 29 23 30 73 31 24 32 25 33 26 34 67 35 27 36
REMARK SMILES IDX 72 37 66 38 68 39 28 40 71 41 65 42 64 43 29 45 55 46 38 47
REMARK SMILES IDX 54 48 39 49 42 50 53 51 69 52 40 53 41 54 52 56 70 57 43 58
REMARK SMILES IDX 30 59 31 60 36 61 32 62 33 63 35 64 37 65 34 66 56 67 57 68
REMARK SMILES IDX 62 69 58 70 59 71 61 72 63 73 60 74 44 75 45 76 50 77 46 78
REMARK SMILES IDX 47 79 49 80 51 81 48 82
REMARK H PARENT 13 7 9 21 18 25 68 44 42 55
REMARK Flexibility Score: inf
ROOT
ATOM      1  C   UNL A   1      33.235  29.047  26.626  1.00  0.00     0.023 C 
ENDROOT
BRANCH   1   2
ATOM      2  C   UNL A   1      32.284  27.980  27.155  1.00  0.00     0.023 C 
BRANCH   2   3
ATOM      3  C   UNL A   1      31.253  27.455  26.150  1.00  0.00     0.116 C 
BRANCH   3   4
ATOM      4  N   UNL A   1      30.652  26.222  26.618  1.00  0.00    -0.352 N 
ATOM      5  C   UNL A   1      30.932  24.906  26.353  1.00  0.00     0.256 C 
ATOM      6  O   UNL A   1      30.234  24.070  26.935  1.00  0.00    -0.269 OA
ATOM      7  H   UNL A   1      29.903  26.354  27.245  1.00  0.00     0.163 HD
BRANCH   5   8
ATOM      8  C   UNL A   1      32.040  24.413  25.489  1.00  0.00     0.102 A 
ATOM      9  C   UNL A   1      36.813  23.426  25.149  1.00  0.00    -0.048 A 
ATOM     10  C   UNL A   1      36.583  22.965  23.850  1.00  0.00     0.006 A 
ATOM     11  C   UNL A   1      35.740  23.979  25.863  1.00  0.00     0.014 A 
ATOM     12  C   UNL A   1      35.298  23.002  23.306  1.00  0.00     0.029 A 
ATOM     13  C   UNL A   1      34.445  24.009  25.313  1.00  0.00     0.002 A 
ATOM     14  C   UNL A   1      34.220  23.472  24.034  1.00  0.00     0.074 A 
ATOM     15  C   UNL A   1      33.337  24.517  26.013  1.00  0.00     0.030 A 
ATOM     16  N   UNL A   1      32.993  23.350  23.520  1.00  0.00    -0.213 NA
ATOM     17  C   UNL A   1      31.953  23.765  24.271  1.00  0.00     0.224 A 
BRANCH   9  18
ATOM     18  C   UNL A   1      38.152  23.235  25.817  1.00  0.00     0.032 C 
ATOM     19  C   UNL A   1      38.686  21.812  25.757  1.00  0.00     0.009 C 
ENDBRANCH   9  18
BRANCH  17  20
ATOM     20  O   UNL A   1      30.809  23.332  23.709  1.00  0.00    -0.493 OA
ATOM     21  H   UNL A   1      30.252  22.741  24.176  1.00  0.00     0.295 HD
ENDBRANCH  17  20
ENDBRANCH   5   8
ENDBRANCH   3   4
ENDBRANCH   2   3
ENDBRANCH   1   2
BRANCH   1  22
ATOM     22  C   UNL A   1      34.592  29.094  27.308  1.00  0.00     0.116 C 
BRANCH  22  23
ATOM     23  N   UNL A   1      34.700  30.090  28.365  1.00  0.00    -0.352 N 
ATOM     24  C   UNL A   1      35.805  30.398  29.128  1.00  0.00     0.251 C 
ATOM     25  H   UNL A   1      33.884  30.606  28.559  1.00  0.00     0.163 HD
ATOM     26  O   UNL A   1      35.736  31.217  30.038  1.00  0.00    -0.269 OA
BRANCH  24  27
ATOM     27  C   UNL A   1      37.066  29.674  28.868  1.00  0.00     0.039 A 
ATOM     28  C   UNL A   1      37.692  28.970  29.895  1.00  0.00     0.014 A 
ATOM     29  C   UNL A   1      37.676  29.790  27.615  1.00  0.00     0.014 A 
ATOM     30  C   UNL A   1      39.009  28.564  29.738  1.00  0.00     0.010 A 
ATOM     31  C   UNL A   1      38.964  29.284  27.426  1.00  0.00     0.010 A 
ATOM     32  C   UNL A   1      39.665  28.722  28.505  1.00  0.00    -0.014 A 
BRANCH  32  33
ATOM     33  C   UNL A   1      41.083  28.296  28.395  1.00  0.00     0.031 A 
ATOM     34  C   UNL A   1      41.444  26.886  28.009  1.00  0.00     0.074 A 
ATOM     35  C   UNL A   1      42.050  29.220  28.553  1.00  0.00     0.049 A 
ATOM     36  N   UNL A   1      42.628  26.371  27.785  1.00  0.00    -0.248 NA
ATOM     37  C   UNL A   1      40.339  25.926  27.863  1.00  0.00     0.031 C 
ATOM     38  C   UNL A   1      41.824  30.618  28.927  1.00  0.00     0.029 A 
ATOM     39  N   UNL A   1      43.406  29.138  28.374  1.00  0.00    -0.354 N 
ATOM     40  C   UNL A   1      42.413  25.028  27.495  1.00  0.00     0.074 A 
ATOM     41  C   UNL A   1      40.987  24.800  27.596  1.00  0.00     0.031 C 
ATOM     42  C   UNL A   1      42.988  31.281  28.873  1.00  0.00     0.029 A 
ATOM     43  C   UNL A   1      44.049  30.343  28.523  1.00  0.00     0.049 A 
ATOM     44  H   UNL A   1      43.874  28.299  28.160  1.00  0.00     0.167 HD
ATOM     45  C   UNL A   1      43.319  24.076  27.164  1.00  0.00     0.037 A 
ATOM     46  C   UNL A   1      45.349  30.660  28.390  1.00  0.00     0.037 A 
ATOM     47  C   UNL A   1      44.736  24.309  27.041  1.00  0.00     0.049 A 
ATOM     48  C   UNL A   1      46.327  29.586  28.023  1.00  0.00     0.074 A 
ATOM     49  C   UNL A   1      45.735  23.410  26.703  1.00  0.00     0.029 A 
ATOM     50  N   UNL A   1      45.355  25.533  27.245  1.00  0.00    -0.354 N 
ATOM     51  N   UNL A   1      46.106  28.322  27.754  1.00  0.00    -0.248 NA
ATOM     52  C   UNL A   1      47.739  29.982  27.953  1.00  0.00     0.031 C 
ATOM     53  C   UNL A   1      46.961  24.085  26.732  1.00  0.00     0.029 A 
ATOM     54  C   UNL A   1      46.722  25.411  27.050  1.00  0.00     0.049 A 
ATOM     55  H   UNL A   1      44.891  26.365  27.492  1.00  0.00     0.167 HD
ATOM     56  C   UNL A   1      47.349  27.774  27.472  1.00  0.00     0.074 A 
ATOM     57  C   UNL A   1      48.314  28.850  27.574  1.00  0.00     0.031 C 
ATOM     58  C   UNL A   1      47.667  26.493  27.165  1.00  0.00     0.037 A 
BRANCH  45  59
ATOM     59  C   UNL A   1      42.803  22.685  26.927  1.00  0.00     0.057 A 
ATOM     60  C   UNL A   1      42.423  21.872  28.004  1.00  0.00     0.134 A 
ATOM     61  C   UNL A   1      42.704  22.140  25.641  1.00  0.00     0.134 A 
ATOM     62  F   UNL A   1      42.498  22.330  29.262  1.00  0.00    -0.206 F 
ATOM     63  C   UNL A   1      41.963  20.569  27.808  1.00  0.00     0.040 A 
ATOM     64  C   UNL A   1      42.224  20.846  25.431  1.00  0.00     0.040 A 
ATOM     65  F   UNL A   1      43.038  22.870  24.566  1.00  0.00    -0.206 F 
ATOM     66  C   UNL A   1      41.856  20.054  26.518  1.00  0.00     0.006 A 
ENDBRANCH  45  59
BRANCH  46  67
ATOM     67  C   UNL A   1      45.795  32.059  28.599  1.00  0.00     0.057 A 
ATOM     68  C   UNL A   1      45.841  32.974  27.541  1.00  0.00     0.134 A 
ATOM     69  C   UNL A   1      46.182  32.512  29.864  1.00  0.00     0.134 A 
ATOM     70  F   UNL A   1      45.490  32.597  26.303  1.00  0.00    -0.206 F 
ATOM     71  C   UNL A   1      46.267  34.288  27.731  1.00  0.00     0.040 A 
ATOM     72  C   UNL A   1      46.584  33.831  30.075  1.00  0.00     0.040 A 
ATOM     73  F   UNL A   1      46.141  31.685  30.920  1.00  0.00    -0.206 F 
ATOM     74  C   UNL A   1      46.633  34.722  29.005  1.00  0.00     0.006 A 
ENDBRANCH  46  67
BRANCH  58  75
ATOM     75  C   UNL A   1      49.116  26.208  26.905  1.00  0.00     0.057 A 
ATOM     76  C   UNL A   1      49.969  25.838  27.950  1.00  0.00     0.134 A 
ATOM     77  C   UNL A   1      49.659  26.276  25.616  1.00  0.00     0.134 A 
ATOM     78  F   UNL A   1      49.512  25.760  29.209  1.00  0.00    -0.206 F 
ATOM     79  C   UNL A   1      51.311  25.533  27.720  1.00  0.00     0.040 A 
ATOM     80  C   UNL A   1      50.993  25.949  25.369  1.00  0.00     0.040 A 
ATOM     81  F   UNL A   1      48.887  26.607  24.569  1.00  0.00    -0.206 F 
ATOM     82  C   UNL A   1      51.824  25.577  26.425  1.00  0.00     0.006 A 
ENDBRANCH  58  75
ENDBRANCH  32  33
ENDBRANCH  24  27
ENDBRANCH  22  23
ENDBRANCH   1  22
TORSDOF 13
ENDMDL
MODEL 2
REMARK VINA RESULT:     -11.6      2.809      7.806
REMARK SMILES CCc1ccc2nc(O)c(C(=O)NCCCCNC(=O)c3ccc(-c4c5nc(c(-c6c(F)cccc6F)c6ccc([nH]6)c(-c6c(F)cccc6F)c6nc(c(-c7c(F)cccc7F)c7ccc4[nH]7)C=C6)C=C5)cc3)cc2c1
REMARK SMILES IDX 16 1 15 2 14 3 13 4 11 5 12 6 10 8 3 9 4 10 77 11 5 12 76 13
REMARK SMILES IDX 6 14 75 15 7 16 8 17 2 18 1 19 9 20 17 22 18 23 19 24 20 26
REMARK SMILES IDX 21 27 22 28 74 29 23 30 73 31 24 32 25 33 26 34 67 35 27 36
REMARK SMILES IDX 72 37 66 38 68 39 28 40 71 41 65 42 64 43 29 45 55 46 38 47
REMARK SMILES IDX 54 48 39 49 42 50 53 51 69 52 40 53 41 54 52 56 70 57 43 58
REMARK SMILES IDX 30 59 31 60 36 61 32 62 33 63 35 64 37 65 34 66 56 67 57 68
REMARK SMILES IDX 62 69 58 70 59 71 61 72 63 73 60 74 44 75 45 76 50 77 46 78
REMARK SMILES IDX 47 79 49 80 51 81 48 82
REMARK H PARENT 13 7 9 21 18 25 68 44 42 55
REMARK Flexibility Score: inf
ROOT
ATOM      1  C   UNL A   1      37.600  20.918  24.834  1.00  0.00     0.023 C 
ENDROOT
BRANCH   1   2
ATOM      2  C   UNL A   1      36.948  22.261  24.526  1.00  0.00     0.023 C 
BRANCH   2   3
ATOM      3  C   UNL A   1      36.355  23.001  25.730  1.00  0.00     0.116 C 
BRANCH   3   4
ATOM      4  N   UNL A   1      35.500  22.126  26.507  1.00  0.00    -0.352 N 
ATOM      5  C   UNL A   1      34.226  22.280  26.991  1.00  0.00     0.256 C 
ATOM      6  O   UNL A   1      33.758  21.324  27.616  1.00  0.00    -0.269 OA
ATOM      7  H   UNL A   1      35.910  21.258  26.729  1.00  0.00     0.163 HD
BRANCH   5   8
ATOM      8  C   UNL A   1      33.350  23.463  26.763  1.00  0.00     0.102 A 
ATOM      9  C   UNL A   1      32.886  27.843  24.650  1.00  0.00    -0.048 A 
ATOM     10  C   UNL A   1      31.579  27.896  25.141  1.00  0.00     0.006 A 
ATOM     11  C   UNL A   1      33.688  26.748  24.998  1.00  0.00     0.014 A 
ATOM     12  C   UNL A   1      31.072  26.848  25.911  1.00  0.00     0.029 A 
ATOM     13  C   UNL A   1      33.172  25.691  25.770  1.00  0.00     0.002 A 
ATOM     14  C   UNL A   1      31.832  25.727  26.192  1.00  0.00     0.074 A 
ATOM     15  C   UNL A   1      33.932  24.556  26.105  1.00  0.00     0.030 A 
ATOM     16  N   UNL A   1      31.252  24.692  26.808  1.00  0.00    -0.213 NA
ATOM     17  C   UNL A   1      31.998  23.589  27.021  1.00  0.00     0.224 A 
BRANCH   9  18
ATOM     18  C   UNL A   1      33.393  28.877  23.675  1.00  0.00     0.032 C 
ATOM     19  C   UNL A   1      33.853  28.311  22.341  1.00  0.00     0.009 C 
ENDBRANCH   9  18
BRANCH  17  20
ATOM     20  O   UNL A   1      31.189  22.585  27.406  1.00  0.00    -0.493 OA
ATOM     21  H   UNL A   1      31.327  21.720  27.073  1.00  0.00     0.295 HD
ENDBRANCH  17  20
ENDBRANCH   5   8
ENDBRANCH   3   4
ENDBRANCH   2   3
ENDBRANCH   1   2
BRANCH   1  22
ATOM     22  C   UNL A   1      38.826  20.991  25.729  1.00  0.00     0.116 C 
BRANCH  22  23
ATOM     23  N   UNL A   1      39.717  19.843  25.624  1.00  0.00    -0.352 N 
ATOM     24  C   UNL A   1      41.044  19.767  25.984  1.00  0.00     0.251 C 
ATOM     25  H   UNL A   1      39.323  19.022  25.249  1.00  0.00     0.163 HD
ATOM     26  O   UNL A   1      41.698  18.750  25.774  1.00  0.00    -0.269 OA
BRANCH  24  27
ATOM     27  C   UNL A   1      41.686  20.959  26.575  1.00  0.00     0.039 A 
ATOM     28  C   UNL A   1      41.731  21.113  27.960  1.00  0.00     0.014 A 
ATOM     29  C   UNL A   1      42.150  21.974  25.735  1.00  0.00     0.014 A 
ATOM     30  C   UNL A   1      42.042  22.353  28.497  1.00  0.00     0.010 A 
ATOM     31  C   UNL A   1      42.565  23.189  26.286  1.00  0.00     0.010 A 
ATOM     32  C   UNL A   1      42.455  23.410  27.668  1.00  0.00    -0.014 A 
BRANCH  32  33
ATOM     33  C   UNL A   1      42.751  24.726  28.288  1.00  0.00     0.031 A 
ATOM     34  C   UNL A   1      44.166  25.142  28.592  1.00  0.00     0.074 A 
ATOM     35  C   UNL A   1      41.737  25.589  28.487  1.00  0.00     0.049 A 
ATOM     36  N   UNL A   1      44.606  26.287  29.053  1.00  0.00    -0.248 NA
ATOM     37  C   UNL A   1      45.224  24.147  28.360  1.00  0.00     0.031 C 
ATOM     38  C   UNL A   1      40.324  25.300  28.230  1.00  0.00     0.029 A 
ATOM     39  N   UNL A   1      41.739  26.894  28.905  1.00  0.00    -0.354 N 
ATOM     40  C   UNL A   1      45.983  26.143  29.185  1.00  0.00     0.074 A 
ATOM     41  C   UNL A   1      46.303  24.790  28.782  1.00  0.00     0.031 C 
ATOM     42  C   UNL A   1      39.606  26.417  28.420  1.00  0.00     0.029 A 
ATOM     43  C   UNL A   1      40.497  27.480  28.870  1.00  0.00     0.049 A 
ATOM     44  H   UNL A   1      42.551  27.366  29.200  1.00  0.00     0.167 HD
ATOM     45  C   UNL A   1      46.897  27.056  29.596  1.00  0.00     0.037 A 
ATOM     46  C   UNL A   1      40.116  28.735  29.167  1.00  0.00     0.037 A 
ATOM     47  C   UNL A   1      46.579  28.410  29.976  1.00  0.00     0.049 A 
ATOM     48  C   UNL A   1      41.149  29.723  29.618  1.00  0.00     0.074 A 
ATOM     49  C   UNL A   1      47.436  29.413  30.399  1.00  0.00     0.029 A 
ATOM     50  N   UNL A   1      45.303  28.952  29.973  1.00  0.00    -0.354 N 
ATOM     51  N   UNL A   1      42.445  29.568  29.738  1.00  0.00    -0.248 NA
ATOM     52  C   UNL A   1      40.661  31.059  29.984  1.00  0.00     0.031 C 
ATOM     53  C   UNL A   1      46.672  30.553  30.680  1.00  0.00     0.029 A 
ATOM     54  C   UNL A   1      45.347  30.272  30.395  1.00  0.00     0.049 A 
ATOM     55  H   UNL A   1      44.486  28.470  29.709  1.00  0.00     0.167 HD
ATOM     56  C   UNL A   1      42.930  30.789  30.185  1.00  0.00     0.074 A 
ATOM     57  C   UNL A   1      41.792  31.681  30.284  1.00  0.00     0.031 C 
ATOM     58  C   UNL A   1      44.202  31.140  30.495  1.00  0.00     0.037 A 
BRANCH  45  59
ATOM     59  C   UNL A   1      48.330  26.613  29.671  1.00  0.00     0.057 A 
ATOM     60  C   UNL A   1      49.200  26.824  28.593  1.00  0.00     0.134 A 
ATOM     61  C   UNL A   1      48.844  25.958  30.797  1.00  0.00     0.134 A 
ATOM     62  F   UNL A   1      48.770  27.441  27.483  1.00  0.00    -0.206 F 
ATOM     63  C   UNL A   1      50.530  26.400  28.634  1.00  0.00     0.040 A 
ATOM     64  C   UNL A   1      50.178  25.550  30.859  1.00  0.00     0.040 A 
ATOM     65  F   UNL A   1      48.069  25.738  31.869  1.00  0.00    -0.206 F 
ATOM     66  C   UNL A   1      51.024  25.766  29.771  1.00  0.00     0.006 A 
ENDBRANCH  45  59
BRANCH  46  67
ATOM     67  C   UNL A   1      38.691  29.126  29.038  1.00  0.00     0.057 A 
ATOM     68  C   UNL A   1      38.161  29.551  27.813  1.00  0.00     0.134 A 
ATOM     69  C   UNL A   1      37.828  29.081  30.137  1.00  0.00     0.134 A 
ATOM     70  F   UNL A   1      38.942  29.623  26.725  1.00  0.00    -0.206 F 
ATOM     71  C   UNL A   1      36.824  29.927  27.689  1.00  0.00     0.040 A 
ATOM     72  C   UNL A   1      36.481  29.427  30.021  1.00  0.00     0.040 A 
ATOM     73  F   UNL A   1      38.275  28.665  31.331  1.00  0.00    -0.206 F 
ATOM     74  C   UNL A   1      35.977  29.857  28.795  1.00  0.00     0.006 A 
ENDBRANCH  46  67
BRANCH  58  75
ATOM     75  C   UNL A   1      44.412  32.553  30.951  1.00  0.00     0.057 A 
ATOM     76  C   UNL A   1      44.663  33.571  30.024  1.00  0.00     0.134 A 
ATOM     77  C   UNL A   1      44.342  32.907  32.304  1.00  0.00     0.134 A 
ATOM     78  F   UNL A   1      44.748  33.297  28.715  1.00  0.00    -0.206 F 
ATOM     79  C   UNL A   1      44.824  34.897  30.428  1.00  0.00     0.040 A 
ATOM     80  C   UNL A   1      44.476  34.233  32.717  1.00  0.00     0.040 A 
ATOM     81  F   UNL A   1      44.086  31.978  33.238  1.00  0.00    -0.206 F 
ATOM     82  C   UNL A   1      44.719  35.233  31.777  1.00  0.00     0.006 A 
ENDBRANCH  58  75
ENDBRANCH  32  33
ENDBRANCH  24  27
ENDBRANCH  22  23
ENDBRANCH   1  22
TORSDOF 13
ENDMDL
MODEL 3
REMARK VINA RESULT:     -11.5      2.784      7.757
REMARK SMILES CCc1ccc2nc(O)c(C(=O)NCCCCNC(=O)c3ccc(-c4c5nc(c(-c6c(F)cccc6F)c6ccc([nH]6)c(-c6c(F)cccc6F)c6nc(c(-c7c(F)cccc7F)c7ccc4[nH]7)C=C6)C=C5)cc3)cc2c1
REMARK SMILES IDX 16 1 15 2 14 3 13 4 11 5 12 6 10 8 3 9 4 10 77 11 5 12 76 13
REMARK SMILES IDX 6 14 75 15 7 16 8 17 2 18 1 19 9 20 17 22 18 23 19 24 20 26
REMARK SMILES IDX 21 27 22 28 74 29 23 30 73 31 24 32 25 33 26 34 67 35 27 36
REMARK SMILES IDX 72 37 66 38 68 39 28 40 71 41 65 42 64 43 29 45 55 46 38 47
REMARK SMILES IDX 54 48 39 49 42 50 53 51 69 52 40 53 41 54 52 56 70 57 43 58
REMARK SMILES IDX 30 59 31 60 36 61 32 62 33 63 35 64 37 65 34 66 56 67 57 68
REMARK SMILES IDX 62 69 58 70 59 71 61 72 63 73 60 74 44 75 45 76 50 77 46 78
REMARK SMILES IDX 47 79 49 80 51 81 48 82
REMARK H PARENT 13 7 9 21 18 25 68 44 42 55
REMARK Flexibility Score: inf
ROOT
ATOM      1  C   UNL A   1      37.696  20.853  24.926  1.00  0.00     0.023 C 
ENDROOT
BRANCH   1   2
ATOM      2  C   UNL A   1      37.028  22.183  24.599  1.00  0.00     0.023 C 
BRANCH   2   3
ATOM      3  C   UNL A   1      36.381  22.908  25.785  1.00  0.00     0.116 C 
BRANCH   3   4
ATOM      4  N   UNL A   1      35.491  22.024  26.511  1.00  0.00    -0.352 N 
ATOM      5  C   UNL A   1      34.211  22.188  26.974  1.00  0.00     0.256 C 
ATOM      6  O   UNL A   1      33.710  21.219  27.553  1.00  0.00    -0.269 OA
ATOM      7  H   UNL A   1      35.879  21.139  26.709  1.00  0.00     0.163 HD
BRANCH   5   8
ATOM      8  C   UNL A   1      33.365  23.396  26.772  1.00  0.00     0.102 A 
ATOM      9  C   UNL A   1      32.965  27.784  24.661  1.00  0.00    -0.048 A 
ATOM     10  C   UNL A   1      31.678  27.879  25.198  1.00  0.00     0.006 A 
ATOM     11  C   UNL A   1      33.745  26.665  24.984  1.00  0.00     0.014 A 
ATOM     12  C   UNL A   1      31.166  26.850  25.989  1.00  0.00     0.029 A 
ATOM     13  C   UNL A   1      33.223  25.626  25.778  1.00  0.00     0.002 A 
ATOM     14  C   UNL A   1      31.900  25.706  26.247  1.00  0.00     0.074 A 
ATOM     15  C   UNL A   1      33.958  24.469  26.090  1.00  0.00     0.030 A 
ATOM     16  N   UNL A   1      31.310  24.692  26.887  1.00  0.00    -0.213 NA
ATOM     17  C   UNL A   1      32.028  23.567  27.078  1.00  0.00     0.224 A 
BRANCH   9  18
ATOM     18  C   UNL A   1      33.469  28.799  23.664  1.00  0.00     0.032 C 
ATOM     19  C   UNL A   1      33.828  28.220  22.304  1.00  0.00     0.009 C 
ENDBRANCH   9  18
BRANCH  17  20
ATOM     20  O   UNL A   1      31.202  22.589  27.495  1.00  0.00    -0.493 OA
ATOM     21  H   UNL A   1      31.162  21.779  27.026  1.00  0.00     0.295 HD
ENDBRANCH  17  20
ENDBRANCH   5   8
ENDBRANCH   3   4
ENDBRANCH   2   3
ENDBRANCH   1   2
BRANCH   1  22
ATOM     22  C   UNL A   1      38.953  20.956  25.773  1.00  0.00     0.116 C 
BRANCH  22  23
ATOM     23  N   UNL A   1      39.855  19.819  25.654  1.00  0.00    -0.352 N 
ATOM     24  C   UNL A   1      41.189  19.757  25.993  1.00  0.00     0.251 C 
ATOM     25  H   UNL A   1      39.465  18.993  25.286  1.00  0.00     0.163 HD
ATOM     26  O   UNL A   1      41.851  18.748  25.773  1.00  0.00    -0.269 OA
BRANCH  24  27
ATOM     27  C   UNL A   1      41.826  20.957  26.573  1.00  0.00     0.039 A 
ATOM     28  C   UNL A   1      41.890  21.113  27.957  1.00  0.00     0.014 A 
ATOM     29  C   UNL A   1      42.268  21.976  25.725  1.00  0.00     0.014 A 
ATOM     30  C   UNL A   1      42.196  22.358  28.488  1.00  0.00     0.010 A 
ATOM     31  C   UNL A   1      42.678  23.196  26.268  1.00  0.00     0.010 A 
ATOM     32  C   UNL A   1      42.586  23.418  27.651  1.00  0.00    -0.014 A 
BRANCH  32  33
ATOM     33  C   UNL A   1      42.877  24.738  28.265  1.00  0.00     0.031 A 
ATOM     34  C   UNL A   1      44.292  25.171  28.544  1.00  0.00     0.074 A 
ATOM     35  C   UNL A   1      41.856  25.589  28.483  1.00  0.00     0.049 A 
ATOM     36  N   UNL A   1      44.727  26.322  28.996  1.00  0.00    -0.248 NA
ATOM     37  C   UNL A   1      45.357  24.189  28.293  1.00  0.00     0.031 C 
ATOM     38  C   UNL A   1      40.442  25.283  28.252  1.00  0.00     0.029 A 
ATOM     39  N   UNL A   1      41.850  26.894  28.900  1.00  0.00    -0.354 N 
ATOM     40  C   UNL A   1      46.107  26.194  29.103  1.00  0.00     0.074 A 
ATOM     41  C   UNL A   1      46.437  24.845  28.695  1.00  0.00     0.031 C 
ATOM     42  C   UNL A   1      39.714  26.390  28.453  1.00  0.00     0.029 A 
ATOM     43  C   UNL A   1      40.601  27.464  28.887  1.00  0.00     0.049 A 
ATOM     44  H   UNL A   1      42.662  27.376  29.180  1.00  0.00     0.167 HD
ATOM     45  C   UNL A   1      47.017  27.118  29.497  1.00  0.00     0.037 A 
ATOM     46  C   UNL A   1      40.210  28.715  29.190  1.00  0.00     0.037 A 
ATOM     47  C   UNL A   1      46.690  28.468  29.882  1.00  0.00     0.049 A 
ATOM     48  C   UNL A   1      41.239  29.716  29.622  1.00  0.00     0.074 A 
ATOM     49  C   UNL A   1      47.542  29.483  30.289  1.00  0.00     0.029 A 
ATOM     50  N   UNL A   1      45.408  28.995  29.901  1.00  0.00    -0.354 N 
ATOM     51  N   UNL A   1      42.538  29.577  29.719  1.00  0.00    -0.248 NA
ATOM     52  C   UNL A   1      40.742  31.046  29.996  1.00  0.00     0.031 C 
ATOM     53  C   UNL A   1      46.770  30.613  30.583  1.00  0.00     0.029 A 
ATOM     54  C   UNL A   1      45.443  30.316  30.322  1.00  0.00     0.049 A 
ATOM     55  H   UNL A   1      44.592  28.503  29.653  1.00  0.00     0.167 HD
ATOM     56  C   UNL A   1      43.016  30.803  30.156  1.00  0.00     0.074 A 
ATOM     57  C   UNL A   1      41.870  31.682  30.275  1.00  0.00     0.031 C 
ATOM     58  C   UNL A   1      44.290  31.170  30.442  1.00  0.00     0.037 A 
BRANCH  45  59
ATOM     59  C   UNL A   1      48.457  26.693  29.547  1.00  0.00     0.057 A 
ATOM     60  C   UNL A   1      48.987  26.101  30.701  1.00  0.00     0.134 A 
ATOM     61  C   UNL A   1      49.325  26.889  28.465  1.00  0.00     0.134 A 
ATOM     62  F   UNL A   1      48.211  25.890  31.775  1.00  0.00    -0.206 F 
ATOM     63  C   UNL A   1      50.327  25.719  30.776  1.00  0.00     0.040 A 
ATOM     64  C   UNL A   1      50.662  26.490  28.520  1.00  0.00     0.040 A 
ATOM     65  F   UNL A   1      48.878  27.436  27.325  1.00  0.00    -0.206 F 
ATOM     66  C   UNL A   1      51.168  25.907  29.682  1.00  0.00     0.006 A 
ENDBRANCH  45  59
BRANCH  46  67
ATOM     67  C   UNL A   1      38.778  29.089  29.086  1.00  0.00     0.057 A 
ATOM     68  C   UNL A   1      37.929  29.030  30.198  1.00  0.00     0.134 A 
ATOM     69  C   UNL A   1      38.229  29.516  27.873  1.00  0.00     0.134 A 
ATOM     70  F   UNL A   1      38.395  28.620  31.386  1.00  0.00    -0.206 F 
ATOM     71  C   UNL A   1      36.581  29.373  30.103  1.00  0.00     0.040 A 
ATOM     72  C   UNL A   1      36.889  29.889  27.771  1.00  0.00     0.040 A 
ATOM     73  F   UNL A   1      38.999  29.610  26.779  1.00  0.00    -0.206 F 
ATOM     74  C   UNL A   1      36.059  29.813  28.887  1.00  0.00     0.006 A 
ENDBRANCH  46  67
BRANCH  58  75
ATOM     75  C   UNL A   1      44.491  32.586  30.894  1.00  0.00     0.057 A 
ATOM     76  C   UNL A   1      44.468  32.911  32.254  1.00  0.00     0.134 A 
ATOM     77  C   UNL A   1      44.733  33.621  29.982  1.00  0.00     0.134 A 
ATOM     78  F   UNL A   1      44.236  31.966  33.178  1.00  0.00    -0.206 F 
ATOM     79  C   UNL A   1      44.691  34.216  32.694  1.00  0.00     0.040 A 
ATOM     80  C   UNL A   1      44.984  34.925  30.411  1.00  0.00     0.040 A 
ATOM     81  F   UNL A   1      44.787  33.369  28.665  1.00  0.00    -0.206 F 
ATOM     82  C   UNL A   1      44.961  35.226  31.772  1.00  0.00     0.006 A 
ENDBRANCH  58  75
ENDBRANCH  32  33
ENDBRANCH  24  27
ENDBRANCH  22  23
ENDBRANCH   1  22
TORSDOF 13
ENDMDL
