MODEL 1
REMARK VINA RESULT:     -10.9      0.000      0.000
REMARK SMILES C[C@H](C(=O)NCCCCNC(=O)c1ccc(-c2c3nc(c(-c4c(F)cccc4F)c4ccc([nH]4)c(-c4c(F)cccc4F)c4nc(c(-c5c(F)cccc5F)c5ccc2[nH]5)C=C4)C=C3)cc1)S(=O)(=O)NC[C@@H]1C[N@@H+](C)CCO1
REMARK SMILES IDX 6 1 5 2 3 3 4 4 2 6 1 7 67 8 68 9 69 10 70 11 71 13 72 14
REMARK SMILES IDX 73 15 78 16 74 17 77 18 75 19 76 20 7 22 8 23 9 24 10 25
REMARK SMILES IDX 11 26 12 28 13 29 14 30 66 31 15 32 65 33 16 34 17 35 18 36
REMARK SMILES IDX 59 37 19 38 64 39 58 40 60 41 20 42 63 43 57 44 56 45 21 47
REMARK SMILES IDX 47 48 30 49 46 50 31 51 34 52 45 53 61 54 32 55 33 56 44 58
REMARK SMILES IDX 62 59 35 60 22 61 23 62 28 63 24 64 25 65 27 66 29 67 26 68
REMARK SMILES IDX 48 69 49 70 54 71 50 72 51 73 53 74 55 75 52 76 36 77 37 78
REMARK SMILES IDX 42 79 38 80 39 81 41 82 43 83 40 84
REMARK H PARENT 5 5 70 12 74 21 10 27 60 46 34 57
REMARK Flexibility Score: inf
ROOT
ATOM      1  C   UNL A   1      34.632  32.971  29.049  1.00  0.00     0.116 C 
ENDROOT
BRANCH   1   2
ATOM      2  N   UNL A   1      34.017  31.373  28.009  1.00  0.00    -0.355 N 
ATOM      3  C   UNL A   1      33.294  30.489  27.240  1.00  0.00     0.239 C 
ATOM      4  O   UNL A   1      34.021  29.525  26.916  1.00  0.00    -0.274 OA
ATOM      5  H   UNL A   1      34.810  30.808  28.152  1.00  0.00     0.163 HD
BRANCH   3   6
ATOM      6  C   UNL A   1      31.845  30.447  26.821  1.00  0.00     0.209 C 
ATOM      7  C   UNL A   1      31.409  31.902  26.516  1.00  0.00     0.037 C 
BRANCH   6   8
ATOM      8  S   UNL A   1      31.552  29.524  25.252  1.00  0.00     0.223 S 
ATOM      9  O   UNL A   1      31.301  28.137  25.601  1.00  0.00    -0.212 OA
ATOM     10  O   UNL A   1      30.583  30.212  24.427  1.00  0.00    -0.212 OA
BRANCH   8  11
ATOM     11  N   UNL A   1      32.930  29.448  24.327  1.00  0.00    -0.212 NA
ATOM     12  H   UNL A   1      33.560  28.814  24.819  1.00  0.00     0.141 HD
BRANCH  11  13
ATOM     13  C   UNL A   1      32.955  29.021  22.928  1.00  0.00     0.136 C 
BRANCH  13  14
ATOM     14  C   UNL A   1      33.411  27.522  22.886  1.00  0.00     0.188 C 
ATOM     15  C   UNL A   1      31.880  26.320  22.529  1.00  0.00     0.295 C 
ATOM     16  O   UNL A   1      34.441  27.074  24.385  1.00  0.00    -0.365 OA
ATOM     17  N   UNL A   1      31.130  25.314  23.854  1.00  0.00    -0.333 N 
ATOM     18  C   UNL A   1      33.791  25.936  25.727  1.00  0.00     0.222 C 
ATOM     19  C   UNL A   1      30.461  24.124  23.344  1.00  0.00     0.332 C 
ATOM     20  C   UNL A   1      32.152  24.965  25.321  1.00  0.00     0.290 C 
ATOM     21  H   UNL A   1      30.421  25.944  24.230  1.00  0.00     0.348 HD
ENDBRANCH  13  14
ENDBRANCH  11  13
ENDBRANCH   8  11
ENDBRANCH   6   8
ENDBRANCH   3   6
ENDBRANCH   1   2
BRANCH   1  22
ATOM     22  C   UNL A   1      35.044  34.488  28.577  1.00  0.00     0.023 C 
BRANCH  22  23
ATOM     23  C   UNL A   1      33.993  35.543  28.914  1.00  0.00     0.023 C 
BRANCH  23  24
ATOM     24  C   UNL A   1      32.943  34.993  29.863  1.00  0.00     0.116 C 
BRANCH  24  25
ATOM     25  N   UNL A   1      32.579  35.989  30.874  1.00  0.00    -0.352 N 
ATOM     26  C   UNL A   1      32.835  35.931  32.221  1.00  0.00     0.251 C 
ATOM     27  H   UNL A   1      32.098  36.786  30.552  1.00  0.00     0.163 HD
ATOM     28  O   UNL A   1      32.200  36.557  33.038  1.00  0.00    -0.269 OA
BRANCH  26  29
ATOM     29  C   UNL A   1      33.990  35.105  32.584  1.00  0.00     0.039 A 
ATOM     30  C   UNL A   1      33.824  33.783  32.978  1.00  0.00     0.014 A 
ATOM     31  C   UNL A   1      35.251  35.674  32.373  1.00  0.00     0.014 A 
ATOM     32  C   UNL A   1      34.967  33.016  33.172  1.00  0.00     0.010 A 
ATOM     33  C   UNL A   1      36.360  34.869  32.406  1.00  0.00     0.010 A 
ATOM     34  C   UNL A   1      36.232  33.562  32.884  1.00  0.00    -0.014 A 
BRANCH  34  35
ATOM     35  C   UNL A   1      37.472  32.839  33.204  1.00  0.00     0.031 A 
ATOM     36  C   UNL A   1      38.164  33.155  34.502  1.00  0.00     0.074 A 
ATOM     37  C   UNL A   1      37.980  31.972  32.313  1.00  0.00     0.049 A 
ATOM     38  N   UNL A   1      39.287  32.684  34.974  1.00  0.00    -0.248 NA
ATOM     39  C   UNL A   1      37.545  34.184  35.360  1.00  0.00     0.031 C 
ATOM     40  C   UNL A   1      37.413  31.672  30.997  1.00  0.00     0.029 A 
ATOM     41  N   UNL A   1      39.087  31.176  32.392  1.00  0.00    -0.354 N 
ATOM     42  C   UNL A   1      39.514  33.384  36.153  1.00  0.00     0.074 A 
ATOM     43  C   UNL A   1      38.479  34.380  36.274  1.00  0.00     0.031 C 
ATOM     44  C   UNL A   1      38.143  30.706  30.416  1.00  0.00     0.029 A 
ATOM     45  C   UNL A   1      39.241  30.349  31.308  1.00  0.00     0.049 A 
ATOM     46  H   UNL A   1      39.714  31.194  33.151  1.00  0.00     0.167 HD
ATOM     47  C   UNL A   1      40.473  33.175  37.081  1.00  0.00     0.037 A 
ATOM     48  C   UNL A   1      40.162  29.395  31.088  1.00  0.00     0.037 A 
ATOM     49  C   UNL A   1      41.448  32.130  36.966  1.00  0.00     0.049 A 
ATOM     50  C   UNL A   1      41.191  29.146  32.157  1.00  0.00     0.074 A 
ATOM     51  C   UNL A   1      42.423  31.753  37.868  1.00  0.00     0.029 A 
ATOM     52  N   UNL A   1      41.556  31.284  35.870  1.00  0.00    -0.354 N 
ATOM     53  N   UNL A   1      41.349  29.750  33.311  1.00  0.00    -0.248 NA
ATOM     54  C   UNL A   1      42.157  28.073  31.900  1.00  0.00     0.031 C 
ATOM     55  C   UNL A   1      43.154  30.706  37.295  1.00  0.00     0.029 A 
ATOM     56  C   UNL A   1      42.596  30.395  36.063  1.00  0.00     0.049 A 
ATOM     57  H   UNL A   1      40.978  31.313  35.074  1.00  0.00     0.167 HD
ATOM     58  C   UNL A   1      42.411  29.110  33.934  1.00  0.00     0.074 A 
ATOM     59  C   UNL A   1      42.845  28.059  33.032  1.00  0.00     0.031 C 
ATOM     60  C   UNL A   1      42.984  29.359  35.139  1.00  0.00     0.037 A 
BRANCH  47  61
ATOM     61  C   UNL A   1      40.488  34.081  38.279  1.00  0.00     0.057 A 
ATOM     62  C   UNL A   1      39.734  33.811  39.431  1.00  0.00     0.134 A 
ATOM     63  C   UNL A   1      41.253  35.253  38.274  1.00  0.00     0.134 A 
ATOM     64  F   UNL A   1      38.957  32.718  39.495  1.00  0.00    -0.206 F 
ATOM     65  C   UNL A   1      39.708  34.692  40.514  1.00  0.00     0.040 A 
ATOM     66  C   UNL A   1      41.264  36.124  39.366  1.00  0.00     0.040 A 
ATOM     67  F   UNL A   1      41.995  35.579  37.205  1.00  0.00    -0.206 F 
ATOM     68  C   UNL A   1      40.482  35.849  40.485  1.00  0.00     0.006 A 
ENDBRANCH  47  61
BRANCH  48  69
ATOM     69  C   UNL A   1      40.102  28.567  29.858  1.00  0.00     0.057 A 
ATOM     70  C   UNL A   1      39.349  27.388  29.821  1.00  0.00     0.134 A 
ATOM     71  C   UNL A   1      40.780  28.935  28.690  1.00  0.00     0.134 A 
ATOM     72  F   UNL A   1      38.680  26.981  30.910  1.00  0.00    -0.206 F 
ATOM     73  C   UNL A   1      39.295  26.588  28.680  1.00  0.00     0.040 A 
ATOM     74  C   UNL A   1      40.714  28.158  27.532  1.00  0.00     0.040 A 
ATOM     75  F   UNL A   1      41.503  30.064  28.652  1.00  0.00    -0.206 F 
ATOM     76  C   UNL A   1      39.977  26.975  27.527  1.00  0.00     0.006 A 
ENDBRANCH  48  69
BRANCH  60  77
ATOM     77  C   UNL A   1      44.103  28.453  35.556  1.00  0.00     0.057 A 
ATOM     78  C   UNL A   1      45.436  28.723  35.226  1.00  0.00     0.134 A 
ATOM     79  C   UNL A   1      43.840  27.316  36.331  1.00  0.00     0.134 A 
ATOM     80  F   UNL A   1      45.748  29.792  34.478  1.00  0.00    -0.206 F 
ATOM     81  C   UNL A   1      46.467  27.873  35.622  1.00  0.00     0.040 A 
ATOM     82  C   UNL A   1      44.867  26.478  36.762  1.00  0.00     0.040 A 
ATOM     83  F   UNL A   1      42.584  27.012  36.695  1.00  0.00    -0.206 F 
ATOM     84  C   UNL A   1      46.184  26.751  36.399  1.00  0.00     0.006 A 
ENDBRANCH  60  77
ENDBRANCH  34  35
ENDBRANCH  26  29
ENDBRANCH  24  25
ENDBRANCH  23  24
ENDBRANCH  22  23
ENDBRANCH   1  22
TORSDOF 15
ENDMDL
MODEL 2
REMARK VINA RESULT:     -10.9      2.072      3.316
REMARK SMILES C[C@H](C(=O)NCCCCNC(=O)c1ccc(-c2c3nc(c(-c4c(F)cccc4F)c4ccc([nH]4)c(-c4c(F)cccc4F)c4nc(c(-c5c(F)cccc5F)c5ccc2[nH]5)C=C4)C=C3)cc1)S(=O)(=O)NC[C@@H]1C[N@@H+](C)CCO1
REMARK SMILES IDX 6 1 5 2 3 3 4 4 2 6 1 7 67 8 68 9 69 10 70 11 71 13 72 14
REMARK SMILES IDX 73 15 78 16 74 17 77 18 75 19 76 20 7 22 8 23 9 24 10 25
REMARK SMILES IDX 11 26 12 28 13 29 14 30 66 31 15 32 65 33 16 34 17 35 18 36
REMARK SMILES IDX 59 37 19 38 64 39 58 40 60 41 20 42 63 43 57 44 56 45 21 47
REMARK SMILES IDX 47 48 30 49 46 50 31 51 34 52 45 53 61 54 32 55 33 56 44 58
REMARK SMILES IDX 62 59 35 60 22 61 23 62 28 63 24 64 25 65 27 66 29 67 26 68
REMARK SMILES IDX 48 69 49 70 54 71 50 72 51 73 53 74 55 75 52 76 36 77 37 78
REMARK SMILES IDX 42 79 38 80 39 81 41 82 43 83 40 84
REMARK H PARENT 5 5 70 12 74 21 10 27 60 46 34 57
REMARK Flexibility Score: inf
ROOT
ATOM      1  C   UNL A   1      31.842  29.414  26.829  1.00  0.00     0.116 C 
ENDROOT
BRANCH   1   2
ATOM      2  N   UNL A   1      31.545  27.451  26.556  1.00  0.00    -0.355 N 
ATOM      3  C   UNL A   1      31.367  26.200  26.008  1.00  0.00     0.239 C 
ATOM      4  O   UNL A   1      31.414  25.338  26.912  1.00  0.00    -0.274 OA
ATOM      5  H   UNL A   1      31.474  27.194  27.503  1.00  0.00     0.163 HD
BRANCH   3   6
ATOM      6  C   UNL A   1      31.060  25.732  24.607  1.00  0.00     0.209 C 
ATOM      7  C   UNL A   1      29.631  26.219  24.259  1.00  0.00     0.037 C 
BRANCH   6   8
ATOM      8  S   UNL A   1      32.144  26.481  23.319  1.00  0.00     0.223 S 
ATOM      9  O   UNL A   1      31.324  26.731  22.146  1.00  0.00    -0.212 OA
ATOM     10  O   UNL A   1      32.910  27.578  23.868  1.00  0.00    -0.212 OA
BRANCH   8  11
ATOM     11  N   UNL A   1      33.278  25.394  22.773  1.00  0.00    -0.212 NA
ATOM     12  H   UNL A   1      33.829  25.134  23.592  1.00  0.00     0.141 HD
BRANCH  11  13
ATOM     13  C   UNL A   1      32.952  24.137  22.102  1.00  0.00     0.136 C 
BRANCH  13  14
ATOM     14  C   UNL A   1      33.698  22.979  22.849  1.00  0.00     0.188 C 
ATOM     15  C   UNL A   1      32.815  22.553  24.569  1.00  0.00     0.295 C 
ATOM     16  O   UNL A   1      35.539  23.307  22.960  1.00  0.00    -0.365 OA
ATOM     17  N   UNL A   1      33.530  23.084  26.162  1.00  0.00    -0.333 N 
ATOM     18  C   UNL A   1      36.373  23.726  24.588  1.00  0.00     0.222 C 
ATOM     19  C   UNL A   1      33.113  22.236  27.272  1.00  0.00     0.332 C 
ATOM     20  C   UNL A   1      35.312  23.456  26.199  1.00  0.00     0.290 C 
ATOM     21  H   UNL A   1      33.113  24.007  26.290  1.00  0.00     0.348 HD
ENDBRANCH  13  14
ENDBRANCH  11  13
ENDBRANCH   8  11
ENDBRANCH   6   8
ENDBRANCH   3   6
ENDBRANCH   1   2
BRANCH   1  22
ATOM     22  C   UNL A   1      31.551  30.706  25.862  1.00  0.00     0.023 C 
BRANCH  22  23
ATOM     23  C   UNL A   1      31.321  32.007  26.628  1.00  0.00     0.023 C 
BRANCH  23  24
ATOM     24  C   UNL A   1      32.621  32.555  27.188  1.00  0.00     0.116 C 
BRANCH  24  25
ATOM     25  N   UNL A   1      32.477  33.965  27.564  1.00  0.00    -0.352 N 
ATOM     26  C   UNL A   1      33.089  34.609  28.610  1.00  0.00     0.251 C 
ATOM     27  H   UNL A   1      31.875  34.508  27.005  1.00  0.00     0.163 HD
ATOM     28  O   UNL A   1      32.658  35.627  29.097  1.00  0.00    -0.269 OA
BRANCH  26  29
ATOM     29  C   UNL A   1      34.352  34.002  29.039  1.00  0.00     0.039 A 
ATOM     30  C   UNL A   1      35.568  34.472  28.558  1.00  0.00     0.014 A 
ATOM     31  C   UNL A   1      34.266  33.037  30.050  1.00  0.00     0.014 A 
ATOM     32  C   UNL A   1      36.730  33.948  29.111  1.00  0.00     0.010 A 
ATOM     33  C   UNL A   1      35.409  32.649  30.700  1.00  0.00     0.010 A 
ATOM     34  C   UNL A   1      36.647  33.038  30.181  1.00  0.00    -0.014 A 
BRANCH  34  35
ATOM     35  C   UNL A   1      37.839  32.353  30.704  1.00  0.00     0.031 A 
ATOM     36  C   UNL A   1      38.434  32.848  31.994  1.00  0.00     0.074 A 
ATOM     37  C   UNL A   1      38.393  31.356  29.996  1.00  0.00     0.049 A 
ATOM     38  N   UNL A   1      39.502  32.436  32.622  1.00  0.00    -0.248 NA
ATOM     39  C   UNL A   1      37.776  34.002  32.638  1.00  0.00     0.031 C 
ATOM     40  C   UNL A   1      37.924  30.872  28.695  1.00  0.00     0.029 A 
ATOM     41  N   UNL A   1      39.469  30.565  30.281  1.00  0.00    -0.354 N 
ATOM     42  C   UNL A   1      39.653  33.300  33.700  1.00  0.00     0.074 A 
ATOM     43  C   UNL A   1      38.638  34.318  33.587  1.00  0.00     0.031 C 
ATOM     44  C   UNL A   1      38.673  29.820  28.326  1.00  0.00     0.029 A 
ATOM     45  C   UNL A   1      39.686  29.583  29.347  1.00  0.00     0.049 A 
ATOM     46  H   UNL A   1      40.033  30.687  31.079  1.00  0.00     0.167 HD
ATOM     47  C   UNL A   1      40.529  33.218  34.725  1.00  0.00     0.037 A 
ATOM     48  C   UNL A   1      40.596  28.594  29.347  1.00  0.00     0.037 A 
ATOM     49  C   UNL A   1      41.482  32.153  34.845  1.00  0.00     0.049 A 
ATOM     50  C   UNL A   1      41.530  28.493  30.522  1.00  0.00     0.074 A 
ATOM     51  C   UNL A   1      42.372  31.900  35.871  1.00  0.00     0.029 A 
ATOM     52  N   UNL A   1      41.655  31.152  33.898  1.00  0.00    -0.354 N 
ATOM     53  N   UNL A   1      41.612  29.259  31.585  1.00  0.00    -0.248 NA
ATOM     54  C   UNL A   1      42.485  27.379  30.506  1.00  0.00     0.031 C 
ATOM     55  C   UNL A   1      43.118  30.770  35.520  1.00  0.00     0.029 A 
ATOM     56  C   UNL A   1      42.652  30.287  34.305  1.00  0.00     0.049 A 
ATOM     57  H   UNL A   1      41.143  31.071  33.062  1.00  0.00     0.167 HD
ATOM     58  C   UNL A   1      42.604  28.703  32.380  1.00  0.00     0.074 A 
ATOM     59  C   UNL A   1      43.080  27.524  31.681  1.00  0.00     0.031 C 
ATOM     60  C   UNL A   1      43.085  29.120  33.579  1.00  0.00     0.037 A 
BRANCH  47  61
ATOM     61  C   UNL A   1      40.473  34.291  35.774  1.00  0.00     0.057 A 
ATOM     62  C   UNL A   1      39.655  34.186  36.909  1.00  0.00     0.134 A 
ATOM     63  C   UNL A   1      41.232  35.459  35.637  1.00  0.00     0.134 A 
ATOM     64  F   UNL A   1      38.879  33.106  37.092  1.00  0.00    -0.206 F 
ATOM     65  C   UNL A   1      39.565  35.217  37.846  1.00  0.00     0.040 A 
ATOM     66  C   UNL A   1      41.179  36.482  36.587  1.00  0.00     0.040 A 
ATOM     67  F   UNL A   1      42.034  35.631  34.576  1.00  0.00    -0.206 F 
ATOM     68  C   UNL A   1      40.334  36.367  37.689  1.00  0.00     0.006 A 
ENDBRANCH  47  61
BRANCH  48  69
ATOM     69  C   UNL A   1      40.613  27.595  28.251  1.00  0.00     0.057 A 
ATOM     70  C   UNL A   1      41.342  27.825  27.079  1.00  0.00     0.134 A 
ATOM     71  C   UNL A   1      39.917  26.384  28.348  1.00  0.00     0.134 A 
ATOM     72  F   UNL A   1      42.027  28.969  26.925  1.00  0.00    -0.206 F 
ATOM     73  C   UNL A   1      41.356  26.905  26.030  1.00  0.00     0.040 A 
ATOM     74  C   UNL A   1      39.942  25.442  27.318  1.00  0.00     0.040 A 
ATOM     75  F   UNL A   1      39.216  26.092  29.453  1.00  0.00    -0.206 F 
ATOM     76  C   UNL A   1      40.656  25.706  26.150  1.00  0.00     0.006 A 
ENDBRANCH  48  69
BRANCH  60  77
ATOM     77  C   UNL A   1      44.143  28.271  34.215  1.00  0.00     0.057 A 
ATOM     78  C   UNL A   1      45.507  28.525  34.031  1.00  0.00     0.134 A 
ATOM     79  C   UNL A   1      43.785  27.206  35.053  1.00  0.00     0.134 A 
ATOM     80  F   UNL A   1      45.910  29.525  33.233  1.00  0.00    -0.206 F 
ATOM     81  C   UNL A   1      46.481  27.728  34.631  1.00  0.00     0.040 A 
ATOM     82  C   UNL A   1      44.750  26.423  35.685  1.00  0.00     0.040 A 
ATOM     83  F   UNL A   1      42.494  26.921  35.282  1.00  0.00    -0.206 F 
ATOM     84  C   UNL A   1      46.102  26.678  35.467  1.00  0.00     0.006 A 
ENDBRANCH  60  77
ENDBRANCH  34  35
ENDBRANCH  26  29
ENDBRANCH  24  25
ENDBRANCH  23  24
ENDBRANCH  22  23
ENDBRANCH   1  22
TORSDOF 15
ENDMDL
MODEL 3
REMARK VINA RESULT:     -10.8      5.369     10.516
REMARK SMILES C[C@H](C(=O)NCCCCNC(=O)c1ccc(-c2c3nc(c(-c4c(F)cccc4F)c4ccc([nH]4)c(-c4c(F)cccc4F)c4nc(c(-c5c(F)cccc5F)c5ccc2[nH]5)C=C4)C=C3)cc1)S(=O)(=O)NC[C@@H]1C[N@@H+](C)CCO1
REMARK SMILES IDX 6 1 5 2 3 3 4 4 2 6 1 7 67 8 68 9 69 10 70 11 71 13 72 14
REMARK SMILES IDX 73 15 78 16 74 17 77 18 75 19 76 20 7 22 8 23 9 24 10 25
REMARK SMILES IDX 11 26 12 28 13 29 14 30 66 31 15 32 65 33 16 34 17 35 18 36
REMARK SMILES IDX 59 37 19 38 64 39 58 40 60 41 20 42 63 43 57 44 56 45 21 47
REMARK SMILES IDX 47 48 30 49 46 50 31 51 34 52 45 53 61 54 32 55 33 56 44 58
REMARK SMILES IDX 62 59 35 60 22 61 23 62 28 63 24 64 25 65 27 66 29 67 26 68
REMARK SMILES IDX 48 69 49 70 54 71 50 72 51 73 53 74 55 75 52 76 36 77 37 78
REMARK SMILES IDX 42 79 38 80 39 81 41 82 43 83 40 84
REMARK H PARENT 5 5 70 12 74 21 10 27 60 46 34 57
REMARK Flexibility Score: inf
ROOT
ATOM      1  C   UNL A   1      36.020  21.013  25.505  1.00  0.00     0.116 C 
ENDROOT
BRANCH   1   2
ATOM      2  N   UNL A   1      34.084  20.677  25.112  1.00  0.00    -0.355 N 
ATOM      3  C   UNL A   1      32.771  20.797  24.715  1.00  0.00     0.239 C 
ATOM      4  O   UNL A   1      32.218  19.677  24.755  1.00  0.00    -0.274 OA
ATOM      5  H   UNL A   1      34.039  19.752  25.444  1.00  0.00     0.163 HD
BRANCH   3   6
ATOM      6  C   UNL A   1      31.919  21.987  24.347  1.00  0.00     0.209 C 
ATOM      7  C   UNL A   1      31.214  22.469  25.639  1.00  0.00     0.037 C 
BRANCH   6   8
ATOM      8  S   UNL A   1      32.887  23.442  23.762  1.00  0.00     0.223 S 
ATOM      9  O   UNL A   1      32.880  24.430  24.826  1.00  0.00    -0.212 OA
ATOM     10  O   UNL A   1      34.163  23.025  23.220  1.00  0.00    -0.212 OA
BRANCH   8  11
ATOM     11  N   UNL A   1      32.120  24.217  22.508  1.00  0.00    -0.212 NA
ATOM     12  H   UNL A   1      31.348  24.732  22.931  1.00  0.00     0.141 HD
BRANCH  11  13
ATOM     13  C   UNL A   1      32.776  25.162  21.605  1.00  0.00     0.136 C 
BRANCH  13  14
ATOM     14  C   UNL A   1      32.346  26.611  22.021  1.00  0.00     0.188 C 
ATOM     15  C   UNL A   1      33.607  27.378  23.339  1.00  0.00     0.295 C 
ATOM     16  O   UNL A   1      30.541  26.676  22.517  1.00  0.00    -0.365 OA
ATOM     17  N   UNL A   1      33.175  27.507  25.108  1.00  0.00    -0.333 N 
ATOM     18  C   UNL A   1      30.012  26.941  24.297  1.00  0.00     0.222 C 
ATOM     19  C   UNL A   1      33.910  28.565  25.788  1.00  0.00     0.332 C 
ATOM     20  C   UNL A   1      31.405  27.498  25.540  1.00  0.00     0.290 C 
ATOM     21  H   UNL A   1      33.492  26.609  25.475  1.00  0.00     0.348 HD
ENDBRANCH  13  14
ENDBRANCH  11  13
ENDBRANCH   8  11
ENDBRANCH   6   8
ENDBRANCH   3   6
ENDBRANCH   1   2
BRANCH   1  22
ATOM     22  C   UNL A   1      37.356  20.930  24.558  1.00  0.00     0.023 C 
BRANCH  22  23
ATOM     23  C   UNL A   1      38.297  19.784  24.922  1.00  0.00     0.023 C 
BRANCH  23  24
ATOM     24  C   UNL A   1      39.295  20.206  25.986  1.00  0.00     0.116 C 
BRANCH  24  25
ATOM     25  N   UNL A   1      40.437  19.288  26.027  1.00  0.00    -0.352 N 
ATOM     26  C   UNL A   1      41.768  19.620  25.979  1.00  0.00     0.251 C 
ATOM     27  H   UNL A   1      40.225  18.328  26.096  1.00  0.00     0.163 HD
ATOM     28  O   UNL A   1      42.626  18.842  25.635  1.00  0.00    -0.269 OA
BRANCH  26  29
ATOM     29  C   UNL A   1      42.072  20.973  26.451  1.00  0.00     0.039 A 
ATOM     30  C   UNL A   1      42.326  22.001  25.551  1.00  0.00     0.014 A 
ATOM     31  C   UNL A   1      41.951  21.193  27.827  1.00  0.00     0.014 A 
ATOM     32  C   UNL A   1      42.468  23.287  26.058  1.00  0.00     0.010 A 
ATOM     33  C   UNL A   1      41.928  22.482  28.298  1.00  0.00     0.010 A 
ATOM     34  C   UNL A   1      42.268  23.523  27.430  1.00  0.00    -0.014 A 
BRANCH  34  35
ATOM     35  C   UNL A   1      42.542  24.836  28.034  1.00  0.00     0.031 A 
ATOM     36  C   UNL A   1      43.961  25.163  28.411  1.00  0.00     0.074 A 
ATOM     37  C   UNL A   1      41.523  25.674  28.284  1.00  0.00     0.049 A 
ATOM     38  N   UNL A   1      44.435  26.230  28.994  1.00  0.00    -0.248 NA
ATOM     39  C   UNL A   1      44.980  24.125  28.154  1.00  0.00     0.031 C 
ATOM     40  C   UNL A   1      40.108  25.398  28.023  1.00  0.00     0.029 A 
ATOM     41  N   UNL A   1      41.529  26.936  28.806  1.00  0.00    -0.354 N 
ATOM     42  C   UNL A   1      45.785  25.971  29.199  1.00  0.00     0.074 A 
ATOM     43  C   UNL A   1      46.036  24.615  28.779  1.00  0.00     0.031 C 
ATOM     44  C   UNL A   1      39.387  26.489  28.328  1.00  0.00     0.029 A 
ATOM     45  C   UNL A   1      40.287  27.520  28.832  1.00  0.00     0.049 A 
ATOM     46  H   UNL A   1      42.343  27.383  29.132  1.00  0.00     0.167 HD
ATOM     47  C   UNL A   1      46.743  26.811  29.649  1.00  0.00     0.037 A 
ATOM     48  C   UNL A   1      39.938  28.764  29.204  1.00  0.00     0.037 A 
ATOM     49  C   UNL A   1      46.474  28.177  29.993  1.00  0.00     0.049 A 
ATOM     50  C   UNL A   1      41.027  29.698  29.654  1.00  0.00     0.074 A 
ATOM     51  C   UNL A   1      47.361  29.162  30.382  1.00  0.00     0.029 A 
ATOM     52  N   UNL A   1      45.209  28.751  29.976  1.00  0.00    -0.354 N 
ATOM     53  N   UNL A   1      42.317  29.478  29.762  1.00  0.00    -0.248 NA
ATOM     54  C   UNL A   1      40.615  31.059  30.017  1.00  0.00     0.031 C 
ATOM     55  C   UNL A   1      46.623  30.321  30.646  1.00  0.00     0.029 A 
ATOM     56  C   UNL A   1      45.287  30.073  30.366  1.00  0.00     0.049 A 
ATOM     57  H   UNL A   1      44.381  28.284  29.722  1.00  0.00     0.167 HD
ATOM     58  C   UNL A   1      42.876  30.680  30.174  1.00  0.00     0.074 A 
ATOM     59  C   UNL A   1      41.783  31.628  30.277  1.00  0.00     0.031 C 
ATOM     60  C   UNL A   1      44.171  30.982  30.444  1.00  0.00     0.037 A 
BRANCH  47  61
ATOM     61  C   UNL A   1      48.138  26.271  29.770  1.00  0.00     0.057 A 
ATOM     62  C   UNL A   1      49.043  26.286  28.698  1.00  0.00     0.134 A 
ATOM     63  C   UNL A   1      48.580  25.707  30.972  1.00  0.00     0.134 A 
ATOM     64  F   UNL A   1      48.678  26.788  27.507  1.00  0.00    -0.206 F 
ATOM     65  C   UNL A   1      50.317  25.727  28.804  1.00  0.00     0.040 A 
ATOM     66  C   UNL A   1      49.866  25.177  31.103  1.00  0.00     0.040 A 
ATOM     67  F   UNL A   1      47.769  25.654  32.039  1.00  0.00    -0.206 F 
ATOM     68  C   UNL A   1      50.733  25.176  30.014  1.00  0.00     0.006 A 
ENDBRANCH  47  61
BRANCH  48  69
ATOM     69  C   UNL A   1      38.528  29.209  29.091  1.00  0.00     0.057 A 
ATOM     70  C   UNL A   1      37.674  29.179  30.200  1.00  0.00     0.134 A 
ATOM     71  C   UNL A   1      38.000  29.687  27.886  1.00  0.00     0.134 A 
ATOM     72  F   UNL A   1      38.120  28.729  31.383  1.00  0.00    -0.206 F 
ATOM     73  C   UNL A   1      36.340  29.578  30.110  1.00  0.00     0.040 A 
ATOM     74  C   UNL A   1      36.674  30.113  27.786  1.00  0.00     0.040 A 
ATOM     75  F   UNL A   1      38.770  29.761  26.791  1.00  0.00    -0.206 F 
ATOM     76  C   UNL A   1      35.837  30.050  28.899  1.00  0.00     0.006 A 
ENDBRANCH  48  69
BRANCH  60  77
ATOM     77  C   UNL A   1      44.468  32.399  30.832  1.00  0.00     0.057 A 
ATOM     78  C   UNL A   1      44.490  32.812  32.169  1.00  0.00     0.134 A 
ATOM     79  C   UNL A   1      44.772  33.352  29.850  1.00  0.00     0.134 A 
ATOM     80  F   UNL A   1      44.198  31.947  33.152  1.00  0.00    -0.206 F 
ATOM     81  C   UNL A   1      44.769  34.132  32.516  1.00  0.00     0.040 A 
ATOM     82  C   UNL A   1      45.086  34.667  30.187  1.00  0.00     0.040 A 
ATOM     83  F   UNL A   1      44.783  33.014  28.551  1.00  0.00    -0.206 F 
ATOM     84  C   UNL A   1      45.076  35.062  31.523  1.00  0.00     0.006 A 
ENDBRANCH  60  77
ENDBRANCH  34  35
ENDBRANCH  26  29
ENDBRANCH  24  25
ENDBRANCH  23  24
ENDBRANCH  22  23
ENDBRANCH   1  22
TORSDOF 15
ENDMDL
