MODEL 1
REMARK VINA RESULT:     -14.1      0.000      0.000
REMARK SMILES C[C@H]1[C@H](C)CC[C@@]2(C(=O)NCCCCNC(=O)c3ccc(-c4c5nc(c(-c6c(F)cccc6F)c6ccc([nH]6)c(-c6c(F)cccc6F)c6nc(c(-c7c(F)cccc7F)c7ccc4[nH]7)C=C6)C=C5)cc3)CC[C@@]3(C)C(=CC[C@@H]4[C@@]5(C)CC[C@H](O)C(C)(C)[C@@H]5CC[C@]43C)[C@H]12
REMARK SMILES IDX 13 1 12 2 11 3 10 4 8 5 9 6 7 8 1 9 2 10 3 11 94 12 4 13
REMARK SMILES IDX 5 14 76 15 6 16 72 17 74 18 77 19 73 20 75 21 92 22 78 23
REMARK SMILES IDX 79 24 91 25 93 26 80 27 90 28 81 29 82 30 89 31 83 32 86 33
REMARK SMILES IDX 84 34 87 35 88 36 85 37 14 39 15 40 16 41 17 43 18 44 19 45
REMARK SMILES IDX 71 46 20 47 70 48 21 49 22 50 23 51 64 52 24 53 69 54 63 55
REMARK SMILES IDX 65 56 25 57 68 58 62 59 61 60 26 62 52 63 35 64 51 65 36 66
REMARK SMILES IDX 39 67 50 68 66 69 37 70 38 71 49 73 67 74 40 75 27 76 28 77
REMARK SMILES IDX 33 78 29 79 30 80 32 81 34 82 31 83 53 84 54 85 59 86 55 87
REMARK SMILES IDX 56 88 58 89 60 90 57 91 41 92 42 93 47 94 43 95 44 96 46 97
REMARK SMILES IDX 48 98 45 99
REMARK H PARENT 10 7 85 38 15 42 65 61 39 72
REMARK Flexibility Score: inf
ROOT
ATOM      1  C   UNL A   1      33.661  31.245  28.008  1.00  0.00     0.023 C 
ENDROOT
BRANCH   1   2
ATOM      2  C   UNL A   1      34.805  30.322  27.574  1.00  0.00     0.023 C 
BRANCH   2   3
ATOM      3  C   UNL A   1      34.424  29.121  26.704  1.00  0.00     0.116 C 
BRANCH   3   4
ATOM      4  N   UNL A   1      34.060  29.453  25.344  1.00  0.00    -0.356 N 
ATOM      5  C   UNL A   1      32.903  29.270  24.643  1.00  0.00     0.226 C 
ATOM      6  O   UNL A   1      33.092  29.131  23.426  1.00  0.00    -0.274 OA
ATOM      7  H   UNL A   1      34.777  29.891  24.830  1.00  0.00     0.163 HD
BRANCH   5   8
ATOM      8  C   UNL A   1      31.440  29.291  25.235  1.00  0.00     0.056 C 
ATOM      9  C   UNL A   1      28.859  28.734  22.295  1.00  0.00     0.008 C 
ATOM     10  C   UNL A   1      29.907  29.488  23.138  1.00  0.00    -0.003 C 
ATOM     11  C   UNL A   1      29.324  30.829  23.677  1.00  0.00    -0.011 C 
ATOM     12  C   UNL A   1      30.393  28.607  24.315  1.00  0.00     0.034 C 
ATOM     13  C   UNL A   1      29.010  31.847  22.566  1.00  0.00     0.008 C 
ATOM     14  C   UNL A   1      30.205  31.554  24.710  1.00  0.00     0.005 C 
ATOM     15  C   UNL A   1      30.932  27.195  24.040  1.00  0.00    -0.063 C 
ATOM     16  C   UNL A   1      31.006  30.701  25.683  1.00  0.00     0.018 C 
ATOM     17  C   UNL A   1      31.449  28.425  26.563  1.00  0.00     0.018 C 
ATOM     18  C   UNL A   1      30.850  26.215  25.240  1.00  0.00    -0.006 C 
ATOM     19  C   UNL A   1      31.656  26.920  22.938  1.00  0.00    -0.027 C 
ATOM     20  C   UNL A   1      31.627  26.898  26.413  1.00  0.00     0.013 C 
ATOM     21  C   UNL A   1      29.370  26.043  25.688  1.00  0.00     0.017 C 
ATOM     22  C   UNL A   1      31.470  24.754  24.863  1.00  0.00    -0.020 C 
ATOM     23  C   UNL A   1      32.548  25.722  22.782  1.00  0.00     0.032 C 
ATOM     24  C   UNL A   1      32.839  25.004  24.125  1.00  0.00     0.006 C 
ATOM     25  C   UNL A   1      31.690  23.875  26.121  1.00  0.00     0.008 C 
ATOM     26  C   UNL A   1      30.468  23.976  23.954  1.00  0.00     0.012 C 
ATOM     27  C   UNL A   1      33.887  23.807  24.035  1.00  0.00    -0.025 C 
ATOM     28  C   UNL A   1      32.502  22.607  25.844  1.00  0.00     0.005 C 
ATOM     29  C   UNL A   1      33.618  22.946  22.783  1.00  0.00     0.012 C 
ATOM     30  C   UNL A   1      35.320  24.418  23.899  1.00  0.00     0.010 C 
ATOM     31  C   UNL A   1      33.914  22.993  25.383  1.00  0.00     0.003 C 
ATOM     32  C   UNL A   1      36.447  23.386  23.951  1.00  0.00     0.033 C 
ATOM     33  C   UNL A   1      34.986  21.838  25.466  1.00  0.00    -0.006 C 
ATOM     34  C   UNL A   1      36.384  22.466  25.173  1.00  0.00     0.120 C 
ATOM     35  C   UNL A   1      34.690  20.619  24.565  1.00  0.00     0.014 C 
ATOM     36  C   UNL A   1      35.042  21.265  26.912  1.00  0.00     0.014 C 
BRANCH  34  37
ATOM     37  O   UNL A   1      37.390  21.460  25.045  1.00  0.00    -0.393 OA
ATOM     38  H   UNL A   1      37.660  21.158  25.927  1.00  0.00     0.210 HD
ENDBRANCH  34  37
ENDBRANCH   5   8
ENDBRANCH   3   4
ENDBRANCH   2   3
ENDBRANCH   1   2
BRANCH   1  39
ATOM     39  C   UNL A   1      33.515  32.575  27.269  1.00  0.00     0.116 C 
BRANCH  39  40
ATOM     40  N   UNL A   1      33.072  33.684  28.099  1.00  0.00    -0.352 N 
ATOM     41  C   UNL A   1      33.651  34.297  29.188  1.00  0.00     0.251 C 
ATOM     42  H   UNL A   1      32.203  34.064  27.837  1.00  0.00     0.163 HD
ATOM     43  O   UNL A   1      33.072  35.221  29.741  1.00  0.00    -0.269 OA
BRANCH  41  44
ATOM     44  C   UNL A   1      34.933  33.806  29.743  1.00  0.00     0.039 A 
ATOM     45  C   UNL A   1      34.883  32.959  30.855  1.00  0.00     0.014 A 
ATOM     46  C   UNL A   1      36.166  34.152  29.188  1.00  0.00     0.014 A 
ATOM     47  C   UNL A   1      36.054  32.367  31.333  1.00  0.00     0.010 A 
ATOM     48  C   UNL A   1      37.325  33.506  29.619  1.00  0.00     0.010 A 
ATOM     49  C   UNL A   1      37.276  32.587  30.678  1.00  0.00    -0.014 A 
BRANCH  49  50
ATOM     50  C   UNL A   1      38.489  31.811  31.049  1.00  0.00     0.031 A 
ATOM     51  C   UNL A   1      39.380  32.260  32.171  1.00  0.00     0.074 A 
ATOM     52  C   UNL A   1      38.827  30.730  30.316  1.00  0.00     0.049 A 
ATOM     53  N   UNL A   1      40.508  31.742  32.588  1.00  0.00    -0.248 NA
ATOM     54  C   UNL A   1      38.963  33.463  32.906  1.00  0.00     0.031 C 
ATOM     55  C   UNL A   1      38.079  30.219  29.165  1.00  0.00     0.029 A 
ATOM     56  N   UNL A   1      39.892  29.871  30.424  1.00  0.00    -0.354 N 
ATOM     57  C   UNL A   1      40.944  32.561  33.619  1.00  0.00     0.074 A 
ATOM     58  C   UNL A   1      39.981  33.636  33.737  1.00  0.00     0.031 C 
ATOM     59  C   UNL A   1      38.694  29.125  28.689  1.00  0.00     0.029 A 
ATOM     60  C   UNL A   1      39.896  28.874  29.477  1.00  0.00     0.049 A 
ATOM     61  H   UNL A   1      40.589  29.959  31.115  1.00  0.00     0.167 HD
ATOM     62  C   UNL A   1      42.035  32.422  34.410  1.00  0.00     0.037 A 
ATOM     63  C   UNL A   1      40.770  27.874  29.263  1.00  0.00     0.037 A 
ATOM     64  C   UNL A   1      42.980  31.339  34.310  1.00  0.00     0.049 A 
ATOM     65  C   UNL A   1      41.966  27.733  30.162  1.00  0.00     0.074 A 
ATOM     66  C   UNL A   1      44.083  31.081  35.107  1.00  0.00     0.029 A 
ATOM     67  N   UNL A   1      42.933  30.335  33.356  1.00  0.00    -0.354 N 
ATOM     68  N   UNL A   1      42.327  28.479  31.176  1.00  0.00    -0.248 NA
ATOM     69  C   UNL A   1      42.872  26.609  29.889  1.00  0.00     0.031 C 
ATOM     70  C   UNL A   1      44.722  29.939  34.613  1.00  0.00     0.029 A 
ATOM     71  C   UNL A   1      43.996  29.464  33.533  1.00  0.00     0.049 A 
ATOM     72  H   UNL A   1      42.246  30.253  32.656  1.00  0.00     0.167 HD
ATOM     73  C   UNL A   1      43.485  27.901  31.680  1.00  0.00     0.074 A 
ATOM     74  C   UNL A   1      43.759  26.735  30.866  1.00  0.00     0.031 C 
ATOM     75  C   UNL A   1      44.252  28.302  32.722  1.00  0.00     0.037 A 
BRANCH  62  76
ATOM     76  C   UNL A   1      42.263  33.469  35.460  1.00  0.00     0.057 A 
ATOM     77  C   UNL A   1      41.706  33.360  36.742  1.00  0.00     0.134 A 
ATOM     78  C   UNL A   1      43.072  34.583  35.199  1.00  0.00     0.134 A 
ATOM     79  F   UNL A   1      40.914  32.323  37.051  1.00  0.00    -0.206 F 
ATOM     80  C   UNL A   1      41.923  34.335  37.717  1.00  0.00     0.040 A 
ATOM     81  C   UNL A   1      43.317  35.551  36.175  1.00  0.00     0.040 A 
ATOM     82  F   UNL A   1      43.642  34.744  33.996  1.00  0.00    -0.206 F 
ATOM     83  C   UNL A   1      42.735  35.432  37.436  1.00  0.00     0.006 A 
ENDBRANCH  62  76
BRANCH  63  84
ATOM     84  C   UNL A   1      40.534  26.903  28.164  1.00  0.00     0.057 A 
ATOM     85  C   UNL A   1      39.652  25.829  28.332  1.00  0.00     0.134 A 
ATOM     86  C   UNL A   1      41.183  27.021  26.931  1.00  0.00     0.134 A 
ATOM     87  F   UNL A   1      39.015  25.655  29.499  1.00  0.00    -0.206 F 
ATOM     88  C   UNL A   1      39.438  24.895  27.318  1.00  0.00     0.040 A 
ATOM     89  C   UNL A   1      40.961  26.107  25.899  1.00  0.00     0.040 A 
ATOM     90  F   UNL A   1      42.033  28.033  26.706  1.00  0.00    -0.206 F 
ATOM     91  C   UNL A   1      40.091  25.036  26.095  1.00  0.00     0.006 A 
ENDBRANCH  63  84
BRANCH  75  92
ATOM     92  C   UNL A   1      45.441  27.455  33.062  1.00  0.00     0.057 A 
ATOM     93  C   UNL A   1      45.343  26.360  33.930  1.00  0.00     0.134 A 
ATOM     94  C   UNL A   1      46.692  27.718  32.489  1.00  0.00     0.134 A 
ATOM     95  F   UNL A   1      44.176  26.066  34.523  1.00  0.00    -0.206 F 
ATOM     96  C   UNL A   1      46.452  25.567  34.229  1.00  0.00     0.040 A 
ATOM     97  C   UNL A   1      47.802  26.918  32.762  1.00  0.00     0.040 A 
ATOM     98  F   UNL A   1      46.850  28.749  31.645  1.00  0.00    -0.206 F 
ATOM     99  C   UNL A   1      47.684  25.842  33.638  1.00  0.00     0.006 A 
ENDBRANCH  75  92
ENDBRANCH  49  50
ENDBRANCH  41  44
ENDBRANCH  39  40
ENDBRANCH   1  39
TORSDOF 12
ENDMDL
MODEL 2
REMARK VINA RESULT:     -14.1      3.162      4.119
REMARK SMILES C[C@H]1[C@H](C)CC[C@@]2(C(=O)NCCCCNC(=O)c3ccc(-c4c5nc(c(-c6c(F)cccc6F)c6ccc([nH]6)c(-c6c(F)cccc6F)c6nc(c(-c7c(F)cccc7F)c7ccc4[nH]7)C=C6)C=C5)cc3)CC[C@@]3(C)C(=CC[C@@H]4[C@@]5(C)CC[C@H](O)C(C)(C)[C@@H]5CC[C@]43C)[C@H]12
REMARK SMILES IDX 13 1 12 2 11 3 10 4 8 5 9 6 7 8 1 9 2 10 3 11 94 12 4 13
REMARK SMILES IDX 5 14 76 15 6 16 72 17 74 18 77 19 73 20 75 21 92 22 78 23
REMARK SMILES IDX 79 24 91 25 93 26 80 27 90 28 81 29 82 30 89 31 83 32 86 33
REMARK SMILES IDX 84 34 87 35 88 36 85 37 14 39 15 40 16 41 17 43 18 44 19 45
REMARK SMILES IDX 71 46 20 47 70 48 21 49 22 50 23 51 64 52 24 53 69 54 63 55
REMARK SMILES IDX 65 56 25 57 68 58 62 59 61 60 26 62 52 63 35 64 51 65 36 66
REMARK SMILES IDX 39 67 50 68 66 69 37 70 38 71 49 73 67 74 40 75 27 76 28 77
REMARK SMILES IDX 33 78 29 79 30 80 32 81 34 82 31 83 53 84 54 85 59 86 55 87
REMARK SMILES IDX 56 88 58 89 60 90 57 91 41 92 42 93 47 94 43 95 44 96 46 97
REMARK SMILES IDX 48 98 45 99
REMARK H PARENT 10 7 85 38 15 42 65 61 39 72
REMARK Flexibility Score: inf
ROOT
ATOM      1  C   UNL A   1      34.017  31.162  27.754  1.00  0.00     0.023 C 
ENDROOT
BRANCH   1   2
ATOM      2  C   UNL A   1      34.891  29.909  27.636  1.00  0.00     0.023 C 
BRANCH   2   3
ATOM      3  C   UNL A   1      34.412  28.828  26.664  1.00  0.00     0.116 C 
BRANCH   3   4
ATOM      4  N   UNL A   1      34.064  29.314  25.346  1.00  0.00    -0.356 N 
ATOM      5  C   UNL A   1      32.896  29.271  24.641  1.00  0.00     0.226 C 
ATOM      6  O   UNL A   1      33.073  29.242  23.414  1.00  0.00    -0.274 OA
ATOM      7  H   UNL A   1      34.804  29.757  24.871  1.00  0.00     0.163 HD
BRANCH   5   8
ATOM      8  C   UNL A   1      31.439  29.321  25.245  1.00  0.00     0.056 C 
ATOM      9  C   UNL A   1      28.820  28.953  22.310  1.00  0.00     0.008 C 
ATOM     10  C   UNL A   1      29.898  29.641  23.169  1.00  0.00    -0.003 C 
ATOM     11  C   UNL A   1      29.365  30.982  23.759  1.00  0.00    -0.011 C 
ATOM     12  C   UNL A   1      30.362  28.704  24.311  1.00  0.00     0.034 C 
ATOM     13  C   UNL A   1      29.078  32.048  22.686  1.00  0.00     0.008 C 
ATOM     14  C   UNL A   1      30.278  31.641  24.809  1.00  0.00     0.005 C 
ATOM     15  C   UNL A   1      30.852  27.285  23.983  1.00  0.00    -0.063 C 
ATOM     16  C   UNL A   1      31.056  30.728  25.745  1.00  0.00     0.018 C 
ATOM     17  C   UNL A   1      31.427  28.409  26.543  1.00  0.00     0.018 C 
ATOM     18  C   UNL A   1      30.744  26.268  25.149  1.00  0.00    -0.006 C 
ATOM     19  C   UNL A   1      31.558  27.024  22.866  1.00  0.00    -0.027 C 
ATOM     20  C   UNL A   1      31.553  26.883  26.338  1.00  0.00     0.013 C 
ATOM     21  C   UNL A   1      29.263  26.130  25.604  1.00  0.00     0.017 C 
ATOM     22  C   UNL A   1      31.312  24.800  24.717  1.00  0.00    -0.020 C 
ATOM     23  C   UNL A   1      32.408  25.803  22.662  1.00  0.00     0.032 C 
ATOM     24  C   UNL A   1      32.683  25.030  23.977  1.00  0.00     0.006 C 
ATOM     25  C   UNL A   1      31.511  23.871  25.942  1.00  0.00     0.008 C 
ATOM     26  C   UNL A   1      30.278  24.089  23.791  1.00  0.00     0.012 C 
ATOM     27  C   UNL A   1      33.690  23.801  23.838  1.00  0.00    -0.025 C 
ATOM     28  C   UNL A   1      32.278  22.588  25.615  1.00  0.00     0.005 C 
ATOM     29  C   UNL A   1      33.383  22.994  22.558  1.00  0.00     0.012 C 
ATOM     30  C   UNL A   1      35.142  24.369  23.711  1.00  0.00     0.010 C 
ATOM     31  C   UNL A   1      33.699  22.941  25.156  1.00  0.00     0.003 C 
ATOM     32  C   UNL A   1      36.234  23.298  23.718  1.00  0.00     0.033 C 
ATOM     33  C   UNL A   1      34.732  21.749  25.191  1.00  0.00    -0.006 C 
ATOM     34  C   UNL A   1      36.148  22.339  24.908  1.00  0.00     0.120 C 
ATOM     35  C   UNL A   1      34.388  20.573  24.251  1.00  0.00     0.014 C 
ATOM     36  C   UNL A   1      34.778  21.124  26.615  1.00  0.00     0.014 C 
BRANCH  34  37
ATOM     37  O   UNL A   1      37.118  21.304  24.737  1.00  0.00    -0.393 OA
ATOM     38  H   UNL A   1      37.854  21.636  24.198  1.00  0.00     0.210 HD
ENDBRANCH  34  37
ENDBRANCH   5   8
ENDBRANCH   3   4
ENDBRANCH   2   3
ENDBRANCH   1   2
BRANCH   1  39
ATOM     39  C   UNL A   1      34.589  32.343  28.537  1.00  0.00     0.116 C 
BRANCH  39  40
ATOM     40  N   UNL A   1      34.403  32.261  29.977  1.00  0.00    -0.352 N 
ATOM     41  C   UNL A   1      35.288  31.990  30.998  1.00  0.00     0.251 C 
ATOM     42  H   UNL A   1      33.481  32.430  30.276  1.00  0.00     0.163 HD
ATOM     43  O   UNL A   1      34.889  31.963  32.153  1.00  0.00    -0.269 OA
BRANCH  41  44
ATOM     44  C   UNL A   1      36.702  31.659  30.709  1.00  0.00     0.039 A 
ATOM     45  C   UNL A   1      37.403  30.904  31.655  1.00  0.00     0.014 A 
ATOM     46  C   UNL A   1      37.336  32.064  29.534  1.00  0.00     0.014 A 
ATOM     47  C   UNL A   1      38.695  30.457  31.369  1.00  0.00     0.010 A 
ATOM     48  C   UNL A   1      38.597  31.559  29.218  1.00  0.00     0.010 A 
ATOM     49  C   UNL A   1      39.278  30.728  30.122  1.00  0.00    -0.014 A 
BRANCH  49  50
ATOM     50  C   UNL A   1      40.564  30.093  29.728  1.00  0.00     0.031 A 
ATOM     51  C   UNL A   1      41.850  30.868  29.762  1.00  0.00     0.074 A 
ATOM     52  C   UNL A   1      40.556  28.825  29.265  1.00  0.00     0.049 A 
ATOM     53  N   UNL A   1      43.049  30.492  29.394  1.00  0.00    -0.248 NA
ATOM     54  C   UNL A   1      41.776  32.252  30.250  1.00  0.00     0.031 C 
ATOM     55  C   UNL A   1      39.367  27.981  29.128  1.00  0.00     0.029 A 
ATOM     56  N   UNL A   1      41.580  28.029  28.816  1.00  0.00    -0.354 N 
ATOM     57  C   UNL A   1      43.868  31.596  29.589  1.00  0.00     0.074 A 
ATOM     58  C   UNL A   1      43.021  32.668  30.068  1.00  0.00     0.031 C 
ATOM     59  C   UNL A   1      39.732  26.780  28.652  1.00  0.00     0.029 A 
ATOM     60  C   UNL A   1      41.172  26.778  28.419  1.00  0.00     0.049 A 
ATOM     61  H   UNL A   1      42.519  28.325  28.781  1.00  0.00     0.167 HD
ATOM     62  C   UNL A   1      45.206  31.702  29.406  1.00  0.00     0.037 A 
ATOM     63  C   UNL A   1      41.876  25.746  27.917  1.00  0.00     0.037 A 
ATOM     64  C   UNL A   1      46.054  30.628  28.955  1.00  0.00     0.049 A 
ATOM     65  C   UNL A   1      43.361  25.884  27.737  1.00  0.00     0.074 A 
ATOM     66  C   UNL A   1      47.429  30.624  28.797  1.00  0.00     0.029 A 
ATOM     67  N   UNL A   1      45.606  29.368  28.589  1.00  0.00    -0.354 N 
ATOM     68  N   UNL A   1      44.130  26.914  27.990  1.00  0.00    -0.248 NA
ATOM     69  C   UNL A   1      44.075  24.715  27.204  1.00  0.00     0.031 C 
ATOM     70  C   UNL A   1      47.810  29.371  28.304  1.00  0.00     0.029 A 
ATOM     71  C   UNL A   1      46.676  28.583  28.191  1.00  0.00     0.049 A 
ATOM     72  H   UNL A   1      44.666  29.075  28.609  1.00  0.00     0.167 HD
ATOM     73  C   UNL A   1      45.421  26.510  27.675  1.00  0.00     0.074 A 
ATOM     74  C   UNL A   1      45.332  25.138  27.223  1.00  0.00     0.031 C 
ATOM     75  C   UNL A   1      46.575  27.215  27.752  1.00  0.00     0.037 A 
BRANCH  62  76
ATOM     76  C   UNL A   1      45.838  33.030  29.701  1.00  0.00     0.057 A 
ATOM     77  C   UNL A   1      45.973  34.017  28.716  1.00  0.00     0.134 A 
ATOM     78  C   UNL A   1      46.291  33.338  30.990  1.00  0.00     0.134 A 
ATOM     79  F   UNL A   1      45.569  33.781  27.459  1.00  0.00    -0.206 F 
ATOM     80  C   UNL A   1      46.559  35.252  28.995  1.00  0.00     0.040 A 
ATOM     81  C   UNL A   1      46.856  34.580  31.288  1.00  0.00     0.040 A 
ATOM     82  F   UNL A   1      46.185  32.441  31.982  1.00  0.00    -0.206 F 
ATOM     83  C   UNL A   1      46.998  35.538  30.286  1.00  0.00     0.006 A 
ENDBRANCH  62  76
BRANCH  63  84
ATOM     84  C   UNL A   1      41.189  24.474  27.577  1.00  0.00     0.057 A 
ATOM     85  C   UNL A   1      41.416  23.313  28.323  1.00  0.00     0.134 A 
ATOM     86  C   UNL A   1      40.300  24.387  26.500  1.00  0.00     0.134 A 
ATOM     87  F   UNL A   1      42.271  23.331  29.356  1.00  0.00    -0.206 F 
ATOM     88  C   UNL A   1      40.797  22.104  28.001  1.00  0.00     0.040 A 
ATOM     89  C   UNL A   1      39.656  23.191  26.180  1.00  0.00     0.040 A 
ATOM     90  F   UNL A   1      40.035  25.468  25.751  1.00  0.00    -0.206 F 
ATOM     91  C   UNL A   1      39.910  22.043  26.928  1.00  0.00     0.006 A 
ENDBRANCH  63  84
BRANCH  75  92
ATOM     92  C   UNL A   1      47.839  26.504  27.372  1.00  0.00     0.057 A 
ATOM     93  C   UNL A   1      48.385  26.607  26.087  1.00  0.00     0.134 A 
ATOM     94  C   UNL A   1      48.535  25.735  28.313  1.00  0.00     0.134 A 
ATOM     95  F   UNL A   1      47.757  27.315  25.136  1.00  0.00    -0.206 F 
ATOM     96  C   UNL A   1      49.571  25.954  25.745  1.00  0.00     0.040 A 
ATOM     97  C   UNL A   1      49.734  25.098  27.991  1.00  0.00     0.040 A 
ATOM     98  F   UNL A   1      48.068  25.603  29.563  1.00  0.00    -0.206 F 
ATOM     99  C   UNL A   1      50.252  25.203  26.702  1.00  0.00     0.006 A 
ENDBRANCH  75  92
ENDBRANCH  49  50
ENDBRANCH  41  44
ENDBRANCH  39  40
ENDBRANCH   1  39
TORSDOF 12
ENDMDL
MODEL 3
REMARK VINA RESULT:     -14.1      4.026      7.323
REMARK SMILES C[C@H]1[C@H](C)CC[C@@]2(C(=O)NCCCCNC(=O)c3ccc(-c4c5nc(c(-c6c(F)cccc6F)c6ccc([nH]6)c(-c6c(F)cccc6F)c6nc(c(-c7c(F)cccc7F)c7ccc4[nH]7)C=C6)C=C5)cc3)CC[C@@]3(C)C(=CC[C@@H]4[C@@]5(C)CC[C@H](O)C(C)(C)[C@@H]5CC[C@]43C)[C@H]12
REMARK SMILES IDX 13 1 12 2 11 3 10 4 8 5 9 6 7 8 1 9 2 10 3 11 94 12 4 13
REMARK SMILES IDX 5 14 76 15 6 16 72 17 74 18 77 19 73 20 75 21 92 22 78 23
REMARK SMILES IDX 79 24 91 25 93 26 80 27 90 28 81 29 82 30 89 31 83 32 86 33
REMARK SMILES IDX 84 34 87 35 88 36 85 37 14 39 15 40 16 41 17 43 18 44 19 45
REMARK SMILES IDX 71 46 20 47 70 48 21 49 22 50 23 51 64 52 24 53 69 54 63 55
REMARK SMILES IDX 65 56 25 57 68 58 62 59 61 60 26 62 52 63 35 64 51 65 36 66
REMARK SMILES IDX 39 67 50 68 66 69 37 70 38 71 49 73 67 74 40 75 27 76 28 77
REMARK SMILES IDX 33 78 29 79 30 80 32 81 34 82 31 83 53 84 54 85 59 86 55 87
REMARK SMILES IDX 56 88 58 89 60 90 57 91 41 92 42 93 47 94 43 95 44 96 46 97
REMARK SMILES IDX 48 98 45 99
REMARK H PARENT 10 7 85 38 15 42 65 61 39 72
REMARK Flexibility Score: inf
ROOT
ATOM      1  C   UNL A   1      34.919  31.349  27.630  1.00  0.00     0.023 C 
ENDROOT
BRANCH   1   2
ATOM      2  C   UNL A   1      34.176  30.014  27.745  1.00  0.00     0.023 C 
BRANCH   2   3
ATOM      3  C   UNL A   1      34.464  28.973  26.660  1.00  0.00     0.116 C 
BRANCH   3   4
ATOM      4  N   UNL A   1      34.092  29.378  25.322  1.00  0.00    -0.356 N 
ATOM      5  C   UNL A   1      32.921  29.263  24.631  1.00  0.00     0.226 C 
ATOM      6  O   UNL A   1      33.089  29.174  23.406  1.00  0.00    -0.274 OA
ATOM      7  H   UNL A   1      34.816  29.816  24.818  1.00  0.00     0.163 HD
BRANCH   5   8
ATOM      8  C   UNL A   1      31.468  29.302  25.245  1.00  0.00     0.056 C 
ATOM      9  C   UNL A   1      28.833  28.870  22.332  1.00  0.00     0.008 C 
ATOM     10  C   UNL A   1      29.909  29.580  23.176  1.00  0.00    -0.003 C 
ATOM     11  C   UNL A   1      29.364  30.921  23.754  1.00  0.00    -0.011 C 
ATOM     12  C   UNL A   1      30.392  28.662  24.325  1.00  0.00     0.034 C 
ATOM     13  C   UNL A   1      29.056  31.971  22.672  1.00  0.00     0.008 C 
ATOM     14  C   UNL A   1      30.275  31.603  24.790  1.00  0.00     0.005 C 
ATOM     15  C   UNL A   1      30.896  27.246  24.010  1.00  0.00    -0.063 C 
ATOM     16  C   UNL A   1      31.071  30.710  25.732  1.00  0.00     0.018 C 
ATOM     17  C   UNL A   1      31.476  28.405  26.553  1.00  0.00     0.018 C 
ATOM     18  C   UNL A   1      30.810  26.240  25.188  1.00  0.00    -0.006 C 
ATOM     19  C   UNL A   1      31.598  26.980  22.891  1.00  0.00    -0.027 C 
ATOM     20  C   UNL A   1      31.619  26.878  26.365  1.00  0.00     0.013 C 
ATOM     21  C   UNL A   1      29.334  26.089  25.655  1.00  0.00     0.017 C 
ATOM     22  C   UNL A   1      31.392  24.775  24.768  1.00  0.00    -0.020 C 
ATOM     23  C   UNL A   1      32.461  25.767  22.695  1.00  0.00     0.032 C 
ATOM     24  C   UNL A   1      32.755  25.012  24.017  1.00  0.00     0.006 C 
ATOM     25  C   UNL A   1      31.611  23.862  26.003  1.00  0.00     0.008 C 
ATOM     26  C   UNL A   1      30.360  24.041  23.858  1.00  0.00     0.012 C 
ATOM     27  C   UNL A   1      33.776  23.795  23.884  1.00  0.00    -0.025 C 
ATOM     28  C   UNL A   1      32.391  22.584  25.684  1.00  0.00     0.005 C 
ATOM     29  C   UNL A   1      33.470  22.970  22.616  1.00  0.00     0.012 C 
ATOM     30  C   UNL A   1      35.220  24.378  23.740  1.00  0.00     0.010 C 
ATOM     31  C   UNL A   1      33.805  22.950  25.212  1.00  0.00     0.003 C 
ATOM     32  C   UNL A   1      36.325  23.321  23.752  1.00  0.00     0.033 C 
ATOM     33  C   UNL A   1      34.852  21.770  25.252  1.00  0.00    -0.006 C 
ATOM     34  C   UNL A   1      36.259  22.374  24.953  1.00  0.00     0.120 C 
ATOM     35  C   UNL A   1      34.516  20.580  24.328  1.00  0.00     0.014 C 
ATOM     36  C   UNL A   1      34.916  21.163  26.683  1.00  0.00     0.014 C 
BRANCH  34  37
ATOM     37  O   UNL A   1      37.241  21.350  24.787  1.00  0.00    -0.393 OA
ATOM     38  H   UNL A   1      38.065  21.617  25.224  1.00  0.00     0.210 HD
ENDBRANCH  34  37
ENDBRANCH   5   8
ENDBRANCH   3   4
ENDBRANCH   2   3
ENDBRANCH   1   2
BRANCH   1  39
ATOM     39  C   UNL A   1      35.714  31.814  28.850  1.00  0.00     0.116 C 
BRANCH  39  40
ATOM     40  N   UNL A   1      35.623  30.933  30.004  1.00  0.00    -0.352 N 
ATOM     41  C   UNL A   1      36.555  30.115  30.604  1.00  0.00     0.251 C 
ATOM     42  H   UNL A   1      34.737  30.919  30.433  1.00  0.00     0.163 HD
ATOM     43  O   UNL A   1      36.236  29.445  31.575  1.00  0.00    -0.269 OA
BRANCH  41  44
ATOM     44  C   UNL A   1      37.919  29.981  30.044  1.00  0.00     0.039 A 
ATOM     45  C   UNL A   1      39.000  30.087  30.925  1.00  0.00     0.014 A 
ATOM     46  C   UNL A   1      38.147  29.744  28.688  1.00  0.00     0.014 A 
ATOM     47  C   UNL A   1      40.297  29.839  30.468  1.00  0.00     0.010 A 
ATOM     48  C   UNL A   1      39.432  29.426  28.247  1.00  0.00     0.010 A 
ATOM     49  C   UNL A   1      40.516  29.443  29.139  1.00  0.00    -0.014 A 
BRANCH  49  50
ATOM     50  C   UNL A   1      41.857  28.983  28.693  1.00  0.00     0.031 A 
ATOM     51  C   UNL A   1      42.088  27.554  28.290  1.00  0.00     0.074 A 
ATOM     52  C   UNL A   1      42.892  29.847  28.722  1.00  0.00     0.049 A 
ATOM     53  N   UNL A   1      43.203  26.967  27.936  1.00  0.00    -0.248 NA
ATOM     54  C   UNL A   1      40.919  26.663  28.312  1.00  0.00     0.031 C 
ATOM     55  C   UNL A   1      42.815  31.247  29.146  1.00  0.00     0.029 A 
ATOM     56  N   UNL A   1      44.215  29.674  28.396  1.00  0.00    -0.354 N 
ATOM     57  C   UNL A   1      42.876  25.638  27.709  1.00  0.00     0.074 A 
ATOM     58  C   UNL A   1      41.466  25.495  28.007  1.00  0.00     0.031 C 
ATOM     59  C   UNL A   1      44.029  31.810  29.032  1.00  0.00     0.029 A 
ATOM     60  C   UNL A   1      44.976  30.806  28.560  1.00  0.00     0.049 A 
ATOM     61  H   UNL A   1      44.583  28.819  28.075  1.00  0.00     0.167 HD
ATOM     62  C   UNL A   1      43.671  24.631  27.274  1.00  0.00     0.037 A 
ATOM     63  C   UNL A   1      46.291  31.013  28.360  1.00  0.00     0.037 A 
ATOM     64  C   UNL A   1      45.068  24.777  26.952  1.00  0.00     0.049 A 
ATOM     65  C   UNL A   1      47.149  29.884  27.863  1.00  0.00     0.074 A 
ATOM     66  C   UNL A   1      45.940  23.828  26.446  1.00  0.00     0.029 A 
ATOM     67  N   UNL A   1      45.796  25.947  27.105  1.00  0.00    -0.354 N 
ATOM     68  N   UNL A   1      46.808  28.649  27.589  1.00  0.00    -0.248 NA
ATOM     69  C   UNL A   1      48.572  30.179  27.644  1.00  0.00     0.031 C 
ATOM     70  C   UNL A   1      47.204  24.416  26.324  1.00  0.00     0.029 A 
ATOM     71  C   UNL A   1      47.110  25.740  26.718  1.00  0.00     0.049 A 
ATOM     72  H   UNL A   1      45.432  26.799  27.440  1.00  0.00     0.167 HD
ATOM     73  C   UNL A   1      47.966  28.027  27.140  1.00  0.00     0.074 A 
ATOM     74  C   UNL A   1      49.015  29.024  27.167  1.00  0.00     0.031 C 
ATOM     75  C   UNL A   1      48.142  26.744  26.742  1.00  0.00     0.037 A 
BRANCH  62  76
ATOM     76  C   UNL A   1      43.044  23.278  27.113  1.00  0.00     0.057 A 
ATOM     77  C   UNL A   1      42.763  22.460  28.216  1.00  0.00     0.134 A 
ATOM     78  C   UNL A   1      42.688  22.798  25.846  1.00  0.00     0.134 A 
ATOM     79  F   UNL A   1      43.089  22.857  29.455  1.00  0.00    -0.206 F 
ATOM     80  C   UNL A   1      42.177  21.203  28.063  1.00  0.00     0.040 A 
ATOM     81  C   UNL A   1      42.077  21.553  25.683  1.00  0.00     0.040 A 
ATOM     82  F   UNL A   1      42.921  23.533  24.749  1.00  0.00    -0.206 F 
ATOM     83  C   UNL A   1      41.827  20.748  26.793  1.00  0.00     0.006 A 
ENDBRANCH  62  76
BRANCH  63  84
ATOM     84  C   UNL A   1      46.876  32.357  28.599  1.00  0.00     0.057 A 
ATOM     85  C   UNL A   1      46.866  33.334  27.598  1.00  0.00     0.134 A 
ATOM     86  C   UNL A   1      47.462  32.692  29.825  1.00  0.00     0.134 A 
ATOM     87  F   UNL A   1      46.334  33.064  26.397  1.00  0.00    -0.206 F 
ATOM     88  C   UNL A   1      47.434  34.593  27.800  1.00  0.00     0.040 A 
ATOM     89  C   UNL A   1      48.013  33.955  30.048  1.00  0.00     0.040 A 
ATOM     90  F   UNL A   1      47.496  31.801  30.826  1.00  0.00    -0.206 F 
ATOM     91  C   UNL A   1      48.006  34.907  29.031  1.00  0.00     0.006 A 
ENDBRANCH  63  84
BRANCH  75  92
ATOM     92  C   UNL A   1      49.512  26.355  26.272  1.00  0.00     0.057 A 
ATOM     93  C   UNL A   1      49.972  26.680  24.990  1.00  0.00     0.134 A 
ATOM     94  C   UNL A   1      50.393  25.678  27.125  1.00  0.00     0.134 A 
ATOM     95  F   UNL A   1      49.170  27.314  24.121  1.00  0.00    -0.206 F 
ATOM     96  C   UNL A   1      51.255  26.328  24.566  1.00  0.00     0.040 A 
ATOM     97  C   UNL A   1      51.685  25.342  26.721  1.00  0.00     0.040 A 
ATOM     98  F   UNL A   1      50.015  25.344  28.368  1.00  0.00    -0.206 F 
ATOM     99  C   UNL A   1      52.117  25.663  25.436  1.00  0.00     0.006 A 
ENDBRANCH  75  92
ENDBRANCH  49  50
ENDBRANCH  41  44
ENDBRANCH  39  40
ENDBRANCH   1  39
TORSDOF 12
ENDMDL
