MODEL 1
REMARK VINA RESULT:     -12.2      0.000      0.000
REMARK SMILES C=CC[C@@]1(C(=O)NCCCCNC(=O)c2ccc(-c3c4nc(c(-c5c(F)cccc5F)c5ccc([nH]5)c(-c5c(F)cccc5F)c5nc(c(-c6c(F)cccc6F)c6ccc3[nH]6)C=C5)C=C4)cc2)CCCN(C(=O)c2ccc3c(c2)OCO3)C1
REMARK SMILES IDX 9 1 8 2 7 3 5 4 6 5 4 7 69 8 84 9 70 10 72 11 71 12 3 13
REMARK SMILES IDX 2 14 1 15 73 16 74 17 75 18 76 19 80 20 77 21 79 22 78 23
REMARK SMILES IDX 81 24 83 25 82 26 10 27 11 28 12 29 13 30 14 32 15 33 16 34
REMARK SMILES IDX 68 35 17 36 67 37 18 38 19 39 20 40 61 41 21 42 66 43 60 44
REMARK SMILES IDX 62 45 22 46 65 47 59 48 58 49 23 51 49 52 32 53 48 54 33 55
REMARK SMILES IDX 36 56 47 57 63 58 34 59 35 60 46 62 64 63 37 64 24 65 25 66
REMARK SMILES IDX 30 67 26 68 27 69 29 70 31 71 28 72 50 73 51 74 56 75 52 76
REMARK SMILES IDX 53 77 55 78 57 79 54 80 38 81 39 82 44 83 40 84 41 85 43 86
REMARK SMILES IDX 45 87 42 88
REMARK H PARENT 7 6 12 31 62 50 36 61
REMARK Flexibility Score: inf
ROOT
ATOM      1  C   UNL A   1      31.987  30.500  26.877  1.00  0.00     0.023 C 
ENDROOT
BRANCH   1   2
ATOM      2  C   UNL A   1      31.763  29.706  25.595  1.00  0.00     0.116 C 
BRANCH   2   3
ATOM      3  N   UNL A   1      32.977  29.283  24.881  1.00  0.00    -0.356 N 
ATOM      4  C   UNL A   1      33.090  28.246  23.952  1.00  0.00     0.228 C 
ATOM      5  O   UNL A   1      33.585  28.561  22.863  1.00  0.00    -0.274 OA
ATOM      6  H   UNL A   1      33.800  29.784  25.081  1.00  0.00     0.163 HD
BRANCH   4   7
ATOM      7  C   UNL A   1      32.886  26.729  24.357  1.00  0.00     0.070 C 
ATOM      8  C   UNL A   1      33.078  25.600  23.250  1.00  0.00     0.021 C 
ATOM      9  C   UNL A   1      31.489  26.519  24.923  1.00  0.00     0.137 C 
ATOM     10  C   UNL A   1      31.872  24.721  22.754  1.00  0.00     0.023 C 
ATOM     11  N   UNL A   1      30.491  26.329  23.826  1.00  0.00    -0.338 N 
ATOM     12  C   UNL A   1      30.506  24.961  23.397  1.00  0.00     0.120 C 
BRANCH   7  13
ATOM     13  C   UNL A   1      34.030  26.543  25.427  1.00  0.00     0.045 C 
BRANCH  13  14
ATOM     14  C   UNL A   1      34.546  25.112  25.547  1.00  0.00    -0.034 C 
ATOM     15  C   UNL A   1      33.958  24.113  26.219  1.00  0.00     0.004 C 
ENDBRANCH  13  14
ENDBRANCH   7  13
BRANCH  11  16
ATOM     16  C   UNL A   1      30.387  27.216  22.723  1.00  0.00     0.254 C 
ATOM     17  O   UNL A   1      30.893  27.045  21.621  1.00  0.00    -0.269 OA
BRANCH  16  18
ATOM     18  C   UNL A   1      29.536  28.404  22.805  1.00  0.00     0.043 A 
ATOM     19  C   UNL A   1      28.178  28.208  23.164  1.00  0.00     0.018 A 
ATOM     20  C   UNL A   1      30.022  29.652  22.433  1.00  0.00     0.064 A 
ATOM     21  C   UNL A   1      27.297  29.283  23.205  1.00  0.00     0.051 A 
ATOM     22  C   UNL A   1      29.127  30.692  22.501  1.00  0.00     0.166 A 
ATOM     23  C   UNL A   1      27.812  30.517  22.885  1.00  0.00     0.165 A 
ATOM     24  O   UNL A   1      29.414  31.993  22.229  1.00  0.00    -0.454 OA
ATOM     25  O   UNL A   1      27.124  31.689  22.913  1.00  0.00    -0.454 OA
ATOM     26  C   UNL A   1      28.191  32.624  22.653  1.00  0.00     0.468 C 
ENDBRANCH  16  18
ENDBRANCH  11  16
ENDBRANCH   4   7
ENDBRANCH   2   3
ENDBRANCH   1   2
BRANCH   1  27
ATOM     27  C   UNL A   1      31.391  31.904  26.874  1.00  0.00     0.023 C 
BRANCH  27  28
ATOM     28  C   UNL A   1      32.368  33.063  26.690  1.00  0.00     0.116 C 
BRANCH  28  29
ATOM     29  N   UNL A   1      32.206  34.182  27.608  1.00  0.00    -0.352 N 
ATOM     30  C   UNL A   1      33.080  34.575  28.611  1.00  0.00     0.251 C 
ATOM     31  H   UNL A   1      31.387  34.718  27.506  1.00  0.00     0.163 HD
ATOM     32  O   UNL A   1      32.843  35.523  29.334  1.00  0.00    -0.269 OA
BRANCH  30  33
ATOM     33  C   UNL A   1      34.287  33.748  28.823  1.00  0.00     0.039 A 
ATOM     34  C   UNL A   1      35.540  34.343  28.660  1.00  0.00     0.014 A 
ATOM     35  C   UNL A   1      34.166  32.465  29.360  1.00  0.00     0.014 A 
ATOM     36  C   UNL A   1      36.671  33.693  29.157  1.00  0.00     0.010 A 
ATOM     37  C   UNL A   1      35.281  31.861  29.927  1.00  0.00     0.010 A 
ATOM     38  C   UNL A   1      36.540  32.481  29.854  1.00  0.00    -0.014 A 
BRANCH  38  39
ATOM     39  C   UNL A   1      37.694  31.864  30.555  1.00  0.00     0.031 A 
ATOM     40  C   UNL A   1      38.502  30.799  29.873  1.00  0.00     0.074 A 
ATOM     41  C   UNL A   1      37.960  32.199  31.834  1.00  0.00     0.049 A 
ATOM     42  N   UNL A   1      39.487  30.079  30.344  1.00  0.00    -0.248 NA
ATOM     43  C   UNL A   1      38.129  30.477  28.486  1.00  0.00     0.031 C 
ATOM     44  C   UNL A   1      37.213  33.177  32.630  1.00  0.00     0.029 A 
ATOM     45  N   UNL A   1      38.928  31.745  32.694  1.00  0.00    -0.354 N 
ATOM     46  C   UNL A   1      39.838  29.208  29.321  1.00  0.00     0.074 A 
ATOM     47  C   UNL A   1      38.925  29.451  28.225  1.00  0.00     0.031 C 
ATOM     48  C   UNL A   1      37.770  33.271  33.849  1.00  0.00     0.029 A 
ATOM     49  C   UNL A   1      38.888  32.336  33.935  1.00  0.00     0.049 A 
ATOM     50  H   UNL A   1      39.590  31.059  32.447  1.00  0.00     0.167 HD
ATOM     51  C   UNL A   1      40.848  28.307  29.284  1.00  0.00     0.037 A 
ATOM     52  C   UNL A   1      39.663  32.145  35.018  1.00  0.00     0.037 A 
ATOM     53  C   UNL A   1      41.773  28.087  30.363  1.00  0.00     0.049 A 
ATOM     54  C   UNL A   1      40.780  31.140  34.953  1.00  0.00     0.074 A 
ATOM     55  C   UNL A   1      42.867  27.240  30.402  1.00  0.00     0.029 A 
ATOM     56  N   UNL A   1      41.711  28.721  31.594  1.00  0.00    -0.354 N 
ATOM     57  N   UNL A   1      41.143  30.372  33.955  1.00  0.00    -0.248 NA
ATOM     58  C   UNL A   1      41.595  30.977  36.166  1.00  0.00     0.031 C 
ATOM     59  C   UNL A   1      43.449  27.339  31.671  1.00  0.00     0.029 A 
ATOM     60  C   UNL A   1      42.740  28.275  32.408  1.00  0.00     0.049 A 
ATOM     61  H   UNL A   1      41.037  29.390  31.853  1.00  0.00     0.167 HD
ATOM     62  C   UNL A   1      42.244  29.656  34.408  1.00  0.00     0.074 A 
ATOM     63  C   UNL A   1      42.495  30.088  35.767  1.00  0.00     0.031 C 
ATOM     64  C   UNL A   1      42.980  28.724  33.755  1.00  0.00     0.037 A 
BRANCH  51  65
ATOM     65  C   UNL A   1      41.001  27.505  28.027  1.00  0.00     0.057 A 
ATOM     66  C   UNL A   1      41.774  27.963  26.952  1.00  0.00     0.134 A 
ATOM     67  C   UNL A   1      40.372  26.263  27.887  1.00  0.00     0.134 A 
ATOM     68  F   UNL A   1      42.389  29.154  27.016  1.00  0.00    -0.206 F 
ATOM     69  C   UNL A   1      41.888  27.231  25.770  1.00  0.00     0.040 A 
ATOM     70  C   UNL A   1      40.501  25.508  26.720  1.00  0.00     0.040 A 
ATOM     71  F   UNL A   1      39.620  25.763  28.880  1.00  0.00    -0.206 F 
ATOM     72  C   UNL A   1      41.254  25.996  25.654  1.00  0.00     0.006 A 
ENDBRANCH  51  65
BRANCH  52  73
ATOM     73  C   UNL A   1      39.439  32.946  36.248  1.00  0.00     0.057 A 
ATOM     74  C   UNL A   1      38.536  32.518  37.227  1.00  0.00     0.134 A 
ATOM     75  C   UNL A   1      40.109  34.154  36.472  1.00  0.00     0.134 A 
ATOM     76  F   UNL A   1      37.850  31.377  37.059  1.00  0.00    -0.206 F 
ATOM     77  C   UNL A   1      38.293  33.268  38.379  1.00  0.00     0.040 A 
ATOM     78  C   UNL A   1      39.892  34.905  37.629  1.00  0.00     0.040 A 
ATOM     79  F   UNL A   1      40.992  34.616  35.575  1.00  0.00    -0.206 F 
ATOM     80  C   UNL A   1      38.977  34.465  38.584  1.00  0.00     0.006 A 
ENDBRANCH  52  73
BRANCH  64  81
ATOM     81  C   UNL A   1      44.146  28.134  34.490  1.00  0.00     0.057 A 
ATOM     82  C   UNL A   1      45.411  28.733  34.466  1.00  0.00     0.134 A 
ATOM     83  C   UNL A   1      43.985  26.981  35.269  1.00  0.00     0.134 A 
ATOM     84  F   UNL A   1      45.631  29.830  33.726  1.00  0.00    -0.206 F 
ATOM     85  C   UNL A   1      46.483  28.194  35.179  1.00  0.00     0.040 A 
ATOM     86  C   UNL A   1      45.043  26.448  36.004  1.00  0.00     0.040 A 
ATOM     87  F   UNL A   1      42.796  26.367  35.339  1.00  0.00    -0.206 F 
ATOM     88  C   UNL A   1      46.299  27.052  35.958  1.00  0.00     0.006 A 
ENDBRANCH  64  81
ENDBRANCH  38  39
ENDBRANCH  30  33
ENDBRANCH  28  29
ENDBRANCH  27  28
ENDBRANCH   1  27
TORSDOF 15
ENDMDL
MODEL 2
REMARK VINA RESULT:     -12.2      0.464      6.064
REMARK SMILES C=CC[C@@]1(C(=O)NCCCCNC(=O)c2ccc(-c3c4nc(c(-c5c(F)cccc5F)c5ccc([nH]5)c(-c5c(F)cccc5F)c5nc(c(-c6c(F)cccc6F)c6ccc3[nH]6)C=C5)C=C4)cc2)CCCN(C(=O)c2ccc3c(c2)OCO3)C1
REMARK SMILES IDX 9 1 8 2 7 3 5 4 6 5 4 7 69 8 84 9 70 10 72 11 71 12 3 13
REMARK SMILES IDX 2 14 1 15 73 16 74 17 75 18 76 19 80 20 77 21 79 22 78 23
REMARK SMILES IDX 81 24 83 25 82 26 10 27 11 28 12 29 13 30 14 32 15 33 16 34
REMARK SMILES IDX 68 35 17 36 67 37 18 38 19 39 20 40 61 41 21 42 66 43 60 44
REMARK SMILES IDX 62 45 22 46 65 47 59 48 58 49 23 51 49 52 32 53 48 54 33 55
REMARK SMILES IDX 36 56 47 57 63 58 34 59 35 60 46 62 64 63 37 64 24 65 25 66
REMARK SMILES IDX 30 67 26 68 27 69 29 70 31 71 28 72 50 73 51 74 56 75 52 76
REMARK SMILES IDX 53 77 55 78 57 79 54 80 38 81 39 82 44 83 40 84 41 85 43 86
REMARK SMILES IDX 45 87 42 88
REMARK H PARENT 7 6 12 31 62 50 36 61
REMARK Flexibility Score: inf
ROOT
ATOM      1  C   UNL A   1      32.124  30.489  26.814  1.00  0.00     0.023 C 
ENDROOT
BRANCH   1   2
ATOM      2  C   UNL A   1      31.868  29.706  25.531  1.00  0.00     0.116 C 
BRANCH   2   3
ATOM      3  N   UNL A   1      33.065  29.232  24.819  1.00  0.00    -0.356 N 
ATOM      4  C   UNL A   1      33.135  28.188  23.894  1.00  0.00     0.228 C 
ATOM      5  O   UNL A   1      33.643  28.478  22.803  1.00  0.00    -0.274 OA
ATOM      6  H   UNL A   1      33.907  29.700  25.016  1.00  0.00     0.163 HD
BRANCH   4   7
ATOM      7  C   UNL A   1      32.870  26.682  24.304  1.00  0.00     0.070 C 
ATOM      8  C   UNL A   1      33.004  25.543  23.198  1.00  0.00     0.021 C 
ATOM      9  C   UNL A   1      31.470  26.533  24.882  1.00  0.00     0.137 C 
ATOM     10  C   UNL A   1      31.757  24.716  22.714  1.00  0.00     0.023 C 
ATOM     11  N   UNL A   1      30.456  26.384  23.794  1.00  0.00    -0.338 N 
ATOM     12  C   UNL A   1      30.408  25.015  23.368  1.00  0.00     0.120 C 
BRANCH   7  13
ATOM     13  C   UNL A   1      34.013  26.449  25.365  1.00  0.00     0.045 C 
BRANCH  13  14
ATOM     14  C   UNL A   1      34.670  25.074  25.284  1.00  0.00    -0.034 C 
ATOM     15  C   UNL A   1      34.477  24.054  26.132  1.00  0.00     0.004 C 
ENDBRANCH  13  14
ENDBRANCH   7  13
BRANCH  11  16
ATOM     16  C   UNL A   1      30.380  27.272  22.690  1.00  0.00     0.254 C 
ATOM     17  O   UNL A   1      30.906  27.097  21.597  1.00  0.00    -0.269 OA
BRANCH  16  18
ATOM     18  C   UNL A   1      29.538  28.468  22.756  1.00  0.00     0.043 A 
ATOM     19  C   UNL A   1      28.186  28.290  23.147  1.00  0.00     0.018 A 
ATOM     20  C   UNL A   1      30.023  29.701  22.340  1.00  0.00     0.064 A 
ATOM     21  C   UNL A   1      27.312  29.371  23.177  1.00  0.00     0.051 A 
ATOM     22  C   UNL A   1      29.136  30.749  22.398  1.00  0.00     0.166 A 
ATOM     23  C   UNL A   1      27.828  30.593  22.813  1.00  0.00     0.165 A 
ATOM     24  O   UNL A   1      29.425  32.039  22.084  1.00  0.00    -0.454 OA
ATOM     25  O   UNL A   1      27.147  31.769  22.822  1.00  0.00    -0.454 OA
ATOM     26  C   UNL A   1      28.214  32.690  22.514  1.00  0.00     0.468 C 
ENDBRANCH  16  18
ENDBRANCH  11  16
ENDBRANCH   4   7
ENDBRANCH   2   3
ENDBRANCH   1   2
BRANCH   1  27
ATOM     27  C   UNL A   1      31.438  31.850  26.882  1.00  0.00     0.023 C 
BRANCH  27  28
ATOM     28  C   UNL A   1      32.314  33.073  26.618  1.00  0.00     0.116 C 
BRANCH  28  29
ATOM     29  N   UNL A   1      32.213  34.149  27.595  1.00  0.00    -0.352 N 
ATOM     30  C   UNL A   1      33.123  34.459  28.595  1.00  0.00     0.251 C 
ATOM     31  H   UNL A   1      31.412  34.718  27.540  1.00  0.00     0.163 HD
ATOM     32  O   UNL A   1      32.937  35.377  29.370  1.00  0.00    -0.269 OA
BRANCH  30  33
ATOM     33  C   UNL A   1      34.304  33.580  28.736  1.00  0.00     0.039 A 
ATOM     34  C   UNL A   1      35.575  34.152  28.655  1.00  0.00     0.014 A 
ATOM     35  C   UNL A   1      34.138  32.251  29.133  1.00  0.00     0.014 A 
ATOM     36  C   UNL A   1      36.679  33.422  29.097  1.00  0.00     0.010 A 
ATOM     37  C   UNL A   1      35.227  31.559  29.649  1.00  0.00     0.010 A 
ATOM     38  C   UNL A   1      36.503  32.148  29.660  1.00  0.00    -0.014 A 
BRANCH  38  39
ATOM     39  C   UNL A   1      37.628  31.427  30.309  1.00  0.00     0.031 A 
ATOM     40  C   UNL A   1      37.985  31.725  31.735  1.00  0.00     0.074 A 
ATOM     41  C   UNL A   1      38.381  30.572  29.588  1.00  0.00     0.049 A 
ATOM     42  N   UNL A   1      38.982  31.272  32.451  1.00  0.00    -0.248 NA
ATOM     43  C   UNL A   1      37.125  32.689  32.441  1.00  0.00     0.031 C 
ATOM     44  C   UNL A   1      38.176  30.241  28.175  1.00  0.00     0.029 A 
ATOM     45  N   UNL A   1      39.481  29.832  29.943  1.00  0.00    -0.354 N 
ATOM     46  C   UNL A   1      38.880  31.907  33.681  1.00  0.00     0.074 A 
ATOM     47  C   UNL A   1      37.761  32.819  33.596  1.00  0.00     0.031 C 
ATOM     48  C   UNL A   1      39.098  29.341  27.794  1.00  0.00     0.029 A 
ATOM     49  C   UNL A   1      39.981  29.059  28.922  1.00  0.00     0.049 A 
ATOM     50  H   UNL A   1      39.876  29.852  30.844  1.00  0.00     0.167 HD
ATOM     51  C   UNL A   1      39.633  31.728  34.792  1.00  0.00     0.037 A 
ATOM     52  C   UNL A   1      41.034  28.220  28.897  1.00  0.00     0.037 A 
ATOM     53  C   UNL A   1      40.729  30.801  34.883  1.00  0.00     0.049 A 
ATOM     54  C   UNL A   1      41.854  28.035  30.143  1.00  0.00     0.074 A 
ATOM     55  C   UNL A   1      41.515  30.501  35.982  1.00  0.00     0.029 A 
ATOM     56  N   UNL A   1      41.190  30.021  33.834  1.00  0.00    -0.354 N 
ATOM     57  N   UNL A   1      41.705  28.592  31.321  1.00  0.00    -0.248 NA
ATOM     58  C   UNL A   1      42.988  27.104  30.057  1.00  0.00     0.031 C 
ATOM     59  C   UNL A   1      42.474  29.561  35.587  1.00  0.00     0.029 A 
ATOM     60  C   UNL A   1      42.261  29.249  34.254  1.00  0.00     0.049 A 
ATOM     61  H   UNL A   1      40.812  30.016  32.925  1.00  0.00     0.167 HD
ATOM     62  C   UNL A   1      42.706  28.061  32.123  1.00  0.00     0.074 A 
ATOM     63  C   UNL A   1      43.451  27.129  31.300  1.00  0.00     0.031 C 
ATOM     64  C   UNL A   1      42.983  28.320  33.423  1.00  0.00     0.037 A 
BRANCH  51  65
ATOM     65  C   UNL A   1      39.281  32.550  35.994  1.00  0.00     0.057 A 
ATOM     66  C   UNL A   1      38.385  32.086  36.966  1.00  0.00     0.134 A 
ATOM     67  C   UNL A   1      39.842  33.818  36.186  1.00  0.00     0.134 A 
ATOM     68  F   UNL A   1      37.800  30.886  36.832  1.00  0.00    -0.206 F 
ATOM     69  C   UNL A   1      38.032  32.866  38.068  1.00  0.00     0.040 A 
ATOM     70  C   UNL A   1      39.518  34.597  37.298  1.00  0.00     0.040 A 
ATOM     71  F   UNL A   1      40.711  34.321  35.296  1.00  0.00    -0.206 F 
ATOM     72  C   UNL A   1      38.605  34.125  38.238  1.00  0.00     0.006 A 
ENDBRANCH  51  65
BRANCH  52  73
ATOM     73  C   UNL A   1      41.354  27.459  27.663  1.00  0.00     0.057 A 
ATOM     74  C   UNL A   1      40.861  26.164  27.472  1.00  0.00     0.134 A 
ATOM     75  C   UNL A   1      42.161  27.998  26.654  1.00  0.00     0.134 A 
ATOM     76  F   UNL A   1      40.098  25.587  28.413  1.00  0.00    -0.206 F 
ATOM     77  C   UNL A   1      41.170  25.423  26.330  1.00  0.00     0.040 A 
ATOM     78  C   UNL A   1      42.462  27.277  25.498  1.00  0.00     0.040 A 
ATOM     79  F   UNL A   1      42.660  29.237  26.775  1.00  0.00    -0.206 F 
ATOM     80  C   UNL A   1      41.970  25.982  25.336  1.00  0.00     0.006 A 
ENDBRANCH  52  73
BRANCH  64  81
ATOM     81  C   UNL A   1      44.117  27.563  34.046  1.00  0.00     0.057 A 
ATOM     82  C   UNL A   1      45.421  28.073  34.066  1.00  0.00     0.134 A 
ATOM     83  C   UNL A   1      43.890  26.333  34.676  1.00  0.00     0.134 A 
ATOM     84  F   UNL A   1      45.704  29.240  33.467  1.00  0.00    -0.206 F 
ATOM     85  C   UNL A   1      46.465  27.376  34.676  1.00  0.00     0.040 A 
ATOM     86  C   UNL A   1      44.921  25.638  35.308  1.00  0.00     0.040 A 
ATOM     87  F   UNL A   1      42.661  25.796  34.697  1.00  0.00    -0.206 F 
ATOM     88  C   UNL A   1      46.214  26.158  35.307  1.00  0.00     0.006 A 
ENDBRANCH  64  81
ENDBRANCH  38  39
ENDBRANCH  30  33
ENDBRANCH  28  29
ENDBRANCH  27  28
ENDBRANCH   1  27
TORSDOF 15
ENDMDL
MODEL 3
REMARK VINA RESULT:     -12.1      5.521     10.638
REMARK SMILES C=CC[C@@]1(C(=O)NCCCCNC(=O)c2ccc(-c3c4nc(c(-c5c(F)cccc5F)c5ccc([nH]5)c(-c5c(F)cccc5F)c5nc(c(-c6c(F)cccc6F)c6ccc3[nH]6)C=C5)C=C4)cc2)CCCN(C(=O)c2ccc3c(c2)OCO3)C1
REMARK SMILES IDX 9 1 8 2 7 3 5 4 6 5 4 7 69 8 84 9 70 10 72 11 71 12 3 13
REMARK SMILES IDX 2 14 1 15 73 16 74 17 75 18 76 19 80 20 77 21 79 22 78 23
REMARK SMILES IDX 81 24 83 25 82 26 10 27 11 28 12 29 13 30 14 32 15 33 16 34
REMARK SMILES IDX 68 35 17 36 67 37 18 38 19 39 20 40 61 41 21 42 66 43 60 44
REMARK SMILES IDX 62 45 22 46 65 47 59 48 58 49 23 51 49 52 32 53 48 54 33 55
REMARK SMILES IDX 36 56 47 57 63 58 34 59 35 60 46 62 64 63 37 64 24 65 25 66
REMARK SMILES IDX 30 67 26 68 27 69 29 70 31 71 28 72 50 73 51 74 56 75 52 76
REMARK SMILES IDX 53 77 55 78 57 79 54 80 38 81 39 82 44 83 40 84 41 85 43 86
REMARK SMILES IDX 45 87 42 88
REMARK H PARENT 7 6 12 31 62 50 36 61
REMARK Flexibility Score: inf
ROOT
ATOM      1  C   UNL A   1      37.365  21.070  24.705  1.00  0.00     0.023 C 
ENDROOT
BRANCH   1   2
ATOM      2  C   UNL A   1      35.903  21.018  25.134  1.00  0.00     0.116 C 
BRANCH   2   3
ATOM      3  N   UNL A   1      35.519  21.935  26.219  1.00  0.00    -0.356 N 
ATOM      4  C   UNL A   1      34.270  22.527  26.417  1.00  0.00     0.228 C 
ATOM      5  O   UNL A   1      33.772  22.353  27.537  1.00  0.00    -0.274 OA
ATOM      6  H   UNL A   1      36.218  22.156  26.875  1.00  0.00     0.163 HD
BRANCH   4   7
ATOM      7  C   UNL A   1      33.671  23.587  25.405  1.00  0.00     0.070 C 
ATOM      8  C   UNL A   1      32.208  24.161  25.661  1.00  0.00     0.021 C 
ATOM      9  C   UNL A   1      33.650  23.015  23.995  1.00  0.00     0.137 C 
ATOM     10  C   UNL A   1      31.020  23.853  24.677  1.00  0.00     0.023 C 
ATOM     11  N   UNL A   1      32.435  22.169  23.781  1.00  0.00    -0.338 N 
ATOM     12  C   UNL A   1      31.323  23.008  23.440  1.00  0.00     0.120 C 
BRANCH   7  13
ATOM     13  C   UNL A   1      34.686  24.782  25.580  1.00  0.00     0.045 C 
BRANCH  13  14
ATOM     14  C   UNL A   1      34.132  26.140  25.160  1.00  0.00    -0.034 C 
ATOM     15  C   UNL A   1      34.021  27.224  25.939  1.00  0.00     0.004 C 
ENDBRANCH  13  14
ENDBRANCH   7  13
BRANCH  11  16
ATOM     16  C   UNL A   1      32.051  21.139  24.676  1.00  0.00     0.254 C 
ATOM     17  O   UNL A   1      31.305  21.272  25.639  1.00  0.00    -0.269 OA
BRANCH  16  18
ATOM     18  C   UNL A   1      32.460  19.754  24.433  1.00  0.00     0.043 A 
ATOM     19  C   UNL A   1      32.411  19.287  23.096  1.00  0.00     0.018 A 
ATOM     20  C   UNL A   1      32.773  18.911  25.493  1.00  0.00     0.064 A 
ATOM     21  C   UNL A   1      32.730  17.967  22.797  1.00  0.00     0.051 A 
ATOM     22  C   UNL A   1      33.098  17.618  25.159  1.00  0.00     0.166 A 
ATOM     23  C   UNL A   1      33.088  17.163  23.855  1.00  0.00     0.165 A 
ATOM     24  O   UNL A   1      33.479  16.653  26.037  1.00  0.00    -0.454 OA
ATOM     25  O   UNL A   1      33.476  15.864  23.760  1.00  0.00    -0.454 OA
ATOM     26  C   UNL A   1      33.871  15.611  25.124  1.00  0.00     0.468 C 
ENDBRANCH  16  18
ENDBRANCH  11  16
ENDBRANCH   4   7
ENDBRANCH   2   3
ENDBRANCH   1   2
BRANCH   1  27
ATOM     27  C   UNL A   1      38.101  19.736  24.772  1.00  0.00     0.023 C 
BRANCH  27  28
ATOM     28  C   UNL A   1      38.940  19.478  26.022  1.00  0.00     0.116 C 
BRANCH  28  29
ATOM     29  N   UNL A   1      40.241  18.861  25.797  1.00  0.00    -0.352 N 
ATOM     30  C   UNL A   1      41.486  19.411  26.064  1.00  0.00     0.251 C 
ATOM     31  H   UNL A   1      40.236  17.954  25.414  1.00  0.00     0.163 HD
ATOM     32  O   UNL A   1      42.517  18.812  25.827  1.00  0.00    -0.269 OA
BRANCH  30  33
ATOM     33  C   UNL A   1      41.519  20.796  26.583  1.00  0.00     0.039 A 
ATOM     34  C   UNL A   1      42.180  21.040  27.788  1.00  0.00     0.014 A 
ATOM     35  C   UNL A   1      41.070  21.849  25.784  1.00  0.00     0.014 A 
ATOM     36  C   UNL A   1      42.503  22.353  28.134  1.00  0.00     0.010 A 
ATOM     37  C   UNL A   1      41.465  23.145  26.089  1.00  0.00     0.010 A 
ATOM     38  C   UNL A   1      42.208  23.407  27.253  1.00  0.00    -0.014 A 
BRANCH  38  39
ATOM     39  C   UNL A   1      42.704  24.784  27.503  1.00  0.00     0.031 A 
ATOM     40  C   UNL A   1      41.794  25.808  28.116  1.00  0.00     0.074 A 
ATOM     41  C   UNL A   1      43.941  25.136  27.098  1.00  0.00     0.049 A 
ATOM     42  N   UNL A   1      42.007  27.080  28.333  1.00  0.00    -0.248 NA
ATOM     43  C   UNL A   1      40.452  25.346  28.507  1.00  0.00     0.031 C 
ATOM     44  C   UNL A   1      44.903  24.251  26.435  1.00  0.00     0.029 A 
ATOM     45  N   UNL A   1      44.599  26.337  27.176  1.00  0.00    -0.354 N 
ATOM     46  C   UNL A   1      40.823  27.573  28.867  1.00  0.00     0.074 A 
ATOM     47  C   UNL A   1      39.879  26.478  28.888  1.00  0.00     0.031 C 
ATOM     48  C   UNL A   1      46.036  24.931  26.196  1.00  0.00     0.029 A 
ATOM     49  C   UNL A   1      45.871  26.307  26.654  1.00  0.00     0.049 A 
ATOM     50  H   UNL A   1      44.199  27.147  27.568  1.00  0.00     0.167 HD
ATOM     51  C   UNL A   1      40.555  28.818  29.324  1.00  0.00     0.037 A 
ATOM     52  C   UNL A   1      46.797  27.278  26.555  1.00  0.00     0.037 A 
ATOM     53  C   UNL A   1      41.503  29.899  29.329  1.00  0.00     0.049 A 
ATOM     54  C   UNL A   1      46.477  28.653  27.072  1.00  0.00     0.074 A 
ATOM     55  C   UNL A   1      41.348  31.181  29.827  1.00  0.00     0.029 A 
ATOM     56  N   UNL A   1      42.787  29.822  28.812  1.00  0.00    -0.354 N 
ATOM     57  N   UNL A   1      45.376  29.088  27.636  1.00  0.00    -0.248 NA
ATOM     58  C   UNL A   1      47.528  29.672  26.940  1.00  0.00     0.031 C 
ATOM     59  C   UNL A   1      42.530  31.890  29.581  1.00  0.00     0.029 A 
ATOM     60  C   UNL A   1      43.433  31.038  28.964  1.00  0.00     0.049 A 
ATOM     61  H   UNL A   1      43.183  29.021  28.397  1.00  0.00     0.167 HD
ATOM     62  C   UNL A   1      45.611  30.420  27.951  1.00  0.00     0.074 A 
ATOM     63  C   UNL A   1      46.962  30.720  27.524  1.00  0.00     0.031 C 
ATOM     64  C   UNL A   1      44.781  31.314  28.542  1.00  0.00     0.037 A 
BRANCH  51  65
ATOM     65  C   UNL A   1      39.179  29.064  29.866  1.00  0.00     0.057 A 
ATOM     66  C   UNL A   1      38.147  29.556  29.055  1.00  0.00     0.134 A 
ATOM     67  C   UNL A   1      38.879  28.806  31.208  1.00  0.00     0.134 A 
ATOM     68  F   UNL A   1      38.374  29.839  27.763  1.00  0.00    -0.206 F 
ATOM     69  C   UNL A   1      36.875  29.815  29.568  1.00  0.00     0.040 A 
ATOM     70  C   UNL A   1      37.603  29.036  31.727  1.00  0.00     0.040 A 
ATOM     71  F   UNL A   1      39.819  28.330  32.038  1.00  0.00    -0.206 F 
ATOM     72  C   UNL A   1      36.600  29.550  30.907  1.00  0.00     0.006 A 
ENDBRANCH  51  65
BRANCH  52  73
ATOM     73  C   UNL A   1      48.132  26.982  25.975  1.00  0.00     0.057 A 
ATOM     74  C   UNL A   1      48.381  27.182  24.613  1.00  0.00     0.134 A 
ATOM     75  C   UNL A   1      49.181  26.488  26.758  1.00  0.00     0.134 A 
ATOM     76  F   UNL A   1      47.408  27.635  23.808  1.00  0.00    -0.206 F 
ATOM     77  C   UNL A   1      49.622  26.887  24.044  1.00  0.00     0.040 A 
ATOM     78  C   UNL A   1      50.433  26.208  26.208  1.00  0.00     0.040 A 
ATOM     79  F   UNL A   1      49.008  26.281  28.071  1.00  0.00    -0.206 F 
ATOM     80  C   UNL A   1      50.654  26.402  24.844  1.00  0.00     0.006 A 
ENDBRANCH  52  73
BRANCH  64  81
ATOM     81  C   UNL A   1      45.322  32.690  28.790  1.00  0.00     0.057 A 
ATOM     82  C   UNL A   1      45.121  33.736  27.883  1.00  0.00     0.134 A 
ATOM     83  C   UNL A   1      46.011  32.979  29.975  1.00  0.00     0.134 A 
ATOM     84  F   UNL A   1      44.482  33.518  26.724  1.00  0.00    -0.206 F 
ATOM     85  C   UNL A   1      45.601  35.021  28.137  1.00  0.00     0.040 A 
ATOM     86  C   UNL A   1      46.475  34.265  30.251  1.00  0.00     0.040 A 
ATOM     87  F   UNL A   1      46.229  32.021  30.888  1.00  0.00    -0.206 F 
ATOM     88  C   UNL A   1      46.274  35.291  29.329  1.00  0.00     0.006 A 
ENDBRANCH  64  81
ENDBRANCH  38  39
ENDBRANCH  30  33
ENDBRANCH  28  29
ENDBRANCH  27  28
ENDBRANCH   1  27
TORSDOF 15
ENDMDL
