MODEL 1
REMARK VINA RESULT:     -12.6      0.000      0.000
REMARK SMILES Cc1ncccc1OC1(C(=O)NCCCCNC(=O)c2ccc(-c3c4nc(c(-c5c(F)cccc5F)c5ccc([nH]5)c(-c5c(F)cccc5F)c5nc(c(-c6c(F)cccc6F)c6ccc3[nH]6)C=C5)C=C4)cc2)CCN(C(=O)c2ccc(O)nn2)CC1
REMARK SMILES IDX 14 1 13 2 12 3 10 4 11 5 9 7 74 8 87 9 75 10 86 11 76 12
REMARK SMILES IDX 77 13 78 14 8 15 7 16 1 17 2 18 3 19 4 20 6 21 5 22 79 23
REMARK SMILES IDX 80 24 85 25 81 26 84 27 82 28 83 29 15 31 16 32 17 33 18 34
REMARK SMILES IDX 19 36 20 37 21 38 73 39 22 40 72 41 23 42 24 43 25 44 66 45
REMARK SMILES IDX 26 46 71 47 65 48 67 49 27 50 70 51 64 52 63 53 28 55 54 56
REMARK SMILES IDX 37 57 53 58 38 59 41 60 52 61 68 62 39 63 40 64 51 66 69 67
REMARK SMILES IDX 42 68 29 69 30 70 35 71 31 72 32 73 34 74 36 75 33 76 55 77
REMARK SMILES IDX 56 78 61 79 57 80 58 81 60 82 62 83 59 84 43 85 44 86 49 87
REMARK SMILES IDX 45 88 46 89 48 90 50 91 47 92
REMARK H PARENT 12 6 83 30 17 35 67 54 41 65
REMARK Flexibility Score: inf
ROOT
ATOM      1  C   UNL A   1      38.833  22.782  26.155  1.00  0.00     0.023 C 
ENDROOT
BRANCH   1   2
ATOM      2  C   UNL A   1      37.520  23.526  25.928  1.00  0.00     0.116 C 
BRANCH   2   3
ATOM      3  N   UNL A   1      37.130  23.570  24.534  1.00  0.00    -0.353 N 
ATOM      4  C   UNL A   1      35.952  23.253  23.907  1.00  0.00     0.264 C 
ATOM      5  O   UNL A   1      35.927  23.499  22.696  1.00  0.00    -0.270 OA
ATOM      6  H   UNL A   1      37.838  23.885  23.927  1.00  0.00     0.163 HD
BRANCH   4   7
ATOM      7  C   UNL A   1      34.721  22.619  24.671  1.00  0.00     0.190 C 
ATOM      8  C   UNL A   1      33.531  22.677  23.721  1.00  0.00     0.080 C 
ATOM      9  C   UNL A   1      35.191  21.289  25.249  1.00  0.00     0.080 C 
ATOM     10  C   UNL A   1      32.983  21.363  23.202  1.00  0.00     0.124 C 
ATOM     11  C   UNL A   1      34.445  20.034  24.838  1.00  0.00     0.124 C 
ATOM     12  N   UNL A   1      33.352  20.125  23.870  1.00  0.00    -0.337 N 
ATOM     13  C   UNL A   1      32.625  18.981  23.476  1.00  0.00     0.274 C 
ATOM     14  O   UNL A   1      31.825  18.987  22.542  1.00  0.00    -0.267 OA
BRANCH   7  15
ATOM     15  O   UNL A   1      34.538  23.564  25.758  1.00  0.00    -0.475 OA
BRANCH  15  16
ATOM     16  C   UNL A   1      33.557  24.460  26.047  1.00  0.00     0.142 A 
ATOM     17  C   UNL A   1      31.506  23.138  26.910  1.00  0.00     0.071 C 
ATOM     18  C   UNL A   1      32.248  24.365  26.528  1.00  0.00     0.079 A 
ATOM     19  N   UNL A   1      31.450  25.460  26.722  1.00  0.00    -0.258 NA
ATOM     20  C   UNL A   1      31.937  26.680  26.446  1.00  0.00     0.111 A 
ATOM     21  C   UNL A   1      34.015  25.763  25.785  1.00  0.00     0.050 A 
ATOM     22  C   UNL A   1      33.211  26.884  25.980  1.00  0.00     0.024 A 
ENDBRANCH  15  16
ENDBRANCH   7  15
BRANCH  13  23
ATOM     23  C   UNL A   1      32.883  17.701  24.173  1.00  0.00     0.151 A 
ATOM     24  C   UNL A   1      32.173  17.389  25.320  1.00  0.00     0.042 A 
ATOM     25  N   UNL A   1      33.759  16.846  23.586  1.00  0.00    -0.142 NA
ATOM     26  C   UNL A   1      32.353  16.123  25.859  1.00  0.00     0.072 A 
ATOM     27  N   UNL A   1      33.934  15.609  24.121  1.00  0.00    -0.112 NA
ATOM     28  C   UNL A   1      33.236  15.277  25.223  1.00  0.00     0.230 A 
BRANCH  28  29
ATOM     29  O   UNL A   1      33.434  14.015  25.681  1.00  0.00    -0.492 OA
ATOM     30  H   UNL A   1      34.260  13.775  26.053  1.00  0.00     0.295 HD
ENDBRANCH  28  29
ENDBRANCH  13  23
ENDBRANCH   4   7
ENDBRANCH   2   3
ENDBRANCH   1   2
BRANCH   1  31
ATOM     31  C   UNL A   1      38.908  21.403  25.502  1.00  0.00     0.023 C 
BRANCH  31  32
ATOM     32  C   UNL A   1      39.251  20.247  26.439  1.00  0.00     0.116 C 
BRANCH  32  33
ATOM     33  N   UNL A   1      40.341  19.404  25.970  1.00  0.00    -0.352 N 
ATOM     34  C   UNL A   1      41.691  19.675  25.952  1.00  0.00     0.251 C 
ATOM     35  H   UNL A   1      40.078  18.523  25.617  1.00  0.00     0.163 HD
ATOM     36  O   UNL A   1      42.479  18.874  25.458  1.00  0.00    -0.269 OA
BRANCH  34  37
ATOM     37  C   UNL A   1      42.180  20.961  26.493  1.00  0.00     0.039 A 
ATOM     38  C   UNL A   1      42.588  21.957  25.603  1.00  0.00     0.014 A 
ATOM     39  C   UNL A   1      42.184  21.201  27.869  1.00  0.00     0.014 A 
ATOM     40  C   UNL A   1      42.917  23.224  26.089  1.00  0.00     0.010 A 
ATOM     41  C   UNL A   1      42.439  22.482  28.344  1.00  0.00     0.010 A 
ATOM     42  C   UNL A   1      42.801  23.510  27.459  1.00  0.00    -0.014 A 
BRANCH  42  43
ATOM     43  C   UNL A   1      43.034  24.878  27.988  1.00  0.00     0.031 A 
ATOM     44  C   UNL A   1      44.411  25.293  28.424  1.00  0.00     0.074 A 
ATOM     45  C   UNL A   1      41.992  25.717  28.157  1.00  0.00     0.049 A 
ATOM     46  N   UNL A   1      44.797  26.403  29.001  1.00  0.00    -0.248 NA
ATOM     47  C   UNL A   1      45.492  24.319  28.210  1.00  0.00     0.031 C 
ATOM     48  C   UNL A   1      40.598  25.417  27.826  1.00  0.00     0.029 A 
ATOM     49  N   UNL A   1      41.944  26.990  28.667  1.00  0.00    -0.354 N 
ATOM     50  C   UNL A   1      46.157  26.251  29.236  1.00  0.00     0.074 A 
ATOM     51  C   UNL A   1      46.520  24.925  28.786  1.00  0.00     0.031 C 
ATOM     52  C   UNL A   1      39.836  26.482  28.120  1.00  0.00     0.029 A 
ATOM     53  C   UNL A   1      40.679  27.526  28.695  1.00  0.00     0.049 A 
ATOM     54  H   UNL A   1      42.741  27.475  28.982  1.00  0.00     0.167 HD
ATOM     55  C   UNL A   1      47.030  27.145  29.759  1.00  0.00     0.037 A 
ATOM     56  C   UNL A   1      40.246  28.720  29.140  1.00  0.00     0.037 A 
ATOM     57  C   UNL A   1      46.676  28.476  30.175  1.00  0.00     0.049 A 
ATOM     58  C   UNL A   1      41.237  29.700  29.706  1.00  0.00     0.074 A 
ATOM     59  C   UNL A   1      47.502  29.477  30.658  1.00  0.00     0.029 A 
ATOM     60  N   UNL A   1      45.390  28.992  30.156  1.00  0.00    -0.354 N 
ATOM     61  N   UNL A   1      42.531  29.567  29.863  1.00  0.00    -0.248 NA
ATOM     62  C   UNL A   1      40.708  30.996  30.151  1.00  0.00     0.031 C 
ATOM     63  C   UNL A   1      46.709  30.588  30.963  1.00  0.00     0.029 A 
ATOM     64  C   UNL A   1      45.396  30.293  30.631  1.00  0.00     0.049 A 
ATOM     65  H   UNL A   1      44.590  28.506  29.849  1.00  0.00     0.167 HD
ATOM     66  C   UNL A   1      42.976  30.770  30.395  1.00  0.00     0.074 A 
ATOM     67  C   UNL A   1      41.813  31.624  30.526  1.00  0.00     0.031 C 
ATOM     68  C   UNL A   1      44.233  31.135  30.743  1.00  0.00     0.037 A 
BRANCH  55  69
ATOM     69  C   UNL A   1      48.460  26.710  29.901  1.00  0.00     0.057 A 
ATOM     70  C   UNL A   1      48.908  26.008  31.027  1.00  0.00     0.134 A 
ATOM     71  C   UNL A   1      49.391  26.970  28.887  1.00  0.00     0.134 A 
ATOM     72  F   UNL A   1      48.070  25.738  32.039  1.00  0.00    -0.206 F 
ATOM     73  C   UNL A   1      50.239  25.603  31.152  1.00  0.00     0.040 A 
ATOM     74  C   UNL A   1      50.717  26.547  28.990  1.00  0.00     0.040 A 
ATOM     75  F   UNL A   1      49.026  27.634  27.780  1.00  0.00    -0.206 F 
ATOM     76  C   UNL A   1      51.145  25.867  30.128  1.00  0.00     0.006 A 
ENDBRANCH  55  69
BRANCH  56  77
ATOM     77  C   UNL A   1      38.807  29.074  29.043  1.00  0.00     0.057 A 
ATOM     78  C   UNL A   1      38.255  29.516  27.836  1.00  0.00     0.134 A 
ATOM     79  C   UNL A   1      37.954  28.988  30.149  1.00  0.00     0.134 A 
ATOM     80  F   UNL A   1      39.027  29.637  26.745  1.00  0.00    -0.206 F 
ATOM     81  C   UNL A   1      36.911  29.879  27.736  1.00  0.00     0.040 A 
ATOM     82  C   UNL A   1      36.603  29.325  30.058  1.00  0.00     0.040 A 
ATOM     83  F   UNL A   1      38.421  28.563  31.333  1.00  0.00    -0.206 F 
ATOM     84  C   UNL A   1      36.080  29.779  28.849  1.00  0.00     0.006 A 
ENDBRANCH  56  77
BRANCH  68  85
ATOM     85  C   UNL A   1      44.427  32.529  31.259  1.00  0.00     0.057 A 
ATOM     86  C   UNL A   1      44.383  32.823  32.627  1.00  0.00     0.134 A 
ATOM     87  C   UNL A   1      44.703  33.582  30.378  1.00  0.00     0.134 A 
ATOM     88  F   UNL A   1      44.110  31.862  33.521  1.00  0.00    -0.206 F 
ATOM     89  C   UNL A   1      44.591  34.121  33.099  1.00  0.00     0.040 A 
ATOM     90  C   UNL A   1      44.936  34.878  30.839  1.00  0.00     0.040 A 
ATOM     91  F   UNL A   1      44.766  33.364  29.055  1.00  0.00    -0.206 F 
ATOM     92  C   UNL A   1      44.876  35.151  32.204  1.00  0.00     0.006 A 
ENDBRANCH  68  85
ENDBRANCH  42  43
ENDBRANCH  34  37
ENDBRANCH  32  33
ENDBRANCH  31  32
ENDBRANCH   1  31
TORSDOF 15
ENDMDL
MODEL 2
REMARK VINA RESULT:     -12.2      0.950      5.994
REMARK SMILES Cc1ncccc1OC1(C(=O)NCCCCNC(=O)c2ccc(-c3c4nc(c(-c5c(F)cccc5F)c5ccc([nH]5)c(-c5c(F)cccc5F)c5nc(c(-c6c(F)cccc6F)c6ccc3[nH]6)C=C5)C=C4)cc2)CCN(C(=O)c2ccc(O)nn2)CC1
REMARK SMILES IDX 14 1 13 2 12 3 10 4 11 5 9 7 74 8 87 9 75 10 86 11 76 12
REMARK SMILES IDX 77 13 78 14 8 15 7 16 1 17 2 18 3 19 4 20 6 21 5 22 79 23
REMARK SMILES IDX 80 24 85 25 81 26 84 27 82 28 83 29 15 31 16 32 17 33 18 34
REMARK SMILES IDX 19 36 20 37 21 38 73 39 22 40 72 41 23 42 24 43 25 44 66 45
REMARK SMILES IDX 26 46 71 47 65 48 67 49 27 50 70 51 64 52 63 53 28 55 54 56
REMARK SMILES IDX 37 57 53 58 38 59 41 60 52 61 68 62 39 63 40 64 51 66 69 67
REMARK SMILES IDX 42 68 29 69 30 70 35 71 31 72 32 73 34 74 36 75 33 76 55 77
REMARK SMILES IDX 56 78 61 79 57 80 58 81 60 82 62 83 59 84 43 85 44 86 49 87
REMARK SMILES IDX 45 88 46 89 48 90 50 91 47 92
REMARK H PARENT 12 6 83 30 17 35 67 54 41 65
REMARK Flexibility Score: inf
ROOT
ATOM      1  C   UNL A   1      38.926  22.968  26.203  1.00  0.00     0.023 C 
ENDROOT
BRANCH   1   2
ATOM      2  C   UNL A   1      37.536  23.549  25.962  1.00  0.00     0.116 C 
BRANCH   2   3
ATOM      3  N   UNL A   1      37.169  23.573  24.563  1.00  0.00    -0.353 N 
ATOM      4  C   UNL A   1      36.001  23.246  23.921  1.00  0.00     0.264 C 
ATOM      5  O   UNL A   1      35.995  23.474  22.706  1.00  0.00    -0.270 OA
ATOM      6  H   UNL A   1      37.886  23.879  23.962  1.00  0.00     0.163 HD
BRANCH   4   7
ATOM      7  C   UNL A   1      34.758  22.623  24.675  1.00  0.00     0.190 C 
ATOM      8  C   UNL A   1      33.578  22.686  23.712  1.00  0.00     0.080 C 
ATOM      9  C   UNL A   1      35.213  21.292  25.261  1.00  0.00     0.080 C 
ATOM     10  C   UNL A   1      33.026  21.374  23.191  1.00  0.00     0.124 C 
ATOM     11  C   UNL A   1      34.462  20.041  24.846  1.00  0.00     0.124 C 
ATOM     12  N   UNL A   1      33.380  20.136  23.867  1.00  0.00    -0.337 N 
ATOM     13  C   UNL A   1      32.649  18.996  23.470  1.00  0.00     0.274 C 
ATOM     14  O   UNL A   1      31.858  19.004  22.527  1.00  0.00    -0.267 OA
BRANCH   7  15
ATOM     15  O   UNL A   1      34.570  23.572  25.756  1.00  0.00    -0.475 OA
BRANCH  15  16
ATOM     16  C   UNL A   1      33.572  24.444  26.058  1.00  0.00     0.142 A 
ATOM     17  C   UNL A   1      31.557  23.071  26.925  1.00  0.00     0.071 C 
ATOM     18  C   UNL A   1      32.268  24.317  26.546  1.00  0.00     0.079 A 
ATOM     19  N   UNL A   1      31.447  25.393  26.752  1.00  0.00    -0.258 NA
ATOM     20  C   UNL A   1      31.904  26.625  26.480  1.00  0.00     0.111 A 
ATOM     21  C   UNL A   1      33.998  25.759  25.800  1.00  0.00     0.050 A 
ATOM     22  C   UNL A   1      33.171  26.860  26.007  1.00  0.00     0.024 A 
ENDBRANCH  15  16
ENDBRANCH   7  15
BRANCH  13  23
ATOM     23  C   UNL A   1      32.891  17.716  24.172  1.00  0.00     0.151 A 
ATOM     24  C   UNL A   1      32.205  17.435  25.341  1.00  0.00     0.042 A 
ATOM     25  N   UNL A   1      33.727  16.831  23.571  1.00  0.00    -0.142 NA
ATOM     26  C   UNL A   1      32.365  16.170  25.890  1.00  0.00     0.072 A 
ATOM     27  N   UNL A   1      33.883  15.596  24.114  1.00  0.00    -0.112 NA
ATOM     28  C   UNL A   1      33.206  15.294  25.239  1.00  0.00     0.230 A 
BRANCH  28  29
ATOM     29  O   UNL A   1      33.382  14.031  25.704  1.00  0.00    -0.492 OA
ATOM     30  H   UNL A   1      33.472  13.879  26.625  1.00  0.00     0.295 HD
ENDBRANCH  28  29
ENDBRANCH  13  23
ENDBRANCH   4   7
ENDBRANCH   2   3
ENDBRANCH   1   2
BRANCH   1  31
ATOM     31  C   UNL A   1      39.193  21.636  25.505  1.00  0.00     0.023 C 
BRANCH  31  32
ATOM     32  C   UNL A   1      39.220  20.409  26.414  1.00  0.00     0.116 C 
BRANCH  32  33
ATOM     33  N   UNL A   1      40.205  19.408  26.033  1.00  0.00    -0.352 N 
ATOM     34  C   UNL A   1      41.578  19.502  26.051  1.00  0.00     0.251 C 
ATOM     35  H   UNL A   1      39.840  18.548  25.719  1.00  0.00     0.163 HD
ATOM     36  O   UNL A   1      42.270  18.579  25.631  1.00  0.00    -0.269 OA
BRANCH  34  37
ATOM     37  C   UNL A   1      42.213  20.745  26.538  1.00  0.00     0.039 A 
ATOM     38  C   UNL A   1      42.798  21.613  25.613  1.00  0.00     0.014 A 
ATOM     39  C   UNL A   1      42.184  21.075  27.895  1.00  0.00     0.014 A 
ATOM     40  C   UNL A   1      43.275  22.855  26.038  1.00  0.00     0.010 A 
ATOM     41  C   UNL A   1      42.592  22.340  28.304  1.00  0.00     0.010 A 
ATOM     42  C   UNL A   1      43.133  23.247  27.379  1.00  0.00    -0.014 A 
BRANCH  42  43
ATOM     43  C   UNL A   1      43.527  24.604  27.836  1.00  0.00     0.031 A 
ATOM     44  C   UNL A   1      42.474  25.630  28.147  1.00  0.00     0.074 A 
ATOM     45  C   UNL A   1      44.832  24.940  27.889  1.00  0.00     0.049 A 
ATOM     46  N   UNL A   1      42.617  26.892  28.464  1.00  0.00    -0.248 NA
ATOM     47  C   UNL A   1      41.074  25.186  28.062  1.00  0.00     0.031 C 
ATOM     48  C   UNL A   1      45.950  24.054  27.560  1.00  0.00     0.029 A 
ATOM     49  N   UNL A   1      45.436  26.126  28.224  1.00  0.00    -0.354 N 
ATOM     50  C   UNL A   1      41.329  27.395  28.595  1.00  0.00     0.074 A 
ATOM     51  C   UNL A   1      40.418  26.317  28.275  1.00  0.00     0.031 C 
ATOM     52  C   UNL A   1      47.104  24.720  27.729  1.00  0.00     0.029 A 
ATOM     53  C   UNL A   1      46.808  26.088  28.143  1.00  0.00     0.049 A 
ATOM     54  H   UNL A   1      44.935  26.928  28.498  1.00  0.00     0.167 HD
ATOM     55  C   UNL A   1      40.939  28.637  28.969  1.00  0.00     0.037 A 
ATOM     56  C   UNL A   1      47.723  27.049  28.369  1.00  0.00     0.037 A 
ATOM     57  C   UNL A   1      41.844  29.699  29.320  1.00  0.00     0.049 A 
ATOM     58  C   UNL A   1      47.264  28.417  28.795  1.00  0.00     0.074 A 
ATOM     59  C   UNL A   1      41.545  30.972  29.773  1.00  0.00     0.029 A 
ATOM     60  N   UNL A   1      43.226  29.610  29.257  1.00  0.00    -0.354 N 
ATOM     61  N   UNL A   1      46.045  28.860  28.977  1.00  0.00    -0.248 NA
ATOM     62  C   UNL A   1      48.311  29.416  29.052  1.00  0.00     0.031 C 
ATOM     63  C   UNL A   1      42.746  31.666  29.953  1.00  0.00     0.029 A 
ATOM     64  C   UNL A   1      43.794  30.811  29.651  1.00  0.00     0.049 A 
ATOM     65  H   UNL A   1      43.730  28.812  28.976  1.00  0.00     0.167 HD
ATOM     66  C   UNL A   1      46.177  30.176  29.399  1.00  0.00     0.074 A 
ATOM     67  C   UNL A   1      47.596  30.457  29.454  1.00  0.00     0.031 C 
ATOM     68  C   UNL A   1      45.209  31.071  29.713  1.00  0.00     0.037 A 
BRANCH  55  69
ATOM     69  C   UNL A   1      39.464  28.909  29.028  1.00  0.00     0.057 A 
ATOM     70  C   UNL A   1      38.746  29.326  27.899  1.00  0.00     0.134 A 
ATOM     71  C   UNL A   1      38.748  28.721  30.217  1.00  0.00     0.134 A 
ATOM     72  F   UNL A   1      39.375  29.537  26.733  1.00  0.00    -0.206 F 
ATOM     73  C   UNL A   1      37.374  29.574  27.959  1.00  0.00     0.040 A 
ATOM     74  C   UNL A   1      37.371  28.941  30.282  1.00  0.00     0.040 A 
ATOM     75  F   UNL A   1      39.374  28.318  31.333  1.00  0.00    -0.206 F 
ATOM     76  C   UNL A   1      36.682  29.375  29.151  1.00  0.00     0.006 A 
ENDBRANCH  55  69
BRANCH  56  77
ATOM     77  C   UNL A   1      49.169  26.748  28.227  1.00  0.00     0.057 A 
ATOM     78  C   UNL A   1      49.812  26.873  26.990  1.00  0.00     0.134 A 
ATOM     79  C   UNL A   1      49.940  26.322  29.314  1.00  0.00     0.134 A 
ATOM     80  F   UNL A   1      49.121  27.260  25.907  1.00  0.00    -0.206 F 
ATOM     81  C   UNL A   1      51.164  26.566  26.835  1.00  0.00     0.040 A 
ATOM     82  C   UNL A   1      51.299  26.034  29.179  1.00  0.00     0.040 A 
ATOM     83  F   UNL A   1      49.384  26.189  30.528  1.00  0.00    -0.206 F 
ATOM     84  C   UNL A   1      51.913  26.149  27.933  1.00  0.00     0.006 A 
ENDBRANCH  56  77
BRANCH  68  85
ATOM     85  C   UNL A   1      45.650  32.425  30.184  1.00  0.00     0.057 A 
ATOM     86  C   UNL A   1      45.948  32.679  31.528  1.00  0.00     0.134 A 
ATOM     87  C   UNL A   1      45.820  33.474  29.272  1.00  0.00     0.134 A 
ATOM     88  F   UNL A   1      45.793  31.719  32.452  1.00  0.00    -0.206 F 
ATOM     89  C   UNL A   1      46.384  33.936  31.952  1.00  0.00     0.040 A 
ATOM     90  C   UNL A   1      46.277  34.728  29.679  1.00  0.00     0.040 A 
ATOM     91  F   UNL A   1      45.558  33.293  27.969  1.00  0.00    -0.206 F 
ATOM     92  C   UNL A   1      46.557  34.962  31.024  1.00  0.00     0.006 A 
ENDBRANCH  68  85
ENDBRANCH  42  43
ENDBRANCH  34  37
ENDBRANCH  32  33
ENDBRANCH  31  32
ENDBRANCH   1  31
TORSDOF 15
ENDMDL
MODEL 3
REMARK VINA RESULT:     -12.2      4.237      9.629
REMARK SMILES Cc1ncccc1OC1(C(=O)NCCCCNC(=O)c2ccc(-c3c4nc(c(-c5c(F)cccc5F)c5ccc([nH]5)c(-c5c(F)cccc5F)c5nc(c(-c6c(F)cccc6F)c6ccc3[nH]6)C=C5)C=C4)cc2)CCN(C(=O)c2ccc(O)nn2)CC1
REMARK SMILES IDX 14 1 13 2 12 3 10 4 11 5 9 7 74 8 87 9 75 10 86 11 76 12
REMARK SMILES IDX 77 13 78 14 8 15 7 16 1 17 2 18 3 19 4 20 6 21 5 22 79 23
REMARK SMILES IDX 80 24 85 25 81 26 84 27 82 28 83 29 15 31 16 32 17 33 18 34
REMARK SMILES IDX 19 36 20 37 21 38 73 39 22 40 72 41 23 42 24 43 25 44 66 45
REMARK SMILES IDX 26 46 71 47 65 48 67 49 27 50 70 51 64 52 63 53 28 55 54 56
REMARK SMILES IDX 37 57 53 58 38 59 41 60 52 61 68 62 39 63 40 64 51 66 69 67
REMARK SMILES IDX 42 68 29 69 30 70 35 71 31 72 32 73 34 74 36 75 33 76 55 77
REMARK SMILES IDX 56 78 61 79 57 80 58 81 60 82 62 83 59 84 43 85 44 86 49 87
REMARK SMILES IDX 45 88 46 89 48 90 50 91 47 92
REMARK H PARENT 12 6 83 30 17 35 67 54 41 65
REMARK Flexibility Score: inf
ROOT
ATOM      1  C   UNL A   1      34.189  30.373  27.652  1.00  0.00     0.023 C 
ENDROOT
BRANCH   1   2
ATOM      2  C   UNL A   1      34.101  29.178  26.707  1.00  0.00     0.116 C 
BRANCH   2   3
ATOM      3  N   UNL A   1      33.204  28.147  27.183  1.00  0.00    -0.353 N 
ATOM      4  C   UNL A   1      32.356  27.299  26.518  1.00  0.00     0.264 C 
ATOM      5  O   UNL A   1      31.793  26.462  27.233  1.00  0.00    -0.270 OA
ATOM      6  H   UNL A   1      33.203  28.034  28.161  1.00  0.00     0.163 HD
BRANCH   4   7
ATOM      7  C   UNL A   1      32.112  27.385  24.957  1.00  0.00     0.190 C 
ATOM      8  C   UNL A   1      31.010  26.386  24.625  1.00  0.00     0.080 C 
ATOM      9  C   UNL A   1      31.956  28.860  24.610  1.00  0.00     0.080 C 
ATOM     10  C   UNL A   1      29.681  26.940  24.150  1.00  0.00     0.124 C 
ATOM     11  C   UNL A   1      30.669  29.298  23.938  1.00  0.00     0.124 C 
ATOM     12  N   UNL A   1      29.607  28.321  23.699  1.00  0.00    -0.337 N 
ATOM     13  C   UNL A   1      28.403  28.688  23.061  1.00  0.00     0.274 C 
ATOM     14  O   UNL A   1      27.425  27.945  23.002  1.00  0.00    -0.267 OA
BRANCH   7  15
ATOM     15  O   UNL A   1      33.384  26.913  24.441  1.00  0.00    -0.475 OA
BRANCH  15  16
ATOM     16  C   UNL A   1      33.780  25.731  23.899  1.00  0.00     0.142 A 
ATOM     17  C   UNL A   1      32.883  25.632  21.473  1.00  0.00     0.071 C 
ATOM     18  C   UNL A   1      33.605  25.109  22.659  1.00  0.00     0.079 A 
ATOM     19  N   UNL A   1      34.116  23.871  22.374  1.00  0.00    -0.258 NA
ATOM     20  C   UNL A   1      34.819  23.221  23.315  1.00  0.00     0.111 A 
ATOM     21  C   UNL A   1      34.532  25.007  24.840  1.00  0.00     0.050 A 
ATOM     22  C   UNL A   1      35.057  23.748  24.559  1.00  0.00     0.024 A 
ENDBRANCH  15  16
ENDBRANCH   7  15
BRANCH  13  23
ATOM     23  C   UNL A   1      28.285  30.051  22.497  1.00  0.00     0.151 A 
ATOM     24  C   UNL A   1      28.306  30.229  21.124  1.00  0.00     0.042 A 
ATOM     25  N   UNL A   1      28.071  31.065  23.373  1.00  0.00    -0.142 NA
ATOM     26  C   UNL A   1      28.058  31.506  20.640  1.00  0.00     0.072 A 
ATOM     27  N   UNL A   1      27.832  32.313  22.894  1.00  0.00    -0.112 NA
ATOM     28  C   UNL A   1      27.825  32.504  21.561  1.00  0.00     0.230 A 
BRANCH  28  29
ATOM     29  O   UNL A   1      27.545  33.768  21.154  1.00  0.00    -0.492 OA
ATOM     30  H   UNL A   1      27.123  34.366  21.739  1.00  0.00     0.295 HD
ENDBRANCH  28  29
ENDBRANCH  13  23
ENDBRANCH   4   7
ENDBRANCH   2   3
ENDBRANCH   1   2
BRANCH   1  31
ATOM     31  C   UNL A   1      32.966  31.287  27.645  1.00  0.00     0.023 C 
BRANCH  31  32
ATOM     32  C   UNL A   1      33.149  32.629  26.939  1.00  0.00     0.116 C 
BRANCH  32  33
ATOM     33  N   UNL A   1      32.629  33.767  27.682  1.00  0.00    -0.352 N 
ATOM     34  C   UNL A   1      33.181  34.410  28.767  1.00  0.00     0.251 C 
ATOM     35  H   UNL A   1      31.767  34.125  27.368  1.00  0.00     0.163 HD
ATOM     36  O   UNL A   1      32.576  35.323  29.323  1.00  0.00    -0.269 OA
BRANCH  34  37
ATOM     37  C   UNL A   1      34.490  33.963  29.288  1.00  0.00     0.039 A 
ATOM     38  C   UNL A   1      34.524  33.158  30.430  1.00  0.00     0.014 A 
ATOM     39  C   UNL A   1      35.673  34.290  28.620  1.00  0.00     0.014 A 
ATOM     40  C   UNL A   1      35.737  32.610  30.851  1.00  0.00     0.010 A 
ATOM     41  C   UNL A   1      36.866  33.684  28.997  1.00  0.00     0.010 A 
ATOM     42  C   UNL A   1      36.910  32.831  30.111  1.00  0.00    -0.014 A 
BRANCH  42  43
ATOM     43  C   UNL A   1      38.190  32.169  30.471  1.00  0.00     0.031 A 
ATOM     44  C   UNL A   1      39.158  32.852  31.397  1.00  0.00     0.074 A 
ATOM     45  C   UNL A   1      38.520  30.995  29.898  1.00  0.00     0.049 A 
ATOM     46  N   UNL A   1      40.362  32.484  31.751  1.00  0.00    -0.248 NA
ATOM     47  C   UNL A   1      38.724  34.133  31.976  1.00  0.00     0.031 C 
ATOM     48  C   UNL A   1      37.695  30.255  28.942  1.00  0.00     0.029 A 
ATOM     49  N   UNL A   1      39.649  30.224  30.026  1.00  0.00    -0.354 N 
ATOM     50  C   UNL A   1      40.837  33.496  32.577  1.00  0.00     0.074 A 
ATOM     51  C   UNL A   1      39.811  34.515  32.630  1.00  0.00     0.031 C 
ATOM     52  C   UNL A   1      38.334  29.129  28.586  1.00  0.00     0.029 A 
ATOM     53  C   UNL A   1      39.629  29.084  29.258  1.00  0.00     0.049 A 
ATOM     54  H   UNL A   1      40.402  30.465  30.612  1.00  0.00     0.167 HD
ATOM     55  C   UNL A   1      42.012  33.560  33.248  1.00  0.00     0.037 A 
ATOM     56  C   UNL A   1      40.552  28.116  29.108  1.00  0.00     0.037 A 
ATOM     57  C   UNL A   1      43.017  32.531  33.221  1.00  0.00     0.049 A 
ATOM     58  C   UNL A   1      41.844  28.204  29.874  1.00  0.00     0.074 A 
ATOM     59  C   UNL A   1      44.212  32.475  33.918  1.00  0.00     0.029 A 
ATOM     60  N   UNL A   1      42.943  31.376  32.458  1.00  0.00    -0.354 N 
ATOM     61  N   UNL A   1      42.251  29.136  30.701  1.00  0.00    -0.248 NA
ATOM     62  C   UNL A   1      42.801  27.105  29.688  1.00  0.00     0.031 C 
ATOM     63  C   UNL A   1      44.878  31.301  33.550  1.00  0.00     0.029 A 
ATOM     64  C   UNL A   1      44.078  30.607  32.656  1.00  0.00     0.049 A 
ATOM     65  H   UNL A   1      42.195  31.137  31.864  1.00  0.00     0.167 HD
ATOM     66  C   UNL A   1      43.495  28.721  31.158  1.00  0.00     0.074 A 
ATOM     67  C   UNL A   1      43.771  27.449  30.522  1.00  0.00     0.031 C 
ATOM     68  C   UNL A   1      44.333  29.337  32.026  1.00  0.00     0.037 A 
BRANCH  55  69
ATOM     69  C   UNL A   1      42.266  34.784  34.077  1.00  0.00     0.057 A 
ATOM     70  C   UNL A   1      41.959  34.826  35.443  1.00  0.00     0.134 A 
ATOM     71  C   UNL A   1      42.853  35.923  33.510  1.00  0.00     0.134 A 
ATOM     72  F   UNL A   1      41.384  33.773  36.044  1.00  0.00    -0.206 F 
ATOM     73  C   UNL A   1      42.202  35.967  36.211  1.00  0.00     0.040 A 
ATOM     74  C   UNL A   1      43.124  37.060  34.274  1.00  0.00     0.040 A 
ATOM     75  F   UNL A   1      43.176  35.948  32.209  1.00  0.00    -0.206 F 
ATOM     76  C   UNL A   1      42.792  37.085  35.627  1.00  0.00     0.006 A 
ENDBRANCH  55  69
BRANCH  56  77
ATOM     77  C   UNL A   1      40.280  26.960  28.218  1.00  0.00     0.057 A 
ATOM     78  C   UNL A   1      40.817  26.903  26.927  1.00  0.00     0.134 A 
ATOM     79  C   UNL A   1      39.474  25.892  28.628  1.00  0.00     0.134 A 
ATOM     80  F   UNL A   1      41.582  27.907  26.470  1.00  0.00    -0.206 F 
ATOM     81  C   UNL A   1      40.547  25.837  26.068  1.00  0.00     0.040 A 
ATOM     82  C   UNL A   1      39.214  24.808  27.789  1.00  0.00     0.040 A 
ATOM     83  F   UNL A   1      38.935  25.883  29.857  1.00  0.00    -0.206 F 
ATOM     84  C   UNL A   1      39.746  24.782  26.501  1.00  0.00     0.006 A 
ENDBRANCH  56  77
BRANCH  68  85
ATOM     85  C   UNL A   1      45.607  28.628  32.373  1.00  0.00     0.057 A 
ATOM     86  C   UNL A   1      45.679  27.708  33.426  1.00  0.00     0.134 A 
ATOM     87  C   UNL A   1      46.767  28.838  31.616  1.00  0.00     0.134 A 
ATOM     88  F   UNL A   1      44.607  27.473  34.197  1.00  0.00    -0.206 F 
ATOM     89  C   UNL A   1      46.865  27.033  33.724  1.00  0.00     0.040 A 
ATOM     90  C   UNL A   1      47.951  28.152  31.888  1.00  0.00     0.040 A 
ATOM     91  F   UNL A   1      46.762  29.701  30.589  1.00  0.00    -0.206 F 
ATOM     92  C   UNL A   1      48.003  27.250  32.949  1.00  0.00     0.006 A 
ENDBRANCH  68  85
ENDBRANCH  42  43
ENDBRANCH  34  37
ENDBRANCH  32  33
ENDBRANCH  31  32
ENDBRANCH   1  31
TORSDOF 15
ENDMDL
