MODEL 1
REMARK VINA RESULT:     -12.4      0.000      0.000
REMARK SMILES N#C/C(=C\c1ccc(-c2ccc(C(=O)NCCCCNC(=O)c3ccc(-c4c5nc(c(-c6c(F)cccc6F)c6ccc([nH]6)c(-c6c(F)cccc6F)c6nc(c(-c7c(F)cccc7F)c7ccc4[nH]7)C=C6)C=C5)cc3)cc2)o1)[C@@H]1N=c2cc(Br)cnc2=N1
REMARK SMILES IDX 17 1 16 2 15 3 13 4 14 5 12 7 9 8 10 9 78 10 11 11 77 12
REMARK SMILES IDX 8 13 5 14 6 15 79 16 7 17 4 18 3 19 2 20 1 21 80 22 81 23
REMARK SMILES IDX 89 24 82 25 88 26 83 27 87 28 84 29 86 30 85 31 18 32 19 33
REMARK SMILES IDX 20 34 21 35 22 37 23 38 24 39 76 40 25 41 75 42 26 43 27 44
REMARK SMILES IDX 28 45 69 46 29 47 74 48 68 49 70 50 30 51 73 52 67 53 66 54
REMARK SMILES IDX 31 56 57 57 40 58 56 59 41 60 44 61 55 62 71 63 42 64 43 65
REMARK SMILES IDX 54 67 72 68 45 69 32 70 33 71 38 72 34 73 35 74 37 75 39 76
REMARK SMILES IDX 36 77 58 78 59 79 64 80 60 81 61 82 63 83 65 84 62 85 46 86
REMARK SMILES IDX 47 87 52 88 48 89 49 90 51 91 53 92 50 93
REMARK H PARENT 15 6 20 36 70 55 44 66
REMARK Flexibility Score: inf
ROOT
ATOM      1  C   UNL A   1      43.882  21.136  25.545  1.00  0.00     0.023 C 
ENDROOT
BRANCH   1   2
ATOM      2  C   UNL A   1      42.850  20.577  26.529  1.00  0.00     0.116 C 
BRANCH   2   3
ATOM      3  N   UNL A   1      42.739  21.425  27.701  1.00  0.00    -0.352 N 
ATOM      4  C   UNL A   1      41.764  22.313  28.090  1.00  0.00     0.251 C 
ATOM      5  O   UNL A   1      41.885  22.865  29.183  1.00  0.00    -0.269 OA
ATOM      6  H   UNL A   1      43.494  21.351  28.329  1.00  0.00     0.163 HD
BRANCH   4   7
ATOM      7  C   UNL A   1      40.555  22.582  27.267  1.00  0.00     0.039 A 
ATOM      8  C   UNL A   1      38.195  23.178  25.873  1.00  0.00     0.017 A 
ATOM      9  C   UNL A   1      38.863  24.187  26.569  1.00  0.00     0.013 A 
ATOM     10  C   UNL A   1      38.741  21.897  25.817  1.00  0.00     0.013 A 
ATOM     11  C   UNL A   1      40.036  23.886  27.269  1.00  0.00     0.014 A 
ATOM     12  C   UNL A   1      39.929  21.614  26.482  1.00  0.00     0.014 A 
BRANCH   8  13
ATOM     13  C   UNL A   1      36.918  23.397  25.241  1.00  0.00     0.134 A 
ATOM     14  C   UNL A   1      34.977  24.427  25.046  1.00  0.00     0.128 A 
ATOM     15  C   UNL A   1      35.165  23.637  23.913  1.00  0.00     0.051 A 
ATOM     16  O   UNL A   1      36.090  24.288  25.840  1.00  0.00    -0.457 OA
ATOM     17  C   UNL A   1      36.388  22.956  24.055  1.00  0.00     0.051 A 
BRANCH  14  18
ATOM     18  C   UNL A   1      33.885  25.271  25.390  1.00  0.00     0.066 C 
ATOM     19  C   UNL A   1      32.821  24.826  26.094  1.00  0.00     0.080 C 
BRANCH  19  20
ATOM     20  C   UNL A   1      32.887  23.411  26.644  1.00  0.00     0.099 C 
ATOM     21  N   UNL A   1      32.942  22.236  27.101  1.00  0.00    -0.193 NA
ENDBRANCH  19  20
BRANCH  19  22
ATOM     22  C   UNL A   1      31.594  25.658  26.356  1.00  0.00     0.265 C 
ATOM     23  N   UNL A   1      30.769  25.669  25.108  1.00  0.00    -0.249 NA
ATOM     24  N   UNL A   1      31.972  27.048  26.730  1.00  0.00    -0.232 NA
ATOM     25  C   UNL A   1      30.749  26.916  24.798  1.00  0.00     0.106 A 
ATOM     26  C   UNL A   1      31.463  27.757  25.784  1.00  0.00     0.175 A 
ATOM     27  C   UNL A   1      30.172  27.582  23.632  1.00  0.00     0.049 A 
ATOM     28  N   UNL A   1      31.604  29.108  25.694  1.00  0.00    -0.234 NA
ATOM     29  C   UNL A   1      30.346  28.907  23.540  1.00  0.00     0.038 A 
ATOM     30  C   UNL A   1      31.078  29.631  24.630  1.00  0.00     0.129 A 
ATOM     31  Br  UNL A   1      29.722  29.910  22.104  1.00  0.00    -0.049 Br
ENDBRANCH  19  22
ENDBRANCH  14  18
ENDBRANCH   8  13
ENDBRANCH   4   7
ENDBRANCH   2   3
ENDBRANCH   1   2
BRANCH   1  32
ATOM     32  C   UNL A   1      43.318  22.134  24.536  1.00  0.00     0.023 C 
BRANCH  32  33
ATOM     33  C   UNL A   1      43.384  23.587  24.977  1.00  0.00     0.116 C 
BRANCH  33  34
ATOM     34  N   UNL A   1      44.642  24.236  24.636  1.00  0.00    -0.352 N 
ATOM     35  C   UNL A   1      45.136  25.430  25.104  1.00  0.00     0.251 C 
ATOM     36  H   UNL A   1      45.211  23.758  23.990  1.00  0.00     0.163 HD
ATOM     37  O   UNL A   1      46.168  25.901  24.646  1.00  0.00    -0.269 OA
BRANCH  35  38
ATOM     38  C   UNL A   1      44.376  26.161  26.137  1.00  0.00     0.039 A 
ATOM     39  C   UNL A   1      43.635  25.429  27.069  1.00  0.00     0.014 A 
ATOM     40  C   UNL A   1      44.431  27.555  26.212  1.00  0.00     0.014 A 
ATOM     41  C   UNL A   1      43.000  26.096  28.117  1.00  0.00     0.010 A 
ATOM     42  C   UNL A   1      43.858  28.210  27.295  1.00  0.00     0.010 A 
ATOM     43  C   UNL A   1      43.137  27.487  28.257  1.00  0.00    -0.014 A 
BRANCH  43  44
ATOM     44  C   UNL A   1      42.527  28.207  29.400  1.00  0.00     0.031 A 
ATOM     45  C   UNL A   1      43.175  28.150  30.754  1.00  0.00     0.074 A 
ATOM     46  C   UNL A   1      41.356  28.851  29.234  1.00  0.00     0.049 A 
ATOM     47  N   UNL A   1      42.760  28.647  31.891  1.00  0.00    -0.248 NA
ATOM     48  C   UNL A   1      44.444  27.409  30.849  1.00  0.00     0.031 C 
ATOM     49  C   UNL A   1      40.603  28.932  27.982  1.00  0.00     0.029 A 
ATOM     50  N   UNL A   1      40.587  29.549  30.131  1.00  0.00    -0.354 N 
ATOM     51  C   UNL A   1      43.704  28.266  32.835  1.00  0.00     0.074 A 
ATOM     52  C   UNL A   1      44.686  27.454  32.150  1.00  0.00     0.031 C 
ATOM     53  C   UNL A   1      39.490  29.656  28.184  1.00  0.00     0.029 A 
ATOM     54  C   UNL A   1      39.435  30.062  29.585  1.00  0.00     0.049 A 
ATOM     55  H   UNL A   1      40.836  29.670  31.075  1.00  0.00     0.167 HD
ATOM     56  C   UNL A   1      43.759  28.583  34.150  1.00  0.00     0.037 A 
ATOM     57  C   UNL A   1      38.446  30.775  30.153  1.00  0.00     0.037 A 
ATOM     58  C   UNL A   1      42.798  29.416  34.822  1.00  0.00     0.049 A 
ATOM     59  C   UNL A   1      38.537  31.126  31.612  1.00  0.00     0.074 A 
ATOM     60  C   UNL A   1      42.801  29.849  36.136  1.00  0.00     0.029 A 
ATOM     61  N   UNL A   1      41.661  29.944  34.227  1.00  0.00    -0.354 N 
ATOM     62  N   UNL A   1      39.472  30.818  32.479  1.00  0.00    -0.248 NA
ATOM     63  C   UNL A   1      37.442  31.932  32.171  1.00  0.00     0.031 C 
ATOM     64  C   UNL A   1      41.646  30.611  36.348  1.00  0.00     0.029 A 
ATOM     65  C   UNL A   1      40.947  30.687  35.153  1.00  0.00     0.049 A 
ATOM     66  H   UNL A   1      41.402  29.812  33.288  1.00  0.00     0.167 HD
ATOM     67  C   UNL A   1      39.091  31.412  33.675  1.00  0.00     0.074 A 
ATOM     68  C   UNL A   1      37.848  32.109  33.420  1.00  0.00     0.031 C 
ATOM     69  C   UNL A   1      39.717  31.383  34.877  1.00  0.00     0.037 A 
BRANCH  56  70
ATOM     70  C   UNL A   1      44.904  28.029  34.946  1.00  0.00     0.057 A 
ATOM     71  C   UNL A   1      46.107  28.732  35.094  1.00  0.00     0.134 A 
ATOM     72  C   UNL A   1      44.796  26.791  35.591  1.00  0.00     0.134 A 
ATOM     73  F   UNL A   1      46.280  29.917  34.490  1.00  0.00    -0.206 F 
ATOM     74  C   UNL A   1      47.170  28.212  35.835  1.00  0.00     0.040 A 
ATOM     75  C   UNL A   1      45.841  26.273  36.355  1.00  0.00     0.040 A 
ATOM     76  F   UNL A   1      43.670  26.068  35.493  1.00  0.00    -0.206 F 
ATOM     77  C   UNL A   1      47.036  26.981  36.474  1.00  0.00     0.006 A 
ENDBRANCH  56  70
BRANCH  57  78
ATOM     78  C   UNL A   1      37.296  31.233  29.335  1.00  0.00     0.057 A 
ATOM     79  C   UNL A   1      36.226  30.376  29.054  1.00  0.00     0.134 A 
ATOM     80  C   UNL A   1      37.240  32.529  28.812  1.00  0.00     0.134 A 
ATOM     81  F   UNL A   1      36.232  29.117  29.514  1.00  0.00    -0.206 F 
ATOM     82  C   UNL A   1      35.149  30.784  28.266  1.00  0.00     0.040 A 
ATOM     83  C   UNL A   1      36.158  32.959  28.040  1.00  0.00     0.040 A 
ATOM     84  F   UNL A   1      38.230  33.401  29.052  1.00  0.00    -0.206 F 
ATOM     85  C   UNL A   1      35.112  32.082  27.760  1.00  0.00     0.006 A 
ENDBRANCH  57  78
BRANCH  69  86
ATOM     86  C   UNL A   1      39.086  32.156  35.996  1.00  0.00     0.057 A 
ATOM     87  C   UNL A   1      39.328  33.523  36.178  1.00  0.00     0.134 A 
ATOM     88  C   UNL A   1      38.195  31.532  36.878  1.00  0.00     0.134 A 
ATOM     89  F   UNL A   1      40.183  34.175  35.375  1.00  0.00    -0.206 F 
ATOM     90  C   UNL A   1      38.720  34.239  37.210  1.00  0.00     0.040 A 
ATOM     91  C   UNL A   1      37.562  32.241  37.899  1.00  0.00     0.040 A 
ATOM     92  F   UNL A   1      37.915  30.226  36.752  1.00  0.00    -0.206 F 
ATOM     93  C   UNL A   1      37.828  33.599  38.069  1.00  0.00     0.006 A 
ENDBRANCH  69  86
ENDBRANCH  43  44
ENDBRANCH  35  38
ENDBRANCH  33  34
ENDBRANCH  32  33
ENDBRANCH   1  32
TORSDOF 15
ENDMDL
MODEL 2
REMARK VINA RESULT:     -12.3      4.181      7.240
REMARK SMILES N#C/C(=C\c1ccc(-c2ccc(C(=O)NCCCCNC(=O)c3ccc(-c4c5nc(c(-c6c(F)cccc6F)c6ccc([nH]6)c(-c6c(F)cccc6F)c6nc(c(-c7c(F)cccc7F)c7ccc4[nH]7)C=C6)C=C5)cc3)cc2)o1)[C@@H]1N=c2cc(Br)cnc2=N1
REMARK SMILES IDX 17 1 16 2 15 3 13 4 14 5 12 7 9 8 10 9 78 10 11 11 77 12
REMARK SMILES IDX 8 13 5 14 6 15 79 16 7 17 4 18 3 19 2 20 1 21 80 22 81 23
REMARK SMILES IDX 89 24 82 25 88 26 83 27 87 28 84 29 86 30 85 31 18 32 19 33
REMARK SMILES IDX 20 34 21 35 22 37 23 38 24 39 76 40 25 41 75 42 26 43 27 44
REMARK SMILES IDX 28 45 69 46 29 47 74 48 68 49 70 50 30 51 73 52 67 53 66 54
REMARK SMILES IDX 31 56 57 57 40 58 56 59 41 60 44 61 55 62 71 63 42 64 43 65
REMARK SMILES IDX 54 67 72 68 45 69 32 70 33 71 38 72 34 73 35 74 37 75 39 76
REMARK SMILES IDX 36 77 58 78 59 79 64 80 60 81 61 82 63 83 65 84 62 85 46 86
REMARK SMILES IDX 47 87 52 88 48 89 49 90 51 91 53 92 50 93
REMARK H PARENT 15 6 20 36 70 55 44 66
REMARK Flexibility Score: inf
ROOT
ATOM      1  C   UNL A   1      42.310  20.329  27.251  1.00  0.00     0.023 C 
ENDROOT
BRANCH   1   2
ATOM      2  C   UNL A   1      42.814  20.107  25.821  1.00  0.00     0.116 C 
BRANCH   2   3
ATOM      3  N   UNL A   1      44.253  20.276  25.747  1.00  0.00    -0.352 N 
ATOM      4  C   UNL A   1      45.035  21.406  25.755  1.00  0.00     0.251 C 
ATOM      5  O   UNL A   1      46.258  21.266  25.748  1.00  0.00    -0.269 OA
ATOM      6  H   UNL A   1      44.758  19.433  25.681  1.00  0.00     0.163 HD
BRANCH   4   7
ATOM      7  C   UNL A   1      44.460  22.776  25.827  1.00  0.00     0.039 A 
ATOM      8  C   UNL A   1      43.469  25.400  25.795  1.00  0.00     0.017 A 
ATOM      9  C   UNL A   1      43.336  24.594  24.664  1.00  0.00     0.013 A 
ATOM     10  C   UNL A   1      44.031  24.874  26.957  1.00  0.00     0.013 A 
ATOM     11  C   UNL A   1      43.837  23.288  24.679  1.00  0.00     0.014 A 
ATOM     12  C   UNL A   1      44.490  23.562  26.979  1.00  0.00     0.014 A 
BRANCH   8  13
ATOM     13  C   UNL A   1      43.089  26.790  25.797  1.00  0.00     0.134 A 
ATOM     14  C   UNL A   1      43.146  28.838  26.615  1.00  0.00     0.128 A 
ATOM     15  C   UNL A   1      42.507  28.883  25.378  1.00  0.00     0.051 A 
ATOM     16  O   UNL A   1      43.527  27.537  26.840  1.00  0.00    -0.457 OA
ATOM     17  C   UNL A   1      42.442  27.571  24.873  1.00  0.00     0.051 A 
BRANCH  14  18
ATOM     18  C   UNL A   1      43.421  29.892  27.530  1.00  0.00     0.066 C 
ATOM     19  C   UNL A   1      44.598  30.557  27.533  1.00  0.00     0.080 C 
BRANCH  19  20
ATOM     20  C   UNL A   1      45.583  30.244  26.419  1.00  0.00     0.099 C 
ATOM     21  N   UNL A   1      46.401  29.986  25.494  1.00  0.00    -0.193 NA
ENDBRANCH  19  20
BRANCH  19  22
ATOM     22  C   UNL A   1      44.968  31.581  28.573  1.00  0.00     0.265 C 
ATOM     23  N   UNL A   1      43.707  32.229  29.050  1.00  0.00    -0.249 NA
ATOM     24  N   UNL A   1      45.883  32.604  27.998  1.00  0.00    -0.232 NA
ATOM     25  C   UNL A   1      43.884  33.459  28.719  1.00  0.00     0.106 A 
ATOM     26  C   UNL A   1      45.205  33.695  28.096  1.00  0.00     0.175 A 
ATOM     27  C   UNL A   1      42.978  34.599  28.838  1.00  0.00     0.049 A 
ATOM     28  N   UNL A   1      45.645  34.900  27.643  1.00  0.00    -0.234 NA
ATOM     29  C   UNL A   1      43.412  35.773  28.359  1.00  0.00     0.038 A 
ATOM     30  C   UNL A   1      44.787  35.865  27.769  1.00  0.00     0.129 A 
ATOM     31  Br  UNL A   1      42.377  37.318  28.382  1.00  0.00    -0.049 Br
ENDBRANCH  19  22
ENDBRANCH  14  18
ENDBRANCH   8  13
ENDBRANCH   4   7
ENDBRANCH   2   3
ENDBRANCH   1   2
BRANCH   1  32
ATOM     32  C   UNL A   1      41.032  21.161  27.348  1.00  0.00     0.023 C 
BRANCH  32  33
ATOM     33  C   UNL A   1      40.793  22.096  26.174  1.00  0.00     0.116 C 
BRANCH  33  34
ATOM     34  N   UNL A   1      39.385  22.254  25.842  1.00  0.00    -0.352 N 
ATOM     35  C   UNL A   1      38.531  23.264  26.219  1.00  0.00     0.251 C 
ATOM     36  H   UNL A   1      38.994  21.549  25.276  1.00  0.00     0.163 HD
ATOM     37  O   UNL A   1      37.339  23.208  25.946  1.00  0.00    -0.269 OA
BRANCH  35  38
ATOM     38  C   UNL A   1      39.067  24.397  26.999  1.00  0.00     0.039 A 
ATOM     39  C   UNL A   1      39.711  25.434  26.320  1.00  0.00     0.014 A 
ATOM     40  C   UNL A   1      38.893  24.455  28.384  1.00  0.00     0.014 A 
ATOM     41  C   UNL A   1      40.126  26.563  27.026  1.00  0.00     0.010 A 
ATOM     42  C   UNL A   1      39.243  25.610  29.074  1.00  0.00     0.010 A 
ATOM     43  C   UNL A   1      39.863  26.674  28.401  1.00  0.00    -0.014 A 
BRANCH  43  44
ATOM     44  C   UNL A   1      40.235  27.892  29.158  1.00  0.00     0.031 A 
ATOM     45  C   UNL A   1      41.571  27.973  29.841  1.00  0.00     0.074 A 
ATOM     46  C   UNL A   1      39.344  28.894  29.290  1.00  0.00     0.049 A 
ATOM     47  N   UNL A   1      42.052  28.917  30.610  1.00  0.00    -0.248 NA
ATOM     48  C   UNL A   1      42.476  26.826  29.660  1.00  0.00     0.031 C 
ATOM     49  C   UNL A   1      37.996  28.910  28.719  1.00  0.00     0.029 A 
ATOM     50  N   UNL A   1      39.437  30.088  29.959  1.00  0.00    -0.354 N 
ATOM     51  C   UNL A   1      43.302  28.470  31.016  1.00  0.00     0.074 A 
ATOM     52  C   UNL A   1      43.487  27.152  30.451  1.00  0.00     0.031 C 
ATOM     53  C   UNL A   1      37.395  30.065  29.046  1.00  0.00     0.029 A 
ATOM     54  C   UNL A   1      38.300  30.855  29.873  1.00  0.00     0.049 A 
ATOM     55  H   UNL A   1      40.240  30.368  30.453  1.00  0.00     0.167 HD
ATOM     56  C   UNL A   1      44.223  29.112  31.773  1.00  0.00     0.037 A 
ATOM     57  C   UNL A   1      38.021  32.059  30.407  1.00  0.00     0.037 A 
ATOM     58  C   UNL A   1      44.049  30.437  32.307  1.00  0.00     0.049 A 
ATOM     59  C   UNL A   1      39.065  32.757  31.232  1.00  0.00     0.074 A 
ATOM     60  C   UNL A   1      44.948  31.200  33.031  1.00  0.00     0.029 A 
ATOM     61  N   UNL A   1      42.896  31.196  32.172  1.00  0.00    -0.354 N 
ATOM     62  N   UNL A   1      40.272  32.354  31.552  1.00  0.00    -0.248 NA
ATOM     63  C   UNL A   1      38.714  34.081  31.765  1.00  0.00     0.031 C 
ATOM     64  C   UNL A   1      44.327  32.408  33.365  1.00  0.00     0.029 A 
ATOM     65  C   UNL A   1      43.055  32.413  32.813  1.00  0.00     0.049 A 
ATOM     66  H   UNL A   1      42.086  30.912  31.692  1.00  0.00     0.167 HD
ATOM     67  C   UNL A   1      40.831  33.383  32.297  1.00  0.00     0.074 A 
ATOM     68  C   UNL A   1      39.838  34.434  32.372  1.00  0.00     0.031 C 
ATOM     69  C   UNL A   1      42.058  33.451  32.867  1.00  0.00     0.037 A 
BRANCH  56  70
ATOM     70  C   UNL A   1      45.504  28.389  32.061  1.00  0.00     0.057 A 
ATOM     71  C   UNL A   1      45.659  27.587  33.200  1.00  0.00     0.134 A 
ATOM     72  C   UNL A   1      46.588  28.472  31.178  1.00  0.00     0.134 A 
ATOM     73  F   UNL A   1      44.664  27.476  34.093  1.00  0.00    -0.206 F 
ATOM     74  C   UNL A   1      46.854  26.916  33.464  1.00  0.00     0.040 A 
ATOM     75  C   UNL A   1      47.779  27.786  31.418  1.00  0.00     0.040 A 
ATOM     76  F   UNL A   1      46.505  29.219  30.067  1.00  0.00    -0.206 F 
ATOM     77  C   UNL A   1      47.917  27.010  32.567  1.00  0.00     0.006 A 
ENDBRANCH  56  70
BRANCH  57  78
ATOM     78  C   UNL A   1      36.705  32.696  30.153  1.00  0.00     0.057 A 
ATOM     79  C   UNL A   1      36.486  33.461  29.002  1.00  0.00     0.134 A 
ATOM     80  C   UNL A   1      35.641  32.563  31.053  1.00  0.00     0.134 A 
ATOM     81  F   UNL A   1      37.474  33.639  28.113  1.00  0.00    -0.206 F 
ATOM     82  C   UNL A   1      35.262  34.087  28.761  1.00  0.00     0.040 A 
ATOM     83  C   UNL A   1      34.404  33.164  30.814  1.00  0.00     0.040 A 
ATOM     84  F   UNL A   1      35.786  31.835  32.170  1.00  0.00    -0.206 F 
ATOM     85  C   UNL A   1      34.215  33.935  29.668  1.00  0.00     0.006 A 
ENDBRANCH  57  78
BRANCH  69  86
ATOM     86  C   UNL A   1      42.408  34.717  33.591  1.00  0.00     0.057 A 
ATOM     87  C   UNL A   1      43.020  35.796  32.940  1.00  0.00     0.134 A 
ATOM     88  C   UNL A   1      42.092  34.872  34.947  1.00  0.00     0.134 A 
ATOM     89  F   UNL A   1      43.360  35.704  31.646  1.00  0.00    -0.206 F 
ATOM     90  C   UNL A   1      43.322  36.978  33.618  1.00  0.00     0.040 A 
ATOM     91  C   UNL A   1      42.367  36.058  35.629  1.00  0.00     0.040 A 
ATOM     92  F   UNL A   1      41.499  33.878  35.626  1.00  0.00    -0.206 F 
ATOM     93  C   UNL A   1      42.989  37.113  34.964  1.00  0.00     0.006 A 
ENDBRANCH  69  86
ENDBRANCH  43  44
ENDBRANCH  35  38
ENDBRANCH  33  34
ENDBRANCH  32  33
ENDBRANCH   1  32
TORSDOF 15
ENDMDL
MODEL 3
REMARK VINA RESULT:     -12.2      4.563     11.142
REMARK SMILES N#C/C(=C\c1ccc(-c2ccc(C(=O)NCCCCNC(=O)c3ccc(-c4c5nc(c(-c6c(F)cccc6F)c6ccc([nH]6)c(-c6c(F)cccc6F)c6nc(c(-c7c(F)cccc7F)c7ccc4[nH]7)C=C6)C=C5)cc3)cc2)o1)[C@@H]1N=c2cc(Br)cnc2=N1
REMARK SMILES IDX 17 1 16 2 15 3 13 4 14 5 12 7 9 8 10 9 78 10 11 11 77 12
REMARK SMILES IDX 8 13 5 14 6 15 79 16 7 17 4 18 3 19 2 20 1 21 80 22 81 23
REMARK SMILES IDX 89 24 82 25 88 26 83 27 87 28 84 29 86 30 85 31 18 32 19 33
REMARK SMILES IDX 20 34 21 35 22 37 23 38 24 39 76 40 25 41 75 42 26 43 27 44
REMARK SMILES IDX 28 45 69 46 29 47 74 48 68 49 70 50 30 51 73 52 67 53 66 54
REMARK SMILES IDX 31 56 57 57 40 58 56 59 41 60 44 61 55 62 71 63 42 64 43 65
REMARK SMILES IDX 54 67 72 68 45 69 32 70 33 71 38 72 34 73 35 74 37 75 39 76
REMARK SMILES IDX 36 77 58 78 59 79 64 80 60 81 61 82 63 83 65 84 62 85 46 86
REMARK SMILES IDX 47 87 52 88 48 89 49 90 51 91 53 92 50 93
REMARK H PARENT 15 6 20 36 70 55 44 66
REMARK Flexibility Score: inf
ROOT
ATOM      1  C   UNL A   1      35.695  31.642  31.606  1.00  0.00     0.023 C 
ENDROOT
BRANCH   1   2
ATOM      2  C   UNL A   1      35.978  32.064  33.051  1.00  0.00     0.116 C 
BRANCH   2   3
ATOM      3  N   UNL A   1      35.729  33.481  33.236  1.00  0.00    -0.352 N 
ATOM      4  C   UNL A   1      36.511  34.581  32.978  1.00  0.00     0.251 C 
ATOM      5  O   UNL A   1      36.025  35.695  33.167  1.00  0.00    -0.269 OA
ATOM      6  H   UNL A   1      34.843  33.691  33.611  1.00  0.00     0.163 HD
BRANCH   4   7
ATOM      7  C   UNL A   1      37.890  34.471  32.431  1.00  0.00     0.039 A 
ATOM      8  C   UNL A   1      40.537  34.421  31.506  1.00  0.00     0.017 A 
ATOM      9  C   UNL A   1      40.282  34.498  32.876  1.00  0.00     0.013 A 
ATOM     10  C   UNL A   1      39.476  34.299  30.610  1.00  0.00     0.013 A 
ATOM     11  C   UNL A   1      38.961  34.530  33.335  1.00  0.00     0.014 A 
ATOM     12  C   UNL A   1      38.166  34.289  31.076  1.00  0.00     0.014 A 
BRANCH   8  13
ATOM     13  C   UNL A   1      41.870  34.514  30.966  1.00  0.00     0.134 A 
ATOM     14  C   UNL A   1      43.465  33.917  29.563  1.00  0.00     0.128 A 
ATOM     15  C   UNL A   1      43.880  35.070  30.226  1.00  0.00     0.051 A 
ATOM     16  O   UNL A   1      42.203  33.608  30.014  1.00  0.00    -0.457 OA
ATOM     17  C   UNL A   1      42.876  35.431  31.143  1.00  0.00     0.051 A 
BRANCH  14  18
ATOM     18  C   UNL A   1      44.139  33.149  28.573  1.00  0.00     0.066 C 
ATOM     19  C   UNL A   1      44.077  33.452  27.258  1.00  0.00     0.080 C 
BRANCH  19  20
ATOM     20  C   UNL A   1      43.376  34.743  26.868  1.00  0.00     0.099 C 
ATOM     21  N   UNL A   1      42.795  35.815  26.544  1.00  0.00    -0.193 NA
ENDBRANCH  19  20
BRANCH  19  22
ATOM     22  C   UNL A   1      44.667  32.584  26.179  1.00  0.00     0.265 C 
ATOM     23  N   UNL A   1      44.161  31.191  26.380  1.00  0.00    -0.249 NA
ATOM     24  N   UNL A   1      46.153  32.602  26.245  1.00  0.00    -0.232 NA
ATOM     25  C   UNL A   1      45.243  30.531  26.594  1.00  0.00     0.106 A 
ATOM     26  C   UNL A   1      46.453  31.376  26.498  1.00  0.00     0.175 A 
ATOM     27  C   UNL A   1      45.426  29.123  26.941  1.00  0.00     0.049 A 
ATOM     28  N   UNL A   1      47.726  30.934  26.691  1.00  0.00    -0.234 NA
ATOM     29  C   UNL A   1      46.682  28.709  27.159  1.00  0.00     0.038 A 
ATOM     30  C   UNL A   1      47.814  29.679  27.007  1.00  0.00     0.129 A 
ATOM     31  Br  UNL A   1      47.098  26.966  27.655  1.00  0.00    -0.049 Br
ENDBRANCH  19  22
ENDBRANCH  14  18
ENDBRANCH   8  13
ENDBRANCH   4   7
ENDBRANCH   2   3
ENDBRANCH   1   2
BRANCH   1  32
ATOM     32  C   UNL A   1      34.646  32.493  30.892  1.00  0.00     0.023 C 
BRANCH  32  33
ATOM     33  C   UNL A   1      35.021  32.908  29.479  1.00  0.00     0.116 C 
BRANCH  33  34
ATOM     34  N   UNL A   1      34.285  32.186  28.452  1.00  0.00    -0.352 N 
ATOM     35  C   UNL A   1      34.652  31.038  27.792  1.00  0.00     0.251 C 
ATOM     36  H   UNL A   1      33.413  32.568  28.199  1.00  0.00     0.163 HD
ATOM     37  O   UNL A   1      33.971  30.601  26.873  1.00  0.00    -0.269 OA
BRANCH  35  38
ATOM     38  C   UNL A   1      35.908  30.364  28.177  1.00  0.00     0.039 A 
ATOM     39  C   UNL A   1      37.101  30.774  27.577  1.00  0.00     0.014 A 
ATOM     40  C   UNL A   1      35.911  29.367  29.156  1.00  0.00     0.014 A 
ATOM     41  C   UNL A   1      38.309  30.226  28.008  1.00  0.00     0.010 A 
ATOM     42  C   UNL A   1      37.121  28.874  29.632  1.00  0.00     0.010 A 
ATOM     43  C   UNL A   1      38.330  29.298  29.062  1.00  0.00    -0.014 A 
BRANCH  43  44
ATOM     44  C   UNL A   1      39.607  28.753  29.580  1.00  0.00     0.031 A 
ATOM     45  C   UNL A   1      40.317  29.449  30.707  1.00  0.00     0.074 A 
ATOM     46  C   UNL A   1      40.161  27.677  28.991  1.00  0.00     0.049 A 
ATOM     47  N   UNL A   1      41.476  29.175  31.250  1.00  0.00    -0.248 NA
ATOM     48  C   UNL A   1      39.649  30.629  31.281  1.00  0.00     0.031 C 
ATOM     49  C   UNL A   1      39.595  26.947  27.856  1.00  0.00     0.029 A 
ATOM     50  N   UNL A   1      41.334  27.017  29.260  1.00  0.00    -0.354 N 
ATOM     51  C   UNL A   1      41.682  30.155  32.212  1.00  0.00     0.074 A 
ATOM     52  C   UNL A   1      40.555  31.058  32.146  1.00  0.00     0.031 C 
ATOM     53  C   UNL A   1      40.411  25.929  27.537  1.00  0.00     0.029 A 
ATOM     54  C   UNL A   1      41.570  25.953  28.423  1.00  0.00     0.049 A 
ATOM     55  H   UNL A   1      41.947  27.281  29.983  1.00  0.00     0.167 HD
ATOM     56  C   UNL A   1      42.709  30.276  33.086  1.00  0.00     0.037 A 
ATOM     57  C   UNL A   1      42.609  25.098  28.375  1.00  0.00     0.037 A 
ATOM     58  C   UNL A   1      43.813  29.357  33.170  1.00  0.00     0.049 A 
ATOM     59  C   UNL A   1      43.729  25.246  29.367  1.00  0.00     0.074 A 
ATOM     60  C   UNL A   1      44.868  29.356  34.065  1.00  0.00     0.029 A 
ATOM     61  N   UNL A   1      44.000  28.272  32.326  1.00  0.00    -0.354 N 
ATOM     62  N   UNL A   1      43.878  26.136  30.318  1.00  0.00    -0.248 NA
ATOM     63  C   UNL A   1      44.821  24.265  29.284  1.00  0.00     0.031 C 
ATOM     64  C   UNL A   1      45.715  28.291  33.741  1.00  0.00     0.029 A 
ATOM     65  C   UNL A   1      45.164  27.604  32.671  1.00  0.00     0.049 A 
ATOM     66  H   UNL A   1      43.397  28.016  31.593  1.00  0.00     0.167 HD
ATOM     67  C   UNL A   1      45.063  25.808  30.962  1.00  0.00     0.074 A 
ATOM     68  C   UNL A   1      45.587  24.630  30.303  1.00  0.00     0.031 C 
ATOM     69  C   UNL A   1      45.663  26.427  32.008  1.00  0.00     0.037 A 
BRANCH  56  70
ATOM     70  C   UNL A   1      42.678  31.443  34.027  1.00  0.00     0.057 A 
ATOM     71  C   UNL A   1      43.377  32.627  33.757  1.00  0.00     0.134 A 
ATOM     72  C   UNL A   1      41.921  31.395  35.205  1.00  0.00     0.134 A 
ATOM     73  F   UNL A   1      44.133  32.733  32.654  1.00  0.00    -0.206 F 
ATOM     74  C   UNL A   1      43.346  33.711  34.637  1.00  0.00     0.040 A 
ATOM     75  C   UNL A   1      41.861  32.481  36.079  1.00  0.00     0.040 A 
ATOM     76  F   UNL A   1      41.225  30.293  35.522  1.00  0.00    -0.206 F 
ATOM     77  C   UNL A   1      42.580  33.641  35.799  1.00  0.00     0.006 A 
ENDBRANCH  56  70
BRANCH  57  78
ATOM     78  C   UNL A   1      42.625  24.006  27.372  1.00  0.00     0.057 A 
ATOM     79  C   UNL A   1      42.093  22.746  27.670  1.00  0.00     0.134 A 
ATOM     80  C   UNL A   1      43.174  24.190  26.098  1.00  0.00     0.134 A 
ATOM     81  F   UNL A   1      41.569  22.505  28.881  1.00  0.00    -0.206 F 
ATOM     82  C   UNL A   1      42.123  21.701  26.745  1.00  0.00     0.040 A 
ATOM     83  C   UNL A   1      43.190  23.161  25.153  1.00  0.00     0.040 A 
ATOM     84  F   UNL A   1      43.691  25.377  25.748  1.00  0.00    -0.206 F 
ATOM     85  C   UNL A   1      42.669  21.910  25.480  1.00  0.00     0.006 A 
ENDBRANCH  57  78
BRANCH  69  86
ATOM     86  C   UNL A   1      46.933  25.821  32.526  1.00  0.00     0.057 A 
ATOM     87  C   UNL A   1      48.182  26.141  31.978  1.00  0.00     0.134 A 
ATOM     88  C   UNL A   1      46.909  24.937  33.613  1.00  0.00     0.134 A 
ATOM     89  F   UNL A   1      48.270  26.970  30.927  1.00  0.00    -0.206 F 
ATOM     90  C   UNL A   1      49.360  25.588  32.481  1.00  0.00     0.040 A 
ATOM     91  C   UNL A   1      48.082  24.397  34.140  1.00  0.00     0.040 A 
ATOM     92  F   UNL A   1      45.745  24.597  34.187  1.00  0.00    -0.206 F 
ATOM     93  C   UNL A   1      49.312  24.719  33.569  1.00  0.00     0.006 A 
ENDBRANCH  69  86
ENDBRANCH  43  44
ENDBRANCH  35  38
ENDBRANCH  33  34
ENDBRANCH  32  33
ENDBRANCH   1  32
TORSDOF 15
ENDMDL
