MODEL 1
REMARK VINA RESULT:      -9.4      0.000      0.000
REMARK SMILES O=C(NCCCCNC(=O)[C@H]1CCC[N@@H+]1Cc1ccccc1[N+](=O)[O-])c1ccc(-c2c3nc(c(-c4c(F)cccc4F)c4ccc([nH]4)c(-c4c(F)cccc4F)c4nc(c(-c5c(F)cccc5F)c5ccc2[nH]5)C=C4)C=C3)cc1
REMARK SMILES IDX 6 1 5 2 4 3 3 4 1 5 2 6 26 8 27 9 79 10 28 11 78 12 29 13
REMARK SMILES IDX 30 14 31 15 72 16 32 17 77 18 71 19 73 20 33 21 76 22 70 23
REMARK SMILES IDX 69 24 34 26 60 27 43 28 59 29 44 30 47 31 58 32 74 33 45 34
REMARK SMILES IDX 46 35 57 37 75 38 48 39 35 40 36 41 41 42 37 43 38 44 40 45
REMARK SMILES IDX 42 46 39 47 61 48 62 49 67 50 63 51 64 52 66 53 68 54 65 55
REMARK SMILES IDX 49 56 50 57 55 58 51 59 52 60 54 61 56 62 53 63 7 64 8 65
REMARK SMILES IDX 9 66 10 68 11 69 12 70 15 71 13 72 14 73 16 75 17 76 18 77
REMARK SMILES IDX 22 78 19 79 21 80 20 81 23 82 24 83 25 84
REMARK H PARENT 3 7 73 25 47 36 8 67 15 74
REMARK Flexibility Score: inf
ROOT
ATOM      1  C   UNL A   1      33.904  34.160  32.955  1.00  0.00     0.023 C 
ENDROOT
BRANCH   1   2
ATOM      2  C   UNL A   1      33.171  35.417  32.482  1.00  0.00     0.023 C 
BRANCH   2   3
ATOM      3  C   UNL A   1      33.575  35.938  31.108  1.00  0.00     0.116 C 
BRANCH   3   4
ATOM      4  N   UNL A   1      32.817  35.343  30.019  1.00  0.00    -0.352 N 
ATOM      5  O   UNL A   1      32.488  34.074  28.179  1.00  0.00    -0.269 OA
ATOM      6  C   UNL A   1      33.222  34.395  29.108  1.00  0.00     0.251 C 
ATOM      7  H   UNL A   1      31.891  35.662  29.920  1.00  0.00     0.163 HD
BRANCH   6   8
ATOM      8  C   UNL A   1      34.564  33.787  29.237  1.00  0.00     0.039 A 
ATOM      9  C   UNL A   1      34.775  32.715  30.106  1.00  0.00     0.014 A 
ATOM     10  C   UNL A   1      35.627  34.315  28.497  1.00  0.00     0.014 A 
ATOM     11  C   UNL A   1      36.070  32.273  30.348  1.00  0.00     0.010 A 
ATOM     12  C   UNL A   1      36.919  33.809  28.680  1.00  0.00     0.010 A 
ATOM     13  C   UNL A   1      37.155  32.807  29.633  1.00  0.00    -0.014 A 
BRANCH  13  14
ATOM     14  C   UNL A   1      38.511  32.250  29.870  1.00  0.00     0.031 A 
ATOM     15  C   UNL A   1      39.515  32.966  30.727  1.00  0.00     0.074 A 
ATOM     16  C   UNL A   1      38.805  31.043  29.347  1.00  0.00     0.049 A 
ATOM     17  N   UNL A   1      40.715  32.578  31.086  1.00  0.00    -0.248 NA
ATOM     18  C   UNL A   1      39.136  34.289  31.245  1.00  0.00     0.031 C 
ATOM     19  C   UNL A   1      37.917  30.265  28.480  1.00  0.00     0.029 A 
ATOM     20  N   UNL A   1      39.911  30.248  29.490  1.00  0.00    -0.354 N 
ATOM     21  C   UNL A   1      41.234  33.606  31.861  1.00  0.00     0.074 A 
ATOM     22  C   UNL A   1      40.232  34.652  31.898  1.00  0.00     0.031 C 
ATOM     23  C   UNL A   1      38.487  29.081  28.217  1.00  0.00     0.029 A 
ATOM     24  C   UNL A   1      39.801  29.039  28.849  1.00  0.00     0.049 A 
ATOM     25  H   UNL A   1      40.708  30.516  30.003  1.00  0.00     0.167 HD
ATOM     26  C   UNL A   1      42.432  33.668  32.493  1.00  0.00     0.037 A 
ATOM     27  C   UNL A   1      40.662  28.009  28.772  1.00  0.00     0.037 A 
ATOM     28  C   UNL A   1      43.424  32.622  32.462  1.00  0.00     0.049 A 
ATOM     29  C   UNL A   1      41.976  28.101  29.487  1.00  0.00     0.074 A 
ATOM     30  C   UNL A   1      44.666  32.590  33.072  1.00  0.00     0.029 A 
ATOM     31  N   UNL A   1      43.281  31.419  31.787  1.00  0.00    -0.354 N 
ATOM     32  N   UNL A   1      42.444  29.077  30.227  1.00  0.00    -0.248 NA
ATOM     33  C   UNL A   1      42.882  26.952  29.358  1.00  0.00     0.031 C 
ATOM     34  C   UNL A   1      45.288  31.380  32.743  1.00  0.00     0.029 A 
ATOM     35  C   UNL A   1      44.416  30.642  31.958  1.00  0.00     0.049 A 
ATOM     36  H   UNL A   1      42.491  31.154  31.263  1.00  0.00     0.167 HD
ATOM     37  C   UNL A   1      43.697  28.660  30.652  1.00  0.00     0.074 A 
ATOM     38  C   UNL A   1      43.900  27.329  30.116  1.00  0.00     0.031 C 
ATOM     39  C   UNL A   1      44.603  29.324  31.410  1.00  0.00     0.037 A 
BRANCH  26  40
ATOM     40  C   UNL A   1      42.744  34.911  33.273  1.00  0.00     0.057 A 
ATOM     41  C   UNL A   1      43.251  36.061  32.652  1.00  0.00     0.134 A 
ATOM     42  C   UNL A   1      42.482  34.981  34.647  1.00  0.00     0.134 A 
ATOM     43  F   UNL A   1      43.534  36.057  31.341  1.00  0.00    -0.206 F 
ATOM     44  C   UNL A   1      43.498  37.231  33.374  1.00  0.00     0.040 A 
ATOM     45  C   UNL A   1      42.706  36.152  35.375  1.00  0.00     0.040 A 
ATOM     46  F   UNL A   1      41.991  33.918  35.302  1.00  0.00    -0.206 F 
ATOM     47  C   UNL A   1      43.218  37.281  34.738  1.00  0.00     0.006 A 
ENDBRANCH  26  40
BRANCH  27  48
ATOM     48  C   UNL A   1      40.302  26.806  27.981  1.00  0.00     0.057 A 
ATOM     49  C   UNL A   1      40.791  26.615  26.685  1.00  0.00     0.134 A 
ATOM     50  C   UNL A   1      39.473  25.811  28.514  1.00  0.00     0.134 A 
ATOM     51  F   UNL A   1      41.576  27.540  26.116  1.00  0.00    -0.206 F 
ATOM     52  C   UNL A   1      40.454  25.484  25.938  1.00  0.00     0.040 A 
ATOM     53  C   UNL A   1      39.151  24.664  27.791  1.00  0.00     0.040 A 
ATOM     54  F   UNL A   1      38.982  25.933  29.757  1.00  0.00    -0.206 F 
ATOM     55  C   UNL A   1      39.639  24.501  26.495  1.00  0.00     0.006 A 
ENDBRANCH  27  48
BRANCH  39  56
ATOM     56  C   UNL A   1      45.888  28.609  31.702  1.00  0.00     0.057 A 
ATOM     57  C   UNL A   1      46.011  27.736  32.791  1.00  0.00     0.134 A 
ATOM     58  C   UNL A   1      47.010  28.792  30.885  1.00  0.00     0.134 A 
ATOM     59  F   UNL A   1      44.975  27.532  33.619  1.00  0.00    -0.206 F 
ATOM     60  C   UNL A   1      47.216  27.093  33.075  1.00  0.00     0.040 A 
ATOM     61  C   UNL A   1      48.214  28.136  31.145  1.00  0.00     0.040 A 
ATOM     62  F   UNL A   1      46.954  29.611  29.825  1.00  0.00    -0.206 F 
ATOM     63  C   UNL A   1      48.320  27.289  32.248  1.00  0.00     0.006 A 
ENDBRANCH  39  56
ENDBRANCH  13  14
ENDBRANCH   6   8
ENDBRANCH   3   4
ENDBRANCH   2   3
ENDBRANCH   1   2
BRANCH   1  64
ATOM     64  C   UNL A   1      35.295  34.394  33.537  1.00  0.00     0.116 C 
BRANCH  64  65
ATOM     65  N   UNL A   1      35.379  33.998  34.929  1.00  0.00    -0.351 N 
ATOM     66  C   UNL A   1      36.454  33.687  35.706  1.00  0.00     0.278 C 
ATOM     67  H   UNL A   1      34.512  33.946  35.391  1.00  0.00     0.163 HD
ATOM     68  O   UNL A   1      36.224  33.441  36.894  1.00  0.00    -0.268 OA
BRANCH  66  69
ATOM     69  C   UNL A   1      37.880  33.660  35.107  1.00  0.00     0.274 C 
ATOM     70  C   UNL A   1      38.755  34.667  35.847  1.00  0.00     0.081 C 
ATOM     71  N   UNL A   1      38.500  32.345  35.367  1.00  0.00    -0.321 N 
ATOM     72  C   UNL A   1      39.393  33.883  36.983  1.00  0.00     0.068 C 
ATOM     73  C   UNL A   1      39.075  32.418  36.712  1.00  0.00     0.263 C 
ATOM     74  H   UNL A   1      37.778  31.627  35.323  1.00  0.00     0.349 HD
BRANCH  71  75
ATOM     75  C   UNL A   1      39.388  31.807  34.329  1.00  0.00     0.307 C 
BRANCH  75  76
ATOM     76  C   UNL A   1      38.956  30.542  33.614  1.00  0.00     0.084 A 
ATOM     77  C   UNL A   1      37.710  30.543  32.951  1.00  0.00     0.017 A 
ATOM     78  C   UNL A   1      39.724  29.367  33.520  1.00  0.00     0.278 A 
ATOM     79  C   UNL A   1      37.292  29.455  32.180  1.00  0.00     0.001 A 
ATOM     80  C   UNL A   1      39.318  28.278  32.731  1.00  0.00     0.086 A 
ATOM     81  C   UNL A   1      38.103  28.331  32.053  1.00  0.00     0.007 A 
BRANCH  78  82
ATOM     82  N   UNL A   1      40.960  29.196  34.272  1.00  0.00     0.063 N 
ATOM     83  O   UNL A   1      42.016  29.502  33.702  1.00  0.00    -0.258 OA
ATOM     84  O   UNL A   1      40.873  28.714  35.408  1.00  0.00    -0.258 OA
ENDBRANCH  78  82
ENDBRANCH  75  76
ENDBRANCH  71  75
ENDBRANCH  66  69
ENDBRANCH  64  65
ENDBRANCH   1  64
TORSDOF 14
ENDMDL
MODEL 2
REMARK VINA RESULT:      -9.2      0.439      6.267
REMARK SMILES O=C(NCCCCNC(=O)[C@H]1CCC[N@@H+]1Cc1ccccc1[N+](=O)[O-])c1ccc(-c2c3nc(c(-c4c(F)cccc4F)c4ccc([nH]4)c(-c4c(F)cccc4F)c4nc(c(-c5c(F)cccc5F)c5ccc2[nH]5)C=C4)C=C3)cc1
REMARK SMILES IDX 6 1 5 2 4 3 3 4 1 5 2 6 26 8 27 9 79 10 28 11 78 12 29 13
REMARK SMILES IDX 30 14 31 15 72 16 32 17 77 18 71 19 73 20 33 21 76 22 70 23
REMARK SMILES IDX 69 24 34 26 60 27 43 28 59 29 44 30 47 31 58 32 74 33 45 34
REMARK SMILES IDX 46 35 57 37 75 38 48 39 35 40 36 41 41 42 37 43 38 44 40 45
REMARK SMILES IDX 42 46 39 47 61 48 62 49 67 50 63 51 64 52 66 53 68 54 65 55
REMARK SMILES IDX 49 56 50 57 55 58 51 59 52 60 54 61 56 62 53 63 7 64 8 65
REMARK SMILES IDX 9 66 10 68 11 69 12 70 15 71 13 72 14 73 16 75 17 76 18 77
REMARK SMILES IDX 22 78 19 79 21 80 20 81 23 82 24 83 25 84
REMARK H PARENT 3 7 73 25 47 36 8 67 15 74
REMARK Flexibility Score: inf
ROOT
ATOM      1  C   UNL A   1      34.118  34.139  33.052  1.00  0.00     0.023 C 
ENDROOT
BRANCH   1   2
ATOM      2  C   UNL A   1      33.138  35.204  32.556  1.00  0.00     0.023 C 
BRANCH   2   3
ATOM      3  C   UNL A   1      33.519  35.895  31.254  1.00  0.00     0.116 C 
BRANCH   3   4
ATOM      4  N   UNL A   1      32.817  35.370  30.093  1.00  0.00    -0.352 N 
ATOM      5  O   UNL A   1      32.577  34.202  28.174  1.00  0.00    -0.269 OA
ATOM      6  C   UNL A   1      33.261  34.462  29.160  1.00  0.00     0.251 C 
ATOM      7  H   UNL A   1      31.904  35.710  29.958  1.00  0.00     0.163 HD
BRANCH   6   8
ATOM      8  C   UNL A   1      34.584  33.825  29.334  1.00  0.00     0.039 A 
ATOM      9  C   UNL A   1      34.721  32.687  30.131  1.00  0.00     0.014 A 
ATOM     10  C   UNL A   1      35.702  34.390  28.713  1.00  0.00     0.014 A 
ATOM     11  C   UNL A   1      35.991  32.207  30.427  1.00  0.00     0.010 A 
ATOM     12  C   UNL A   1      36.972  33.851  28.945  1.00  0.00     0.010 A 
ATOM     13  C   UNL A   1      37.130  32.775  29.832  1.00  0.00    -0.014 A 
BRANCH  13  14
ATOM     14  C   UNL A   1      38.460  32.180  30.120  1.00  0.00     0.031 A 
ATOM     15  C   UNL A   1      38.865  30.850  29.549  1.00  0.00     0.074 A 
ATOM     16  C   UNL A   1      39.331  32.893  30.860  1.00  0.00     0.049 A 
ATOM     17  N   UNL A   1      40.015  30.229  29.651  1.00  0.00    -0.248 NA
ATOM     18  C   UNL A   1      37.856  30.117  28.771  1.00  0.00     0.031 C 
ATOM     19  C   UNL A   1      39.040  34.186  31.485  1.00  0.00     0.029 A 
ATOM     20  N   UNL A   1      40.640  32.653  31.185  1.00  0.00    -0.354 N 
ATOM     21  C   UNL A   1      39.866  29.034  28.960  1.00  0.00     0.074 A 
ATOM     22  C   UNL A   1      38.504  28.999  28.468  1.00  0.00     0.031 C 
ATOM     23  C   UNL A   1      40.153  34.653  32.068  1.00  0.00     0.029 A 
ATOM     24  C   UNL A   1      41.218  33.670  31.906  1.00  0.00     0.049 A 
ATOM     25  H   UNL A   1      41.119  31.833  30.928  1.00  0.00     0.167 HD
ATOM     26  C   UNL A   1      40.784  28.060  28.747  1.00  0.00     0.037 A 
ATOM     27  C   UNL A   1      42.467  33.797  32.389  1.00  0.00     0.037 A 
ATOM     28  C   UNL A   1      42.142  28.101  29.232  1.00  0.00     0.049 A 
ATOM     29  C   UNL A   1      43.463  32.708  32.131  1.00  0.00     0.074 A 
ATOM     30  C   UNL A   1      43.147  27.164  29.066  1.00  0.00     0.029 A 
ATOM     31  N   UNL A   1      42.685  29.140  29.972  1.00  0.00    -0.354 N 
ATOM     32  N   UNL A   1      43.308  31.591  31.464  1.00  0.00    -0.248 NA
ATOM     33  C   UNL A   1      44.808  32.895  32.692  1.00  0.00     0.031 C 
ATOM     34  C   UNL A   1      44.291  27.622  29.730  1.00  0.00     0.029 A 
ATOM     35  C   UNL A   1      44.008  28.863  30.278  1.00  0.00     0.049 A 
ATOM     36  H   UNL A   1      42.203  29.954  30.241  1.00  0.00     0.167 HD
ATOM     37  C   UNL A   1      44.533  30.942  31.524  1.00  0.00     0.074 A 
ATOM     38  C   UNL A   1      45.430  31.808  32.262  1.00  0.00     0.031 C 
ATOM     39  C   UNL A   1      44.882  29.733  31.021  1.00  0.00     0.037 A 
BRANCH  26  40
ATOM     40  C   UNL A   1      40.354  26.858  27.958  1.00  0.00     0.057 A 
ATOM     41  C   UNL A   1      40.793  26.646  26.644  1.00  0.00     0.134 A 
ATOM     42  C   UNL A   1      39.543  25.873  28.535  1.00  0.00     0.134 A 
ATOM     43  F   UNL A   1      41.563  27.556  26.030  1.00  0.00    -0.206 F 
ATOM     44  C   UNL A   1      40.428  25.503  25.928  1.00  0.00     0.040 A 
ATOM     45  C   UNL A   1      39.188  24.717  27.837  1.00  0.00     0.040 A 
ATOM     46  F   UNL A   1      39.093  26.011  29.792  1.00  0.00    -0.206 F 
ATOM     47  C   UNL A   1      39.629  24.531  26.527  1.00  0.00     0.006 A 
ENDBRANCH  26  40
BRANCH  27  48
ATOM     48  C   UNL A   1      42.834  35.005  33.167  1.00  0.00     0.057 A 
ATOM     49  C   UNL A   1      42.770  35.017  34.564  1.00  0.00     0.134 A 
ATOM     50  C   UNL A   1      43.276  36.171  32.529  1.00  0.00     0.134 A 
ATOM     51  F   UNL A   1      42.341  33.936  35.230  1.00  0.00    -0.206 F 
ATOM     52  C   UNL A   1      43.117  36.152  35.300  1.00  0.00     0.040 A 
ATOM     53  C   UNL A   1      43.651  37.303  33.252  1.00  0.00     0.040 A 
ATOM     54  F   UNL A   1      43.369  36.217  31.191  1.00  0.00    -0.206 F 
ATOM     55  C   UNL A   1      43.565  37.296  34.643  1.00  0.00     0.006 A 
ENDBRANCH  27  48
BRANCH  39  56
ATOM     56  C   UNL A   1      46.294  29.290  31.255  1.00  0.00     0.057 A 
ATOM     57  C   UNL A   1      46.653  28.545  32.385  1.00  0.00     0.134 A 
ATOM     58  C   UNL A   1      47.305  29.609  30.340  1.00  0.00     0.134 A 
ATOM     59  F   UNL A   1      45.731  28.221  33.305  1.00  0.00    -0.206 F 
ATOM     60  C   UNL A   1      47.973  28.156  32.612  1.00  0.00     0.040 A 
ATOM     61  C   UNL A   1      48.625  29.207  30.544  1.00  0.00     0.040 A 
ATOM     62  F   UNL A   1      47.026  30.317  29.235  1.00  0.00    -0.206 F 
ATOM     63  C   UNL A   1      48.963  28.485  31.688  1.00  0.00     0.006 A 
ENDBRANCH  39  56
ENDBRANCH  13  14
ENDBRANCH   6   8
ENDBRANCH   3   4
ENDBRANCH   2   3
ENDBRANCH   1   2
BRANCH   1  64
ATOM     64  C   UNL A   1      35.345  34.672  33.787  1.00  0.00     0.116 C 
BRANCH  64  65
ATOM     65  N   UNL A   1      35.497  34.076  35.099  1.00  0.00    -0.351 N 
ATOM     66  C   UNL A   1      36.597  33.583  35.735  1.00  0.00     0.278 C 
ATOM     67  H   UNL A   1      34.665  34.018  35.621  1.00  0.00     0.163 HD
ATOM     68  O   UNL A   1      36.436  33.186  36.893  1.00  0.00    -0.268 OA
BRANCH  66  69
ATOM     69  C   UNL A   1      37.970  33.544  35.022  1.00  0.00     0.274 C 
ATOM     70  C   UNL A   1      38.820  34.716  35.503  1.00  0.00     0.081 C 
ATOM     71  N   UNL A   1      38.708  32.334  35.437  1.00  0.00    -0.321 N 
ATOM     72  C   UNL A   1      39.604  34.179  36.690  1.00  0.00     0.068 C 
ATOM     73  C   UNL A   1      39.380  32.672  36.694  1.00  0.00     0.263 C 
ATOM     74  H   UNL A   1      38.043  31.575  35.578  1.00  0.00     0.349 HD
BRANCH  71  75
ATOM     75  C   UNL A   1      39.550  31.684  34.426  1.00  0.00     0.307 C 
BRANCH  75  76
ATOM     76  C   UNL A   1      38.981  30.484  33.696  1.00  0.00     0.084 A 
ATOM     77  C   UNL A   1      37.650  30.556  33.231  1.00  0.00     0.017 A 
ATOM     78  C   UNL A   1      39.693  29.306  33.402  1.00  0.00     0.278 A 
ATOM     79  C   UNL A   1      37.091  29.536  32.456  1.00  0.00     0.001 A 
ATOM     80  C   UNL A   1      39.142  28.286  32.608  1.00  0.00     0.086 A 
ATOM     81  C   UNL A   1      37.841  28.411  32.128  1.00  0.00     0.007 A 
BRANCH  78  82
ATOM     82  N   UNL A   1      41.022  29.059  33.945  1.00  0.00     0.063 N 
ATOM     83  O   UNL A   1      41.093  28.725  35.135  1.00  0.00    -0.258 OA
ATOM     84  O   UNL A   1      41.987  29.244  33.193  1.00  0.00    -0.258 OA
ENDBRANCH  78  82
ENDBRANCH  75  76
ENDBRANCH  71  75
ENDBRANCH  66  69
ENDBRANCH  64  65
ENDBRANCH   1  64
TORSDOF 14
ENDMDL
MODEL 3
REMARK VINA RESULT:      -9.0      5.615     11.478
REMARK SMILES O=C(NCCCCNC(=O)[C@H]1CCC[N@@H+]1Cc1ccccc1[N+](=O)[O-])c1ccc(-c2c3nc(c(-c4c(F)cccc4F)c4ccc([nH]4)c(-c4c(F)cccc4F)c4nc(c(-c5c(F)cccc5F)c5ccc2[nH]5)C=C4)C=C3)cc1
REMARK SMILES IDX 6 1 5 2 4 3 3 4 1 5 2 6 26 8 27 9 79 10 28 11 78 12 29 13
REMARK SMILES IDX 30 14 31 15 72 16 32 17 77 18 71 19 73 20 33 21 76 22 70 23
REMARK SMILES IDX 69 24 34 26 60 27 43 28 59 29 44 30 47 31 58 32 74 33 45 34
REMARK SMILES IDX 46 35 57 37 75 38 48 39 35 40 36 41 41 42 37 43 38 44 40 45
REMARK SMILES IDX 42 46 39 47 61 48 62 49 67 50 63 51 64 52 66 53 68 54 65 55
REMARK SMILES IDX 49 56 50 57 55 58 51 59 52 60 54 61 56 62 53 63 7 64 8 65
REMARK SMILES IDX 9 66 10 68 11 69 12 70 15 71 13 72 14 73 16 75 17 76 18 77
REMARK SMILES IDX 22 78 19 79 21 80 20 81 23 82 24 83 25 84
REMARK H PARENT 3 7 73 25 47 36 8 67 15 74
REMARK Flexibility Score: inf
ROOT
ATOM      1  C   UNL A   1      36.976  20.973  24.628  1.00  0.00     0.023 C 
ENDROOT
BRANCH   1   2
ATOM      2  C   UNL A   1      37.882  19.779  24.941  1.00  0.00     0.023 C 
BRANCH   2   3
ATOM      3  C   UNL A   1      39.064  20.072  25.855  1.00  0.00     0.116 C 
BRANCH   3   4
ATOM      4  N   UNL A   1      40.114  19.067  25.781  1.00  0.00    -0.352 N 
ATOM      5  O   UNL A   1      42.235  18.289  25.754  1.00  0.00    -0.269 OA
ATOM      6  C   UNL A   1      41.469  19.226  25.957  1.00  0.00     0.251 C 
ATOM      7  H   UNL A   1      39.814  18.152  25.577  1.00  0.00     0.163 HD
BRANCH   6   8
ATOM      8  C   UNL A   1      42.001  20.546  26.360  1.00  0.00     0.039 A 
ATOM      9  C   UNL A   1      42.175  20.855  27.711  1.00  0.00     0.014 A 
ATOM     10  C   UNL A   1      42.304  21.491  25.375  1.00  0.00     0.014 A 
ATOM     11  C   UNL A   1      42.506  22.153  28.079  1.00  0.00     0.010 A 
ATOM     12  C   UNL A   1      42.720  22.773  25.749  1.00  0.00     0.010 A 
ATOM     13  C   UNL A   1      42.791  23.125  27.105  1.00  0.00    -0.014 A 
BRANCH  13  14
ATOM     14  C   UNL A   1      43.214  24.478  27.547  1.00  0.00     0.031 A 
ATOM     15  C   UNL A   1      44.650  24.914  27.476  1.00  0.00     0.074 A 
ATOM     16  C   UNL A   1      42.265  25.340  27.959  1.00  0.00     0.049 A 
ATOM     17  N   UNL A   1      45.168  26.085  27.758  1.00  0.00    -0.248 NA
ATOM     18  C   UNL A   1      45.636  23.915  27.040  1.00  0.00     0.031 C 
ATOM     19  C   UNL A   1      40.841  25.020  28.091  1.00  0.00     0.029 A 
ATOM     20  N   UNL A   1      42.343  26.662  28.311  1.00  0.00    -0.354 N 
ATOM     21  C   UNL A   1      46.534  25.961  27.543  1.00  0.00     0.074 A 
ATOM     22  C   UNL A   1      46.773  24.592  27.135  1.00  0.00     0.031 C 
ATOM     23  C   UNL A   1      40.172  26.129  28.438  1.00  0.00     0.029 A 
ATOM     24  C   UNL A   1      41.123  27.221  28.606  1.00  0.00     0.049 A 
ATOM     25  H   UNL A   1      43.189  27.162  28.349  1.00  0.00     0.167 HD
ATOM     26  C   UNL A   1      47.499  26.906  27.664  1.00  0.00     0.037 A 
ATOM     27  C   UNL A   1      40.803  28.474  28.975  1.00  0.00     0.037 A 
ATOM     28  C   UNL A   1      47.257  28.270  28.063  1.00  0.00     0.049 A 
ATOM     29  C   UNL A   1      41.890  29.500  29.093  1.00  0.00     0.074 A 
ATOM     30  C   UNL A   1      48.168  29.302  28.212  1.00  0.00     0.029 A 
ATOM     31  N   UNL A   1      46.010  28.794  28.369  1.00  0.00    -0.354 N 
ATOM     32  N   UNL A   1      43.175  29.368  28.873  1.00  0.00    -0.248 NA
ATOM     33  C   UNL A   1      41.484  30.848  29.512  1.00  0.00     0.031 C 
ATOM     34  C   UNL A   1      47.477  30.442  28.637  1.00  0.00     0.029 A 
ATOM     35  C   UNL A   1      46.129  30.131  28.715  1.00  0.00     0.049 A 
ATOM     36  H   UNL A   1      45.164  28.292  28.344  1.00  0.00     0.167 HD
ATOM     37  C   UNL A   1      43.732  30.613  29.124  1.00  0.00     0.074 A 
ATOM     38  C   UNL A   1      42.638  31.496  29.479  1.00  0.00     0.031 C 
ATOM     39  C   UNL A   1      45.032  30.990  29.074  1.00  0.00     0.037 A 
BRANCH  26  40
ATOM     40  C   UNL A   1      48.913  26.499  27.367  1.00  0.00     0.057 A 
ATOM     41  C   UNL A   1      49.764  26.011  28.368  1.00  0.00     0.134 A 
ATOM     42  C   UNL A   1      49.411  26.540  26.059  1.00  0.00     0.134 A 
ATOM     43  F   UNL A   1      49.352  25.958  29.643  1.00  0.00    -0.206 F 
ATOM     44  C   UNL A   1      51.064  25.592  28.079  1.00  0.00     0.040 A 
ATOM     45  C   UNL A   1      50.702  26.103  25.754  1.00  0.00     0.040 A 
ATOM     46  F   UNL A   1      48.646  26.990  25.052  1.00  0.00    -0.206 F 
ATOM     47  C   UNL A   1      51.534  25.630  26.768  1.00  0.00     0.006 A 
ENDBRANCH  26  40
BRANCH  27  48
ATOM     48  C   UNL A   1      39.389  28.818  29.262  1.00  0.00     0.057 A 
ATOM     49  C   UNL A   1      38.842  28.641  30.537  1.00  0.00     0.134 A 
ATOM     50  C   UNL A   1      38.558  29.349  28.268  1.00  0.00     0.134 A 
ATOM     51  F   UNL A   1      39.585  28.122  31.524  1.00  0.00    -0.206 F 
ATOM     52  C   UNL A   1      37.511  28.964  30.810  1.00  0.00     0.040 A 
ATOM     53  C   UNL A   1      37.235  29.702  28.534  1.00  0.00     0.040 A 
ATOM     54  F   UNL A   1      39.029  29.552  27.028  1.00  0.00    -0.206 F 
ATOM     55  C   UNL A   1      36.707  29.504  29.808  1.00  0.00     0.006 A 
ENDBRANCH  27  48
BRANCH  39  56
ATOM     56  C   UNL A   1      45.330  32.421  29.409  1.00  0.00     0.057 A 
ATOM     57  C   UNL A   1      45.313  33.422  28.431  1.00  0.00     0.134 A 
ATOM     58  C   UNL A   1      45.633  32.800  30.723  1.00  0.00     0.134 A 
ATOM     59  F   UNL A   1      45.045  33.119  27.152  1.00  0.00    -0.206 F 
ATOM     60  C   UNL A   1      45.616  34.748  28.741  1.00  0.00     0.040 A 
ATOM     61  C   UNL A   1      45.915  34.126  31.050  1.00  0.00     0.040 A 
ATOM     62  F   UNL A   1      45.660  31.888  31.706  1.00  0.00    -0.206 F 
ATOM     63  C   UNL A   1      45.915  35.103  30.055  1.00  0.00     0.006 A 
ENDBRANCH  39  56
ENDBRANCH  13  14
ENDBRANCH   6   8
ENDBRANCH   3   4
ENDBRANCH   2   3
ENDBRANCH   1   2
BRANCH   1  64
ATOM     64  C   UNL A   1      36.026  21.385  25.749  1.00  0.00     0.116 C 
BRANCH  64  65
ATOM     65  N   UNL A   1      34.740  20.725  25.646  1.00  0.00    -0.351 N 
ATOM     66  C   UNL A   1      33.673  20.969  24.835  1.00  0.00     0.278 C 
ATOM     67  H   UNL A   1      34.616  19.972  26.268  1.00  0.00     0.163 HD
ATOM     68  O   UNL A   1      32.718  20.192  24.928  1.00  0.00    -0.268 OA
BRANCH  66  69
ATOM     69  C   UNL A   1      33.689  22.159  23.846  1.00  0.00     0.274 C 
ATOM     70  C   UNL A   1      32.431  22.114  22.985  1.00  0.00     0.081 C 
ATOM     71  N   UNL A   1      33.597  23.427  24.598  1.00  0.00    -0.321 N 
ATOM     72  C   UNL A   1      31.407  22.956  23.729  1.00  0.00     0.068 C 
ATOM     73  C   UNL A   1      32.172  23.659  24.843  1.00  0.00     0.263 C 
ATOM     74  H   UNL A   1      34.102  23.324  25.479  1.00  0.00     0.349 HD
BRANCH  71  75
ATOM     75  C   UNL A   1      34.343  24.575  24.068  1.00  0.00     0.307 C 
BRANCH  75  76
ATOM     76  C   UNL A   1      33.819  25.963  24.379  1.00  0.00     0.084 A 
ATOM     77  C   UNL A   1      34.028  26.478  25.676  1.00  0.00     0.017 A 
ATOM     78  C   UNL A   1      33.173  26.807  23.457  1.00  0.00     0.278 A 
ATOM     79  C   UNL A   1      33.672  27.789  26.007  1.00  0.00     0.001 A 
ATOM     80  C   UNL A   1      32.831  28.131  23.778  1.00  0.00     0.086 A 
ATOM     81  C   UNL A   1      33.093  28.622  25.055  1.00  0.00     0.007 A 
BRANCH  78  82
ATOM     82  N   UNL A   1      32.780  26.339  22.135  1.00  0.00     0.063 N 
ATOM     83  O   UNL A   1      33.651  26.335  21.255  1.00  0.00    -0.258 OA
ATOM     84  O   UNL A   1      31.595  26.025  21.971  1.00  0.00    -0.258 OA
ENDBRANCH  78  82
ENDBRANCH  75  76
ENDBRANCH  71  75
ENDBRANCH  66  69
ENDBRANCH  64  65
ENDBRANCH   1  64
TORSDOF 14
ENDMDL
