MODEL 1
REMARK VINA RESULT:     -11.6      0.000      0.000
REMARK SMILES CCCN1CCC[C@@]2(CCN(c3ccc(C(=O)NCCCCNC(=O)c4ccc(-c5c6nc(c(-c7c(F)cccc7F)c7ccc([nH]7)c(-c7c(F)cccc7F)c7nc(c(-c8c(F)cccc8F)c8ccc5[nH]8)C=C7)C=C6)cc4)cn3)C2)C1=O
REMARK SMILES IDX 20 1 19 2 18 3 16 4 17 5 15 7 12 8 13 9 81 10 14 11 80 12
REMARK SMILES IDX 11 13 4 14 5 15 83 16 6 17 8 18 84 19 7 20 9 21 82 22 10 23
REMARK SMILES IDX 3 24 2 25 1 26 21 27 22 28 23 29 24 30 25 32 26 33 27 34
REMARK SMILES IDX 79 35 28 36 78 37 29 38 30 39 31 40 72 41 32 42 77 43 71 44
REMARK SMILES IDX 73 45 33 46 76 47 70 48 69 49 34 51 60 52 43 53 59 54 44 55
REMARK SMILES IDX 47 56 58 57 74 58 45 59 46 60 57 62 75 63 48 64 35 65 36 66
REMARK SMILES IDX 41 67 37 68 38 69 40 70 42 71 39 72 61 73 62 74 67 75 63 76
REMARK SMILES IDX 64 77 66 78 68 79 65 80 49 81 50 82 55 83 51 84 52 85 54 86
REMARK SMILES IDX 56 87 53 88
REMARK H PARENT 18 6 23 31 73 50 47 61
REMARK Flexibility Score: inf
ROOT
ATOM      1  C   UNL A   1      32.676  29.703  25.189  1.00  0.00     0.023 C 
ENDROOT
BRANCH   1   2
ATOM      2  C   UNL A   1      31.195  30.074  25.066  1.00  0.00     0.116 C 
BRANCH   2   3
ATOM      3  N   UNL A   1      30.678  29.727  23.757  1.00  0.00    -0.352 N 
ATOM      4  C   UNL A   1      30.535  28.523  23.111  1.00  0.00     0.252 C 
ATOM      5  O   UNL A   1      30.009  28.544  21.998  1.00  0.00    -0.269 OA
ATOM      6  H   UNL A   1      30.370  30.501  23.232  1.00  0.00     0.163 HD
BRANCH   4   7
ATOM      7  C   UNL A   1      30.951  27.217  23.686  1.00  0.00     0.058 A 
ATOM      8  C   UNL A   1      31.535  24.814  24.966  1.00  0.00     0.128 A 
ATOM      9  C   UNL A   1      32.331  25.259  23.920  1.00  0.00     0.048 A 
ATOM     10  N   UNL A   1      30.451  25.508  25.357  1.00  0.00    -0.239 NA
ATOM     11  C   UNL A   1      32.016  26.438  23.255  1.00  0.00     0.019 A 
ATOM     12  C   UNL A   1      30.195  26.692  24.730  1.00  0.00     0.127 A 
BRANCH   8  13
ATOM     13  N   UNL A   1      31.875  23.632  25.574  1.00  0.00    -0.356 N 
ATOM     14  N   UNL A   1      35.439  21.149  25.129  1.00  0.00    -0.342 N 
ATOM     15  C   UNL A   1      35.100  19.768  24.823  1.00  0.00     0.119 C 
ATOM     16  C   UNL A   1      34.651  21.834  26.055  1.00  0.00     0.230 C 
ATOM     17  C   UNL A   1      33.660  19.682  24.355  1.00  0.00     0.023 C 
ATOM     18  C   UNL A   1      33.138  21.639  25.886  1.00  0.00     0.069 C 
ATOM     19  O   UNL A   1      35.121  22.670  26.825  1.00  0.00    -0.274 OA
ATOM     20  C   UNL A   1      32.757  20.209  25.467  1.00  0.00     0.021 C 
ATOM     21  C   UNL A   1      32.382  22.065  27.164  1.00  0.00     0.040 C 
ATOM     22  C   UNL A   1      32.684  22.676  24.825  1.00  0.00     0.135 C 
ATOM     23  C   UNL A   1      32.174  23.570  26.986  1.00  0.00     0.119 C 
BRANCH  14  24
ATOM     24  C   UNL A   1      36.688  21.790  24.715  1.00  0.00     0.119 C 
BRANCH  24  25
ATOM     25  C   UNL A   1      38.000  21.360  25.362  1.00  0.00     0.018 C 
ATOM     26  C   UNL A   1      38.734  22.483  26.084  1.00  0.00     0.006 C 
ENDBRANCH  24  25
ENDBRANCH  14  24
ENDBRANCH   8  13
ENDBRANCH   4   7
ENDBRANCH   2   3
ENDBRANCH   1   2
BRANCH   1  27
ATOM     27  C   UNL A   1      32.947  28.456  26.031  1.00  0.00     0.023 C 
BRANCH  27  28
ATOM     28  C   UNL A   1      33.814  28.693  27.262  1.00  0.00     0.116 C 
BRANCH  28  29
ATOM     29  N   UNL A   1      33.767  30.064  27.749  1.00  0.00    -0.352 N 
ATOM     30  C   UNL A   1      34.769  30.781  28.357  1.00  0.00     0.251 C 
ATOM     31  H   UNL A   1      32.912  30.537  27.626  1.00  0.00     0.163 HD
ATOM     32  O   UNL A   1      34.554  31.904  28.800  1.00  0.00    -0.269 OA
BRANCH  30  33
ATOM     33  C   UNL A   1      36.098  30.160  28.512  1.00  0.00     0.039 A 
ATOM     34  C   UNL A   1      36.988  30.201  27.437  1.00  0.00     0.014 A 
ATOM     35  C   UNL A   1      36.479  29.593  29.730  1.00  0.00     0.014 A 
ATOM     36  C   UNL A   1      38.291  29.732  27.606  1.00  0.00     0.010 A 
ATOM     37  C   UNL A   1      37.796  29.190  29.918  1.00  0.00     0.010 A 
ATOM     38  C   UNL A   1      38.715  29.258  28.859  1.00  0.00    -0.014 A 
BRANCH  38  39
ATOM     39  C   UNL A   1      40.116  28.834  29.086  1.00  0.00     0.031 A 
ATOM     40  C   UNL A   1      41.100  29.785  29.702  1.00  0.00     0.074 A 
ATOM     41  C   UNL A   1      40.519  27.618  28.667  1.00  0.00     0.049 A 
ATOM     42  N   UNL A   1      42.383  29.627  29.914  1.00  0.00    -0.248 NA
ATOM     43  C   UNL A   1      40.582  31.101  30.106  1.00  0.00     0.031 C 
ATOM     44  C   UNL A   1      39.671  26.627  28.002  1.00  0.00     0.029 A 
ATOM     45  N   UNL A   1      41.751  27.017  28.725  1.00  0.00    -0.354 N 
ATOM     46  C   UNL A   1      42.824  30.826  30.457  1.00  0.00     0.074 A 
ATOM     47  C   UNL A   1      41.687  31.720  30.495  1.00  0.00     0.031 C 
ATOM     48  C   UNL A   1      40.403  25.534  27.734  1.00  0.00     0.029 A 
ATOM     49  C   UNL A   1      41.775  25.759  28.175  1.00  0.00     0.049 A 
ATOM     50  H   UNL A   1      42.542  27.447  29.122  1.00  0.00     0.167 HD
ATOM     51  C   UNL A   1      44.061  31.145  30.907  1.00  0.00     0.037 A 
ATOM     52  C   UNL A   1      42.791  24.887  28.040  1.00  0.00     0.037 A 
ATOM     53  C   UNL A   1      45.183  30.245  30.893  1.00  0.00     0.049 A 
ATOM     54  C   UNL A   1      44.153  25.259  28.555  1.00  0.00     0.074 A 
ATOM     55  C   UNL A   1      46.459  30.448  31.388  1.00  0.00     0.029 A 
ATOM     56  N   UNL A   1      45.162  28.967  30.355  1.00  0.00    -0.354 N 
ATOM     57  N   UNL A   1      44.541  26.369  29.134  1.00  0.00    -0.248 NA
ATOM     58  C   UNL A   1      45.215  24.255  28.406  1.00  0.00     0.031 C 
ATOM     59  C   UNL A   1      47.221  29.309  31.112  1.00  0.00     0.029 A 
ATOM     60  C   UNL A   1      46.409  28.378  30.486  1.00  0.00     0.049 A 
ATOM     61  H   UNL A   1      44.377  28.543  29.939  1.00  0.00     0.167 HD
ATOM     62  C   UNL A   1      45.883  26.190  29.440  1.00  0.00     0.074 A 
ATOM     63  C   UNL A   1      46.239  24.858  28.993  1.00  0.00     0.031 C 
ATOM     64  C   UNL A   1      46.744  27.050  30.038  1.00  0.00     0.037 A 
BRANCH  51  65
ATOM     65  C   UNL A   1      44.256  32.529  31.455  1.00  0.00     0.057 A 
ATOM     66  C   UNL A   1      44.666  33.593  30.642  1.00  0.00     0.134 A 
ATOM     67  C   UNL A   1      44.020  32.804  32.807  1.00  0.00     0.134 A 
ATOM     68  F   UNL A   1      44.924  33.395  29.340  1.00  0.00    -0.206 F 
ATOM     69  C   UNL A   1      44.865  34.875  31.160  1.00  0.00     0.040 A 
ATOM     70  C   UNL A   1      44.188  34.086  33.332  1.00  0.00     0.040 A 
ATOM     71  F   UNL A   1      43.620  31.831  33.641  1.00  0.00    -0.206 F 
ATOM     72  C   UNL A   1      44.621  35.124  32.509  1.00  0.00     0.006 A 
ENDBRANCH  51  65
BRANCH  52  73
ATOM     73  C   UNL A   1      42.550  23.563  27.415  1.00  0.00     0.057 A 
ATOM     74  C   UNL A   1      42.186  22.457  28.191  1.00  0.00     0.134 A 
ATOM     75  C   UNL A   1      42.666  23.373  26.033  1.00  0.00     0.134 A 
ATOM     76  F   UNL A   1      42.076  22.575  29.522  1.00  0.00    -0.206 F 
ATOM     77  C   UNL A   1      41.959  21.205  27.618  1.00  0.00     0.040 A 
ATOM     78  C   UNL A   1      42.421  22.132  25.444  1.00  0.00     0.040 A 
ATOM     79  F   UNL A   1      43.003  24.397  25.235  1.00  0.00    -0.206 F 
ATOM     80  C   UNL A   1      42.071  21.042  26.238  1.00  0.00     0.006 A 
ENDBRANCH  52  73
BRANCH  64  81
ATOM     81  C   UNL A   1      48.145  26.567  30.269  1.00  0.00     0.057 A 
ATOM     82  C   UNL A   1      48.506  25.875  31.431  1.00  0.00     0.134 A 
ATOM     83  C   UNL A   1      49.134  26.763  29.296  1.00  0.00     0.134 A 
ATOM     84  F   UNL A   1      47.608  25.667  32.406  1.00  0.00    -0.206 F 
ATOM     85  C   UNL A   1      49.807  25.410  31.626  1.00  0.00     0.040 A 
ATOM     86  C   UNL A   1      50.432  26.282  29.469  1.00  0.00     0.040 A 
ATOM     87  F   UNL A   1      48.850  27.413  28.157  1.00  0.00    -0.206 F 
ATOM     88  C   UNL A   1      50.773  25.607  30.640  1.00  0.00     0.006 A 
ENDBRANCH  64  81
ENDBRANCH  38  39
ENDBRANCH  30  33
ENDBRANCH  28  29
ENDBRANCH  27  28
ENDBRANCH   1  27
TORSDOF 14
ENDMDL
MODEL 2
REMARK VINA RESULT:     -11.4      3.812      8.900
REMARK SMILES CCCN1CCC[C@@]2(CCN(c3ccc(C(=O)NCCCCNC(=O)c4ccc(-c5c6nc(c(-c7c(F)cccc7F)c7ccc([nH]7)c(-c7c(F)cccc7F)c7nc(c(-c8c(F)cccc8F)c8ccc5[nH]8)C=C7)C=C6)cc4)cn3)C2)C1=O
REMARK SMILES IDX 20 1 19 2 18 3 16 4 17 5 15 7 12 8 13 9 81 10 14 11 80 12
REMARK SMILES IDX 11 13 4 14 5 15 83 16 6 17 8 18 84 19 7 20 9 21 82 22 10 23
REMARK SMILES IDX 3 24 2 25 1 26 21 27 22 28 23 29 24 30 25 32 26 33 27 34
REMARK SMILES IDX 79 35 28 36 78 37 29 38 30 39 31 40 72 41 32 42 77 43 71 44
REMARK SMILES IDX 73 45 33 46 76 47 70 48 69 49 34 51 60 52 43 53 59 54 44 55
REMARK SMILES IDX 47 56 58 57 74 58 45 59 46 60 57 62 75 63 48 64 35 65 36 66
REMARK SMILES IDX 41 67 37 68 38 69 40 70 42 71 39 72 61 73 62 74 67 75 63 76
REMARK SMILES IDX 64 77 66 78 68 79 65 80 49 81 50 82 55 83 51 84 52 85 54 86
REMARK SMILES IDX 56 87 53 88
REMARK H PARENT 18 6 23 31 73 50 47 61
REMARK Flexibility Score: inf
ROOT
ATOM      1  C   UNL A   1      40.417  22.145  27.287  1.00  0.00     0.023 C 
ENDROOT
BRANCH   1   2
ATOM      2  C   UNL A   1      39.239  22.743  26.512  1.00  0.00     0.116 C 
BRANCH   2   3
ATOM      3  N   UNL A   1      38.689  21.782  25.577  1.00  0.00    -0.352 N 
ATOM      4  C   UNL A   1      37.450  21.666  24.995  1.00  0.00     0.252 C 
ATOM      5  O   UNL A   1      37.294  20.749  24.187  1.00  0.00    -0.269 OA
ATOM      6  H   UNL A   1      39.324  21.079  25.307  1.00  0.00     0.163 HD
BRANCH   4   7
ATOM      7  C   UNL A   1      36.316  22.588  25.264  1.00  0.00     0.058 A 
ATOM      8  C   UNL A   1      34.090  24.116  25.944  1.00  0.00     0.128 A 
ATOM      9  C   UNL A   1      34.935  24.529  24.924  1.00  0.00     0.048 A 
ATOM     10  N   UNL A   1      34.345  22.998  26.646  1.00  0.00    -0.239 NA
ATOM     11  C   UNL A   1      36.068  23.788  24.611  1.00  0.00     0.019 A 
ATOM     12  C   UNL A   1      35.429  22.254  26.284  1.00  0.00     0.127 A 
BRANCH   8  13
ATOM     13  N   UNL A   1      32.998  24.896  26.229  1.00  0.00    -0.356 N 
ATOM     14  N   UNL A   1      31.807  28.782  24.632  1.00  0.00    -0.342 N 
ATOM     15  C   UNL A   1      31.554  29.746  25.692  1.00  0.00     0.119 C 
ATOM     16  C   UNL A   1      31.386  27.465  24.822  1.00  0.00     0.230 C 
ATOM     17  C   UNL A   1      32.156  29.253  26.994  1.00  0.00     0.023 C 
ATOM     18  C   UNL A   1      31.688  26.884  26.211  1.00  0.00     0.069 C 
ATOM     19  O   UNL A   1      30.976  26.767  23.896  1.00  0.00    -0.274 OA
ATOM     20  C   UNL A   1      31.521  27.911  27.344  1.00  0.00     0.021 C 
ATOM     21  C   UNL A   1      30.840  25.620  26.475  1.00  0.00     0.040 C 
ATOM     22  C   UNL A   1      33.142  26.346  26.148  1.00  0.00     0.135 C 
ATOM     23  C   UNL A   1      31.662  24.487  25.858  1.00  0.00     0.119 C 
BRANCH  14  24
ATOM     24  C   UNL A   1      32.254  29.150  23.289  1.00  0.00     0.119 C 
BRANCH  24  25
ATOM     25  C   UNL A   1      33.737  29.055  22.941  1.00  0.00     0.018 C 
ATOM     26  C   UNL A   1      34.097  27.849  22.083  1.00  0.00     0.006 C 
ENDBRANCH  24  25
ENDBRANCH  14  24
ENDBRANCH   8  13
ENDBRANCH   4   7
ENDBRANCH   2   3
ENDBRANCH   1   2
BRANCH   1  27
ATOM     27  C   UNL A   1      41.549  21.616  26.405  1.00  0.00     0.023 C 
BRANCH  27  28
ATOM     28  C   UNL A   1      42.938  22.118  26.781  1.00  0.00     0.116 C 
BRANCH  28  29
ATOM     29  N   UNL A   1      43.665  22.706  25.665  1.00  0.00    -0.352 N 
ATOM     30  C   UNL A   1      43.873  24.036  25.397  1.00  0.00     0.251 C 
ATOM     31  H   UNL A   1      44.056  22.070  25.023  1.00  0.00     0.163 HD
ATOM     32  O   UNL A   1      44.431  24.386  24.362  1.00  0.00    -0.269 OA
BRANCH  30  33
ATOM     33  C   UNL A   1      43.375  25.044  26.352  1.00  0.00     0.039 A 
ATOM     34  C   UNL A   1      42.006  25.093  26.624  1.00  0.00     0.014 A 
ATOM     35  C   UNL A   1      44.262  25.896  27.014  1.00  0.00     0.014 A 
ATOM     36  C   UNL A   1      41.533  25.953  27.615  1.00  0.00     0.010 A 
ATOM     37  C   UNL A   1      43.799  26.701  28.048  1.00  0.00     0.010 A 
ATOM     38  C   UNL A   1      42.431  26.735  28.360  1.00  0.00    -0.014 A 
BRANCH  38  39
ATOM     39  C   UNL A   1      41.962  27.592  29.474  1.00  0.00     0.031 A 
ATOM     40  C   UNL A   1      42.627  27.512  30.817  1.00  0.00     0.074 A 
ATOM     41  C   UNL A   1      40.888  28.386  29.295  1.00  0.00     0.049 A 
ATOM     42  N   UNL A   1      42.317  28.123  31.932  1.00  0.00    -0.248 NA
ATOM     43  C   UNL A   1      43.775  26.599  30.931  1.00  0.00     0.031 C 
ATOM     44  C   UNL A   1      40.121  28.508  28.054  1.00  0.00     0.029 A 
ATOM     45  N   UNL A   1      40.247  29.231  30.166  1.00  0.00    -0.354 N 
ATOM     46  C   UNL A   1      43.217  27.657  32.880  1.00  0.00     0.074 A 
ATOM     47  C   UNL A   1      44.052  26.674  32.225  1.00  0.00     0.031 C 
ATOM     48  C   UNL A   1      39.128  29.392  28.237  1.00  0.00     0.029 A 
ATOM     49  C   UNL A   1      39.166  29.872  29.614  1.00  0.00     0.049 A 
ATOM     50  H   UNL A   1      40.535  29.363  31.098  1.00  0.00     0.167 HD
ATOM     51  C   UNL A   1      43.352  28.032  34.174  1.00  0.00     0.037 A 
ATOM     52  C   UNL A   1      38.301  30.747  30.160  1.00  0.00     0.037 A 
ATOM     53  C   UNL A   1      42.538  29.030  34.815  1.00  0.00     0.049 A 
ATOM     54  C   UNL A   1      38.477  31.156  31.595  1.00  0.00     0.074 A 
ATOM     55  C   UNL A   1      42.639  29.530  36.101  1.00  0.00     0.029 A 
ATOM     56  N   UNL A   1      41.470  29.680  34.216  1.00  0.00    -0.354 N 
ATOM     57  N   UNL A   1      39.378  30.763  32.462  1.00  0.00    -0.248 NA
ATOM     58  C   UNL A   1      37.520  32.137  32.127  1.00  0.00     0.031 C 
ATOM     59  C   UNL A   1      41.606  30.454  36.293  1.00  0.00     0.029 A 
ATOM     60  C   UNL A   1      40.889  30.562  35.112  1.00  0.00     0.049 A 
ATOM     61  H   UNL A   1      41.168  29.535  33.290  1.00  0.00     0.167 HD
ATOM     62  C   UNL A   1      39.114  31.462  33.631  1.00  0.00     0.074 A 
ATOM     63  C   UNL A   1      37.974  32.315  33.359  1.00  0.00     0.031 C 
ATOM     64  C   UNL A   1      39.758  31.406  34.823  1.00  0.00     0.037 A 
BRANCH  51  65
ATOM     65  C   UNL A   1      44.426  27.357  34.977  1.00  0.00     0.057 A 
ATOM     66  C   UNL A   1      44.209  26.128  35.613  1.00  0.00     0.134 A 
ATOM     67  C   UNL A   1      45.695  27.934  35.103  1.00  0.00     0.134 A 
ATOM     68  F   UNL A   1      43.011  25.528  35.544  1.00  0.00    -0.206 F 
ATOM     69  C   UNL A   1      45.205  25.513  36.375  1.00  0.00     0.040 A 
ATOM     70  C   UNL A   1      46.708  27.316  35.838  1.00  0.00     0.040 A 
ATOM     71  F   UNL A   1      45.972  29.108  34.514  1.00  0.00    -0.206 F 
ATOM     72  C   UNL A   1      46.461  26.106  36.484  1.00  0.00     0.006 A 
ENDBRANCH  51  65
BRANCH  52  73
ATOM     73  C   UNL A   1      37.209  31.319  29.334  1.00  0.00     0.057 A 
ATOM     74  C   UNL A   1      36.057  30.577  29.051  1.00  0.00     0.134 A 
ATOM     75  C   UNL A   1      37.285  32.617  28.817  1.00  0.00     0.134 A 
ATOM     76  F   UNL A   1      35.935  29.321  29.505  1.00  0.00    -0.206 F 
ATOM     77  C   UNL A   1      35.024  31.101  28.273  1.00  0.00     0.040 A 
ATOM     78  C   UNL A   1      36.251  33.161  28.055  1.00  0.00     0.040 A 
ATOM     79  F   UNL A   1      38.361  33.381  29.060  1.00  0.00    -0.206 F 
ATOM     80  C   UNL A   1      35.117  32.400  27.777  1.00  0.00     0.006 A 
ENDBRANCH  52  73
BRANCH  64  81
ATOM     81  C   UNL A   1      39.262  32.309  35.913  1.00  0.00     0.057 A 
ATOM     82  C   UNL A   1      38.327  31.878  36.861  1.00  0.00     0.134 A 
ATOM     83  C   UNL A   1      39.760  33.613  36.038  1.00  0.00     0.134 A 
ATOM     84  F   UNL A   1      37.802  30.646  36.789  1.00  0.00    -0.206 F 
ATOM     85  C   UNL A   1      37.889  32.719  37.885  1.00  0.00     0.040 A 
ATOM     86  C   UNL A   1      39.349  34.454  37.071  1.00  0.00     0.040 A 
ATOM     87  F   UNL A   1      40.664  34.083  35.165  1.00  0.00    -0.206 F 
ATOM     88  C   UNL A   1      38.406  34.009  37.997  1.00  0.00     0.006 A 
ENDBRANCH  64  81
ENDBRANCH  38  39
ENDBRANCH  30  33
ENDBRANCH  28  29
ENDBRANCH  27  28
ENDBRANCH   1  27
TORSDOF 14
ENDMDL
MODEL 3
REMARK VINA RESULT:     -11.3      1.106      1.863
REMARK SMILES CCCN1CCC[C@@]2(CCN(c3ccc(C(=O)NCCCCNC(=O)c4ccc(-c5c6nc(c(-c7c(F)cccc7F)c7ccc([nH]7)c(-c7c(F)cccc7F)c7nc(c(-c8c(F)cccc8F)c8ccc5[nH]8)C=C7)C=C6)cc4)cn3)C2)C1=O
REMARK SMILES IDX 20 1 19 2 18 3 16 4 17 5 15 7 12 8 13 9 81 10 14 11 80 12
REMARK SMILES IDX 11 13 4 14 5 15 83 16 6 17 8 18 84 19 7 20 9 21 82 22 10 23
REMARK SMILES IDX 3 24 2 25 1 26 21 27 22 28 23 29 24 30 25 32 26 33 27 34
REMARK SMILES IDX 79 35 28 36 78 37 29 38 30 39 31 40 72 41 32 42 77 43 71 44
REMARK SMILES IDX 73 45 33 46 76 47 70 48 69 49 34 51 60 52 43 53 59 54 44 55
REMARK SMILES IDX 47 56 58 57 74 58 45 59 46 60 57 62 75 63 48 64 35 65 36 66
REMARK SMILES IDX 41 67 37 68 38 69 40 70 42 71 39 72 61 73 62 74 67 75 63 76
REMARK SMILES IDX 64 77 66 78 68 79 65 80 49 81 50 82 55 83 51 84 52 85 54 86
REMARK SMILES IDX 56 87 53 88
REMARK H PARENT 18 6 23 31 73 50 47 61
REMARK Flexibility Score: inf
ROOT
ATOM      1  C   UNL A   1      31.612  29.652  26.877  1.00  0.00     0.023 C 
ENDROOT
BRANCH   1   2
ATOM      2  C   UNL A   1      31.775  30.640  25.718  1.00  0.00     0.116 C 
BRANCH   2   3
ATOM      3  N   UNL A   1      30.688  30.514  24.768  1.00  0.00    -0.352 N 
ATOM      4  C   UNL A   1      30.346  29.518  23.885  1.00  0.00     0.252 C 
ATOM      5  O   UNL A   1      29.317  29.681  23.228  1.00  0.00    -0.269 OA
ATOM      6  H   UNL A   1      30.078  31.286  24.754  1.00  0.00     0.163 HD
BRANCH   4   7
ATOM      7  C   UNL A   1      31.125  28.266  23.702  1.00  0.00     0.058 A 
ATOM      8  C   UNL A   1      32.737  26.059  23.165  1.00  0.00     0.128 A 
ATOM      9  C   UNL A   1      31.622  25.927  23.980  1.00  0.00     0.048 A 
ATOM     10  N   UNL A   1      33.083  27.253  22.651  1.00  0.00    -0.239 NA
ATOM     11  C   UNL A   1      30.840  27.036  24.280  1.00  0.00     0.019 A 
ATOM     12  C   UNL A   1      32.269  28.316  22.911  1.00  0.00     0.127 A 
BRANCH   8  13
ATOM     13  N   UNL A   1      33.489  24.939  22.918  1.00  0.00    -0.356 N 
ATOM     14  N   UNL A   1      34.696  21.703  25.589  1.00  0.00    -0.342 N 
ATOM     15  C   UNL A   1      36.135  21.487  25.559  1.00  0.00     0.119 C 
ATOM     16  C   UNL A   1      34.046  21.989  24.388  1.00  0.00     0.230 C 
ATOM     17  C   UNL A   1      36.824  22.686  24.937  1.00  0.00     0.023 C 
ATOM     18  C   UNL A   1      34.761  23.011  23.493  1.00  0.00     0.069 C 
ATOM     19  O   UNL A   1      32.904  21.597  24.151  1.00  0.00    -0.274 OA
ATOM     20  C   UNL A   1      36.292  22.868  23.519  1.00  0.00     0.021 C 
ATOM     21  C   UNL A   1      34.219  22.951  22.048  1.00  0.00     0.040 C 
ATOM     22  C   UNL A   1      34.318  24.410  23.996  1.00  0.00     0.135 C 
ATOM     23  C   UNL A   1      33.000  23.874  22.072  1.00  0.00     0.119 C 
BRANCH  14  24
ATOM     24  C   UNL A   1      33.854  21.404  26.747  1.00  0.00     0.119 C 
BRANCH  24  25
ATOM     25  C   UNL A   1      33.448  22.533  27.690  1.00  0.00     0.018 C 
ATOM     26  C   UNL A   1      32.286  23.378  27.183  1.00  0.00     0.006 C 
ENDBRANCH  24  25
ENDBRANCH  14  24
ENDBRANCH   8  13
ENDBRANCH   4   7
ENDBRANCH   2   3
ENDBRANCH   1   2
BRANCH   1  27
ATOM     27  C   UNL A   1      32.736  28.621  26.990  1.00  0.00     0.023 C 
BRANCH  27  28
ATOM     28  C   UNL A   1      34.101  29.202  27.340  1.00  0.00     0.116 C 
BRANCH  28  29
ATOM     29  N   UNL A   1      34.027  30.434  28.110  1.00  0.00    -0.352 N 
ATOM     30  C   UNL A   1      35.001  31.003  28.894  1.00  0.00     0.251 C 
ATOM     31  H   UNL A   1      33.173  30.923  28.062  1.00  0.00     0.163 HD
ATOM     32  O   UNL A   1      34.762  32.004  29.562  1.00  0.00    -0.269 OA
BRANCH  30  33
ATOM     33  C   UNL A   1      36.329  30.364  28.959  1.00  0.00     0.039 A 
ATOM     34  C   UNL A   1      37.182  30.472  27.858  1.00  0.00     0.014 A 
ATOM     35  C   UNL A   1      36.748  29.711  30.120  1.00  0.00     0.014 A 
ATOM     36  C   UNL A   1      38.485  29.983  27.947  1.00  0.00     0.010 A 
ATOM     37  C   UNL A   1      38.067  29.286  30.232  1.00  0.00     0.010 A 
ATOM     38  C   UNL A   1      38.948  29.421  29.148  1.00  0.00    -0.014 A 
BRANCH  38  39
ATOM     39  C   UNL A   1      40.353  28.973  29.295  1.00  0.00     0.031 A 
ATOM     40  C   UNL A   1      41.387  29.906  29.853  1.00  0.00     0.074 A 
ATOM     41  C   UNL A   1      40.710  27.751  28.854  1.00  0.00     0.049 A 
ATOM     42  N   UNL A   1      42.676  29.726  29.992  1.00  0.00    -0.248 NA
ATOM     43  C   UNL A   1      40.915  31.231  30.285  1.00  0.00     0.031 C 
ATOM     44  C   UNL A   1      39.808  26.774  28.240  1.00  0.00     0.029 A 
ATOM     45  N   UNL A   1      41.932  27.128  28.843  1.00  0.00    -0.354 N 
ATOM     46  C   UNL A   1      43.169  30.916  30.509  1.00  0.00     0.074 A 
ATOM     47  C   UNL A   1      42.051  31.830  30.611  1.00  0.00     0.031 C 
ATOM     48  C   UNL A   1      40.504  25.669  27.931  1.00  0.00     0.029 A 
ATOM     49  C   UNL A   1      41.902  25.870  28.293  1.00  0.00     0.049 A 
ATOM     50  H   UNL A   1      42.752  27.544  29.194  1.00  0.00     0.167 HD
ATOM     51  C   UNL A   1      44.435  31.214  30.887  1.00  0.00     0.037 A 
ATOM     52  C   UNL A   1      42.894  24.980  28.100  1.00  0.00     0.037 A 
ATOM     53  C   UNL A   1      45.538  30.294  30.810  1.00  0.00     0.049 A 
ATOM     54  C   UNL A   1      44.289  25.328  28.537  1.00  0.00     0.074 A 
ATOM     55  C   UNL A   1      46.843  30.475  31.231  1.00  0.00     0.029 A 
ATOM     56  N   UNL A   1      45.464  29.018  30.274  1.00  0.00    -0.354 N 
ATOM     57  N   UNL A   1      44.729  26.431  29.092  1.00  0.00    -0.248 NA
ATOM     58  C   UNL A   1      45.324  24.306  28.328  1.00  0.00     0.031 C 
ATOM     59  C   UNL A   1      47.569  29.322  30.913  1.00  0.00     0.029 A 
ATOM     60  C   UNL A   1      46.706  28.406  30.334  1.00  0.00     0.049 A 
ATOM     61  H   UNL A   1      44.649  28.607  29.904  1.00  0.00     0.167 HD
ATOM     62  C   UNL A   1      46.083  26.229  29.321  1.00  0.00     0.074 A 
ATOM     63  C   UNL A   1      46.390  24.891  28.856  1.00  0.00     0.031 C 
ATOM     64  C   UNL A   1      46.991  27.073  29.869  1.00  0.00     0.037 A 
BRANCH  51  65
ATOM     65  C   UNL A   1      44.685  32.594  31.422  1.00  0.00     0.057 A 
ATOM     66  C   UNL A   1      45.066  33.651  30.586  1.00  0.00     0.134 A 
ATOM     67  C   UNL A   1      44.531  32.872  32.785  1.00  0.00     0.134 A 
ATOM     68  F   UNL A   1      45.246  33.449  29.272  1.00  0.00    -0.206 F 
ATOM     69  C   UNL A   1      45.317  34.929  31.091  1.00  0.00     0.040 A 
ATOM     70  C   UNL A   1      44.751  34.151  33.298  1.00  0.00     0.040 A 
ATOM     71  F   UNL A   1      44.162  31.906  33.641  1.00  0.00    -0.206 F 
ATOM     72  C   UNL A   1      45.154  35.182  32.452  1.00  0.00     0.006 A 
ENDBRANCH  51  65
BRANCH  52  73
ATOM     73  C   UNL A   1      42.594  23.661  27.491  1.00  0.00     0.057 A 
ATOM     74  C   UNL A   1      42.275  22.557  28.288  1.00  0.00     0.134 A 
ATOM     75  C   UNL A   1      42.610  23.474  26.104  1.00  0.00     0.134 A 
ATOM     76  F   UNL A   1      42.260  22.671  29.624  1.00  0.00    -0.206 F 
ATOM     77  C   UNL A   1      41.994  21.309  27.729  1.00  0.00     0.040 A 
ATOM     78  C   UNL A   1      42.310  22.238  25.531  1.00  0.00     0.040 A 
ATOM     79  F   UNL A   1      42.901  24.497  25.286  1.00  0.00    -0.206 F 
ATOM     80  C   UNL A   1      42.005  21.149  26.345  1.00  0.00     0.006 A 
ENDBRANCH  52  73
BRANCH  64  81
ATOM     81  C   UNL A   1      48.395  26.566  30.019  1.00  0.00     0.057 A 
ATOM     82  C   UNL A   1      48.801  25.841  31.146  1.00  0.00     0.134 A 
ATOM     83  C   UNL A   1      49.339  26.771  29.004  1.00  0.00     0.134 A 
ATOM     84  F   UNL A   1      47.949  25.622  32.158  1.00  0.00    -0.206 F 
ATOM     85  C   UNL A   1      50.104  25.354  31.266  1.00  0.00     0.040 A 
ATOM     86  C   UNL A   1      50.635  26.268  29.102  1.00  0.00     0.040 A 
ATOM     87  F   UNL A   1      49.009  27.452  27.896  1.00  0.00    -0.206 F 
ATOM     88  C   UNL A   1      51.023  25.561  30.239  1.00  0.00     0.006 A 
ENDBRANCH  64  81
ENDBRANCH  38  39
ENDBRANCH  30  33
ENDBRANCH  28  29
ENDBRANCH  27  28
ENDBRANCH   1  27
TORSDOF 14
ENDMDL
