MODEL 1
REMARK VINA RESULT:     -12.6      0.000      0.000
REMARK SMILES Cc1ccc(C(C)(C)C)c(OCC(=O)c2nc(C)c(C(=O)NCCCCNC(=O)c3ccc(-c4c5nc(c(-c6c(F)cccc6F)c6ccc([nH]6)c(-c6c(F)cccc6F)c6nc(c(-c7c(F)cccc7F)c7ccc4[nH]7)C=C6)C=C5)cc3)s2)c1
REMARK SMILES IDX 23 1 22 2 20 3 21 4 19 6 15 7 16 8 84 9 17 10 18 11 13 12
REMARK SMILES IDX 14 13 12 14 11 15 10 16 1 17 2 18 3 19 85 20 4 21 5 22 6 23
REMARK SMILES IDX 7 24 8 25 9 26 24 27 25 28 26 29 27 30 28 31 29 33 30 34
REMARK SMILES IDX 31 35 83 36 32 37 82 38 33 39 34 40 35 41 76 42 36 43 81 44
REMARK SMILES IDX 75 45 77 46 37 47 80 48 74 49 73 50 38 52 64 53 47 54 63 55
REMARK SMILES IDX 48 56 51 57 62 58 78 59 49 60 50 61 61 63 79 64 52 65 39 66
REMARK SMILES IDX 40 67 45 68 41 69 42 70 44 71 46 72 43 73 65 74 66 75 71 76
REMARK SMILES IDX 67 77 68 78 70 79 72 80 69 81 53 82 54 83 59 84 55 85 56 86
REMARK SMILES IDX 58 87 60 88 57 89
REMARK H PARENT 22 5 27 32 77 51 51 62
REMARK Flexibility Score: inf
ROOT
ATOM      1  C   UNL A   1      37.134  22.916  25.667  1.00  0.00     0.116 C 
ENDROOT
BRANCH   1   2
ATOM      2  N   UNL A   1      35.919  22.764  26.426  1.00  0.00    -0.351 N 
ATOM      3  C   UNL A   1      34.582  22.854  26.141  1.00  0.00     0.263 C 
ATOM      4  O   UNL A   1      33.888  22.625  27.144  1.00  0.00    -0.268 OA
ATOM      5  H   UNL A   1      36.089  22.542  27.371  1.00  0.00     0.163 HD
BRANCH   3   6
ATOM      6  C   UNL A   1      33.986  23.172  24.842  1.00  0.00     0.115 A 
ATOM      7  C   UNL A   1      33.401  24.587  22.896  1.00  0.00     0.164 A 
ATOM      8  N   UNL A   1      32.908  23.382  22.761  1.00  0.00    -0.237 NA
ATOM      9  S   UNL A   1      34.269  24.828  24.326  1.00  0.00    -0.105 S 
ATOM     10  C   UNL A   1      33.252  22.555  23.826  1.00  0.00     0.062 A 
ATOM     11  C   UNL A   1      32.747  21.178  23.620  1.00  0.00     0.068 C 
BRANCH   7  12
ATOM     12  C   UNL A   1      33.176  25.603  21.878  1.00  0.00     0.228 C 
ATOM     13  O   UNL A   1      33.118  25.336  20.670  1.00  0.00    -0.288 OA
BRANCH  12  14
ATOM     14  C   UNL A   1      33.135  27.081  22.292  1.00  0.00     0.313 C 
BRANCH  14  15
ATOM     15  O   UNL A   1      31.961  27.667  22.808  1.00  0.00    -0.485 OA
BRANCH  15  16
ATOM     16  C   UNL A   1      32.006  28.411  23.951  1.00  0.00     0.123 A 
ATOM     17  C   UNL A   1      34.205  28.920  27.038  1.00  0.00     0.044 C 
ATOM     18  C   UNL A   1      33.099  29.082  26.039  1.00  0.00    -0.047 A 
ATOM     19  C   UNL A   1      32.131  30.063  26.213  1.00  0.00     0.004 A 
ATOM     20  C   UNL A   1      33.010  28.243  24.923  1.00  0.00     0.050 A 
ATOM     21  C   UNL A   1      31.101  30.204  25.281  1.00  0.00     0.008 A 
ATOM     22  C   UNL A   1      31.005  29.393  24.125  1.00  0.00    -0.000 A 
BRANCH  22  23
ATOM     23  C   UNL A   1      29.805  29.642  23.172  1.00  0.00    -0.010 C 
ATOM     24  C   UNL A   1      28.877  28.402  23.211  1.00  0.00     0.016 C 
ATOM     25  C   UNL A   1      29.011  30.883  23.649  1.00  0.00     0.016 C 
ATOM     26  C   UNL A   1      30.121  29.886  21.679  1.00  0.00     0.016 C 
ENDBRANCH  22  23
ENDBRANCH  15  16
ENDBRANCH  14  15
ENDBRANCH  12  14
ENDBRANCH   7  12
ENDBRANCH   3   6
ENDBRANCH   1   2
BRANCH   1  27
ATOM     27  C   UNL A   1      37.843  21.569  25.451  1.00  0.00     0.023 C 
BRANCH  27  28
ATOM     28  C   UNL A   1      39.300  21.516  25.911  1.00  0.00     0.023 C 
BRANCH  28  29
ATOM     29  C   UNL A   1      39.661  22.647  26.862  1.00  0.00     0.116 C 
BRANCH  29  30
ATOM     30  N   UNL A   1      41.039  23.112  26.781  1.00  0.00    -0.352 N 
ATOM     31  C   UNL A   1      41.545  24.406  26.766  1.00  0.00     0.251 C 
ATOM     32  H   UNL A   1      41.717  22.399  26.730  1.00  0.00     0.163 HD
ATOM     33  O   UNL A   1      42.740  24.589  26.616  1.00  0.00    -0.269 OA
BRANCH  31  34
ATOM     34  C   UNL A   1      40.652  25.557  27.084  1.00  0.00     0.039 A 
ATOM     35  C   UNL A   1      40.816  26.735  26.345  1.00  0.00     0.014 A 
ATOM     36  C   UNL A   1      39.852  25.563  28.221  1.00  0.00     0.014 A 
ATOM     37  C   UNL A   1      40.429  27.952  26.905  1.00  0.00     0.010 A 
ATOM     38  C   UNL A   1      39.587  26.769  28.837  1.00  0.00     0.010 A 
ATOM     39  C   UNL A   1      39.939  27.966  28.210  1.00  0.00    -0.014 A 
BRANCH  39  40
ATOM     40  C   UNL A   1      39.923  29.166  29.039  1.00  0.00     0.031 A 
ATOM     41  C   UNL A   1      38.836  30.158  28.928  1.00  0.00     0.074 A 
ATOM     42  C   UNL A   1      40.882  29.343  29.976  1.00  0.00     0.049 A 
ATOM     43  N   UNL A   1      38.991  31.419  29.164  1.00  0.00    -0.248 NA
ATOM     44  C   UNL A   1      37.480  29.807  28.522  1.00  0.00     0.031 C 
ATOM     45  C   UNL A   1      40.891  30.325  31.057  1.00  0.00     0.029 A 
ATOM     46  N   UNL A   1      42.158  28.768  30.018  1.00  0.00    -0.354 N 
ATOM     47  C   UNL A   1      37.739  31.984  29.216  1.00  0.00     0.074 A 
ATOM     48  C   UNL A   1      36.838  30.957  28.745  1.00  0.00     0.031 C 
ATOM     49  C   UNL A   1      42.152  30.492  31.482  1.00  0.00     0.029 A 
ATOM     50  C   UNL A   1      43.013  29.728  30.596  1.00  0.00     0.049 A 
ATOM     51  H   UNL A   1      42.409  27.869  29.705  1.00  0.00     0.167 HD
ATOM     52  C   UNL A   1      37.560  33.205  29.795  1.00  0.00     0.037 A 
ATOM     53  C   UNL A   1      44.083  30.234  29.918  1.00  0.00     0.037 A 
ATOM     54  C   UNL A   1      38.809  33.746  30.317  1.00  0.00     0.049 A 
ATOM     55  C   UNL A   1      44.037  31.731  29.723  1.00  0.00     0.074 A 
ATOM     56  C   UNL A   1      39.364  33.730  31.587  1.00  0.00     0.029 A 
ATOM     57  N   UNL A   1      39.826  34.127  29.449  1.00  0.00    -0.354 N 
ATOM     58  N   UNL A   1      42.956  32.446  29.852  1.00  0.00    -0.248 NA
ATOM     59  C   UNL A   1      45.189  32.531  29.316  1.00  0.00     0.031 C 
ATOM     60  C   UNL A   1      40.730  34.073  31.478  1.00  0.00     0.029 A 
ATOM     61  C   UNL A   1      41.008  34.304  30.144  1.00  0.00     0.049 A 
ATOM     62  H   UNL A   1      39.720  34.253  28.479  1.00  0.00     0.167 HD
ATOM     63  C   UNL A   1      43.222  33.745  29.503  1.00  0.00     0.074 A 
ATOM     64  C   UNL A   1      44.642  33.755  29.207  1.00  0.00     0.031 C 
ATOM     65  C   UNL A   1      42.236  34.689  29.464  1.00  0.00     0.037 A 
BRANCH  52  66
ATOM     66  C   UNL A   1      36.192  33.716  30.167  1.00  0.00     0.057 A 
ATOM     67  C   UNL A   1      35.295  34.198  29.195  1.00  0.00     0.134 A 
ATOM     68  C   UNL A   1      35.727  33.804  31.490  1.00  0.00     0.134 A 
ATOM     69  F   UNL A   1      35.544  34.086  27.885  1.00  0.00    -0.206 F 
ATOM     70  C   UNL A   1      34.093  34.837  29.522  1.00  0.00     0.040 A 
ATOM     71  C   UNL A   1      34.551  34.486  31.836  1.00  0.00     0.040 A 
ATOM     72  F   UNL A   1      36.392  33.221  32.497  1.00  0.00    -0.206 F 
ATOM     73  C   UNL A   1      33.737  35.022  30.849  1.00  0.00     0.006 A 
ENDBRANCH  52  66
BRANCH  53  74
ATOM     74  C   UNL A   1      44.670  29.279  28.943  1.00  0.00     0.057 A 
ATOM     75  C   UNL A   1      45.579  28.313  29.406  1.00  0.00     0.134 A 
ATOM     76  C   UNL A   1      44.086  29.061  27.693  1.00  0.00     0.134 A 
ATOM     77  F   UNL A   1      46.168  28.460  30.604  1.00  0.00    -0.206 F 
ATOM     78  C   UNL A   1      45.815  27.127  28.706  1.00  0.00     0.040 A 
ATOM     79  C   UNL A   1      44.320  27.881  26.979  1.00  0.00     0.040 A 
ATOM     80  F   UNL A   1      43.190  29.926  27.198  1.00  0.00    -0.206 F 
ATOM     81  C   UNL A   1      45.156  26.894  27.502  1.00  0.00     0.006 A 
ENDBRANCH  53  74
BRANCH  65  82
ATOM     82  C   UNL A   1      42.346  36.077  28.881  1.00  0.00     0.057 A 
ATOM     83  C   UNL A   1      43.001  37.148  29.505  1.00  0.00     0.134 A 
ATOM     84  C   UNL A   1      41.902  36.335  27.563  1.00  0.00     0.134 A 
ATOM     85  F   UNL A   1      43.571  37.018  30.710  1.00  0.00    -0.206 F 
ATOM     86  C   UNL A   1      43.154  38.399  28.889  1.00  0.00     0.040 A 
ATOM     87  C   UNL A   1      42.096  37.561  26.920  1.00  0.00     0.040 A 
ATOM     88  F   UNL A   1      41.279  35.399  26.832  1.00  0.00    -0.206 F 
ATOM     89  C   UNL A   1      42.713  38.606  27.589  1.00  0.00     0.006 A 
ENDBRANCH  65  82
ENDBRANCH  39  40
ENDBRANCH  31  34
ENDBRANCH  29  30
ENDBRANCH  28  29
ENDBRANCH  27  28
ENDBRANCH   1  27
TORSDOF 16
ENDMDL
MODEL 2
REMARK VINA RESULT:     -12.4      1.457      2.144
REMARK SMILES Cc1ccc(C(C)(C)C)c(OCC(=O)c2nc(C)c(C(=O)NCCCCNC(=O)c3ccc(-c4c5nc(c(-c6c(F)cccc6F)c6ccc([nH]6)c(-c6c(F)cccc6F)c6nc(c(-c7c(F)cccc7F)c7ccc4[nH]7)C=C6)C=C5)cc3)s2)c1
REMARK SMILES IDX 23 1 22 2 20 3 21 4 19 6 15 7 16 8 84 9 17 10 18 11 13 12
REMARK SMILES IDX 14 13 12 14 11 15 10 16 1 17 2 18 3 19 85 20 4 21 5 22 6 23
REMARK SMILES IDX 7 24 8 25 9 26 24 27 25 28 26 29 27 30 28 31 29 33 30 34
REMARK SMILES IDX 31 35 83 36 32 37 82 38 33 39 34 40 35 41 76 42 36 43 81 44
REMARK SMILES IDX 75 45 77 46 37 47 80 48 74 49 73 50 38 52 64 53 47 54 63 55
REMARK SMILES IDX 48 56 51 57 62 58 78 59 49 60 50 61 61 63 79 64 52 65 39 66
REMARK SMILES IDX 40 67 45 68 41 69 42 70 44 71 46 72 43 73 65 74 66 75 71 76
REMARK SMILES IDX 67 77 68 78 70 79 72 80 69 81 53 82 54 83 59 84 55 85 56 86
REMARK SMILES IDX 58 87 60 88 57 89
REMARK H PARENT 22 5 27 32 77 51 51 62
REMARK Flexibility Score: inf
ROOT
ATOM      1  C   UNL A   1      36.368  21.492  25.525  1.00  0.00     0.116 C 
ENDROOT
BRANCH   1   2
ATOM      2  N   UNL A   1      35.599  20.320  25.192  1.00  0.00    -0.351 N 
ATOM      3  C   UNL A   1      34.280  20.074  24.914  1.00  0.00     0.263 C 
ATOM      4  O   UNL A   1      34.085  18.874  24.669  1.00  0.00    -0.268 OA
ATOM      5  H   UNL A   1      36.150  19.505  25.156  1.00  0.00     0.163 HD
BRANCH   3   6
ATOM      6  C   UNL A   1      33.195  21.058  24.889  1.00  0.00     0.115 A 
ATOM      7  C   UNL A   1      31.605  22.711  25.823  1.00  0.00     0.164 A 
ATOM      8  N   UNL A   1      31.424  22.565  24.535  1.00  0.00    -0.237 NA
ATOM      9  S   UNL A   1      32.838  21.749  26.465  1.00  0.00    -0.105 S 
ATOM     10  C   UNL A   1      32.328  21.666  23.979  1.00  0.00     0.062 A 
ATOM     11  C   UNL A   1      32.155  21.571  22.510  1.00  0.00     0.068 C 
BRANCH   7  12
ATOM     12  C   UNL A   1      30.776  23.624  26.595  1.00  0.00     0.228 C 
ATOM     13  O   UNL A   1      29.999  23.236  27.478  1.00  0.00    -0.288 OA
BRANCH  12  14
ATOM     14  C   UNL A   1      30.758  25.114  26.225  1.00  0.00     0.313 C 
BRANCH  14  15
ATOM     15  O   UNL A   1      31.617  25.634  25.236  1.00  0.00    -0.485 OA
BRANCH  15  16
ATOM     16  C   UNL A   1      32.079  26.916  25.328  1.00  0.00     0.123 A 
ATOM     17  C   UNL A   1      34.481  29.028  27.424  1.00  0.00     0.044 C 
ATOM     18  C   UNL A   1      33.502  28.620  26.363  1.00  0.00    -0.047 A 
ATOM     19  C   UNL A   1      33.105  29.525  25.387  1.00  0.00     0.004 A 
ATOM     20  C   UNL A   1      32.961  27.330  26.342  1.00  0.00     0.050 A 
ATOM     21  C   UNL A   1      32.190  29.139  24.406  1.00  0.00     0.008 A 
ATOM     22  C   UNL A   1      31.651  27.831  24.340  1.00  0.00    -0.000 A 
BRANCH  22  23
ATOM     23  C   UNL A   1      30.633  27.532  23.207  1.00  0.00    -0.010 C 
ATOM     24  C   UNL A   1      30.308  28.855  22.472  1.00  0.00     0.016 C 
ATOM     25  C   UNL A   1      31.254  26.532  22.200  1.00  0.00     0.016 C 
ATOM     26  C   UNL A   1      29.269  26.931  23.618  1.00  0.00     0.016 C 
ENDBRANCH  22  23
ENDBRANCH  15  16
ENDBRANCH  14  15
ENDBRANCH  12  14
ENDBRANCH   7  12
ENDBRANCH   3   6
ENDBRANCH   1   2
BRANCH   1  27
ATOM     27  C   UNL A   1      37.765  21.457  24.884  1.00  0.00     0.023 C 
BRANCH  27  28
ATOM     28  C   UNL A   1      38.935  21.447  25.869  1.00  0.00     0.023 C 
BRANCH  28  29
ATOM     29  C   UNL A   1      39.278  22.833  26.392  1.00  0.00     0.116 C 
BRANCH  29  30
ATOM     30  N   UNL A   1      40.700  23.146  26.440  1.00  0.00    -0.352 N 
ATOM     31  C   UNL A   1      41.340  24.361  26.656  1.00  0.00     0.251 C 
ATOM     32  H   UNL A   1      41.301  22.378  26.297  1.00  0.00     0.163 HD
ATOM     33  O   UNL A   1      42.554  24.428  26.582  1.00  0.00    -0.269 OA
BRANCH  31  34
ATOM     34  C   UNL A   1      40.557  25.539  27.126  1.00  0.00     0.039 A 
ATOM     35  C   UNL A   1      40.678  26.733  26.405  1.00  0.00     0.014 A 
ATOM     36  C   UNL A   1      39.922  25.543  28.363  1.00  0.00     0.014 A 
ATOM     37  C   UNL A   1      40.432  27.946  27.046  1.00  0.00     0.010 A 
ATOM     38  C   UNL A   1      39.804  26.739  29.042  1.00  0.00     0.010 A 
ATOM     39  C   UNL A   1      40.127  27.939  28.406  1.00  0.00    -0.014 A 
BRANCH  39  40
ATOM     40  C   UNL A   1      40.284  29.109  29.262  1.00  0.00     0.031 A 
ATOM     41  C   UNL A   1      39.187  30.079  29.442  1.00  0.00     0.074 A 
ATOM     42  C   UNL A   1      41.431  29.277  29.959  1.00  0.00     0.049 A 
ATOM     43  N   UNL A   1      39.373  31.334  29.684  1.00  0.00    -0.248 NA
ATOM     44  C   UNL A   1      37.779  29.710  29.345  1.00  0.00     0.031 C 
ATOM     45  C   UNL A   1      41.674  30.222  31.046  1.00  0.00     0.029 A 
ATOM     46  N   UNL A   1      42.691  28.731  29.685  1.00  0.00    -0.354 N 
ATOM     47  C   UNL A   1      38.159  31.868  30.045  1.00  0.00     0.074 A 
ATOM     48  C   UNL A   1      37.188  30.837  29.754  1.00  0.00     0.031 C 
ATOM     49  C   UNL A   1      42.997  30.404  31.176  1.00  0.00     0.029 A 
ATOM     50  C   UNL A   1      43.642  29.691  30.087  1.00  0.00     0.049 A 
ATOM     51  H   UNL A   1      42.876  27.849  29.288  1.00  0.00     0.167 HD
ATOM     52  C   UNL A   1      38.100  33.064  30.695  1.00  0.00     0.037 A 
ATOM     53  C   UNL A   1      44.519  30.244  29.201  1.00  0.00     0.037 A 
ATOM     54  C   UNL A   1      39.427  33.616  30.936  1.00  0.00     0.049 A 
ATOM     55  C   UNL A   1      44.407  31.745  29.079  1.00  0.00     0.074 A 
ATOM     56  C   UNL A   1      40.260  33.570  32.043  1.00  0.00     0.029 A 
ATOM     57  N   UNL A   1      40.211  34.050  29.873  1.00  0.00    -0.354 N 
ATOM     58  N   UNL A   1      43.374  32.430  29.481  1.00  0.00    -0.248 NA
ATOM     59  C   UNL A   1      45.422  32.585  28.449  1.00  0.00     0.031 C 
ATOM     60  C   UNL A   1      41.559  33.948  31.637  1.00  0.00     0.029 A 
ATOM     61  C   UNL A   1      41.519  34.231  30.284  1.00  0.00     0.049 A 
ATOM     62  H   UNL A   1      39.882  34.206  28.959  1.00  0.00     0.167 HD
ATOM     63  C   UNL A   1      43.533  33.746  29.130  1.00  0.00     0.074 A 
ATOM     64  C   UNL A   1      44.846  33.799  28.517  1.00  0.00     0.031 C 
ATOM     65  C   UNL A   1      42.550  34.667  29.355  1.00  0.00     0.037 A 
BRANCH  52  66
ATOM     66  C   UNL A   1      36.847  33.530  31.391  1.00  0.00     0.057 A 
ATOM     67  C   UNL A   1      36.669  33.366  32.779  1.00  0.00     0.134 A 
ATOM     68  C   UNL A   1      35.751  34.101  30.723  1.00  0.00     0.134 A 
ATOM     69  F   UNL A   1      37.657  32.936  33.572  1.00  0.00    -0.206 F 
ATOM     70  C   UNL A   1      35.455  33.625  33.424  1.00  0.00     0.040 A 
ATOM     71  C   UNL A   1      34.513  34.319  31.345  1.00  0.00     0.040 A 
ATOM     72  F   UNL A   1      35.845  34.482  29.441  1.00  0.00    -0.206 F 
ATOM     73  C   UNL A   1      34.357  34.064  32.700  1.00  0.00     0.006 A 
ENDBRANCH  52  66
BRANCH  53  74
ATOM     74  C   UNL A   1      44.879  29.337  28.081  1.00  0.00     0.057 A 
ATOM     75  C   UNL A   1      45.871  28.364  28.292  1.00  0.00     0.134 A 
ATOM     76  C   UNL A   1      44.035  29.162  26.982  1.00  0.00     0.134 A 
ATOM     77  F   UNL A   1      46.710  28.469  29.336  1.00  0.00    -0.206 F 
ATOM     78  C   UNL A   1      45.950  27.210  27.508  1.00  0.00     0.040 A 
ATOM     79  C   UNL A   1      44.110  28.015  26.185  1.00  0.00     0.040 A 
ATOM     80  F   UNL A   1      43.049  30.035  26.733  1.00  0.00    -0.206 F 
ATOM     81  C   UNL A   1      45.043  27.018  26.469  1.00  0.00     0.006 A 
ENDBRANCH  53  74
BRANCH  65  82
ATOM     82  C   UNL A   1      42.503  36.077  28.817  1.00  0.00     0.057 A 
ATOM     83  C   UNL A   1      43.037  37.194  29.473  1.00  0.00     0.134 A 
ATOM     84  C   UNL A   1      42.026  36.324  27.508  1.00  0.00     0.134 A 
ATOM     85  F   UNL A   1      43.623  37.091  30.673  1.00  0.00    -0.206 F 
ATOM     86  C   UNL A   1      43.046  38.472  28.897  1.00  0.00     0.040 A 
ATOM     87  C   UNL A   1      42.080  37.584  26.903  1.00  0.00     0.040 A 
ATOM     88  F   UNL A   1      41.508  35.348  26.748  1.00  0.00    -0.206 F 
ATOM     89  C   UNL A   1      42.579  38.669  27.604  1.00  0.00     0.006 A 
ENDBRANCH  65  82
ENDBRANCH  39  40
ENDBRANCH  31  34
ENDBRANCH  29  30
ENDBRANCH  28  29
ENDBRANCH  27  28
ENDBRANCH   1  27
TORSDOF 16
ENDMDL
MODEL 3
REMARK VINA RESULT:     -12.0      3.751      9.339
REMARK SMILES Cc1ccc(C(C)(C)C)c(OCC(=O)c2nc(C)c(C(=O)NCCCCNC(=O)c3ccc(-c4c5nc(c(-c6c(F)cccc6F)c6ccc([nH]6)c(-c6c(F)cccc6F)c6nc(c(-c7c(F)cccc7F)c7ccc4[nH]7)C=C6)C=C5)cc3)s2)c1
REMARK SMILES IDX 23 1 22 2 20 3 21 4 19 6 15 7 16 8 84 9 17 10 18 11 13 12
REMARK SMILES IDX 14 13 12 14 11 15 10 16 1 17 2 18 3 19 85 20 4 21 5 22 6 23
REMARK SMILES IDX 7 24 8 25 9 26 24 27 25 28 26 29 27 30 28 31 29 33 30 34
REMARK SMILES IDX 31 35 83 36 32 37 82 38 33 39 34 40 35 41 76 42 36 43 81 44
REMARK SMILES IDX 75 45 77 46 37 47 80 48 74 49 73 50 38 52 64 53 47 54 63 55
REMARK SMILES IDX 48 56 51 57 62 58 78 59 49 60 50 61 61 63 79 64 52 65 39 66
REMARK SMILES IDX 40 67 45 68 41 69 42 70 44 71 46 72 43 73 65 74 66 75 71 76
REMARK SMILES IDX 67 77 68 78 70 79 72 80 69 81 53 82 54 83 59 84 55 85 56 86
REMARK SMILES IDX 58 87 60 88 57 89
REMARK H PARENT 22 5 27 32 77 51 51 62
REMARK Flexibility Score: inf
ROOT
ATOM      1  C   UNL A   1      33.278  33.824  28.010  1.00  0.00     0.116 C 
ENDROOT
BRANCH   1   2
ATOM      2  N   UNL A   1      34.208  32.791  28.390  1.00  0.00    -0.351 N 
ATOM      3  C   UNL A   1      34.345  31.458  28.105  1.00  0.00     0.263 C 
ATOM      4  O   UNL A   1      35.334  30.972  28.673  1.00  0.00    -0.268 OA
ATOM      5  H   UNL A   1      34.911  33.121  28.997  1.00  0.00     0.163 HD
BRANCH   3   6
ATOM      6  C   UNL A   1      33.471  30.656  27.246  1.00  0.00     0.115 A 
ATOM      7  C   UNL A   1      32.758  28.663  25.960  1.00  0.00     0.164 A 
ATOM      8  N   UNL A   1      31.884  29.630  25.844  1.00  0.00    -0.237 NA
ATOM      9  S   UNL A   1      34.093  29.042  26.925  1.00  0.00    -0.105 S 
ATOM     10  C   UNL A   1      32.245  30.751  26.586  1.00  0.00     0.062 A 
ATOM     11  C   UNL A   1      31.208  31.806  26.500  1.00  0.00     0.068 C 
BRANCH   7  12
ATOM     12  C   UNL A   1      32.559  27.392  25.280  1.00  0.00     0.228 C 
ATOM     13  O   UNL A   1      31.560  27.155  24.587  1.00  0.00    -0.288 OA
BRANCH  12  14
ATOM     14  C   UNL A   1      33.553  26.248  25.524  1.00  0.00     0.313 C 
BRANCH  14  15
ATOM     15  O   UNL A   1      33.505  25.060  24.766  1.00  0.00    -0.485 OA
BRANCH  15  16
ATOM     16  C   UNL A   1      34.499  24.131  24.875  1.00  0.00     0.123 A 
ATOM     17  C   UNL A   1      38.088  23.809  26.157  1.00  0.00     0.044 C 
ATOM     18  C   UNL A   1      36.750  23.463  25.574  1.00  0.00    -0.047 A 
ATOM     19  C   UNL A   1      36.460  22.154  25.207  1.00  0.00     0.004 A 
ATOM     20  C   UNL A   1      35.776  24.446  25.376  1.00  0.00     0.050 A 
ATOM     21  C   UNL A   1      35.214  21.840  24.661  1.00  0.00     0.008 A 
ATOM     22  C   UNL A   1      34.197  22.808  24.480  1.00  0.00    -0.000 A 
BRANCH  22  23
ATOM     23  C   UNL A   1      32.860  22.334  23.851  1.00  0.00    -0.010 C 
ATOM     24  C   UNL A   1      32.815  22.800  22.374  1.00  0.00     0.016 C 
ATOM     25  C   UNL A   1      32.783  20.788  23.896  1.00  0.00     0.016 C 
ATOM     26  C   UNL A   1      31.550  22.844  24.495  1.00  0.00     0.016 C 
ENDBRANCH  22  23
ENDBRANCH  15  16
ENDBRANCH  14  15
ENDBRANCH  12  14
ENDBRANCH   7  12
ENDBRANCH   3   6
ENDBRANCH   1   2
BRANCH   1  27
ATOM     27  C   UNL A   1      33.870  35.228  28.217  1.00  0.00     0.023 C 
BRANCH  27  28
ATOM     28  C   UNL A   1      33.207  36.060  29.316  1.00  0.00     0.023 C 
BRANCH  28  29
ATOM     29  C   UNL A   1      33.023  35.287  30.612  1.00  0.00     0.116 C 
BRANCH  29  30
ATOM     30  N   UNL A   1      33.864  35.721  31.721  1.00  0.00    -0.352 N 
ATOM     31  C   UNL A   1      34.999  35.130  32.263  1.00  0.00     0.251 C 
ATOM     32  H   UNL A   1      33.585  36.562  32.151  1.00  0.00     0.163 HD
ATOM     33  O   UNL A   1      35.523  35.617  33.249  1.00  0.00    -0.269 OA
BRANCH  31  34
ATOM     34  C   UNL A   1      35.660  33.999  31.552  1.00  0.00     0.039 A 
ATOM     35  C   UNL A   1      35.702  32.757  32.198  1.00  0.00     0.014 A 
ATOM     36  C   UNL A   1      36.421  34.206  30.408  1.00  0.00     0.014 A 
ATOM     37  C   UNL A   1      36.709  31.851  31.871  1.00  0.00     0.010 A 
ATOM     38  C   UNL A   1      37.497  33.375  30.169  1.00  0.00     0.010 A 
ATOM     39  C   UNL A   1      37.683  32.231  30.949  1.00  0.00    -0.014 A 
BRANCH  39  40
ATOM     40  C   UNL A   1      38.986  31.584  30.858  1.00  0.00     0.031 A 
ATOM     41  C   UNL A   1      39.187  30.378  30.031  1.00  0.00     0.074 A 
ATOM     42  C   UNL A   1      40.050  32.135  31.486  1.00  0.00     0.049 A 
ATOM     43  N   UNL A   1      40.060  29.465  30.298  1.00  0.00    -0.248 NA
ATOM     44  C   UNL A   1      38.399  30.096  28.836  1.00  0.00     0.031 C 
ATOM     45  C   UNL A   1      41.458  31.792  31.304  1.00  0.00     0.029 A 
ATOM     46  N   UNL A   1      40.044  33.013  32.577  1.00  0.00    -0.354 N 
ATOM     47  C   UNL A   1      40.146  28.644  29.198  1.00  0.00     0.074 A 
ATOM     48  C   UNL A   1      39.048  29.037  28.344  1.00  0.00     0.031 C 
ATOM     49  C   UNL A   1      42.149  32.211  32.376  1.00  0.00     0.029 A 
ATOM     50  C   UNL A   1      41.188  32.711  33.343  1.00  0.00     0.049 A 
ATOM     51  H   UNL A   1      39.371  33.706  32.770  1.00  0.00     0.167 HD
ATOM     52  C   UNL A   1      41.219  27.820  29.038  1.00  0.00     0.037 A 
ATOM     53  C   UNL A   1      41.092  32.293  34.638  1.00  0.00     0.037 A 
ATOM     54  C   UNL A   1      42.179  27.962  30.125  1.00  0.00     0.049 A 
ATOM     55  C   UNL A   1      41.686  30.927  34.890  1.00  0.00     0.074 A 
ATOM     56  C   UNL A   1      43.342  28.707  30.239  1.00  0.00     0.029 A 
ATOM     57  N   UNL A   1      41.850  27.549  31.411  1.00  0.00    -0.354 N 
ATOM     58  N   UNL A   1      41.946  30.065  33.949  1.00  0.00    -0.248 NA
ATOM     59  C   UNL A   1      41.983  30.407  36.222  1.00  0.00     0.031 C 
ATOM     60  C   UNL A   1      43.698  28.769  31.605  1.00  0.00     0.029 A 
ATOM     61  C   UNL A   1      42.756  28.057  32.324  1.00  0.00     0.049 A 
ATOM     62  H   UNL A   1      41.083  26.977  31.639  1.00  0.00     0.167 HD
ATOM     63  C   UNL A   1      42.371  28.890  34.511  1.00  0.00     0.074 A 
ATOM     64  C   UNL A   1      42.410  29.165  35.935  1.00  0.00     0.031 C 
ATOM     65  C   UNL A   1      42.628  27.786  33.748  1.00  0.00     0.037 A 
BRANCH  52  66
ATOM     66  C   UNL A   1      41.521  27.155  27.719  1.00  0.00     0.057 A 
ATOM     67  C   UNL A   1      41.284  25.782  27.514  1.00  0.00     0.134 A 
ATOM     68  C   UNL A   1      42.103  27.819  26.627  1.00  0.00     0.134 A 
ATOM     69  F   UNL A   1      40.639  25.033  28.415  1.00  0.00    -0.206 F 
ATOM     70  C   UNL A   1      41.713  25.101  26.369  1.00  0.00     0.040 A 
ATOM     71  C   UNL A   1      42.582  27.143  25.496  1.00  0.00     0.040 A 
ATOM     72  F   UNL A   1      42.217  29.155  26.611  1.00  0.00    -0.206 F 
ATOM     73  C   UNL A   1      42.403  25.773  25.372  1.00  0.00     0.006 A 
ENDBRANCH  52  66
BRANCH  53  74
ATOM     74  C   UNL A   1      39.904  32.835  35.347  1.00  0.00     0.057 A 
ATOM     75  C   UNL A   1      38.742  32.046  35.419  1.00  0.00     0.134 A 
ATOM     76  C   UNL A   1      40.011  33.900  36.244  1.00  0.00     0.134 A 
ATOM     77  F   UNL A   1      38.582  31.002  34.590  1.00  0.00    -0.206 F 
ATOM     78  C   UNL A   1      37.780  32.242  36.414  1.00  0.00     0.040 A 
ATOM     79  C   UNL A   1      39.050  34.110  37.239  1.00  0.00     0.040 A 
ATOM     80  F   UNL A   1      41.101  34.679  36.251  1.00  0.00    -0.206 F 
ATOM     81  C   UNL A   1      37.951  33.258  37.349  1.00  0.00     0.006 A 
ENDBRANCH  53  74
BRANCH  65  82
ATOM     82  C   UNL A   1      42.873  26.385  34.253  1.00  0.00     0.057 A 
ATOM     83  C   UNL A   1      44.088  25.698  34.124  1.00  0.00     0.134 A 
ATOM     84  C   UNL A   1      41.896  25.727  35.036  1.00  0.00     0.134 A 
ATOM     85  F   UNL A   1      45.142  26.244  33.503  1.00  0.00    -0.206 F 
ATOM     86  C   UNL A   1      44.299  24.430  34.683  1.00  0.00     0.040 A 
ATOM     87  C   UNL A   1      42.114  24.487  35.643  1.00  0.00     0.040 A 
ATOM     88  F   UNL A   1      40.692  26.272  35.268  1.00  0.00    -0.206 F 
ATOM     89  C   UNL A   1      43.316  23.825  35.456  1.00  0.00     0.006 A 
ENDBRANCH  65  82
ENDBRANCH  39  40
ENDBRANCH  31  34
ENDBRANCH  29  30
ENDBRANCH  28  29
ENDBRANCH  27  28
ENDBRANCH   1  27
TORSDOF 16
ENDMDL
