MODEL 1
REMARK VINA RESULT:     -11.6      0.000      0.000
REMARK SMILES O=C(NCCCCNC(=O)c1cccc(CS(=O)(=O)NCc2ccccc2)c1)c1ccc(-c2c3nc(c(-c4c(F)cccc4F)c4ccc([nH]4)c(-c4c(F)cccc4F)c4nc(c(-c5c(F)cccc5F)c5ccc2[nH]5)C=C4)C=C3)cc1
REMARK SMILES IDX 7 1 6 2 5 3 4 4 3 5 1 6 2 7 29 9 30 10 82 11 31 12 81 13
REMARK SMILES IDX 32 14 33 15 34 16 75 17 35 18 80 19 74 20 76 21 36 22 79 23
REMARK SMILES IDX 73 24 72 25 37 27 63 28 46 29 62 30 47 31 50 32 61 33 77 34
REMARK SMILES IDX 48 35 49 36 60 38 78 39 51 40 38 41 39 42 44 43 40 44 41 45
REMARK SMILES IDX 43 46 45 47 42 48 64 49 65 50 70 51 66 52 67 53 69 54 71 55
REMARK SMILES IDX 68 56 52 57 53 58 58 59 54 60 55 61 57 62 59 63 56 64 8 65
REMARK SMILES IDX 9 66 10 68 11 69 12 70 28 71 13 72 15 73 14 74 16 75 17 76
REMARK SMILES IDX 18 77 19 78 20 79 21 81 22 82 23 83 27 84 24 85 26 86 25 87
REMARK H PARENT 3 8 76 26 50 37 8 67 20 80
REMARK Flexibility Score: inf
ROOT
ATOM      1  C   UNL A   1      35.425  20.006  24.998  1.00  0.00     0.116 C 
ENDROOT
BRANCH   1   2
ATOM      2  C   UNL A   1      36.800  19.356  25.011  1.00  0.00     0.023 C 
BRANCH   2   3
ATOM      3  C   UNL A   1      37.956  20.305  24.728  1.00  0.00     0.023 C 
BRANCH   3   4
ATOM      4  C   UNL A   1      39.015  20.373  25.819  1.00  0.00     0.116 C 
BRANCH   4   5
ATOM      5  N   UNL A   1      39.930  19.239  25.812  1.00  0.00    -0.352 N 
ATOM      6  O   UNL A   1      41.926  18.182  25.899  1.00  0.00    -0.269 OA
ATOM      7  C   UNL A   1      41.285  19.215  26.051  1.00  0.00     0.251 C 
ATOM      8  H   UNL A   1      39.521  18.367  25.607  1.00  0.00     0.163 HD
BRANCH   7   9
ATOM      9  C   UNL A   1      41.969  20.464  26.449  1.00  0.00     0.039 A 
ATOM     10  C   UNL A   1      42.115  20.786  27.798  1.00  0.00     0.014 A 
ATOM     11  C   UNL A   1      42.404  21.348  25.459  1.00  0.00     0.014 A 
ATOM     12  C   UNL A   1      42.509  22.069  28.153  1.00  0.00     0.010 A 
ATOM     13  C   UNL A   1      42.898  22.603  25.824  1.00  0.00     0.010 A 
ATOM     14  C   UNL A   1      42.901  22.996  27.171  1.00  0.00    -0.014 A 
BRANCH  14  15
ATOM     15  C   UNL A   1      43.314  24.359  27.593  1.00  0.00     0.031 A 
ATOM     16  C   UNL A   1      44.747  24.807  27.490  1.00  0.00     0.074 A 
ATOM     17  C   UNL A   1      42.367  25.220  28.010  1.00  0.00     0.049 A 
ATOM     18  N   UNL A   1      45.262  25.982  27.755  1.00  0.00    -0.248 NA
ATOM     19  C   UNL A   1      45.733  23.811  27.043  1.00  0.00     0.031 C 
ATOM     20  C   UNL A   1      40.946  24.899  28.162  1.00  0.00     0.029 A 
ATOM     21  N   UNL A   1      42.447  26.545  28.352  1.00  0.00    -0.354 N 
ATOM     22  C   UNL A   1      46.630  25.859  27.539  1.00  0.00     0.074 A 
ATOM     23  C   UNL A   1      46.869  24.489  27.136  1.00  0.00     0.031 C 
ATOM     24  C   UNL A   1      40.277  26.012  28.497  1.00  0.00     0.029 A 
ATOM     25  C   UNL A   1      41.229  27.109  28.642  1.00  0.00     0.049 A 
ATOM     26  H   UNL A   1      43.295  27.044  28.384  1.00  0.00     0.167 HD
ATOM     27  C   UNL A   1      47.595  26.802  27.660  1.00  0.00     0.037 A 
ATOM     28  C   UNL A   1      40.909  28.368  28.989  1.00  0.00     0.037 A 
ATOM     29  C   UNL A   1      47.350  28.174  28.024  1.00  0.00     0.049 A 
ATOM     30  C   UNL A   1      41.995  29.395  29.098  1.00  0.00     0.074 A 
ATOM     31  C   UNL A   1      48.258  29.214  28.130  1.00  0.00     0.029 A 
ATOM     32  N   UNL A   1      46.106  28.699  28.338  1.00  0.00    -0.354 N 
ATOM     33  N   UNL A   1      43.279  29.267  28.865  1.00  0.00    -0.248 NA
ATOM     34  C   UNL A   1      41.590  30.741  29.523  1.00  0.00     0.031 C 
ATOM     35  C   UNL A   1      47.568  30.361  28.539  1.00  0.00     0.029 A 
ATOM     36  C   UNL A   1      46.224  30.043  28.652  1.00  0.00     0.049 A 
ATOM     37  H   UNL A   1      45.262  28.191  28.337  1.00  0.00     0.167 HD
ATOM     38  C   UNL A   1      43.833  30.516  29.101  1.00  0.00     0.074 A 
ATOM     39  C   UNL A   1      42.742  31.394  29.476  1.00  0.00     0.031 C 
ATOM     40  C   UNL A   1      45.129  30.901  29.020  1.00  0.00     0.037 A 
BRANCH  27  41
ATOM     41  C   UNL A   1      49.013  26.381  27.412  1.00  0.00     0.057 A 
ATOM     42  C   UNL A   1      49.583  26.403  26.133  1.00  0.00     0.134 A 
ATOM     43  C   UNL A   1      49.835  25.991  28.478  1.00  0.00     0.134 A 
ATOM     44  F   UNL A   1      48.847  26.756  25.068  1.00  0.00    -0.206 F 
ATOM     45  C   UNL A   1      50.914  26.037  25.920  1.00  0.00     0.040 A 
ATOM     46  C   UNL A   1      51.172  25.641  28.281  1.00  0.00     0.040 A 
ATOM     47  F   UNL A   1      49.353  25.952  29.730  1.00  0.00    -0.206 F 
ATOM     48  C   UNL A   1      51.714  25.660  26.998  1.00  0.00     0.006 A 
ENDBRANCH  27  41
BRANCH  28  49
ATOM     49  C   UNL A   1      39.492  28.724  29.239  1.00  0.00     0.057 A 
ATOM     50  C   UNL A   1      38.674  29.197  28.208  1.00  0.00     0.134 A 
ATOM     51  C   UNL A   1      38.917  28.580  30.507  1.00  0.00     0.134 A 
ATOM     52  F   UNL A   1      39.174  29.369  26.975  1.00  0.00    -0.206 F 
ATOM     53  C   UNL A   1      37.337  29.527  28.430  1.00  0.00     0.040 A 
ATOM     54  C   UNL A   1      37.576  28.882  30.739  1.00  0.00     0.040 A 
ATOM     55  F   UNL A   1      39.649  28.121  31.534  1.00  0.00    -0.206 F 
ATOM     56  C   UNL A   1      36.783  29.362  29.699  1.00  0.00     0.006 A 
ENDBRANCH  28  49
BRANCH  40  57
ATOM     57  C   UNL A   1      45.427  32.340  29.317  1.00  0.00     0.057 A 
ATOM     58  C   UNL A   1      45.768  32.768  30.606  1.00  0.00     0.134 A 
ATOM     59  C   UNL A   1      45.382  33.302  28.302  1.00  0.00     0.134 A 
ATOM     60  F   UNL A   1      45.813  31.896  31.624  1.00  0.00    -0.206 F 
ATOM     61  C   UNL A   1      46.032  34.111  30.879  1.00  0.00     0.040 A 
ATOM     62  C   UNL A   1      45.664  34.644  28.559  1.00  0.00     0.040 A 
ATOM     63  F   UNL A   1      45.065  32.953  27.046  1.00  0.00    -0.206 F 
ATOM     64  C   UNL A   1      45.984  35.053  29.852  1.00  0.00     0.006 A 
ENDBRANCH  40  57
ENDBRANCH  14  15
ENDBRANCH   7   9
ENDBRANCH   4   5
ENDBRANCH   3   4
ENDBRANCH   2   3
ENDBRANCH   1   2
BRANCH   1  65
ATOM     65  N   UNL A   1      34.342  19.056  25.210  1.00  0.00    -0.352 N 
ATOM     66  C   UNL A   1      32.988  19.281  25.074  1.00  0.00     0.251 C 
ATOM     67  H   UNL A   1      34.607  18.148  25.480  1.00  0.00     0.163 HD
ATOM     68  O   UNL A   1      32.160  18.432  25.339  1.00  0.00    -0.269 OA
BRANCH  66  69
ATOM     69  C   UNL A   1      32.580  20.615  24.596  1.00  0.00     0.040 A 
ATOM     70  C   UNL A   1      32.571  20.876  23.230  1.00  0.00     0.014 A 
ATOM     71  C   UNL A   1      32.066  21.535  25.516  1.00  0.00     0.018 A 
ATOM     72  C   UNL A   1      31.958  22.040  22.775  1.00  0.00     0.001 A 
ATOM     73  C   UNL A   1      31.444  22.705  25.067  1.00  0.00    -0.031 A 
ATOM     74  C   UNL A   1      31.364  22.928  23.683  1.00  0.00     0.005 A 
BRANCH  73  75
ATOM     75  C   UNL A   1      30.825  23.630  26.075  1.00  0.00     0.189 C 
BRANCH  75  76
ATOM     76  S   UNL A   1      30.826  25.365  25.599  1.00  0.00     0.216 S 
ATOM     77  O   UNL A   1      29.889  25.551  24.515  1.00  0.00    -0.212 OA
ATOM     78  O   UNL A   1      30.619  26.118  26.822  1.00  0.00    -0.212 OA
BRANCH  76  79
ATOM     79  N   UNL A   1      32.336  25.826  25.116  1.00  0.00    -0.211 NA
ATOM     80  H   UNL A   1      32.287  26.845  25.084  1.00  0.00     0.141 HD
BRANCH  79  81
ATOM     81  C   UNL A   1      33.638  25.550  25.715  1.00  0.00     0.134 C 
BRANCH  81  82
ATOM     82  C   UNL A   1      34.709  24.792  24.969  1.00  0.00    -0.033 A 
ATOM     83  C   UNL A   1      34.534  24.269  23.685  1.00  0.00     0.005 A 
ATOM     84  C   UNL A   1      35.881  24.425  25.655  1.00  0.00     0.005 A 
ATOM     85  C   UNL A   1      35.481  23.430  23.092  1.00  0.00     0.000 A 
ATOM     86  C   UNL A   1      36.833  23.582  25.070  1.00  0.00     0.000 A 
ATOM     87  C   UNL A   1      36.630  23.084  23.788  1.00  0.00     0.000 A 
ENDBRANCH  81  82
ENDBRANCH  79  81
ENDBRANCH  76  79
ENDBRANCH  75  76
ENDBRANCH  73  75
ENDBRANCH  66  69
ENDBRANCH   1  65
TORSDOF 16
ENDMDL
MODEL 2
REMARK VINA RESULT:     -11.5      5.045     10.073
REMARK SMILES O=C(NCCCCNC(=O)c1cccc(CS(=O)(=O)NCc2ccccc2)c1)c1ccc(-c2c3nc(c(-c4c(F)cccc4F)c4ccc([nH]4)c(-c4c(F)cccc4F)c4nc(c(-c5c(F)cccc5F)c5ccc2[nH]5)C=C4)C=C3)cc1
REMARK SMILES IDX 7 1 6 2 5 3 4 4 3 5 1 6 2 7 29 9 30 10 82 11 31 12 81 13
REMARK SMILES IDX 32 14 33 15 34 16 75 17 35 18 80 19 74 20 76 21 36 22 79 23
REMARK SMILES IDX 73 24 72 25 37 27 63 28 46 29 62 30 47 31 50 32 61 33 77 34
REMARK SMILES IDX 48 35 49 36 60 38 78 39 51 40 38 41 39 42 44 43 40 44 41 45
REMARK SMILES IDX 43 46 45 47 42 48 64 49 65 50 70 51 66 52 67 53 69 54 71 55
REMARK SMILES IDX 68 56 52 57 53 58 58 59 54 60 55 61 57 62 59 63 56 64 8 65
REMARK SMILES IDX 9 66 10 68 11 69 12 70 28 71 13 72 15 73 14 74 16 75 17 76
REMARK SMILES IDX 18 77 19 78 20 79 21 81 22 82 23 83 27 84 24 85 26 86 25 87
REMARK H PARENT 3 8 76 26 50 37 8 67 20 80
REMARK Flexibility Score: inf
ROOT
ATOM      1  C   UNL A   1      30.526  30.494  24.539  1.00  0.00     0.116 C 
ENDROOT
BRANCH   1   2
ATOM      2  C   UNL A   1      30.409  31.789  25.328  1.00  0.00     0.023 C 
BRANCH   2   3
ATOM      3  C   UNL A   1      31.112  31.778  26.678  1.00  0.00     0.023 C 
BRANCH   3   4
ATOM      4  C   UNL A   1      32.412  32.568  26.733  1.00  0.00     0.116 C 
BRANCH   4   5
ATOM      5  N   UNL A   1      32.300  33.822  27.468  1.00  0.00    -0.352 N 
ATOM      6  O   UNL A   1      32.820  35.359  29.041  1.00  0.00    -0.269 OA
ATOM      7  C   UNL A   1      33.121  34.331  28.447  1.00  0.00     0.251 C 
ATOM      8  H   UNL A   1      31.526  34.383  27.232  1.00  0.00     0.163 HD
BRANCH   7   9
ATOM      9  C   UNL A   1      34.352  33.597  28.808  1.00  0.00     0.039 A 
ATOM     10  C   UNL A   1      34.277  32.289  29.287  1.00  0.00     0.014 A 
ATOM     11  C   UNL A   1      35.584  34.251  28.731  1.00  0.00     0.014 A 
ATOM     12  C   UNL A   1      35.396  31.711  29.872  1.00  0.00     0.010 A 
ATOM     13  C   UNL A   1      36.730  33.626  29.228  1.00  0.00     0.010 A 
ATOM     14  C   UNL A   1      36.636  32.374  29.854  1.00  0.00    -0.014 A 
BRANCH  14  15
ATOM     15  C   UNL A   1      37.808  31.723  30.493  1.00  0.00     0.031 A 
ATOM     16  C   UNL A   1      38.152  31.979  31.936  1.00  0.00     0.074 A 
ATOM     17  C   UNL A   1      38.528  30.841  29.775  1.00  0.00     0.049 A 
ATOM     18  N   UNL A   1      39.103  31.443  32.661  1.00  0.00    -0.248 NA
ATOM     19  C   UNL A   1      37.336  32.967  32.658  1.00  0.00     0.031 C 
ATOM     20  C   UNL A   1      38.298  30.518  28.364  1.00  0.00     0.029 A 
ATOM     21  N   UNL A   1      39.574  30.032  30.134  1.00  0.00    -0.354 N 
ATOM     22  C   UNL A   1      39.019  32.048  33.910  1.00  0.00     0.074 A 
ATOM     23  C   UNL A   1      37.936  33.006  33.840  1.00  0.00     0.031 C 
ATOM     24  C   UNL A   1      39.128  29.531  27.999  1.00  0.00     0.029 A 
ATOM     25  C   UNL A   1      39.988  29.194  29.128  1.00  0.00     0.049 A 
ATOM     26  H   UNL A   1      39.987  30.049  31.028  1.00  0.00     0.167 HD
ATOM     27  C   UNL A   1      39.773  31.823  35.012  1.00  0.00     0.037 A 
ATOM     28  C   UNL A   1      40.953  28.258  29.113  1.00  0.00     0.037 A 
ATOM     29  C   UNL A   1      40.826  30.843  35.092  1.00  0.00     0.049 A 
ATOM     30  C   UNL A   1      41.760  28.017  30.353  1.00  0.00     0.074 A 
ATOM     31  C   UNL A   1      41.616  30.512  36.180  1.00  0.00     0.029 A 
ATOM     32  N   UNL A   1      41.233  30.034  34.043  1.00  0.00    -0.354 N 
ATOM     33  N   UNL A   1      41.650  28.582  31.531  1.00  0.00    -0.248 NA
ATOM     34  C   UNL A   1      42.828  27.014  30.260  1.00  0.00     0.031 C 
ATOM     35  C   UNL A   1      42.524  29.524  35.779  1.00  0.00     0.029 A 
ATOM     36  C   UNL A   1      42.273  29.215  34.452  1.00  0.00     0.049 A 
ATOM     37  H   UNL A   1      40.841  30.040  33.140  1.00  0.00     0.167 HD
ATOM     38  C   UNL A   1      42.624  27.993  32.324  1.00  0.00     0.074 A 
ATOM     39  C   UNL A   1      43.301  27.014  31.498  1.00  0.00     0.031 C 
ATOM     40  C   UNL A   1      42.933  28.245  33.618  1.00  0.00     0.037 A 
BRANCH  27  41
ATOM     41  C   UNL A   1      39.500  32.663  36.225  1.00  0.00     0.057 A 
ATOM     42  C   UNL A   1      40.190  33.856  36.476  1.00  0.00     0.134 A 
ATOM     43  C   UNL A   1      38.497  32.295  37.133  1.00  0.00     0.134 A 
ATOM     44  F   UNL A   1      41.170  34.259  35.652  1.00  0.00    -0.206 F 
ATOM     45  C   UNL A   1      39.906  34.642  37.594  1.00  0.00     0.040 A 
ATOM     46  C   UNL A   1      38.191  33.084  38.243  1.00  0.00     0.040 A 
ATOM     47  F   UNL A   1      37.794  31.167  36.949  1.00  0.00    -0.206 F 
ATOM     48  C   UNL A   1      38.899  34.260  38.478  1.00  0.00     0.006 A 
ENDBRANCH  27  41
BRANCH  28  49
ATOM     49  C   UNL A   1      41.191  27.469  27.880  1.00  0.00     0.057 A 
ATOM     50  C   UNL A   1      40.488  26.286  27.634  1.00  0.00     0.134 A 
ATOM     51  C   UNL A   1      42.111  27.889  26.913  1.00  0.00     0.134 A 
ATOM     52  F   UNL A   1      39.604  25.826  28.533  1.00  0.00    -0.206 F 
ATOM     53  C   UNL A   1      40.698  25.540  26.474  1.00  0.00     0.040 A 
ATOM     54  C   UNL A   1      42.314  27.168  25.737  1.00  0.00     0.040 A 
ATOM     55  F   UNL A   1      42.809  29.021  27.088  1.00  0.00    -0.206 F 
ATOM     56  C   UNL A   1      41.609  25.986  25.518  1.00  0.00     0.006 A 
ENDBRANCH  28  49
BRANCH  40  57
ATOM     57  C   UNL A   1      44.035  27.427  34.222  1.00  0.00     0.057 A 
ATOM     58  C   UNL A   1      43.787  26.181  34.812  1.00  0.00     0.134 A 
ATOM     59  C   UNL A   1      45.357  27.887  34.204  1.00  0.00     0.134 A 
ATOM     60  F   UNL A   1      42.539  25.694  34.875  1.00  0.00    -0.206 F 
ATOM     61  C   UNL A   1      44.816  25.431  35.384  1.00  0.00     0.040 A 
ATOM     62  C   UNL A   1      46.396  27.136  34.754  1.00  0.00     0.040 A 
ATOM     63  F   UNL A   1      45.659  29.071  33.650  1.00  0.00    -0.206 F 
ATOM     64  C   UNL A   1      46.126  25.908  35.352  1.00  0.00     0.006 A 
ENDBRANCH  40  57
ENDBRANCH  14  15
ENDBRANCH   7   9
ENDBRANCH   4   5
ENDBRANCH   3   4
ENDBRANCH   2   3
ENDBRANCH   1   2
BRANCH   1  65
ATOM     65  N   UNL A   1      29.907  30.569  23.223  1.00  0.00    -0.352 N 
ATOM     66  C   UNL A   1      29.630  29.526  22.364  1.00  0.00     0.251 C 
ATOM     67  H   UNL A   1      29.658  31.468  22.910  1.00  0.00     0.163 HD
ATOM     68  O   UNL A   1      29.168  29.705  21.254  1.00  0.00    -0.269 OA
BRANCH  66  69
ATOM     69  C   UNL A   1      29.930  28.167  22.850  1.00  0.00     0.040 A 
ATOM     70  C   UNL A   1      29.007  27.514  23.661  1.00  0.00     0.014 A 
ATOM     71  C   UNL A   1      31.062  27.507  22.360  1.00  0.00     0.018 A 
ATOM     72  C   UNL A   1      29.179  26.155  23.911  1.00  0.00     0.001 A 
ATOM     73  C   UNL A   1      31.239  26.141  22.603  1.00  0.00    -0.031 A 
ATOM     74  C   UNL A   1      30.265  25.466  23.355  1.00  0.00     0.005 A 
BRANCH  73  75
ATOM     75  C   UNL A   1      32.420  25.443  21.991  1.00  0.00     0.189 C 
BRANCH  75  76
ATOM     76  S   UNL A   1      33.088  24.096  22.979  1.00  0.00     0.216 S 
ATOM     77  O   UNL A   1      32.114  23.030  23.034  1.00  0.00    -0.212 OA
ATOM     78  O   UNL A   1      34.397  23.802  22.425  1.00  0.00    -0.212 OA
BRANCH  76  79
ATOM     79  N   UNL A   1      33.428  24.619  24.508  1.00  0.00    -0.211 NA
ATOM     80  H   UNL A   1      33.980  23.864  24.913  1.00  0.00     0.141 HD
BRANCH  79  81
ATOM     81  C   UNL A   1      34.103  25.834  24.955  1.00  0.00     0.134 C 
BRANCH  81  82
ATOM     82  C   UNL A   1      33.389  26.879  25.778  1.00  0.00    -0.033 A 
ATOM     83  C   UNL A   1      34.026  27.990  26.338  1.00  0.00     0.005 A 
ATOM     84  C   UNL A   1      32.057  26.643  26.164  1.00  0.00     0.005 A 
ATOM     85  C   UNL A   1      33.375  28.843  27.232  1.00  0.00     0.000 A 
ATOM     86  C   UNL A   1      31.399  27.492  27.060  1.00  0.00     0.000 A 
ATOM     87  C   UNL A   1      32.060  28.592  27.596  1.00  0.00     0.000 A 
ENDBRANCH  81  82
ENDBRANCH  79  81
ENDBRANCH  76  79
ENDBRANCH  75  76
ENDBRANCH  73  75
ENDBRANCH  66  69
ENDBRANCH   1  65
TORSDOF 16
ENDMDL
MODEL 3
REMARK VINA RESULT:     -11.5      2.595      7.390
REMARK SMILES O=C(NCCCCNC(=O)c1cccc(CS(=O)(=O)NCc2ccccc2)c1)c1ccc(-c2c3nc(c(-c4c(F)cccc4F)c4ccc([nH]4)c(-c4c(F)cccc4F)c4nc(c(-c5c(F)cccc5F)c5ccc2[nH]5)C=C4)C=C3)cc1
REMARK SMILES IDX 7 1 6 2 5 3 4 4 3 5 1 6 2 7 29 9 30 10 82 11 31 12 81 13
REMARK SMILES IDX 32 14 33 15 34 16 75 17 35 18 80 19 74 20 76 21 36 22 79 23
REMARK SMILES IDX 73 24 72 25 37 27 63 28 46 29 62 30 47 31 50 32 61 33 77 34
REMARK SMILES IDX 48 35 49 36 60 38 78 39 51 40 38 41 39 42 44 43 40 44 41 45
REMARK SMILES IDX 43 46 45 47 42 48 64 49 65 50 70 51 66 52 67 53 69 54 71 55
REMARK SMILES IDX 68 56 52 57 53 58 58 59 54 60 55 61 57 62 59 63 56 64 8 65
REMARK SMILES IDX 9 66 10 68 11 69 12 70 28 71 13 72 15 73 14 74 16 75 17 76
REMARK SMILES IDX 18 77 19 78 20 79 21 81 22 82 23 83 27 84 24 85 26 86 25 87
REMARK H PARENT 3 8 76 26 50 37 8 67 20 80
REMARK Flexibility Score: inf
ROOT
ATOM      1  C   UNL A   1      31.461  29.368  25.382  1.00  0.00     0.116 C 
ENDROOT
BRANCH   1   2
ATOM      2  C   UNL A   1      32.900  29.701  25.021  1.00  0.00     0.023 C 
BRANCH   2   3
ATOM      3  C   UNL A   1      33.948  28.875  25.752  1.00  0.00     0.023 C 
BRANCH   3   4
ATOM      4  C   UNL A   1      33.783  28.817  27.264  1.00  0.00     0.116 C 
BRANCH   4   5
ATOM      5  N   UNL A   1      33.848  30.123  27.906  1.00  0.00    -0.352 N 
ATOM      6  O   UNL A   1      34.756  31.791  29.132  1.00  0.00    -0.269 OA
ATOM      7  C   UNL A   1      34.905  30.723  28.550  1.00  0.00     0.251 C 
ATOM      8  H   UNL A   1      33.017  30.651  27.876  1.00  0.00     0.163 HD
BRANCH   7   9
ATOM      9  C   UNL A   1      36.216  30.041  28.572  1.00  0.00     0.039 A 
ATOM     10  C   UNL A   1      36.634  29.356  29.713  1.00  0.00     0.014 A 
ATOM     11  C   UNL A   1      37.060  30.149  27.464  1.00  0.00     0.014 A 
ATOM     12  C   UNL A   1      37.959  28.955  29.821  1.00  0.00     0.010 A 
ATOM     13  C   UNL A   1      38.364  29.653  27.539  1.00  0.00     0.010 A 
ATOM     14  C   UNL A   1      38.842  29.103  28.738  1.00  0.00    -0.014 A 
BRANCH  14  15
ATOM     15  C   UNL A   1      40.253  28.664  28.895  1.00  0.00     0.031 A 
ATOM     16  C   UNL A   1      40.701  27.302  28.438  1.00  0.00     0.074 A 
ATOM     17  C   UNL A   1      41.148  29.535  29.397  1.00  0.00     0.049 A 
ATOM     18  N   UNL A   1      41.907  26.788  28.445  1.00  0.00    -0.248 NA
ATOM     19  C   UNL A   1      39.669  26.393  27.915  1.00  0.00     0.031 C 
ATOM     20  C   UNL A   1      40.831  30.880  29.884  1.00  0.00     0.029 A 
ATOM     21  N   UNL A   1      42.506  29.437  29.552  1.00  0.00    -0.354 N 
ATOM     22  C   UNL A   1      41.774  25.492  27.959  1.00  0.00     0.074 A 
ATOM     23  C   UNL A   1      40.368  25.290  27.683  1.00  0.00     0.031 C 
ATOM     24  C   UNL A   1      41.969  31.506  30.217  1.00  0.00     0.029 A 
ATOM     25  C   UNL A   1      43.087  30.588  30.024  1.00  0.00     0.049 A 
ATOM     26  H   UNL A   1      43.016  28.621  29.343  1.00  0.00     0.167 HD
ATOM     27  C   UNL A   1      42.736  24.560  27.759  1.00  0.00     0.037 A 
ATOM     28  C   UNL A   1      44.376  30.877  30.276  1.00  0.00     0.037 A 
ATOM     29  C   UNL A   1      44.141  24.776  27.999  1.00  0.00     0.049 A 
ATOM     30  C   UNL A   1      45.422  29.832  30.028  1.00  0.00     0.074 A 
ATOM     31  C   UNL A   1      45.196  23.907  27.784  1.00  0.00     0.029 A 
ATOM     32  N   UNL A   1      44.686  25.947  28.503  1.00  0.00    -0.354 N 
ATOM     33  N   UNL A   1      45.281  28.621  29.546  1.00  0.00    -0.248 NA
ATOM     34  C   UNL A   1      46.805  30.191  30.365  1.00  0.00     0.031 C 
ATOM     35  C   UNL A   1      46.377  24.540  28.189  1.00  0.00     0.029 A 
ATOM     36  C   UNL A   1      46.059  25.817  28.621  1.00  0.00     0.049 A 
ATOM     37  H   UNL A   1      44.172  26.752  28.742  1.00  0.00     0.167 HD
ATOM     38  C   UNL A   1      46.556  28.079  29.507  1.00  0.00     0.074 A 
ATOM     39  C   UNL A   1      47.461  29.100  29.996  1.00  0.00     0.031 C 
ATOM     40  C   UNL A   1      46.944  26.844  29.107  1.00  0.00     0.037 A 
BRANCH  27  41
ATOM     41  C   UNL A   1      42.305  23.210  27.269  1.00  0.00     0.057 A 
ATOM     42  C   UNL A   1      42.313  22.874  25.909  1.00  0.00     0.134 A 
ATOM     43  C   UNL A   1      41.919  22.215  28.177  1.00  0.00     0.134 A 
ATOM     44  F   UNL A   1      42.661  23.786  24.987  1.00  0.00    -0.206 F 
ATOM     45  C   UNL A   1      41.937  21.604  25.468  1.00  0.00     0.040 A 
ATOM     46  C   UNL A   1      41.560  20.935  27.750  1.00  0.00     0.040 A 
ATOM     47  F   UNL A   1      41.894  22.467  29.494  1.00  0.00    -0.206 F 
ATOM     48  C   UNL A   1      41.565  20.628  26.391  1.00  0.00     0.006 A 
ENDBRANCH  27  41
BRANCH  28  49
ATOM     49  C   UNL A   1      44.743  32.223  30.776  1.00  0.00     0.057 A 
ATOM     50  C   UNL A   1      45.059  33.259  29.892  1.00  0.00     0.134 A 
ATOM     51  C   UNL A   1      44.767  32.510  32.146  1.00  0.00     0.134 A 
ATOM     52  F   UNL A   1      45.066  33.039  28.568  1.00  0.00    -0.206 F 
ATOM     53  C   UNL A   1      45.397  34.532  30.351  1.00  0.00     0.040 A 
ATOM     54  C   UNL A   1      45.080  33.784  32.619  1.00  0.00     0.040 A 
ATOM     55  F   UNL A   1      44.464  31.559  33.042  1.00  0.00    -0.206 F 
ATOM     56  C   UNL A   1      45.401  34.798  31.719  1.00  0.00     0.006 A 
ENDBRANCH  28  49
BRANCH  40  57
ATOM     57  C   UNL A   1      48.412  26.546  29.159  1.00  0.00     0.057 A 
ATOM     58  C   UNL A   1      49.265  26.864  28.095  1.00  0.00     0.134 A 
ATOM     59  C   UNL A   1      48.977  25.944  30.289  1.00  0.00     0.134 A 
ATOM     60  F   UNL A   1      48.780  27.427  26.979  1.00  0.00    -0.206 F 
ATOM     61  C   UNL A   1      50.629  26.571  28.144  1.00  0.00     0.040 A 
ATOM     62  C   UNL A   1      50.343  25.666  30.358  1.00  0.00     0.040 A 
ATOM     63  F   UNL A   1      48.213  25.618  31.342  1.00  0.00    -0.206 F 
ATOM     64  C   UNL A   1      51.171  25.973  29.281  1.00  0.00     0.006 A 
ENDBRANCH  40  57
ENDBRANCH  14  15
ENDBRANCH   7   9
ENDBRANCH   4   5
ENDBRANCH   3   4
ENDBRANCH   2   3
ENDBRANCH   1   2
BRANCH   1  65
ATOM     65  N   UNL A   1      30.600  29.215  24.217  1.00  0.00    -0.352 N 
ATOM     66  C   UNL A   1      30.588  28.176  23.311  1.00  0.00     0.251 C 
ATOM     67  H   UNL A   1      29.951  29.938  24.059  1.00  0.00     0.163 HD
ATOM     68  O   UNL A   1      29.869  28.177  22.331  1.00  0.00    -0.269 OA
BRANCH  66  69
ATOM     69  C   UNL A   1      31.502  27.051  23.578  1.00  0.00     0.040 A 
ATOM     70  C   UNL A   1      32.585  26.836  22.731  1.00  0.00     0.014 A 
ATOM     71  C   UNL A   1      31.350  26.321  24.762  1.00  0.00     0.018 A 
ATOM     72  C   UNL A   1      33.573  25.937  23.123  1.00  0.00     0.001 A 
ATOM     73  C   UNL A   1      32.341  25.419  25.165  1.00  0.00    -0.031 A 
ATOM     74  C   UNL A   1      33.471  25.263  24.348  1.00  0.00     0.005 A 
BRANCH  73  75
ATOM     75  C   UNL A   1      32.188  24.716  26.484  1.00  0.00     0.189 C 
BRANCH  75  76
ATOM     76  S   UNL A   1      31.328  23.138  26.395  1.00  0.00     0.216 S 
ATOM     77  O   UNL A   1      30.193  23.176  27.288  1.00  0.00    -0.212 OA
ATOM     78  O   UNL A   1      31.087  22.890  24.986  1.00  0.00    -0.212 OA
BRANCH  76  79
ATOM     79  N   UNL A   1      32.340  21.908  26.833  1.00  0.00    -0.211 NA
ATOM     80  H   UNL A   1      32.313  21.269  26.038  1.00  0.00     0.141 HD
BRANCH  79  81
ATOM     81  C   UNL A   1      33.748  21.943  27.215  1.00  0.00     0.134 C 
BRANCH  81  82
ATOM     82  C   UNL A   1      34.829  22.307  26.225  1.00  0.00    -0.033 A 
ATOM     83  C   UNL A   1      35.821  23.258  26.479  1.00  0.00     0.005 A 
ATOM     84  C   UNL A   1      34.739  21.810  24.912  1.00  0.00     0.005 A 
ATOM     85  C   UNL A   1      36.700  23.693  25.484  1.00  0.00     0.000 A 
ATOM     86  C   UNL A   1      35.613  22.243  23.910  1.00  0.00     0.000 A 
ATOM     87  C   UNL A   1      36.594  23.187  24.197  1.00  0.00     0.000 A 
ENDBRANCH  81  82
ENDBRANCH  79  81
ENDBRANCH  76  79
ENDBRANCH  75  76
ENDBRANCH  73  75
ENDBRANCH  66  69
ENDBRANCH   1  65
TORSDOF 16
ENDMDL
