MODEL 1
REMARK VINA RESULT:     -11.4      0.000      0.000
REMARK SMILES C[C@@H](C(=O)NCCCCNC(=O)c1ccc(-c2c3nc(c(-c4c(F)cccc4F)c4ccc([nH]4)c(-c4c(F)cccc4F)c4nc(c(-c5c(F)cccc5F)c5ccc2[nH]5)C=C4)C=C3)cc1)c1ccc(-c2cccc(OC(=O)NCCCc3ccccc3)c2)c(F)c1
REMARK SMILES IDX 1 1 2 2 3 3 4 4 5 5 6 7 7 8 8 9 9 10 10 11 11 12 12 14 13 15
REMARK SMILES IDX 14 16 66 17 15 18 65 19 16 20 17 21 18 22 59 23 19 24 64 25
REMARK SMILES IDX 58 26 60 27 20 28 63 29 57 30 56 31 21 33 47 34 30 35 46 36
REMARK SMILES IDX 31 37 34 38 45 39 61 40 32 41 33 42 44 44 62 45 35 46 22 47
REMARK SMILES IDX 23 48 28 49 24 50 25 51 27 52 29 53 26 54 48 55 49 56 54 57
REMARK SMILES IDX 50 58 51 59 53 60 55 61 52 62 36 63 37 64 42 65 38 66 39 67
REMARK SMILES IDX 41 68 43 69 40 70 67 71 68 72 92 73 69 74 90 75 70 76 91 77
REMARK SMILES IDX 71 78 72 79 89 80 73 81 75 82 74 83 76 84 77 85 78 86 79 87
REMARK SMILES IDX 80 89 81 90 82 91 83 92 84 93 88 94 85 95 87 96 86 97
REMARK H PARENT 5 6 10 13 60 32 34 43 79 88
REMARK Flexibility Score: inf
ROOT
ATOM      1  C   UNL A   1      38.002  21.438  24.922  1.00  0.00     0.023 C 
ATOM      2  C   UNL A   1      37.662  22.269  26.167  1.00  0.00     0.105 C 
ENDROOT
BRANCH   2   3
ATOM      3  C   UNL A   1      38.830  23.223  26.499  1.00  0.00     0.227 C 
ATOM      4  O   UNL A   1      38.795  24.437  26.292  1.00  0.00    -0.274 OA
ATOM      5  N   UNL A   1      39.962  22.739  27.091  1.00  0.00    -0.356 N 
ATOM      6  H   UNL A   1      40.567  23.421  27.461  1.00  0.00     0.163 HD
BRANCH   5   7
ATOM      7  C   UNL A   1      40.404  21.370  27.252  1.00  0.00     0.116 C 
BRANCH   7   8
ATOM      8  C   UNL A   1      41.556  21.060  26.293  1.00  0.00     0.023 C 
BRANCH   8   9
ATOM      9  C   UNL A   1      41.699  19.582  25.922  1.00  0.00     0.023 C 
BRANCH   9  10
ATOM     10  C   UNL A   1      43.093  19.002  26.109  1.00  0.00     0.116 C 
BRANCH  10  11
ATOM     11  N   UNL A   1      43.777  18.765  24.849  1.00  0.00    -0.352 N 
ATOM     12  C   UNL A   1      44.522  19.626  24.086  1.00  0.00     0.251 C 
ATOM     13  H   UNL A   1      43.693  17.852  24.492  1.00  0.00     0.163 HD
ATOM     14  O   UNL A   1      44.912  19.273  22.976  1.00  0.00    -0.269 OA
BRANCH  12  15
ATOM     15  C   UNL A   1      44.827  20.985  24.579  1.00  0.00     0.039 A 
ATOM     16  C   UNL A   1      44.442  22.075  23.794  1.00  0.00     0.014 A 
ATOM     17  C   UNL A   1      45.491  21.194  25.791  1.00  0.00     0.014 A 
ATOM     18  C   UNL A   1      44.676  23.372  24.251  1.00  0.00     0.010 A 
ATOM     19  C   UNL A   1      45.653  22.488  26.282  1.00  0.00     0.010 A 
ATOM     20  C   UNL A   1      45.254  23.589  25.513  1.00  0.00    -0.014 A 
BRANCH  20  21
ATOM     21  C   UNL A   1      45.428  24.970  26.027  1.00  0.00     0.031 A 
ATOM     22  C   UNL A   1      46.776  25.636  26.001  1.00  0.00     0.074 A 
ATOM     23  C   UNL A   1      44.363  25.619  26.536  1.00  0.00     0.049 A 
ATOM     24  N   UNL A   1      47.101  26.850  26.365  1.00  0.00    -0.248 NA
ATOM     25  C   UNL A   1      47.910  24.828  25.524  1.00  0.00     0.031 C 
ATOM     26  C   UNL A   1      43.020  25.054  26.683  1.00  0.00     0.029 A 
ATOM     27  N   UNL A   1      44.241  26.898  27.018  1.00  0.00    -0.354 N 
ATOM     28  C   UNL A   1      48.471  26.954  26.158  1.00  0.00     0.074 A 
ATOM     29  C   UNL A   1      48.927  25.659  25.699  1.00  0.00     0.031 C 
ATOM     30  C   UNL A   1      42.202  25.992  27.186  1.00  0.00     0.029 A 
ATOM     31  C   UNL A   1      42.966  27.213  27.419  1.00  0.00     0.049 A 
ATOM     32  H   UNL A   1      44.994  27.528  27.070  1.00  0.00     0.167 HD
ATOM     33  C   UNL A   1      49.271  28.037  26.303  1.00  0.00     0.037 A 
ATOM     34  C   UNL A   1      42.466  28.361  27.912  1.00  0.00     0.037 A 
ATOM     35  C   UNL A   1      48.814  29.326  26.753  1.00  0.00     0.049 A 
ATOM     36  C   UNL A   1      43.371  29.554  28.047  1.00  0.00     0.074 A 
ATOM     37  C   UNL A   1      49.539  30.496  26.900  1.00  0.00     0.029 A 
ATOM     38  N   UNL A   1      47.511  29.613  27.131  1.00  0.00    -0.354 N 
ATOM     39  N   UNL A   1      44.649  29.657  27.774  1.00  0.00    -0.248 NA
ATOM     40  C   UNL A   1      42.760  30.794  28.545  1.00  0.00     0.031 C 
ATOM     41  C   UNL A   1      48.682  31.482  27.401  1.00  0.00     0.029 A 
ATOM     42  C   UNL A   1      47.413  30.939  27.523  1.00  0.00     0.049 A 
ATOM     43  H   UNL A   1      46.766  28.970  27.122  1.00  0.00     0.167 HD
ATOM     44  C   UNL A   1      44.990  30.976  28.048  1.00  0.00     0.074 A 
ATOM     45  C   UNL A   1      43.777  31.639  28.480  1.00  0.00     0.031 C 
ATOM     46  C   UNL A   1      46.199  31.582  27.957  1.00  0.00     0.037 A 
BRANCH  33  47
ATOM     47  C   UNL A   1      50.722  27.875  25.951  1.00  0.00     0.057 A 
ATOM     48  C   UNL A   1      51.174  27.991  24.630  1.00  0.00     0.134 A 
ATOM     49  C   UNL A   1      51.683  27.641  26.943  1.00  0.00     0.134 A 
ATOM     50  F   UNL A   1      50.304  28.203  23.630  1.00  0.00    -0.206 F 
ATOM     51  C   UNL A   1      52.525  27.857  24.304  1.00  0.00     0.040 A 
ATOM     52  C   UNL A   1      53.039  27.532  26.633  1.00  0.00     0.040 A 
ATOM     53  F   UNL A   1      51.320  27.524  28.230  1.00  0.00    -0.206 F 
ATOM     54  C   UNL A   1      53.463  27.634  25.309  1.00  0.00     0.006 A 
ENDBRANCH  33  47
BRANCH  34  55
ATOM     55  C   UNL A   1      41.032  28.449  28.286  1.00  0.00     0.057 A 
ATOM     56  C   UNL A   1      40.585  28.054  29.551  1.00  0.00     0.134 A 
ATOM     57  C   UNL A   1      40.072  28.922  27.382  1.00  0.00     0.134 A 
ATOM     58  F   UNL A   1      41.455  27.578  30.456  1.00  0.00    -0.206 F 
ATOM     59  C   UNL A   1      39.235  28.099  29.898  1.00  0.00     0.040 A 
ATOM     60  C   UNL A   1      38.722  28.998  27.723  1.00  0.00     0.040 A 
ATOM     61  F   UNL A   1      40.438  29.326  26.157  1.00  0.00    -0.206 F 
ATOM     62  C   UNL A   1      38.298  28.577  28.982  1.00  0.00     0.006 A 
ENDBRANCH  34  55
BRANCH  46  63
ATOM     63  C   UNL A   1      46.256  33.037  28.319  1.00  0.00     0.057 A 
ATOM     64  C   UNL A   1      46.530  33.463  29.625  1.00  0.00     0.134 A 
ATOM     65  C   UNL A   1      46.037  34.024  27.349  1.00  0.00     0.134 A 
ATOM     66  F   UNL A   1      46.738  32.569  30.603  1.00  0.00    -0.206 F 
ATOM     67  C   UNL A   1      46.547  34.818  29.962  1.00  0.00     0.040 A 
ATOM     68  C   UNL A   1      46.080  35.381  27.668  1.00  0.00     0.040 A 
ATOM     69  F   UNL A   1      45.779  33.684  26.077  1.00  0.00    -0.206 F 
ATOM     70  C   UNL A   1      46.325  35.782  28.980  1.00  0.00     0.006 A 
ENDBRANCH  46  63
ENDBRANCH  20  21
ENDBRANCH  12  15
ENDBRANCH  10  11
ENDBRANCH   9  10
ENDBRANCH   8   9
ENDBRANCH   7   8
ENDBRANCH   5   7
ENDBRANCH   2   3
BRANCH   2  71
ATOM     71  C   UNL A   1      36.322  23.002  26.041  1.00  0.00    -0.033 A 
ATOM     72  C   UNL A   1      36.123  24.060  25.139  1.00  0.00     0.005 A 
ATOM     73  C   UNL A   1      35.234  22.622  26.845  1.00  0.00     0.044 A 
ATOM     74  C   UNL A   1      34.912  24.752  25.087  1.00  0.00     0.012 A 
ATOM     75  C   UNL A   1      34.031  23.329  26.800  1.00  0.00     0.131 A 
ATOM     76  C   UNL A   1      33.853  24.418  25.939  1.00  0.00     0.018 A 
ATOM     77  F   UNL A   1      33.045  22.956  27.632  1.00  0.00    -0.206 F 
BRANCH  76  78
ATOM     78  C   UNL A   1      32.663  25.274  25.982  1.00  0.00    -0.012 A 
ATOM     79  C   UNL A   1      31.394  24.758  26.293  1.00  0.00     0.009 A 
ATOM     80  C   UNL A   1      32.768  26.620  25.601  1.00  0.00     0.056 A 
ATOM     81  C   UNL A   1      30.256  25.562  26.210  1.00  0.00     0.004 A 
ATOM     82  C   UNL A   1      31.629  27.410  25.496  1.00  0.00     0.133 A 
ATOM     83  C   UNL A   1      30.372  26.889  25.804  1.00  0.00     0.047 A 
BRANCH  82  84
ATOM     84  O   UNL A   1      31.644  28.767  25.099  1.00  0.00    -0.410 OA
BRANCH  84  85
ATOM     85  C   UNL A   1      31.035  29.285  23.959  1.00  0.00     0.412 C 
ATOM     86  O   UNL A   1      29.907  29.751  23.876  1.00  0.00    -0.224 OA
ATOM     87  N   UNL A   1      31.854  29.257  22.864  1.00  0.00    -0.321 N 
ATOM     88  H   UNL A   1      31.452  29.487  21.995  1.00  0.00     0.167 HD
BRANCH  87  89
ATOM     89  C   UNL A   1      33.258  28.920  22.875  1.00  0.00     0.120 C 
BRANCH  89  90
ATOM     90  C   UNL A   1      33.583  27.544  22.300  1.00  0.00     0.026 C 
BRANCH  90  91
ATOM     91  C   UNL A   1      32.425  26.672  21.797  1.00  0.00     0.037 C 
BRANCH  91  92
ATOM     92  C   UNL A   1      32.282  25.239  22.258  1.00  0.00    -0.048 A 
ATOM     93  C   UNL A   1      33.288  24.271  22.176  1.00  0.00     0.004 A 
ATOM     94  C   UNL A   1      31.027  24.841  22.751  1.00  0.00     0.004 A 
ATOM     95  C   UNL A   1      33.047  22.950  22.566  1.00  0.00     0.000 A 
ATOM     96  C   UNL A   1      30.788  23.525  23.152  1.00  0.00     0.000 A 
ATOM     97  C   UNL A   1      31.800  22.576  23.054  1.00  0.00     0.000 A 
ENDBRANCH  91  92
ENDBRANCH  90  91
ENDBRANCH  89  90
ENDBRANCH  87  89
ENDBRANCH  84  85
ENDBRANCH  82  84
ENDBRANCH  76  78
ENDBRANCH   2  71
TORSDOF 19
ENDMDL
MODEL 2
REMARK VINA RESULT:     -11.3      4.685      8.647
REMARK SMILES C[C@@H](C(=O)NCCCCNC(=O)c1ccc(-c2c3nc(c(-c4c(F)cccc4F)c4ccc([nH]4)c(-c4c(F)cccc4F)c4nc(c(-c5c(F)cccc5F)c5ccc2[nH]5)C=C4)C=C3)cc1)c1ccc(-c2cccc(OC(=O)NCCCc3ccccc3)c2)c(F)c1
REMARK SMILES IDX 1 1 2 2 3 3 4 4 5 5 6 7 7 8 8 9 9 10 10 11 11 12 12 14 13 15
REMARK SMILES IDX 14 16 66 17 15 18 65 19 16 20 17 21 18 22 59 23 19 24 64 25
REMARK SMILES IDX 58 26 60 27 20 28 63 29 57 30 56 31 21 33 47 34 30 35 46 36
REMARK SMILES IDX 31 37 34 38 45 39 61 40 32 41 33 42 44 44 62 45 35 46 22 47
REMARK SMILES IDX 23 48 28 49 24 50 25 51 27 52 29 53 26 54 48 55 49 56 54 57
REMARK SMILES IDX 50 58 51 59 53 60 55 61 52 62 36 63 37 64 42 65 38 66 39 67
REMARK SMILES IDX 41 68 43 69 40 70 67 71 68 72 92 73 69 74 90 75 70 76 91 77
REMARK SMILES IDX 71 78 72 79 89 80 73 81 75 82 74 83 76 84 77 85 78 86 79 87
REMARK SMILES IDX 80 89 81 90 82 91 83 92 84 93 88 94 85 95 87 96 86 97
REMARK H PARENT 5 6 10 13 60 32 34 43 79 88
REMARK Flexibility Score: inf
ROOT
ATOM      1  C   UNL A   1      43.000  22.599  28.748  1.00  0.00     0.023 C 
ATOM      2  C   UNL A   1      42.728  23.483  27.523  1.00  0.00     0.105 C 
ENDROOT
BRANCH   2   3
ATOM      3  C   UNL A   1      42.226  22.616  26.348  1.00  0.00     0.227 C 
ATOM      4  O   UNL A   1      41.416  21.696  26.479  1.00  0.00    -0.274 OA
ATOM      5  N   UNL A   1      42.649  22.877  25.075  1.00  0.00    -0.356 N 
ATOM      6  H   UNL A   1      42.136  22.433  24.363  1.00  0.00     0.163 HD
BRANCH   5   7
ATOM      7  C   UNL A   1      43.741  23.711  24.621  1.00  0.00     0.116 C 
BRANCH   7   8
ATOM      8  C   UNL A   1      44.898  22.850  24.107  1.00  0.00     0.023 C 
BRANCH   8   9
ATOM      9  C   UNL A   1      46.057  22.681  25.093  1.00  0.00     0.023 C 
BRANCH   9  10
ATOM     10  C   UNL A   1      46.523  23.965  25.764  1.00  0.00     0.116 C 
BRANCH  10  11
ATOM     11  N   UNL A   1      47.019  24.947  24.815  1.00  0.00    -0.352 N 
ATOM     12  C   UNL A   1      46.883  26.311  24.822  1.00  0.00     0.251 C 
ATOM     13  H   UNL A   1      47.527  24.579  24.057  1.00  0.00     0.163 HD
ATOM     14  O   UNL A   1      47.261  26.965  23.854  1.00  0.00    -0.269 OA
BRANCH  12  15
ATOM     15  C   UNL A   1      46.253  26.992  25.972  1.00  0.00     0.039 A 
ATOM     16  C   UNL A   1      47.081  27.493  26.979  1.00  0.00     0.014 A 
ATOM     17  C   UNL A   1      44.865  27.131  26.072  1.00  0.00     0.014 A 
ATOM     18  C   UNL A   1      46.521  28.178  28.057  1.00  0.00     0.010 A 
ATOM     19  C   UNL A   1      44.314  27.883  27.107  1.00  0.00     0.010 A 
ATOM     20  C   UNL A   1      45.136  28.408  28.113  1.00  0.00    -0.014 A 
BRANCH  20  21
ATOM     21  C   UNL A   1      44.555  29.206  29.221  1.00  0.00     0.031 A 
ATOM     22  C   UNL A   1      44.282  28.578  30.560  1.00  0.00     0.074 A 
ATOM     23  C   UNL A   1      44.257  30.502  29.008  1.00  0.00     0.049 A 
ATOM     24  N   UNL A   1      43.821  29.135  31.651  1.00  0.00    -0.248 NA
ATOM     25  C   UNL A   1      44.539  27.134  30.684  1.00  0.00     0.031 C 
ATOM     26  C   UNL A   1      44.407  31.206  27.733  1.00  0.00     0.029 A 
ATOM     27  N   UNL A   1      43.772  31.460  29.862  1.00  0.00    -0.354 N 
ATOM     28  C   UNL A   1      43.739  28.114  32.590  1.00  0.00     0.074 A 
ATOM     29  C   UNL A   1      44.133  26.893  31.922  1.00  0.00     0.031 C 
ATOM     30  C   UNL A   1      44.056  32.491  27.897  1.00  0.00     0.029 A 
ATOM     31  C   UNL A   1      43.633  32.696  29.278  1.00  0.00     0.049 A 
ATOM     32  H   UNL A   1      43.546  31.279  30.802  1.00  0.00     0.167 HD
ATOM     33  C   UNL A   1      43.399  28.193  33.899  1.00  0.00     0.037 A 
ATOM     34  C   UNL A   1      43.219  33.864  29.800  1.00  0.00     0.037 A 
ATOM     35  C   UNL A   1      43.013  29.411  34.563  1.00  0.00     0.049 A 
ATOM     36  C   UNL A   1      42.863  33.929  31.259  1.00  0.00     0.074 A 
ATOM     37  C   UNL A   1      42.684  29.601  35.895  1.00  0.00     0.029 A 
ATOM     38  N   UNL A   1      42.904  30.647  33.945  1.00  0.00    -0.354 N 
ATOM     39  N   UNL A   1      42.864  32.970  32.154  1.00  0.00    -0.248 NA
ATOM     40  C   UNL A   1      42.465  35.241  31.785  1.00  0.00     0.031 C 
ATOM     41  C   UNL A   1      42.340  30.945  36.073  1.00  0.00     0.029 A 
ATOM     42  C   UNL A   1      42.500  31.602  34.864  1.00  0.00     0.049 A 
ATOM     43  H   UNL A   1      43.085  30.819  32.993  1.00  0.00     0.167 HD
ATOM     44  C   UNL A   1      42.485  33.566  33.350  1.00  0.00     0.074 A 
ATOM     45  C   UNL A   1      42.292  34.974  33.071  1.00  0.00     0.031 C 
ATOM     46  C   UNL A   1      42.305  32.999  34.568  1.00  0.00     0.037 A 
BRANCH  33  47
ATOM     47  C   UNL A   1      43.448  26.925  34.702  1.00  0.00     0.057 A 
ATOM     48  C   UNL A   1      44.634  26.484  35.305  1.00  0.00     0.134 A 
ATOM     49  C   UNL A   1      42.296  26.156  34.908  1.00  0.00     0.134 A 
ATOM     50  F   UNL A   1      45.777  27.167  35.137  1.00  0.00    -0.206 F 
ATOM     51  C   UNL A   1      44.677  25.314  36.065  1.00  0.00     0.040 A 
ATOM     52  C   UNL A   1      42.321  24.998  35.688  1.00  0.00     0.040 A 
ATOM     53  F   UNL A   1      41.125  26.522  34.364  1.00  0.00    -0.206 F 
ATOM     54  C   UNL A   1      43.516  24.572  36.264  1.00  0.00     0.006 A 
ENDBRANCH  33  47
BRANCH  34  55
ATOM     55  C   UNL A   1      43.146  35.077  28.947  1.00  0.00     0.057 A 
ATOM     56  C   UNL A   1      44.293  35.811  28.627  1.00  0.00     0.134 A 
ATOM     57  C   UNL A   1      41.924  35.537  28.439  1.00  0.00     0.134 A 
ATOM     58  F   UNL A   1      45.491  35.430  29.096  1.00  0.00    -0.206 F 
ATOM     59  C   UNL A   1      44.228  36.972  27.856  1.00  0.00     0.040 A 
ATOM     60  C   UNL A   1      41.847  36.681  27.645  1.00  0.00     0.040 A 
ATOM     61  F   UNL A   1      40.790  34.871  28.700  1.00  0.00    -0.206 F 
ATOM     62  C   UNL A   1      43.001  37.408  27.359  1.00  0.00     0.006 A 
ENDBRANCH  34  55
BRANCH  46  63
ATOM     63  C   UNL A   1      41.895  33.912  35.686  1.00  0.00     0.057 A 
ATOM     64  C   UNL A   1      40.549  34.151  35.988  1.00  0.00     0.134 A 
ATOM     65  C   UNL A   1      42.859  34.556  36.472  1.00  0.00     0.134 A 
ATOM     66  F   UNL A   1      39.577  33.574  35.265  1.00  0.00    -0.206 F 
ATOM     67  C   UNL A   1      40.174  35.029  37.007  1.00  0.00     0.040 A 
ATOM     68  C   UNL A   1      42.497  35.413  37.512  1.00  0.00     0.040 A 
ATOM     69  F   UNL A   1      44.167  34.363  36.243  1.00  0.00    -0.206 F 
ATOM     70  C   UNL A   1      41.151  35.659  37.775  1.00  0.00     0.006 A 
ENDBRANCH  46  63
ENDBRANCH  20  21
ENDBRANCH  12  15
ENDBRANCH  10  11
ENDBRANCH   9  10
ENDBRANCH   8   9
ENDBRANCH   7   8
ENDBRANCH   5   7
ENDBRANCH   2   3
BRANCH   2  71
ATOM     71  C   UNL A   1      41.786  24.652  27.835  1.00  0.00    -0.033 A 
ATOM     72  C   UNL A   1      42.178  25.748  28.620  1.00  0.00     0.005 A 
ATOM     73  C   UNL A   1      40.475  24.653  27.327  1.00  0.00     0.044 A 
ATOM     74  C   UNL A   1      41.283  26.769  28.940  1.00  0.00     0.012 A 
ATOM     75  C   UNL A   1      39.580  25.669  27.666  1.00  0.00     0.131 A 
ATOM     76  C   UNL A   1      39.957  26.734  28.493  1.00  0.00     0.018 A 
ATOM     77  F   UNL A   1      38.324  25.590  27.197  1.00  0.00    -0.206 F 
BRANCH  76  78
ATOM     78  C   UNL A   1      38.999  27.726  28.991  1.00  0.00    -0.012 A 
ATOM     79  C   UNL A   1      38.548  27.712  30.321  1.00  0.00     0.009 A 
ATOM     80  C   UNL A   1      38.434  28.649  28.098  1.00  0.00     0.056 A 
ATOM     81  C   UNL A   1      37.546  28.587  30.745  1.00  0.00     0.004 A 
ATOM     82  C   UNL A   1      37.420  29.501  28.518  1.00  0.00     0.133 A 
ATOM     83  C   UNL A   1      36.976  29.479  29.840  1.00  0.00     0.047 A 
BRANCH  82  84
ATOM     84  O   UNL A   1      36.784  30.444  27.679  1.00  0.00    -0.410 OA
BRANCH  84  85
ATOM     85  C   UNL A   1      35.461  30.865  27.789  1.00  0.00     0.412 C 
ATOM     86  O   UNL A   1      34.460  30.167  27.708  1.00  0.00    -0.224 OA
ATOM     87  N   UNL A   1      35.351  32.205  28.035  1.00  0.00    -0.321 N 
ATOM     88  H   UNL A   1      34.449  32.598  27.997  1.00  0.00     0.167 HD
BRANCH  87  89
ATOM     89  C   UNL A   1      36.446  33.093  28.345  1.00  0.00     0.120 C 
BRANCH  89  90
ATOM     90  C   UNL A   1      36.712  33.273  29.839  1.00  0.00     0.026 C 
BRANCH  90  91
ATOM     91  C   UNL A   1      38.150  33.547  30.295  1.00  0.00     0.037 C 
BRANCH  91  92
ATOM     92  C   UNL A   1      39.002  32.437  30.868  1.00  0.00    -0.048 A 
ATOM     93  C   UNL A   1      39.961  31.716  30.150  1.00  0.00     0.004 A 
ATOM     94  C   UNL A   1      38.769  32.067  32.205  1.00  0.00     0.004 A 
ATOM     95  C   UNL A   1      40.659  30.659  30.743  1.00  0.00     0.000 A 
ATOM     96  C   UNL A   1      39.472  31.019  32.802  1.00  0.00     0.000 A 
ATOM     97  C   UNL A   1      40.416  30.310  32.067  1.00  0.00     0.000 A 
ENDBRANCH  91  92
ENDBRANCH  90  91
ENDBRANCH  89  90
ENDBRANCH  87  89
ENDBRANCH  84  85
ENDBRANCH  82  84
ENDBRANCH  76  78
ENDBRANCH   2  71
TORSDOF 19
ENDMDL
MODEL 3
REMARK VINA RESULT:     -11.2      2.119      3.089
REMARK SMILES C[C@@H](C(=O)NCCCCNC(=O)c1ccc(-c2c3nc(c(-c4c(F)cccc4F)c4ccc([nH]4)c(-c4c(F)cccc4F)c4nc(c(-c5c(F)cccc5F)c5ccc2[nH]5)C=C4)C=C3)cc1)c1ccc(-c2cccc(OC(=O)NCCCc3ccccc3)c2)c(F)c1
REMARK SMILES IDX 1 1 2 2 3 3 4 4 5 5 6 7 7 8 8 9 9 10 10 11 11 12 12 14 13 15
REMARK SMILES IDX 14 16 66 17 15 18 65 19 16 20 17 21 18 22 59 23 19 24 64 25
REMARK SMILES IDX 58 26 60 27 20 28 63 29 57 30 56 31 21 33 47 34 30 35 46 36
REMARK SMILES IDX 31 37 34 38 45 39 61 40 32 41 33 42 44 44 62 45 35 46 22 47
REMARK SMILES IDX 23 48 28 49 24 50 25 51 27 52 29 53 26 54 48 55 49 56 54 57
REMARK SMILES IDX 50 58 51 59 53 60 55 61 52 62 36 63 37 64 42 65 38 66 39 67
REMARK SMILES IDX 41 68 43 69 40 70 67 71 68 72 92 73 69 74 90 75 70 76 91 77
REMARK SMILES IDX 71 78 72 79 89 80 73 81 75 82 74 83 76 84 77 85 78 86 79 87
REMARK SMILES IDX 80 89 81 90 82 91 83 92 84 93 88 94 85 95 87 96 86 97
REMARK H PARENT 5 6 10 13 60 32 34 43 79 88
REMARK Flexibility Score: inf
ROOT
ATOM      1  C   UNL A   1      33.615  21.065  27.626  1.00  0.00     0.023 C 
ATOM      2  C   UNL A   1      34.257  21.076  26.231  1.00  0.00     0.105 C 
ENDROOT
BRANCH   2   3
ATOM      3  C   UNL A   1      33.589  20.010  25.336  1.00  0.00     0.227 C 
ATOM      4  O   UNL A   1      32.378  19.976  25.108  1.00  0.00    -0.274 OA
ATOM      5  N   UNL A   1      34.352  19.063  24.713  1.00  0.00    -0.356 N 
ATOM      6  H   UNL A   1      33.896  18.557  24.003  1.00  0.00     0.163 HD
BRANCH   5   7
ATOM      7  C   UNL A   1      35.732  18.694  24.945  1.00  0.00     0.116 C 
BRANCH   7   8
ATOM      8  C   UNL A   1      36.621  19.940  24.999  1.00  0.00     0.023 C 
BRANCH   8   9
ATOM      9  C   UNL A   1      38.085  19.698  24.624  1.00  0.00     0.023 C 
BRANCH   9  10
ATOM     10  C   UNL A   1      39.083  19.916  25.751  1.00  0.00     0.116 C 
BRANCH  10  11
ATOM     11  N   UNL A   1      40.157  18.937  25.749  1.00  0.00    -0.352 N 
ATOM     12  C   UNL A   1      41.498  19.115  25.964  1.00  0.00     0.251 C 
ATOM     13  H   UNL A   1      39.879  18.011  25.567  1.00  0.00     0.163 HD
ATOM     14  O   UNL A   1      42.272  18.178  25.787  1.00  0.00    -0.269 OA
BRANCH  12  15
ATOM     15  C   UNL A   1      42.019  20.436  26.372  1.00  0.00     0.039 A 
ATOM     16  C   UNL A   1      42.346  21.356  25.373  1.00  0.00     0.014 A 
ATOM     17  C   UNL A   1      42.196  20.771  27.718  1.00  0.00     0.014 A 
ATOM     18  C   UNL A   1      42.800  22.627  25.725  1.00  0.00     0.010 A 
ATOM     19  C   UNL A   1      42.573  22.065  28.069  1.00  0.00     0.010 A 
ATOM     20  C   UNL A   1      42.885  23.003  27.076  1.00  0.00    -0.014 A 
BRANCH  20  21
ATOM     21  C   UNL A   1      43.293  24.382  27.443  1.00  0.00     0.031 A 
ATOM     22  C   UNL A   1      44.732  24.809  27.354  1.00  0.00     0.074 A 
ATOM     23  C   UNL A   1      42.356  25.249  27.875  1.00  0.00     0.049 A 
ATOM     24  N   UNL A   1      45.259  25.983  27.591  1.00  0.00    -0.248 NA
ATOM     25  C   UNL A   1      45.710  23.778  26.972  1.00  0.00     0.031 C 
ATOM     26  C   UNL A   1      40.940  24.934  28.074  1.00  0.00     0.029 A 
ATOM     27  N   UNL A   1      42.454  26.573  28.219  1.00  0.00    -0.354 N 
ATOM     28  C   UNL A   1      46.624  25.835  27.381  1.00  0.00     0.074 A 
ATOM     29  C   UNL A   1      46.853  24.442  27.064  1.00  0.00     0.031 C 
ATOM     30  C   UNL A   1      40.295  26.042  28.471  1.00  0.00     0.029 A 
ATOM     31  C   UNL A   1      41.253  27.137  28.578  1.00  0.00     0.049 A 
ATOM     32  H   UNL A   1      43.302  27.071  28.210  1.00  0.00     0.167 HD
ATOM     33  C   UNL A   1      47.594  26.779  27.416  1.00  0.00     0.037 A 
ATOM     34  C   UNL A   1      40.957  28.396  28.945  1.00  0.00     0.037 A 
ATOM     35  C   UNL A   1      47.362  28.166  27.726  1.00  0.00     0.049 A 
ATOM     36  C   UNL A   1      42.049  29.430  28.960  1.00  0.00     0.074 A 
ATOM     37  C   UNL A   1      48.273  29.209  27.754  1.00  0.00     0.029 A 
ATOM     38  N   UNL A   1      46.130  28.704  28.065  1.00  0.00    -0.354 N 
ATOM     39  N   UNL A   1      43.323  29.290  28.684  1.00  0.00    -0.248 NA
ATOM     40  C   UNL A   1      41.658  30.799  29.321  1.00  0.00     0.031 C 
ATOM     41  C   UNL A   1      47.598  30.370  28.144  1.00  0.00     0.029 A 
ATOM     42  C   UNL A   1      46.258  30.061  28.315  1.00  0.00     0.049 A 
ATOM     43  H   UNL A   1      45.288  28.197  28.120  1.00  0.00     0.167 HD
ATOM     44  C   UNL A   1      43.881  30.555  28.820  1.00  0.00     0.074 A 
ATOM     45  C   UNL A   1      42.801  31.452  29.173  1.00  0.00     0.031 C 
ATOM     46  C   UNL A   1      45.173  30.939  28.673  1.00  0.00     0.037 A 
BRANCH  33  47
ATOM     47  C   UNL A   1      48.993  26.343  27.092  1.00  0.00     0.057 A 
ATOM     48  C   UNL A   1      49.479  26.353  25.777  1.00  0.00     0.134 A 
ATOM     49  C   UNL A   1      49.878  25.946  28.103  1.00  0.00     0.134 A 
ATOM     50  F   UNL A   1      48.679  26.711  24.760  1.00  0.00    -0.206 F 
ATOM     51  C   UNL A   1      50.785  25.963  25.476  1.00  0.00     0.040 A 
ATOM     52  C   UNL A   1      51.195  25.579  27.817  1.00  0.00     0.040 A 
ATOM     53  F   UNL A   1      49.481  25.917  29.384  1.00  0.00    -0.206 F 
ATOM     54  C   UNL A   1      51.649  25.582  26.500  1.00  0.00     0.006 A 
ENDBRANCH  33  47
BRANCH  34  55
ATOM     55  C   UNL A   1      39.562  28.760  29.300  1.00  0.00     0.057 A 
ATOM     56  C   UNL A   1      39.094  28.651  30.614  1.00  0.00     0.134 A 
ATOM     57  C   UNL A   1      38.660  29.217  28.330  1.00  0.00     0.134 A 
ATOM     58  F   UNL A   1      39.906  28.205  31.585  1.00  0.00    -0.206 F 
ATOM     59  C   UNL A   1      37.775  28.956  30.949  1.00  0.00     0.040 A 
ATOM     60  C   UNL A   1      37.346  29.552  28.655  1.00  0.00     0.040 A 
ATOM     61  F   UNL A   1      39.051  29.354  27.055  1.00  0.00    -0.206 F 
ATOM     62  C   UNL A   1      36.896  29.413  29.967  1.00  0.00     0.006 A 
ENDBRANCH  34  55
BRANCH  46  63
ATOM     63  C   UNL A   1      45.475  32.394  28.880  1.00  0.00     0.057 A 
ATOM     64  C   UNL A   1      45.878  32.895  30.125  1.00  0.00     0.134 A 
ATOM     65  C   UNL A   1      45.364  33.305  27.821  1.00  0.00     0.134 A 
ATOM     66  F   UNL A   1      45.991  32.077  31.182  1.00  0.00    -0.206 F 
ATOM     67  C   UNL A   1      46.123  34.255  30.319  1.00  0.00     0.040 A 
ATOM     68  C   UNL A   1      45.635  34.662  27.996  1.00  0.00     0.040 A 
ATOM     69  F   UNL A   1      44.993  32.890  26.601  1.00  0.00    -0.206 F 
ATOM     70  C   UNL A   1      46.005  35.143  29.250  1.00  0.00     0.006 A 
ENDBRANCH  46  63
ENDBRANCH  20  21
ENDBRANCH  12  15
ENDBRANCH  10  11
ENDBRANCH   9  10
ENDBRANCH   8   9
ENDBRANCH   7   8
ENDBRANCH   5   7
ENDBRANCH   2   3
BRANCH   2  71
ATOM     71  C   UNL A   1      34.256  22.468  25.589  1.00  0.00    -0.033 A 
ATOM     72  C   UNL A   1      34.337  23.648  26.347  1.00  0.00     0.005 A 
ATOM     73  C   UNL A   1      34.173  22.597  24.193  1.00  0.00     0.044 A 
ATOM     74  C   UNL A   1      34.272  24.904  25.743  1.00  0.00     0.012 A 
ATOM     75  C   UNL A   1      34.091  23.857  23.597  1.00  0.00     0.131 A 
ATOM     76  C   UNL A   1      34.118  25.032  24.357  1.00  0.00     0.018 A 
ATOM     77  F   UNL A   1      33.957  23.920  22.262  1.00  0.00    -0.206 F 
BRANCH  76  78
ATOM     78  C   UNL A   1      33.876  26.356  23.777  1.00  0.00    -0.012 A 
ATOM     79  C   UNL A   1      34.015  26.594  22.399  1.00  0.00     0.009 A 
ATOM     80  C   UNL A   1      33.603  27.441  24.623  1.00  0.00     0.056 A 
ATOM     81  C   UNL A   1      33.900  27.886  21.882  1.00  0.00     0.004 A 
ATOM     82  C   UNL A   1      33.515  28.729  24.108  1.00  0.00     0.133 A 
ATOM     83  C   UNL A   1      33.657  28.957  22.739  1.00  0.00     0.047 A 
BRANCH  82  84
ATOM     84  O   UNL A   1      33.264  29.878  24.891  1.00  0.00    -0.410 OA
BRANCH  84  85
ATOM     85  C   UNL A   1      32.314  29.978  25.904  1.00  0.00     0.412 C 
ATOM     86  O   UNL A   1      32.526  30.180  27.091  1.00  0.00    -0.224 OA
ATOM     87  N   UNL A   1      31.034  29.848  25.442  1.00  0.00    -0.321 N 
ATOM     88  H   UNL A   1      30.317  29.779  26.113  1.00  0.00     0.167 HD
BRANCH  87  89
ATOM     89  C   UNL A   1      30.644  29.805  24.053  1.00  0.00     0.120 C 
BRANCH  89  90
ATOM     90  C   UNL A   1      29.655  28.695  23.706  1.00  0.00     0.026 C 
BRANCH  90  91
ATOM     91  C   UNL A   1      30.182  27.450  22.981  1.00  0.00     0.037 C 
BRANCH  91  92
ATOM     92  C   UNL A   1      30.391  26.153  23.729  1.00  0.00    -0.048 A 
ATOM     93  C   UNL A   1      30.542  24.901  23.127  1.00  0.00     0.004 A 
ATOM     94  C   UNL A   1      30.375  26.207  25.135  1.00  0.00     0.004 A 
ATOM     95  C   UNL A   1      30.666  23.741  23.900  1.00  0.00     0.000 A 
ATOM     96  C   UNL A   1      30.510  25.052  25.908  1.00  0.00     0.000 A 
ATOM     97  C   UNL A   1      30.651  23.816  25.288  1.00  0.00     0.000 A 
ENDBRANCH  91  92
ENDBRANCH  90  91
ENDBRANCH  89  90
ENDBRANCH  87  89
ENDBRANCH  84  85
ENDBRANCH  82  84
ENDBRANCH  76  78
ENDBRANCH   2  71
TORSDOF 19
ENDMDL
