MODEL 1
REMARK VINA RESULT:     -11.2      0.000      0.000
REMARK SMILES COCC[C@@H](C)NC(=O)N[C@@H]1C=C[C@@H](C(=O)NCCCCNC(=O)c2ccc(-c3c4nc(c(-c5c(F)cccc5F)c5ccc([nH]5)c(-c5c(F)cccc5F)c5nc(c(-c6c(F)cccc6F)c6ccc3[nH]6)C=C5)C=C4)cc2)C1
REMARK SMILES IDX 18 1 17 2 15 3 16 4 14 6 11 7 12 8 79 9 13 10 10 11 7 12
REMARK SMILES IDX 8 13 9 15 5 17 6 18 4 19 3 20 2 21 1 22 19 23 20 24 21 25
REMARK SMILES IDX 22 26 23 27 24 29 25 30 26 31 78 32 27 33 77 34 28 35 29 36
REMARK SMILES IDX 30 37 71 38 31 39 76 40 70 41 72 42 32 43 75 44 69 45 68 46
REMARK SMILES IDX 33 48 59 49 42 50 58 51 43 52 46 53 57 54 73 55 44 56 45 57
REMARK SMILES IDX 56 59 74 60 47 61 34 62 35 63 40 64 36 65 37 66 39 67 41 68
REMARK SMILES IDX 38 69 60 70 61 71 66 72 62 73 63 74 65 75 67 76 64 77 48 78
REMARK SMILES IDX 49 79 54 80 50 81 51 82 53 83 55 84 52 85
REMARK H PARENT 17 5 7 14 10 16 22 28 72 47 46 58
REMARK Flexibility Score: inf
ROOT
ATOM      1  C   UNL A   1      37.327  21.948  24.755  1.00  0.00     0.116 C 
ENDROOT
BRANCH   1   2
ATOM      2  N   UNL A   1      36.517  22.470  23.674  1.00  0.00    -0.356 N 
ATOM      3  C   UNL A   1      35.181  22.724  23.602  1.00  0.00     0.227 C 
ATOM      4  O   UNL A   1      34.776  23.290  22.581  1.00  0.00    -0.274 OA
ATOM      5  H   UNL A   1      37.016  22.676  22.851  1.00  0.00     0.163 HD
BRANCH   3   6
ATOM      6  C   UNL A   1      34.176  22.233  24.650  1.00  0.00     0.103 C 
ATOM      7  C   UNL A   1      31.712  22.376  24.911  1.00  0.00     0.107 C 
ATOM      8  C   UNL A   1      32.199  20.973  24.676  1.00  0.00    -0.006 C 
ATOM      9  C   UNL A   1      32.993  23.191  24.728  1.00  0.00     0.047 C 
ATOM     10  C   UNL A   1      33.527  20.898  24.508  1.00  0.00    -0.016 C 
BRANCH   7  11
ATOM     11  N   UNL A   1      31.125  22.450  26.232  1.00  0.00    -0.332 N 
ATOM     12  N   UNL A   1      29.980  24.529  26.364  1.00  0.00    -0.336 N 
ATOM     13  C   UNL A   1      30.225  23.278  26.786  1.00  0.00     0.315 C 
ATOM     14  H   UNL A   1      29.109  24.883  26.658  1.00  0.00     0.165 HD
ATOM     15  O   UNL A   1      29.584  22.866  27.755  1.00  0.00    -0.249 OA
ATOM     16  H   UNL A   1      31.449  21.753  26.847  1.00  0.00     0.165 HD
BRANCH  12  17
ATOM     17  C   UNL A   1      30.751  25.467  25.558  1.00  0.00     0.083 C 
ATOM     18  C   UNL A   1      30.885  26.805  26.296  1.00  0.00     0.031 C 
BRANCH  17  19
ATOM     19  C   UNL A   1      30.117  25.677  24.169  1.00  0.00     0.053 C 
BRANCH  19  20
ATOM     20  C   UNL A   1      28.838  26.523  24.239  1.00  0.00     0.162 C 
BRANCH  20  21
ATOM     21  O   UNL A   1      28.755  27.472  23.173  1.00  0.00    -0.385 OA
ATOM     22  C   UNL A   1      29.870  28.343  23.097  1.00  0.00     0.194 C 
ENDBRANCH  20  21
ENDBRANCH  19  20
ENDBRANCH  17  19
ENDBRANCH  12  17
ENDBRANCH   7  11
ENDBRANCH   3   6
ENDBRANCH   1   2
BRANCH   1  23
ATOM     23  C   UNL A   1      37.069  20.471  25.037  1.00  0.00     0.023 C 
BRANCH  23  24
ATOM     24  C   UNL A   1      38.284  19.551  24.975  1.00  0.00     0.023 C 
BRANCH  24  25
ATOM     25  C   UNL A   1      39.478  20.011  25.793  1.00  0.00     0.116 C 
BRANCH  25  26
ATOM     26  N   UNL A   1      40.484  18.975  25.991  1.00  0.00    -0.352 N 
ATOM     27  C   UNL A   1      41.811  19.132  26.318  1.00  0.00     0.251 C 
ATOM     28  H   UNL A   1      40.175  18.047  25.877  1.00  0.00     0.163 HD
ATOM     29  O   UNL A   1      42.566  18.167  26.371  1.00  0.00    -0.269 OA
BRANCH  27  30
ATOM     30  C   UNL A   1      42.320  20.495  26.564  1.00  0.00     0.039 A 
ATOM     31  C   UNL A   1      42.764  21.265  25.488  1.00  0.00     0.014 A 
ATOM     32  C   UNL A   1      42.266  21.031  27.852  1.00  0.00     0.014 A 
ATOM     33  C   UNL A   1      43.082  22.609  25.691  1.00  0.00     0.010 A 
ATOM     34  C   UNL A   1      42.490  22.386  28.034  1.00  0.00     0.010 A 
ATOM     35  C   UNL A   1      42.907  23.188  26.957  1.00  0.00    -0.014 A 
BRANCH  35  36
ATOM     36  C   UNL A   1      43.194  24.618  27.226  1.00  0.00     0.031 A 
ATOM     37  C   UNL A   1      44.620  25.093  27.166  1.00  0.00     0.074 A 
ATOM     38  C   UNL A   1      42.217  25.446  27.639  1.00  0.00     0.049 A 
ATOM     39  N   UNL A   1      45.139  26.218  27.582  1.00  0.00    -0.248 NA
ATOM     40  C   UNL A   1      45.601  24.144  26.612  1.00  0.00     0.031 C 
ATOM     41  C   UNL A   1      40.803  25.093  27.780  1.00  0.00     0.029 A 
ATOM     42  N   UNL A   1      42.273  26.756  28.045  1.00  0.00    -0.354 N 
ATOM     43  C   UNL A   1      46.510  26.086  27.394  1.00  0.00     0.074 A 
ATOM     44  C   UNL A   1      46.743  24.759  26.869  1.00  0.00     0.031 C 
ATOM     45  C   UNL A   1      40.124  26.164  28.226  1.00  0.00     0.029 A 
ATOM     46  C   UNL A   1      41.061  27.262  28.446  1.00  0.00     0.049 A 
ATOM     47  H   UNL A   1      43.105  27.282  28.050  1.00  0.00     0.167 HD
ATOM     48  C   UNL A   1      47.483  26.999  27.619  1.00  0.00     0.037 A 
ATOM     49  C   UNL A   1      40.747  28.472  28.947  1.00  0.00     0.037 A 
ATOM     50  C   UNL A   1      47.231  28.340  28.072  1.00  0.00     0.049 A 
ATOM     51  C   UNL A   1      41.837  29.491  29.135  1.00  0.00     0.074 A 
ATOM     52  C   UNL A   1      48.133  29.371  28.259  1.00  0.00     0.029 A 
ATOM     53  N   UNL A   1      45.978  28.837  28.392  1.00  0.00    -0.354 N 
ATOM     54  N   UNL A   1      43.124  29.372  28.918  1.00  0.00    -0.248 NA
ATOM     55  C   UNL A   1      41.432  30.812  29.635  1.00  0.00     0.031 C 
ATOM     56  C   UNL A   1      47.427  30.488  28.714  1.00  0.00     0.029 A 
ATOM     57  C   UNL A   1      46.081  30.161  28.775  1.00  0.00     0.049 A 
ATOM     58  H   UNL A   1      45.138  28.324  28.352  1.00  0.00     0.167 HD
ATOM     59  C   UNL A   1      43.678  30.609  29.219  1.00  0.00     0.074 A 
ATOM     60  C   UNL A   1      42.587  31.465  29.636  1.00  0.00     0.031 C 
ATOM     61  C   UNL A   1      44.973  31.001  29.155  1.00  0.00     0.037 A 
BRANCH  48  62
ATOM     62  C   UNL A   1      48.899  26.572  27.366  1.00  0.00     0.057 A 
ATOM     63  C   UNL A   1      49.503  26.712  26.110  1.00  0.00     0.134 A 
ATOM     64  C   UNL A   1      49.669  26.013  28.394  1.00  0.00     0.134 A 
ATOM     65  F   UNL A   1      48.815  27.225  25.079  1.00  0.00    -0.206 F 
ATOM     66  C   UNL A   1      50.808  26.276  25.874  1.00  0.00     0.040 A 
ATOM     67  C   UNL A   1      50.985  25.600  28.178  1.00  0.00     0.040 A 
ATOM     68  F   UNL A   1      49.155  25.854  29.622  1.00  0.00    -0.206 F 
ATOM     69  C   UNL A   1      51.554  25.723  26.912  1.00  0.00     0.006 A 
ENDBRANCH  48  62
BRANCH  49  70
ATOM     70  C   UNL A   1      39.336  28.796  29.274  1.00  0.00     0.057 A 
ATOM     71  C   UNL A   1      38.485  29.344  28.307  1.00  0.00     0.134 A 
ATOM     72  C   UNL A   1      38.801  28.563  30.545  1.00  0.00     0.134 A 
ATOM     73  F   UNL A   1      38.945  29.605  27.075  1.00  0.00    -0.206 F 
ATOM     74  C   UNL A   1      37.157  29.662  28.595  1.00  0.00     0.040 A 
ATOM     75  C   UNL A   1      37.468  28.856  30.842  1.00  0.00     0.040 A 
ATOM     76  F   UNL A   1      39.562  28.030  31.513  1.00  0.00    -0.206 F 
ATOM     77  C   UNL A   1      36.643  29.413  29.866  1.00  0.00     0.006 A 
ENDBRANCH  49  70
BRANCH  61  78
ATOM     78  C   UNL A   1      45.280  32.431  29.483  1.00  0.00     0.057 A 
ATOM     79  C   UNL A   1      45.210  33.442  28.518  1.00  0.00     0.134 A 
ATOM     80  C   UNL A   1      45.569  32.805  30.801  1.00  0.00     0.134 A 
ATOM     81  F   UNL A   1      44.946  33.142  27.237  1.00  0.00    -0.206 F 
ATOM     82  C   UNL A   1      45.425  34.779  28.853  1.00  0.00     0.040 A 
ATOM     83  C   UNL A   1      45.765  34.141  31.151  1.00  0.00     0.040 A 
ATOM     84  F   UNL A   1      45.641  31.882  31.771  1.00  0.00    -0.206 F 
ATOM     85  C   UNL A   1      45.693  35.132  30.175  1.00  0.00     0.006 A 
ENDBRANCH  61  78
ENDBRANCH  35  36
ENDBRANCH  27  30
ENDBRANCH  25  26
ENDBRANCH  24  25
ENDBRANCH  23  24
ENDBRANCH   1  23
TORSDOF 16
ENDMDL
MODEL 2
REMARK VINA RESULT:     -11.2      3.588      5.132
REMARK SMILES COCC[C@@H](C)NC(=O)N[C@@H]1C=C[C@@H](C(=O)NCCCCNC(=O)c2ccc(-c3c4nc(c(-c5c(F)cccc5F)c5ccc([nH]5)c(-c5c(F)cccc5F)c5nc(c(-c6c(F)cccc6F)c6ccc3[nH]6)C=C5)C=C4)cc2)C1
REMARK SMILES IDX 18 1 17 2 15 3 16 4 14 6 11 7 12 8 79 9 13 10 10 11 7 12
REMARK SMILES IDX 8 13 9 15 5 17 6 18 4 19 3 20 2 21 1 22 19 23 20 24 21 25
REMARK SMILES IDX 22 26 23 27 24 29 25 30 26 31 78 32 27 33 77 34 28 35 29 36
REMARK SMILES IDX 30 37 71 38 31 39 76 40 70 41 72 42 32 43 75 44 69 45 68 46
REMARK SMILES IDX 33 48 59 49 42 50 58 51 43 52 46 53 57 54 73 55 44 56 45 57
REMARK SMILES IDX 56 59 74 60 47 61 34 62 35 63 40 64 36 65 37 66 39 67 41 68
REMARK SMILES IDX 38 69 60 70 61 71 66 72 62 73 63 74 65 75 67 76 64 77 48 78
REMARK SMILES IDX 49 79 54 80 50 81 51 82 53 83 55 84 52 85
REMARK H PARENT 17 5 7 14 10 16 22 28 72 47 46 58
REMARK Flexibility Score: inf
ROOT
ATOM      1  C   UNL A   1      34.336  21.453  26.885  1.00  0.00     0.116 C 
ENDROOT
BRANCH   1   2
ATOM      2  N   UNL A   1      33.560  20.349  26.357  1.00  0.00    -0.356 N 
ATOM      3  C   UNL A   1      32.557  20.324  25.436  1.00  0.00     0.227 C 
ATOM      4  O   UNL A   1      32.154  19.210  25.082  1.00  0.00    -0.274 OA
ATOM      5  H   UNL A   1      33.797  19.468  26.726  1.00  0.00     0.163 HD
BRANCH   3   6
ATOM      6  C   UNL A   1      31.845  21.586  24.936  1.00  0.00     0.103 C 
ATOM      7  C   UNL A   1      31.584  23.900  25.793  1.00  0.00     0.107 C 
ATOM      8  C   UNL A   1      32.403  23.827  24.535  1.00  0.00    -0.006 C 
ATOM      9  C   UNL A   1      31.371  22.421  26.120  1.00  0.00     0.047 C 
ATOM     10  C   UNL A   1      32.568  22.574  24.086  1.00  0.00    -0.016 C 
BRANCH   7  11
ATOM     11  N   UNL A   1      30.373  24.644  25.518  1.00  0.00    -0.332 N 
ATOM     12  N   UNL A   1      30.943  26.951  25.598  1.00  0.00    -0.336 N 
ATOM     13  C   UNL A   1      30.137  25.937  25.243  1.00  0.00     0.315 C 
ATOM     14  H   UNL A   1      30.802  27.771  25.073  1.00  0.00     0.165 HD
ATOM     15  O   UNL A   1      29.105  26.216  24.629  1.00  0.00    -0.249 OA
ATOM     16  H   UNL A   1      29.558  24.091  25.535  1.00  0.00     0.165 HD
BRANCH  12  17
ATOM     17  C   UNL A   1      31.985  27.074  26.610  1.00  0.00     0.083 C 
ATOM     18  C   UNL A   1      31.635  28.204  27.587  1.00  0.00     0.031 C 
BRANCH  17  19
ATOM     19  C   UNL A   1      33.367  27.318  25.975  1.00  0.00     0.053 C 
BRANCH  19  20
ATOM     20  C   UNL A   1      33.266  28.061  24.636  1.00  0.00     0.162 C 
BRANCH  20  21
ATOM     21  O   UNL A   1      32.863  27.202  23.566  1.00  0.00    -0.385 OA
ATOM     22  C   UNL A   1      33.655  27.336  22.398  1.00  0.00     0.194 C 
ENDBRANCH  20  21
ENDBRANCH  19  20
ENDBRANCH  17  19
ENDBRANCH  12  17
ENDBRANCH   7  11
ENDBRANCH   3   6
ENDBRANCH   1   2
BRANCH   1  23
ATOM     23  C   UNL A   1      35.525  21.823  26.005  1.00  0.00     0.023 C 
BRANCH  23  24
ATOM     24  C   UNL A   1      35.863  23.309  25.918  1.00  0.00     0.023 C 
BRANCH  24  25
ATOM     25  C   UNL A   1      37.108  23.637  25.112  1.00  0.00     0.116 C 
BRANCH  25  26
ATOM     26  N   UNL A   1      38.228  22.744  25.380  1.00  0.00    -0.352 N 
ATOM     27  C   UNL A   1      39.356  22.996  26.126  1.00  0.00     0.251 C 
ATOM     28  H   UNL A   1      38.170  21.847  24.976  1.00  0.00     0.163 HD
ATOM     29  O   UNL A   1      40.262  22.173  26.197  1.00  0.00    -0.269 OA
BRANCH  27  30
ATOM     30  C   UNL A   1      39.472  24.299  26.808  1.00  0.00     0.039 A 
ATOM     31  C   UNL A   1      38.936  24.452  28.089  1.00  0.00     0.014 A 
ATOM     32  C   UNL A   1      40.193  25.332  26.207  1.00  0.00     0.014 A 
ATOM     33  C   UNL A   1      39.193  25.624  28.804  1.00  0.00     0.010 A 
ATOM     34  C   UNL A   1      40.526  26.451  26.952  1.00  0.00     0.010 A 
ATOM     35  C   UNL A   1      40.024  26.613  28.255  1.00  0.00    -0.014 A 
BRANCH  35  36
ATOM     36  C   UNL A   1      40.362  27.862  28.981  1.00  0.00     0.031 A 
ATOM     37  C   UNL A   1      41.662  27.932  29.733  1.00  0.00     0.074 A 
ATOM     38  C   UNL A   1      39.467  28.864  29.070  1.00  0.00     0.049 A 
ATOM     39  N   UNL A   1      42.065  28.806  30.617  1.00  0.00    -0.248 NA
ATOM     40  C   UNL A   1      42.613  26.832  29.496  1.00  0.00     0.031 C 
ATOM     41  C   UNL A   1      38.156  28.896  28.423  1.00  0.00     0.029 A 
ATOM     42  N   UNL A   1      39.521  30.042  29.771  1.00  0.00    -0.354 N 
ATOM     43  C   UNL A   1      43.285  28.330  31.081  1.00  0.00     0.074 A 
ATOM     44  C   UNL A   1      43.534  27.071  30.415  1.00  0.00     0.031 C 
ATOM     45  C   UNL A   1      37.534  30.043  28.745  1.00  0.00     0.029 A 
ATOM     46  C   UNL A   1      38.383  30.804  29.656  1.00  0.00     0.049 A 
ATOM     47  H   UNL A   1      40.300  30.316  30.307  1.00  0.00     0.167 HD
ATOM     48  C   UNL A   1      44.132  28.904  31.967  1.00  0.00     0.037 A 
ATOM     49  C   UNL A   1      38.060  31.977  30.234  1.00  0.00     0.037 A 
ATOM     50  C   UNL A   1      43.908  30.190  32.567  1.00  0.00     0.049 A 
ATOM     51  C   UNL A   1      39.041  32.625  31.172  1.00  0.00     0.074 A 
ATOM     52  C   UNL A   1      44.735  30.901  33.418  1.00  0.00     0.029 A 
ATOM     53  N   UNL A   1      42.777  30.966  32.363  1.00  0.00    -0.354 N 
ATOM     54  N   UNL A   1      40.210  32.187  31.575  1.00  0.00    -0.248 NA
ATOM     55  C   UNL A   1      38.662  33.928  31.734  1.00  0.00     0.031 C 
ATOM     56  C   UNL A   1      44.094  32.100  33.746  1.00  0.00     0.029 A 
ATOM     57  C   UNL A   1      42.883  32.149  33.070  1.00  0.00     0.049 A 
ATOM     58  H   UNL A   1      42.012  30.711  31.797  1.00  0.00     0.167 HD
ATOM     59  C   UNL A   1      40.721  33.174  32.407  1.00  0.00     0.074 A 
ATOM     60  C   UNL A   1      39.734  34.235  32.453  1.00  0.00     0.031 C 
ATOM     61  C   UNL A   1      41.901  33.202  33.072  1.00  0.00     0.037 A 
BRANCH  48  62
ATOM     62  C   UNL A   1      45.374  28.142  32.324  1.00  0.00     0.057 A 
ATOM     63  C   UNL A   1      45.412  27.246  33.400  1.00  0.00     0.134 A 
ATOM     64  C   UNL A   1      46.550  28.308  31.580  1.00  0.00     0.134 A 
ATOM     65  F   UNL A   1      44.325  27.054  34.162  1.00  0.00    -0.206 F 
ATOM     66  C   UNL A   1      46.583  26.572  33.749  1.00  0.00     0.040 A 
ATOM     67  C   UNL A   1      47.719  27.616  31.901  1.00  0.00     0.040 A 
ATOM     68  F   UNL A   1      46.582  29.146  30.534  1.00  0.00    -0.206 F 
ATOM     69  C   UNL A   1      47.740  26.752  32.994  1.00  0.00     0.006 A 
ENDBRANCH  48  62
BRANCH  49  70
ATOM     70  C   UNL A   1      36.766  32.629  29.916  1.00  0.00     0.057 A 
ATOM     71  C   UNL A   1      35.626  32.373  30.688  1.00  0.00     0.134 A 
ATOM     72  C   UNL A   1      36.633  33.524  28.849  1.00  0.00     0.134 A 
ATOM     73  F   UNL A   1      35.687  31.512  31.714  1.00  0.00    -0.206 F 
ATOM     74  C   UNL A   1      34.398  32.970  30.402  1.00  0.00     0.040 A 
ATOM     75  C   UNL A   1      35.415  34.146  28.563  1.00  0.00     0.040 A 
ATOM     76  F   UNL A   1      37.690  33.819  28.077  1.00  0.00    -0.206 F 
ATOM     77  C   UNL A   1      34.291  33.864  29.338  1.00  0.00     0.006 A 
ENDBRANCH  49  70
BRANCH  61  78
ATOM     78  C   UNL A   1      42.223  34.437  33.857  1.00  0.00     0.057 A 
ATOM     79  C   UNL A   1      42.807  35.560  33.261  1.00  0.00     0.134 A 
ATOM     80  C   UNL A   1      41.868  34.526  35.209  1.00  0.00     0.134 A 
ATOM     81  F   UNL A   1      43.177  35.530  31.971  1.00  0.00    -0.206 F 
ATOM     82  C   UNL A   1      43.034  36.730  33.986  1.00  0.00     0.040 A 
ATOM     83  C   UNL A   1      42.071  35.697  35.939  1.00  0.00     0.040 A 
ATOM     84  F   UNL A   1      41.298  33.485  35.833  1.00  0.00    -0.206 F 
ATOM     85  C   UNL A   1      42.656  36.803  35.326  1.00  0.00     0.006 A 
ENDBRANCH  61  78
ENDBRANCH  35  36
ENDBRANCH  27  30
ENDBRANCH  25  26
ENDBRANCH  24  25
ENDBRANCH  23  24
ENDBRANCH   1  23
TORSDOF 16
ENDMDL
MODEL 3
REMARK VINA RESULT:     -11.2      0.776      6.391
REMARK SMILES COCC[C@@H](C)NC(=O)N[C@@H]1C=C[C@@H](C(=O)NCCCCNC(=O)c2ccc(-c3c4nc(c(-c5c(F)cccc5F)c5ccc([nH]5)c(-c5c(F)cccc5F)c5nc(c(-c6c(F)cccc6F)c6ccc3[nH]6)C=C5)C=C4)cc2)C1
REMARK SMILES IDX 18 1 17 2 15 3 16 4 14 6 11 7 12 8 79 9 13 10 10 11 7 12
REMARK SMILES IDX 8 13 9 15 5 17 6 18 4 19 3 20 2 21 1 22 19 23 20 24 21 25
REMARK SMILES IDX 22 26 23 27 24 29 25 30 26 31 78 32 27 33 77 34 28 35 29 36
REMARK SMILES IDX 30 37 71 38 31 39 76 40 70 41 72 42 32 43 75 44 69 45 68 46
REMARK SMILES IDX 33 48 59 49 42 50 58 51 43 52 46 53 57 54 73 55 44 56 45 57
REMARK SMILES IDX 56 59 74 60 47 61 34 62 35 63 40 64 36 65 37 66 39 67 41 68
REMARK SMILES IDX 38 69 60 70 61 71 66 72 62 73 63 74 65 75 67 76 64 77 48 78
REMARK SMILES IDX 49 79 54 80 50 81 51 82 53 83 55 84 52 85
REMARK H PARENT 17 5 7 14 10 16 22 28 72 47 46 58
REMARK Flexibility Score: inf
ROOT
ATOM      1  C   UNL A   1      37.302  21.770  24.850  1.00  0.00     0.116 C 
ENDROOT
BRANCH   1   2
ATOM      2  N   UNL A   1      36.640  22.403  23.726  1.00  0.00    -0.356 N 
ATOM      3  C   UNL A   1      35.341  22.770  23.547  1.00  0.00     0.227 C 
ATOM      4  O   UNL A   1      35.080  23.409  22.523  1.00  0.00    -0.274 OA
ATOM      5  H   UNL A   1      37.229  22.599  22.963  1.00  0.00     0.163 HD
BRANCH   3   6
ATOM      6  C   UNL A   1      34.207  22.321  24.476  1.00  0.00     0.103 C 
ATOM      7  C   UNL A   1      31.826  22.963  24.763  1.00  0.00     0.107 C 
ATOM      8  C   UNL A   1      32.001  21.561  24.249  1.00  0.00    -0.006 C 
ATOM      9  C   UNL A   1      33.263  23.487  24.748  1.00  0.00     0.047 C 
ATOM     10  C   UNL A   1      33.286  21.222  24.067  1.00  0.00    -0.016 C 
BRANCH   7  11
ATOM     11  N   UNL A   1      31.212  22.906  26.072  1.00  0.00    -0.332 N 
ATOM     12  N   UNL A   1      29.964  24.912  26.339  1.00  0.00    -0.336 N 
ATOM     13  C   UNL A   1      30.263  23.644  26.669  1.00  0.00     0.315 C 
ATOM     14  H   UNL A   1      29.071  25.199  26.639  1.00  0.00     0.165 HD
ATOM     15  O   UNL A   1      29.625  23.128  27.589  1.00  0.00    -0.249 OA
ATOM     16  H   UNL A   1      31.559  22.179  26.639  1.00  0.00     0.165 HD
BRANCH  12  17
ATOM     17  C   UNL A   1      30.703  25.945  25.624  1.00  0.00     0.083 C 
ATOM     18  C   UNL A   1      31.052  27.094  26.579  1.00  0.00     0.031 C 
BRANCH  17  19
ATOM     19  C   UNL A   1      29.912  26.472  24.411  1.00  0.00     0.053 C 
BRANCH  19  20
ATOM     20  C   UNL A   1      30.720  26.380  23.110  1.00  0.00     0.162 C 
BRANCH  20  21
ATOM     21  O   UNL A   1      31.811  27.304  23.079  1.00  0.00    -0.385 OA
ATOM     22  C   UNL A   1      31.408  28.663  23.119  1.00  0.00     0.194 C 
ENDBRANCH  20  21
ENDBRANCH  19  20
ENDBRANCH  17  19
ENDBRANCH  12  17
ENDBRANCH   7  11
ENDBRANCH   3   6
ENDBRANCH   1   2
BRANCH   1  23
ATOM     23  C   UNL A   1      36.969  20.288  24.982  1.00  0.00     0.023 C 
BRANCH  23  24
ATOM     24  C   UNL A   1      38.157  19.330  25.007  1.00  0.00     0.023 C 
BRANCH  24  25
ATOM     25  C   UNL A   1      39.299  19.748  25.917  1.00  0.00     0.116 C 
BRANCH  25  26
ATOM     26  N   UNL A   1      40.477  18.899  25.803  1.00  0.00    -0.352 N 
ATOM     27  C   UNL A   1      41.795  19.243  25.999  1.00  0.00     0.251 C 
ATOM     28  H   UNL A   1      40.310  17.960  25.555  1.00  0.00     0.163 HD
ATOM     29  O   UNL A   1      42.696  18.439  25.785  1.00  0.00    -0.269 OA
BRANCH  27  30
ATOM     30  C   UNL A   1      42.106  20.619  26.433  1.00  0.00     0.039 A 
ATOM     31  C   UNL A   1      42.203  20.902  27.796  1.00  0.00     0.014 A 
ATOM     32  C   UNL A   1      42.389  21.598  25.478  1.00  0.00     0.014 A 
ATOM     33  C   UNL A   1      42.664  22.155  28.205  1.00  0.00     0.010 A 
ATOM     34  C   UNL A   1      42.936  22.804  25.883  1.00  0.00     0.010 A 
ATOM     35  C   UNL A   1      43.072  23.099  27.251  1.00  0.00    -0.014 A 
BRANCH  35  36
ATOM     36  C   UNL A   1      43.604  24.432  27.626  1.00  0.00     0.031 A 
ATOM     37  C   UNL A   1      42.639  25.498  28.064  1.00  0.00     0.074 A 
ATOM     38  C   UNL A   1      44.908  24.720  27.456  1.00  0.00     0.049 A 
ATOM     39  N   UNL A   1      42.830  26.782  28.212  1.00  0.00    -0.248 NA
ATOM     40  C   UNL A   1      41.254  25.062  28.312  1.00  0.00     0.031 C 
ATOM     41  C   UNL A   1      45.935  23.785  26.996  1.00  0.00     0.029 A 
ATOM     42  N   UNL A   1      45.586  25.901  27.626  1.00  0.00    -0.354 N 
ATOM     43  C   UNL A   1      41.581  27.312  28.513  1.00  0.00     0.074 A 
ATOM     44  C   UNL A   1      40.635  26.219  28.482  1.00  0.00     0.031 C 
ATOM     45  C   UNL A   1      47.116  24.424  26.935  1.00  0.00     0.029 A 
ATOM     46  C   UNL A   1      46.920  25.822  27.306  1.00  0.00     0.049 A 
ATOM     47  H   UNL A   1      45.158  26.727  27.947  1.00  0.00     0.167 HD
ATOM     48  C   UNL A   1      41.257  28.591  28.810  1.00  0.00     0.037 A 
ATOM     49  C   UNL A   1      47.870  26.776  27.301  1.00  0.00     0.037 A 
ATOM     50  C   UNL A   1      42.218  29.656  28.909  1.00  0.00     0.049 A 
ATOM     51  C   UNL A   1      47.500  28.180  27.689  1.00  0.00     0.074 A 
ATOM     52  C   UNL A   1      42.012  30.972  29.278  1.00  0.00     0.029 A 
ATOM     53  N   UNL A   1      43.573  29.516  28.653  1.00  0.00    -0.354 N 
ATOM     54  N   UNL A   1      46.324  28.664  28.011  1.00  0.00    -0.248 NA
ATOM     55  C   UNL A   1      48.584  29.171  27.718  1.00  0.00     0.031 C 
ATOM     56  C   UNL A   1      43.242  31.636  29.225  1.00  0.00     0.029 A 
ATOM     57  C   UNL A   1      44.218  30.722  28.856  1.00  0.00     0.049 A 
ATOM     58  H   UNL A   1      44.012  28.681  28.368  1.00  0.00     0.167 HD
ATOM     59  C   UNL A   1      46.532  30.003  28.314  1.00  0.00     0.074 A 
ATOM     60  C   UNL A   1      47.948  30.257  28.136  1.00  0.00     0.031 C 
ATOM     61  C   UNL A   1      45.634  30.938  28.704  1.00  0.00     0.037 A 
BRANCH  48  62
ATOM     62  C   UNL A   1      39.809  28.896  29.055  1.00  0.00     0.057 A 
ATOM     63  C   UNL A   1      39.236  28.800  30.331  1.00  0.00     0.134 A 
ATOM     64  C   UNL A   1      38.975  29.290  28.001  1.00  0.00     0.134 A 
ATOM     65  F   UNL A   1      39.977  28.412  31.380  1.00  0.00    -0.206 F 
ATOM     66  C   UNL A   1      37.879  29.047  30.543  1.00  0.00     0.040 A 
ATOM     67  C   UNL A   1      37.623  29.569  28.207  1.00  0.00     0.040 A 
ATOM     68  F   UNL A   1      39.458  29.407  26.756  1.00  0.00    -0.206 F 
ATOM     69  C   UNL A   1      37.070  29.438  29.479  1.00  0.00     0.006 A 
ENDBRANCH  48  62
BRANCH  49  70
ATOM     70  C   UNL A   1      49.269  26.427  26.947  1.00  0.00     0.057 A 
ATOM     71  C   UNL A   1      49.754  26.640  25.651  1.00  0.00     0.134 A 
ATOM     72  C   UNL A   1      50.154  25.886  27.885  1.00  0.00     0.134 A 
ATOM     73  F   UNL A   1      48.948  27.141  24.704  1.00  0.00    -0.206 F 
ATOM     74  C   UNL A   1      51.063  26.313  25.296  1.00  0.00     0.040 A 
ATOM     75  C   UNL A   1      51.474  25.573  27.550  1.00  0.00     0.040 A 
ATOM     76  F   UNL A   1      49.754  25.667  29.147  1.00  0.00    -0.206 F 
ATOM     77  C   UNL A   1      51.930  25.782  26.249  1.00  0.00     0.006 A 
ENDBRANCH  49  70
BRANCH  61  78
ATOM     78  C   UNL A   1      46.155  32.306  29.027  1.00  0.00     0.057 A 
ATOM     79  C   UNL A   1      46.602  32.642  30.310  1.00  0.00     0.134 A 
ATOM     80  C   UNL A   1      46.284  33.268  28.018  1.00  0.00     0.134 A 
ATOM     81  F   UNL A   1      46.495  31.764  31.319  1.00  0.00    -0.206 F 
ATOM     82  C   UNL A   1      47.154  33.895  30.580  1.00  0.00     0.040 A 
ATOM     83  C   UNL A   1      46.853  34.516  28.271  1.00  0.00     0.040 A 
ATOM     84  F   UNL A   1      45.881  33.001  26.767  1.00  0.00    -0.206 F 
ATOM     85  C   UNL A   1      47.290  34.831  29.556  1.00  0.00     0.006 A 
ENDBRANCH  61  78
ENDBRANCH  35  36
ENDBRANCH  27  30
ENDBRANCH  25  26
ENDBRANCH  24  25
ENDBRANCH  23  24
ENDBRANCH   1  23
TORSDOF 16
ENDMDL
