MODEL 1
REMARK VINA RESULT:     -11.0      0.000      0.000
REMARK SMILES CN(CC1CCC1)C(=O)N(CC(=O)NCCCCNC(=O)c1ccc(-c2c3nc(c(-c4c(F)cccc4F)c4ccc([nH]4)c(-c4c(F)cccc4F)c4nc(c(-c5c(F)cccc5F)c5ccc2[nH]5)C=C4)C=C3)cc1)C(C)(C)C
REMARK SMILES IDX 15 1 14 2 12 3 13 4 11 6 10 7 8 8 9 9 2 10 1 11 3 12 4 13
REMARK SMILES IDX 5 14 7 15 6 16 76 17 77 18 78 19 79 20 16 21 17 22 18 23
REMARK SMILES IDX 19 24 20 25 21 27 22 28 23 29 75 30 24 31 74 32 25 33 26 34
REMARK SMILES IDX 27 35 68 36 28 37 73 38 67 39 69 40 29 41 72 42 66 43 65 44
REMARK SMILES IDX 30 46 56 47 39 48 55 49 40 50 43 51 54 52 70 53 41 54 42 55
REMARK SMILES IDX 53 57 71 58 44 59 31 60 32 61 37 62 33 63 34 64 36 65 38 66
REMARK SMILES IDX 35 67 57 68 58 69 63 70 59 71 60 72 62 73 64 74 61 75 45 76
REMARK SMILES IDX 46 77 51 78 47 79 48 80 50 81 52 82 49 83
REMARK H PARENT 14 5 19 26 69 45 43 56
REMARK Flexibility Score: inf
ROOT
ATOM      1  C   UNL A   1      31.929  29.461  25.549  1.00  0.00     0.116 C 
ENDROOT
BRANCH   1   2
ATOM      2  N   UNL A   1      32.995  29.591  24.581  1.00  0.00    -0.355 N 
ATOM      3  C   UNL A   1      33.540  28.631  23.779  1.00  0.00     0.239 C 
ATOM      4  O   UNL A   1      34.111  29.025  22.755  1.00  0.00    -0.273 OA
ATOM      5  H   UNL A   1      33.380  30.492  24.490  1.00  0.00     0.163 HD
BRANCH   3   6
ATOM      6  C   UNL A   1      33.342  27.117  24.011  1.00  0.00     0.221 C 
BRANCH   6   7
ATOM      7  N   UNL A   1      32.179  26.441  23.420  1.00  0.00    -0.311 N 
BRANCH   7   8
ATOM      8  C   UNL A   1      31.307  26.957  22.462  1.00  0.00     0.320 C 
ATOM      9  O   UNL A   1      31.339  26.487  21.314  1.00  0.00    -0.248 OA
BRANCH   8  10
ATOM     10  N   UNL A   1      30.343  27.930  22.701  1.00  0.00    -0.327 N 
ATOM     11  C   UNL A   1      29.177  27.414  23.431  1.00  0.00     0.148 C 
BRANCH  10  12
ATOM     12  C   UNL A   1      30.181  29.330  22.274  1.00  0.00     0.124 C 
BRANCH  12  13
ATOM     13  C   UNL A   1      28.962  29.910  22.982  1.00  0.00     0.008 C 
ATOM     14  C   UNL A   1      29.105  31.227  23.800  1.00  0.00     0.005 C 
ATOM     15  C   UNL A   1      27.861  30.678  22.181  1.00  0.00     0.005 C 
ATOM     16  C   UNL A   1      27.606  31.466  23.485  1.00  0.00     0.001 C 
ENDBRANCH  12  13
ENDBRANCH  10  12
ENDBRANCH   8  10
ENDBRANCH   7   8
BRANCH   7  17
ATOM     17  C   UNL A   1      31.825  25.076  24.029  1.00  0.00     0.037 C 
ATOM     18  C   UNL A   1      33.025  24.103  23.960  1.00  0.00     0.034 C 
ATOM     19  C   UNL A   1      31.350  25.214  25.497  1.00  0.00     0.034 C 
ATOM     20  C   UNL A   1      30.655  24.335  23.315  1.00  0.00     0.034 C 
ENDBRANCH   7  17
ENDBRANCH   6   7
ENDBRANCH   3   6
ENDBRANCH   1   2
BRANCH   1  21
ATOM     21  C   UNL A   1      32.169  30.178  26.868  1.00  0.00     0.023 C 
BRANCH  21  22
ATOM     22  C   UNL A   1      31.847  31.665  26.843  1.00  0.00     0.023 C 
BRANCH  22  23
ATOM     23  C   UNL A   1      32.917  32.568  27.444  1.00  0.00     0.116 C 
BRANCH  23  24
ATOM     24  N   UNL A   1      32.476  33.943  27.644  1.00  0.00    -0.352 N 
ATOM     25  C   UNL A   1      32.984  34.901  28.497  1.00  0.00     0.251 C 
ATOM     26  H   UNL A   1      31.710  34.227  27.096  1.00  0.00     0.163 HD
ATOM     27  O   UNL A   1      32.438  35.985  28.620  1.00  0.00    -0.269 OA
BRANCH  25  28
ATOM     28  C   UNL A   1      34.182  34.573  29.297  1.00  0.00     0.039 A 
ATOM     29  C   UNL A   1      34.017  34.109  30.602  1.00  0.00     0.014 A 
ATOM     30  C   UNL A   1      35.452  34.635  28.718  1.00  0.00     0.014 A 
ATOM     31  C   UNL A   1      35.120  33.610  31.296  1.00  0.00     0.010 A 
ATOM     32  C   UNL A   1      36.529  34.054  29.374  1.00  0.00     0.010 A 
ATOM     33  C   UNL A   1      36.372  33.526  30.666  1.00  0.00    -0.014 A 
BRANCH  33  34
ATOM     34  C   UNL A   1      37.530  32.870  31.325  1.00  0.00     0.031 A 
ATOM     35  C   UNL A   1      38.189  31.682  30.683  1.00  0.00     0.074 A 
ATOM     36  C   UNL A   1      37.921  33.278  32.548  1.00  0.00     0.049 A 
ATOM     37  N   UNL A   1      39.146  30.918  31.144  1.00  0.00    -0.248 NA
ATOM     38  C   UNL A   1      37.675  31.274  29.366  1.00  0.00     0.031 C 
ATOM     39  C   UNL A   1      37.312  34.366  33.315  1.00  0.00     0.029 A 
ATOM     40  N   UNL A   1      38.913  32.807  33.372  1.00  0.00    -0.354 N 
ATOM     41  C   UNL A   1      39.328  29.927  30.190  1.00  0.00     0.074 A 
ATOM     42  C   UNL A   1      38.347  30.154  29.150  1.00  0.00     0.031 C 
ATOM     43  C   UNL A   1      37.953  34.491  34.488  1.00  0.00     0.029 A 
ATOM     44  C   UNL A   1      38.995  33.472  34.572  1.00  0.00     0.049 A 
ATOM     45  H   UNL A   1      39.509  32.064  33.127  1.00  0.00     0.167 HD
ATOM     46  C   UNL A   1      40.244  28.929  30.169  1.00  0.00     0.037 A 
ATOM     47  C   UNL A   1      39.811  33.278  35.625  1.00  0.00     0.037 A 
ATOM     48  C   UNL A   1      41.244  28.732  31.183  1.00  0.00     0.049 A 
ATOM     49  C   UNL A   1      40.847  32.192  35.563  1.00  0.00     0.074 A 
ATOM     50  C   UNL A   1      42.283  27.818  31.201  1.00  0.00     0.029 A 
ATOM     51  N   UNL A   1      41.328  29.458  32.361  1.00  0.00    -0.354 N 
ATOM     52  N   UNL A   1      41.074  31.322  34.609  1.00  0.00    -0.248 NA
ATOM     53  C   UNL A   1      41.747  32.067  36.719  1.00  0.00     0.031 C 
ATOM     54  C   UNL A   1      42.969  27.961  32.412  1.00  0.00     0.029 A 
ATOM     55  C   UNL A   1      42.385  28.994  33.128  1.00  0.00     0.049 A 
ATOM     56  H   UNL A   1      40.725  30.193  32.615  1.00  0.00     0.167 HD
ATOM     57  C   UNL A   1      42.149  30.557  35.040  1.00  0.00     0.074 A 
ATOM     58  C   UNL A   1      42.541  31.077  36.334  1.00  0.00     0.031 C 
ATOM     59  C   UNL A   1      42.758  29.517  34.417  1.00  0.00     0.037 A 
BRANCH  46  60
ATOM     60  C   UNL A   1      40.199  27.980  29.008  1.00  0.00     0.057 A 
ATOM     61  C   UNL A   1      39.467  26.785  29.055  1.00  0.00     0.134 A 
ATOM     62  C   UNL A   1      40.889  28.268  27.825  1.00  0.00     0.134 A 
ATOM     63  F   UNL A   1      38.794  26.443  30.164  1.00  0.00    -0.206 F 
ATOM     64  C   UNL A   1      39.455  25.894  27.981  1.00  0.00     0.040 A 
ATOM     65  C   UNL A   1      40.862  27.399  26.734  1.00  0.00     0.040 A 
ATOM     66  F   UNL A   1      41.605  29.397  27.711  1.00  0.00    -0.206 F 
ATOM     67  C   UNL A   1      40.150  26.203  26.813  1.00  0.00     0.006 A 
ENDBRANCH  46  60
BRANCH  47  68
ATOM     68  C   UNL A   1      39.692  34.153  36.817  1.00  0.00     0.057 A 
ATOM     69  C   UNL A   1      40.351  35.386  36.876  1.00  0.00     0.134 A 
ATOM     70  C   UNL A   1      38.899  33.790  37.912  1.00  0.00     0.134 A 
ATOM     71  F   UNL A   1      41.138  35.779  35.864  1.00  0.00    -0.206 F 
ATOM     72  C   UNL A   1      40.235  36.224  37.985  1.00  0.00     0.040 A 
ATOM     73  C   UNL A   1      38.756  34.629  39.020  1.00  0.00     0.040 A 
ATOM     74  F   UNL A   1      38.235  32.626  37.911  1.00  0.00    -0.206 F 
ATOM     75  C   UNL A   1      39.430  35.849  39.059  1.00  0.00     0.006 A 
ENDBRANCH  47  68
BRANCH  59  76
ATOM     76  C   UNL A   1      43.920  28.882  35.122  1.00  0.00     0.057 A 
ATOM     77  C   UNL A   1      43.753  27.785  35.976  1.00  0.00     0.134 A 
ATOM     78  C   UNL A   1      45.224  29.343  34.906  1.00  0.00     0.134 A 
ATOM     79  F   UNL A   1      42.527  27.303  36.232  1.00  0.00    -0.206 F 
ATOM     80  C   UNL A   1      44.842  27.180  36.604  1.00  0.00     0.040 A 
ATOM     81  C   UNL A   1      46.323  28.731  35.511  1.00  0.00     0.040 A 
ATOM     82  F   UNL A   1      45.453  30.385  34.093  1.00  0.00    -0.206 F 
ATOM     83  C   UNL A   1      46.132  27.648  36.367  1.00  0.00     0.006 A 
ENDBRANCH  59  76
ENDBRANCH  33  34
ENDBRANCH  25  28
ENDBRANCH  23  24
ENDBRANCH  22  23
ENDBRANCH  21  22
ENDBRANCH   1  21
TORSDOF 17
ENDMDL
MODEL 2
REMARK VINA RESULT:     -11.0      4.837      9.473
REMARK SMILES CN(CC1CCC1)C(=O)N(CC(=O)NCCCCNC(=O)c1ccc(-c2c3nc(c(-c4c(F)cccc4F)c4ccc([nH]4)c(-c4c(F)cccc4F)c4nc(c(-c5c(F)cccc5F)c5ccc2[nH]5)C=C4)C=C3)cc1)C(C)(C)C
REMARK SMILES IDX 15 1 14 2 12 3 13 4 11 6 10 7 8 8 9 9 2 10 1 11 3 12 4 13
REMARK SMILES IDX 5 14 7 15 6 16 76 17 77 18 78 19 79 20 16 21 17 22 18 23
REMARK SMILES IDX 19 24 20 25 21 27 22 28 23 29 75 30 24 31 74 32 25 33 26 34
REMARK SMILES IDX 27 35 68 36 28 37 73 38 67 39 69 40 29 41 72 42 66 43 65 44
REMARK SMILES IDX 30 46 56 47 39 48 55 49 40 50 43 51 54 52 70 53 41 54 42 55
REMARK SMILES IDX 53 57 71 58 44 59 31 60 32 61 37 62 33 63 34 64 36 65 38 66
REMARK SMILES IDX 35 67 57 68 58 69 63 70 59 71 60 72 62 73 64 74 61 75 45 76
REMARK SMILES IDX 46 77 51 78 47 79 48 80 50 81 52 82 49 83
REMARK H PARENT 14 5 19 26 69 45 43 56
REMARK Flexibility Score: inf
ROOT
ATOM      1  C   UNL A   1      34.941  20.291  24.939  1.00  0.00     0.116 C 
ENDROOT
BRANCH   1   2
ATOM      2  N   UNL A   1      33.623  20.452  25.508  1.00  0.00    -0.355 N 
ATOM      3  C   UNL A   1      32.534  21.074  24.972  1.00  0.00     0.239 C 
ATOM      4  O   UNL A   1      31.429  20.731  25.411  1.00  0.00    -0.273 OA
ATOM      5  H   UNL A   1      33.494  20.062  26.402  1.00  0.00     0.163 HD
BRANCH   3   6
ATOM      6  C   UNL A   1      32.613  22.043  23.771  1.00  0.00     0.221 C 
BRANCH   6   7
ATOM      7  N   UNL A   1      32.599  23.493  24.010  1.00  0.00    -0.311 N 
BRANCH   7   8
ATOM      8  C   UNL A   1      31.491  24.282  24.318  1.00  0.00     0.320 C 
ATOM      9  O   UNL A   1      30.584  24.387  23.478  1.00  0.00    -0.248 OA
BRANCH   8  10
ATOM     10  N   UNL A   1      31.281  24.924  25.533  1.00  0.00    -0.327 N 
ATOM     11  C   UNL A   1      31.507  24.047  26.691  1.00  0.00     0.148 C 
BRANCH  10  12
ATOM     12  C   UNL A   1      30.761  26.250  25.908  1.00  0.00     0.124 C 
BRANCH  12  13
ATOM     13  C   UNL A   1      31.806  26.949  26.770  1.00  0.00     0.008 C 
ATOM     14  C   UNL A   1      33.053  27.589  26.093  1.00  0.00     0.005 C 
ATOM     15  C   UNL A   1      31.543  28.378  27.346  1.00  0.00     0.005 C 
ATOM     16  C   UNL A   1      33.075  28.569  27.296  1.00  0.00     0.001 C 
ENDBRANCH  12  13
ENDBRANCH  10  12
ENDBRANCH   8  10
ENDBRANCH   7   8
BRANCH   7  17
ATOM     17  C   UNL A   1      33.930  24.218  23.761  1.00  0.00     0.037 C 
ATOM     18  C   UNL A   1      34.882  23.361  22.895  1.00  0.00     0.034 C 
ATOM     19  C   UNL A   1      33.711  25.596  23.087  1.00  0.00     0.034 C 
ATOM     20  C   UNL A   1      34.737  24.547  25.053  1.00  0.00     0.034 C 
ENDBRANCH   7  17
ENDBRANCH   6   7
ENDBRANCH   3   6
ENDBRANCH   1   2
BRANCH   1  21
ATOM     21  C   UNL A   1      36.028  21.134  25.586  1.00  0.00     0.023 C 
BRANCH  21  22
ATOM     22  C   UNL A   1      37.345  21.155  24.824  1.00  0.00     0.023 C 
BRANCH  22  23
ATOM     23  C   UNL A   1      38.594  21.232  25.693  1.00  0.00     0.116 C 
BRANCH  23  24
ATOM     24  N   UNL A   1      39.428  20.039  25.625  1.00  0.00    -0.352 N 
ATOM     25  C   UNL A   1      40.753  19.886  25.975  1.00  0.00     0.251 C 
ATOM     26  H   UNL A   1      38.985  19.231  25.281  1.00  0.00     0.163 HD
ATOM     27  O   UNL A   1      41.341  18.838  25.765  1.00  0.00    -0.269 OA
BRANCH  25  28
ATOM     28  C   UNL A   1      41.465  21.035  26.571  1.00  0.00     0.039 A 
ATOM     29  C   UNL A   1      42.047  21.981  25.727  1.00  0.00     0.014 A 
ATOM     30  C   UNL A   1      41.468  21.219  27.956  1.00  0.00     0.014 A 
ATOM     31  C   UNL A   1      42.546  23.168  26.268  1.00  0.00     0.010 A 
ATOM     32  C   UNL A   1      41.879  22.436  28.481  1.00  0.00     0.010 A 
ATOM     33  C   UNL A   1      42.414  23.427  27.641  1.00  0.00    -0.014 A 
BRANCH  33  34
ATOM     34  C   UNL A   1      42.804  24.737  28.223  1.00  0.00     0.031 A 
ATOM     35  C   UNL A   1      41.762  25.792  28.469  1.00  0.00     0.074 A 
ATOM     36  C   UNL A   1      44.105  25.013  28.433  1.00  0.00     0.049 A 
ATOM     37  N   UNL A   1      41.916  27.025  28.881  1.00  0.00    -0.248 NA
ATOM     38  C   UNL A   1      40.369  25.425  28.174  1.00  0.00     0.031 C 
ATOM     39  C   UNL A   1      45.221  24.105  28.160  1.00  0.00     0.029 A 
ATOM     40  N   UNL A   1      44.712  26.149  28.906  1.00  0.00    -0.354 N 
ATOM     41  C   UNL A   1      40.647  27.586  28.866  1.00  0.00     0.074 A 
ATOM     42  C   UNL A   1      39.743  26.578  28.355  1.00  0.00     0.031 C 
ATOM     43  C   UNL A   1      46.373  24.712  28.485  1.00  0.00     0.029 A 
ATOM     44  C   UNL A   1      46.083  26.062  28.957  1.00  0.00     0.049 A 
ATOM     45  H   UNL A   1      44.214  26.951  29.183  1.00  0.00     0.167 HD
ATOM     46  C   UNL A   1      40.264  28.823  29.263  1.00  0.00     0.037 A 
ATOM     47  C   UNL A   1      47.003  26.970  29.333  1.00  0.00     0.037 A 
ATOM     48  C   UNL A   1      41.157  29.808  29.809  1.00  0.00     0.049 A 
ATOM     49  C   UNL A   1      46.553  28.322  29.810  1.00  0.00     0.074 A 
ATOM     50  C   UNL A   1      40.852  31.049  30.340  1.00  0.00     0.029 A 
ATOM     51  N   UNL A   1      42.534  29.665  29.892  1.00  0.00    -0.354 N 
ATOM     52  N   UNL A   1      45.337  28.806  29.885  1.00  0.00    -0.248 NA
ATOM     53  C   UNL A   1      47.600  29.249  30.263  1.00  0.00     0.031 C 
ATOM     54  C   UNL A   1      42.049  31.676  30.702  1.00  0.00     0.029 A 
ATOM     55  C   UNL A   1      43.097  30.807  30.438  1.00  0.00     0.049 A 
ATOM     56  H   UNL A   1      43.037  28.869  29.604  1.00  0.00     0.167 HD
ATOM     57  C   UNL A   1      45.470  30.086  30.406  1.00  0.00     0.074 A 
ATOM     58  C   UNL A   1      46.883  30.296  30.646  1.00  0.00     0.031 C 
ATOM     59  C   UNL A   1      44.505  31.004  30.665  1.00  0.00     0.037 A 
BRANCH  46  60
ATOM     60  C   UNL A   1      38.811  29.171  29.118  1.00  0.00     0.057 A 
ATOM     61  C   UNL A   1      37.920  29.102  30.198  1.00  0.00     0.134 A 
ATOM     62  C   UNL A   1      38.299  29.589  27.884  1.00  0.00     0.134 A 
ATOM     63  F   UNL A   1      38.345  28.696  31.404  1.00  0.00    -0.206 F 
ATOM     64  C   UNL A   1      36.565  29.399  30.047  1.00  0.00     0.040 A 
ATOM     65  C   UNL A   1      36.952  29.917  27.727  1.00  0.00     0.040 A 
ATOM     66  F   UNL A   1      39.097  29.683  26.810  1.00  0.00    -0.206 F 
ATOM     67  C   UNL A   1      36.078  29.813  28.808  1.00  0.00     0.006 A 
ENDBRANCH  46  60
BRANCH  47  68
ATOM     68  C   UNL A   1      48.443  26.614  29.297  1.00  0.00     0.057 A 
ATOM     69  C   UNL A   1      49.219  26.860  28.159  1.00  0.00     0.134 A 
ATOM     70  C   UNL A   1      49.082  26.042  30.403  1.00  0.00     0.134 A 
ATOM     71  F   UNL A   1      48.658  27.390  27.062  1.00  0.00    -0.206 F 
ATOM     72  C   UNL A   1      50.577  26.544  28.118  1.00  0.00     0.040 A 
ATOM     73  C   UNL A   1      50.445  25.740  30.384  1.00  0.00     0.040 A 
ATOM     74  F   UNL A   1      48.395  25.790  31.527  1.00  0.00    -0.206 F 
ATOM     75  C   UNL A   1      51.196  25.988  29.236  1.00  0.00     0.006 A 
ENDBRANCH  47  68
BRANCH  59  76
ATOM     76  C   UNL A   1      44.945  32.314  31.248  1.00  0.00     0.057 A 
ATOM     77  C   UNL A   1      45.078  32.498  32.630  1.00  0.00     0.134 A 
ATOM     78  C   UNL A   1      45.284  33.388  30.416  1.00  0.00     0.134 A 
ATOM     79  F   UNL A   1      44.758  31.511  33.481  1.00  0.00    -0.206 F 
ATOM     80  C   UNL A   1      45.516  33.710  33.164  1.00  0.00     0.040 A 
ATOM     81  C   UNL A   1      45.745  34.597  30.937  1.00  0.00     0.040 A 
ATOM     82  F   UNL A   1      45.186  33.274  29.082  1.00  0.00    -0.206 F 
ATOM     83  C   UNL A   1      45.858  34.762  32.316  1.00  0.00     0.006 A 
ENDBRANCH  59  76
ENDBRANCH  33  34
ENDBRANCH  25  28
ENDBRANCH  23  24
ENDBRANCH  22  23
ENDBRANCH  21  22
ENDBRANCH   1  21
TORSDOF 17
ENDMDL
MODEL 3
REMARK VINA RESULT:     -10.9      0.852      6.356
REMARK SMILES CN(CC1CCC1)C(=O)N(CC(=O)NCCCCNC(=O)c1ccc(-c2c3nc(c(-c4c(F)cccc4F)c4ccc([nH]4)c(-c4c(F)cccc4F)c4nc(c(-c5c(F)cccc5F)c5ccc2[nH]5)C=C4)C=C3)cc1)C(C)(C)C
REMARK SMILES IDX 15 1 14 2 12 3 13 4 11 6 10 7 8 8 9 9 2 10 1 11 3 12 4 13
REMARK SMILES IDX 5 14 7 15 6 16 76 17 77 18 78 19 79 20 16 21 17 22 18 23
REMARK SMILES IDX 19 24 20 25 21 27 22 28 23 29 75 30 24 31 74 32 25 33 26 34
REMARK SMILES IDX 27 35 68 36 28 37 73 38 67 39 69 40 29 41 72 42 66 43 65 44
REMARK SMILES IDX 30 46 56 47 39 48 55 49 40 50 43 51 54 52 70 53 41 54 42 55
REMARK SMILES IDX 53 57 71 58 44 59 31 60 32 61 37 62 33 63 34 64 36 65 38 66
REMARK SMILES IDX 35 67 57 68 58 69 63 70 59 71 60 72 62 73 64 74 61 75 45 76
REMARK SMILES IDX 46 77 51 78 47 79 48 80 50 81 52 82 49 83
REMARK H PARENT 14 5 19 26 69 45 43 56
REMARK Flexibility Score: inf
ROOT
ATOM      1  C   UNL A   1      31.833  29.325  25.597  1.00  0.00     0.116 C 
ENDROOT
BRANCH   1   2
ATOM      2  N   UNL A   1      32.883  29.567  24.633  1.00  0.00    -0.355 N 
ATOM      3  C   UNL A   1      33.463  28.688  23.767  1.00  0.00     0.239 C 
ATOM      4  O   UNL A   1      34.006  29.174  22.767  1.00  0.00    -0.273 OA
ATOM      5  H   UNL A   1      33.224  30.489  24.598  1.00  0.00     0.163 HD
BRANCH   3   6
ATOM      6  C   UNL A   1      33.339  27.154  23.901  1.00  0.00     0.221 C 
BRANCH   6   7
ATOM      7  N   UNL A   1      32.123  26.483  23.420  1.00  0.00    -0.311 N 
BRANCH   7   8
ATOM      8  C   UNL A   1      31.230  26.955  22.458  1.00  0.00     0.320 C 
ATOM      9  O   UNL A   1      31.242  26.436  21.331  1.00  0.00    -0.248 OA
BRANCH   8  10
ATOM     10  N   UNL A   1      30.267  27.934  22.675  1.00  0.00    -0.327 N 
ATOM     11  C   UNL A   1      29.075  27.421  23.365  1.00  0.00     0.148 C 
BRANCH  10  12
ATOM     12  C   UNL A   1      30.129  29.338  22.254  1.00  0.00     0.124 C 
BRANCH  12  13
ATOM     13  C   UNL A   1      28.922  29.937  22.966  1.00  0.00     0.008 C 
ATOM     14  C   UNL A   1      29.094  31.240  23.800  1.00  0.00     0.005 C 
ATOM     15  C   UNL A   1      27.840  30.739  22.173  1.00  0.00     0.005 C 
ATOM     16  C   UNL A   1      27.600  31.517  23.485  1.00  0.00     0.001 C 
ENDBRANCH  12  13
ENDBRANCH  10  12
ENDBRANCH   8  10
ENDBRANCH   7   8
BRANCH   7  17
ATOM     17  C   UNL A   1      31.742  25.192  24.159  1.00  0.00     0.037 C 
ATOM     18  C   UNL A   1      32.979  24.294  24.394  1.00  0.00     0.034 C 
ATOM     19  C   UNL A   1      31.053  25.494  25.514  1.00  0.00     0.034 C 
ATOM     20  C   UNL A   1      30.721  24.292  23.401  1.00  0.00     0.034 C 
ENDBRANCH   7  17
ENDBRANCH   6   7
ENDBRANCH   3   6
ENDBRANCH   1   2
BRANCH   1  21
ATOM     21  C   UNL A   1      31.938  30.137  26.878  1.00  0.00     0.023 C 
BRANCH  21  22
ATOM     22  C   UNL A   1      31.781  31.639  26.686  1.00  0.00     0.023 C 
BRANCH  22  23
ATOM     23  C   UNL A   1      32.908  32.486  27.262  1.00  0.00     0.116 C 
BRANCH  23  24
ATOM     24  N   UNL A   1      32.507  33.848  27.590  1.00  0.00    -0.352 N 
ATOM     25  C   UNL A   1      33.060  34.719  28.505  1.00  0.00     0.251 C 
ATOM     26  H   UNL A   1      31.733  34.194  27.090  1.00  0.00     0.163 HD
ATOM     27  O   UNL A   1      32.545  35.800  28.735  1.00  0.00    -0.269 OA
BRANCH  25  28
ATOM     28  C   UNL A   1      34.272  34.298  29.239  1.00  0.00     0.039 A 
ATOM     29  C   UNL A   1      34.127  33.618  30.449  1.00  0.00     0.014 A 
ATOM     30  C   UNL A   1      35.537  34.494  28.680  1.00  0.00     0.014 A 
ATOM     31  C   UNL A   1      35.248  33.042  31.050  1.00  0.00     0.010 A 
ATOM     32  C   UNL A   1      36.633  33.844  29.229  1.00  0.00     0.010 A 
ATOM     33  C   UNL A   1      36.499  33.103  30.415  1.00  0.00    -0.014 A 
BRANCH  33  34
ATOM     34  C   UNL A   1      37.678  32.381  30.956  1.00  0.00     0.031 A 
ATOM     35  C   UNL A   1      38.370  32.886  32.191  1.00  0.00     0.074 A 
ATOM     36  C   UNL A   1      38.187  31.333  30.280  1.00  0.00     0.049 A 
ATOM     37  N   UNL A   1      39.465  32.451  32.761  1.00  0.00    -0.248 NA
ATOM     38  C   UNL A   1      37.776  34.061  32.847  1.00  0.00     0.031 C 
ATOM     39  C   UNL A   1      37.657  30.794  29.026  1.00  0.00     0.029 A 
ATOM     40  N   UNL A   1      39.280  30.546  30.542  1.00  0.00    -0.354 N 
ATOM     41  C   UNL A   1      39.704  33.315  33.821  1.00  0.00     0.074 A 
ATOM     42  C   UNL A   1      38.672  34.328  33.784  1.00  0.00     0.031 C 
ATOM     43  C   UNL A   1      38.414  29.756  28.638  1.00  0.00     0.029 A 
ATOM     44  C   UNL A   1      39.502  29.577  29.594  1.00  0.00     0.049 A 
ATOM     45  H   UNL A   1      39.852  30.665  31.334  1.00  0.00     0.167 HD
ATOM     46  C   UNL A   1      40.682  33.256  34.756  1.00  0.00     0.037 A 
ATOM     47  C   UNL A   1      40.476  28.652  29.501  1.00  0.00     0.037 A 
ATOM     48  C   UNL A   1      41.681  32.224  34.816  1.00  0.00     0.049 A 
ATOM     49  C   UNL A   1      41.528  28.579  30.572  1.00  0.00     0.074 A 
ATOM     50  C   UNL A   1      42.648  32.015  35.783  1.00  0.00     0.029 A 
ATOM     51  N   UNL A   1      41.844  31.228  33.865  1.00  0.00    -0.354 N 
ATOM     52  N   UNL A   1      41.684  29.342  31.626  1.00  0.00    -0.248 NA
ATOM     53  C   UNL A   1      42.530  27.511  30.446  1.00  0.00     0.031 C 
ATOM     54  C   UNL A   1      43.425  30.919  35.394  1.00  0.00     0.029 A 
ATOM     55  C   UNL A   1      42.914  30.417  34.207  1.00  0.00     0.049 A 
ATOM     56  H   UNL A   1      41.282  31.114  33.064  1.00  0.00     0.167 HD
ATOM     57  C   UNL A   1      42.792  28.840  32.297  1.00  0.00     0.074 A 
ATOM     58  C   UNL A   1      43.256  27.696  31.539  1.00  0.00     0.031 C 
ATOM     59  C   UNL A   1      43.369  29.286  33.440  1.00  0.00     0.037 A 
BRANCH  46  60
ATOM     60  C   UNL A   1      40.710  34.345  35.789  1.00  0.00     0.057 A 
ATOM     61  C   UNL A   1      41.491  35.498  35.630  1.00  0.00     0.134 A 
ATOM     62  C   UNL A   1      39.940  34.242  36.953  1.00  0.00     0.134 A 
ATOM     63  F   UNL A   1      42.263  35.652  34.543  1.00  0.00    -0.206 F 
ATOM     64  C   UNL A   1      41.534  36.492  36.609  1.00  0.00     0.040 A 
ATOM     65  C   UNL A   1      39.952  35.242  37.927  1.00  0.00     0.040 A 
ATOM     66  F   UNL A   1      39.166  33.167  37.167  1.00  0.00    -0.206 F 
ATOM     67  C   UNL A   1      40.759  36.367  37.760  1.00  0.00     0.006 A 
ENDBRANCH  46  60
BRANCH  47  68
ATOM     68  C   UNL A   1      40.482  27.705  28.358  1.00  0.00     0.057 A 
ATOM     69  C   UNL A   1      41.165  28.007  27.175  1.00  0.00     0.134 A 
ATOM     70  C   UNL A   1      39.829  26.470  28.431  1.00  0.00     0.134 A 
ATOM     71  F   UNL A   1      41.795  29.183  27.040  1.00  0.00    -0.206 F 
ATOM     72  C   UNL A   1      41.191  27.118  26.099  1.00  0.00     0.040 A 
ATOM     73  C   UNL A   1      39.864  25.561  27.371  1.00  0.00     0.040 A 
ATOM     74  F   UNL A   1      39.165  26.119  29.542  1.00  0.00    -0.206 F 
ATOM     75  C   UNL A   1      40.544  25.888  26.199  1.00  0.00     0.006 A 
ENDBRANCH  47  68
BRANCH  59  76
ATOM     76  C   UNL A   1      44.560  28.529  33.947  1.00  0.00     0.057 A 
ATOM     77  C   UNL A   1      45.868  28.908  33.620  1.00  0.00     0.134 A 
ATOM     78  C   UNL A   1      44.398  27.438  34.809  1.00  0.00     0.134 A 
ATOM     79  F   UNL A   1      46.090  29.938  32.790  1.00  0.00    -0.206 F 
ATOM     80  C   UNL A   1      46.972  28.217  34.120  1.00  0.00     0.040 A 
ATOM     81  C   UNL A   1      45.495  26.753  35.333  1.00  0.00     0.040 A 
ATOM     82  F   UNL A   1      43.171  27.028  35.167  1.00  0.00    -0.206 F 
ATOM     83  C   UNL A   1      46.787  27.140  34.986  1.00  0.00     0.006 A 
ENDBRANCH  59  76
ENDBRANCH  33  34
ENDBRANCH  25  28
ENDBRANCH  23  24
ENDBRANCH  22  23
ENDBRANCH  21  22
ENDBRANCH   1  21
TORSDOF 17
ENDMDL
