MODEL 1
REMARK VINA RESULT:     -11.9      0.000      0.000
REMARK SMILES CCc1cccc2c3c([nH]c12)[C@](CC)(CC(=O)NCCCCNC(=O)c1ccc(-c2c4nc(c(-c5c(F)cccc5F)c5ccc([nH]5)c(-c5c(F)cccc5F)c5nc(c(-c6c(F)cccc6F)c6ccc2[nH]6)C=C5)C=C4)cc1)OCC3
REMARK SMILES IDX 20 1 19 2 18 3 16 4 17 5 15 7 12 8 3 9 4 10 11 11 5 12 7 13
REMARK SMILES IDX 10 14 6 15 8 16 9 17 82 19 81 20 80 21 2 22 1 23 13 24 14 25
REMARK SMILES IDX 21 26 22 27 23 28 24 29 25 31 26 32 27 33 79 34 28 35 78 36
REMARK SMILES IDX 29 37 30 38 31 39 72 40 32 41 77 42 71 43 73 44 33 45 76 46
REMARK SMILES IDX 70 47 69 48 34 50 60 51 43 52 59 53 44 54 47 55 58 56 74 57
REMARK SMILES IDX 45 58 46 59 57 61 75 62 48 63 35 64 36 65 41 66 37 67 38 68
REMARK SMILES IDX 40 69 42 70 39 71 61 72 62 73 67 74 63 75 64 76 66 77 68 78
REMARK SMILES IDX 65 79 49 80 50 81 55 82 51 83 52 84 54 85 56 86 53 87
REMARK H PARENT 18 6 10 18 23 30 73 49 47 60
REMARK Flexibility Score: inf
ROOT
ATOM      1  C   UNL A   1      38.696  23.254  26.527  1.00  0.00     0.023 C 
ENDROOT
BRANCH   1   2
ATOM      2  C   UNL A   1      37.346  23.699  25.938  1.00  0.00     0.116 C 
BRANCH   2   3
ATOM      3  N   UNL A   1      37.234  23.599  24.487  1.00  0.00    -0.356 N 
ATOM      4  C   UNL A   1      36.344  22.942  23.680  1.00  0.00     0.223 C 
ATOM      5  O   UNL A   1      36.518  23.021  22.461  1.00  0.00    -0.275 OA
ATOM      6  H   UNL A   1      37.927  24.096  23.997  1.00  0.00     0.163 HD
BRANCH   4   7
ATOM      7  C   UNL A   1      35.157  22.201  24.255  1.00  0.00     0.142 C 
BRANCH   7   8
ATOM      8  C   UNL A   1      33.772  22.895  24.315  1.00  0.00     0.117 C 
ATOM      9  C   UNL A   1      33.687  27.868  25.356  1.00  0.00    -0.024 A 
ATOM     10  C   UNL A   1      33.525  28.998  24.524  1.00  0.00     0.006 A 
ATOM     11  C   UNL A   1      33.763  26.621  24.703  1.00  0.00     0.049 A 
ATOM     12  C   UNL A   1      33.442  28.897  23.137  1.00  0.00     0.001 A 
ATOM     13  C   UNL A   1      33.632  26.503  23.321  1.00  0.00     0.003 A 
ATOM     14  N   UNL A   1      33.917  25.334  25.199  1.00  0.00    -0.356 N 
ATOM     15  C   UNL A   1      33.483  27.651  22.524  1.00  0.00     0.010 A 
ATOM     16  C   UNL A   1      33.574  25.123  23.038  1.00  0.00    -0.014 A 
ATOM     17  C   UNL A   1      33.817  24.407  24.189  1.00  0.00     0.052 A 
ATOM     18  H   UNL A   1      34.078  25.115  26.146  1.00  0.00     0.166 HD
ATOM     19  C   UNL A   1      33.164  24.487  21.782  1.00  0.00     0.066 C 
ATOM     20  C   UNL A   1      33.056  22.984  21.959  1.00  0.00     0.166 C 
ATOM     21  O   UNL A   1      32.855  22.459  23.285  1.00  0.00    -0.368 OA
BRANCH   9  22
ATOM     22  C   UNL A   1      33.687  28.046  26.853  1.00  0.00     0.034 C 
ATOM     23  C   UNL A   1      34.476  29.261  27.310  1.00  0.00     0.009 C 
ENDBRANCH   9  22
BRANCH   8  24
ATOM     24  C   UNL A   1      33.084  22.509  25.669  1.00  0.00     0.039 C 
ATOM     25  C   UNL A   1      31.798  21.687  25.557  1.00  0.00     0.007 C 
ENDBRANCH   8  24
ENDBRANCH   7   8
ENDBRANCH   4   7
ENDBRANCH   2   3
ENDBRANCH   1   2
BRANCH   1  26
ATOM     26  C   UNL A   1      39.221  21.863  26.114  1.00  0.00     0.023 C 
BRANCH  26  27
ATOM     27  C   UNL A   1      40.543  21.486  26.764  1.00  0.00     0.116 C 
BRANCH  27  28
ATOM     28  N   UNL A   1      41.666  21.870  25.936  1.00  0.00    -0.352 N 
ATOM     29  C   UNL A   1      42.298  23.038  25.641  1.00  0.00     0.251 C 
ATOM     30  H   UNL A   1      42.071  21.099  25.477  1.00  0.00     0.163 HD
ATOM     31  O   UNL A   1      43.153  22.955  24.742  1.00  0.00    -0.269 OA
BRANCH  29  32
ATOM     32  C   UNL A   1      42.061  24.367  26.267  1.00  0.00     0.039 A 
ATOM     33  C   UNL A   1      41.401  25.456  25.695  1.00  0.00     0.014 A 
ATOM     34  C   UNL A   1      42.558  24.506  27.580  1.00  0.00     0.014 A 
ATOM     35  C   UNL A   1      41.280  26.656  26.402  1.00  0.00     0.010 A 
ATOM     36  C   UNL A   1      42.427  25.692  28.292  1.00  0.00     0.010 A 
ATOM     37  C   UNL A   1      41.814  26.784  27.691  1.00  0.00    -0.014 A 
BRANCH  37  38
ATOM     38  C   UNL A   1      41.624  28.040  28.413  1.00  0.00     0.031 A 
ATOM     39  C   UNL A   1      42.662  29.083  28.158  1.00  0.00     0.074 A 
ATOM     40  C   UNL A   1      40.547  28.323  29.176  1.00  0.00     0.049 A 
ATOM     41  N   UNL A   1      43.515  29.574  28.998  1.00  0.00    -0.248 NA
ATOM     42  C   UNL A   1      42.841  29.564  26.781  1.00  0.00     0.031 C 
ATOM     43  C   UNL A   1      39.311  27.552  29.335  1.00  0.00     0.029 A 
ATOM     44  N   UNL A   1      40.309  29.434  29.930  1.00  0.00    -0.354 N 
ATOM     45  C   UNL A   1      44.239  30.543  28.305  1.00  0.00     0.074 A 
ATOM     46  C   UNL A   1      43.865  30.410  26.921  1.00  0.00     0.031 C 
ATOM     47  C   UNL A   1      38.382  28.315  29.959  1.00  0.00     0.029 A 
ATOM     48  C   UNL A   1      38.998  29.565  30.369  1.00  0.00     0.049 A 
ATOM     49  H   UNL A   1      41.011  30.090  30.147  1.00  0.00     0.167 HD
ATOM     50  C   UNL A   1      44.960  31.499  28.955  1.00  0.00     0.037 A 
ATOM     51  C   UNL A   1      38.451  30.639  30.993  1.00  0.00     0.037 A 
ATOM     52  C   UNL A   1      45.172  31.152  30.334  1.00  0.00     0.049 A 
ATOM     53  C   UNL A   1      39.560  31.429  31.580  1.00  0.00     0.074 A 
ATOM     54  C   UNL A   1      45.825  30.133  30.997  1.00  0.00     0.029 A 
ATOM     55  N   UNL A   1      44.373  31.755  31.274  1.00  0.00    -0.354 N 
ATOM     56  N   UNL A   1      40.280  31.029  32.589  1.00  0.00    -0.248 NA
ATOM     57  C   UNL A   1      40.156  32.474  30.762  1.00  0.00     0.031 C 
ATOM     58  C   UNL A   1      45.021  29.868  32.144  1.00  0.00     0.029 A 
ATOM     59  C   UNL A   1      43.960  30.774  32.135  1.00  0.00     0.049 A 
ATOM     60  H   UNL A   1      44.142  32.711  31.320  1.00  0.00     0.167 HD
ATOM     61  C   UNL A   1      41.570  31.435  32.282  1.00  0.00     0.074 A 
ATOM     62  C   UNL A   1      41.417  32.400  31.195  1.00  0.00     0.031 C 
ATOM     63  C   UNL A   1      42.652  30.743  32.742  1.00  0.00     0.037 A 
BRANCH  50  64
ATOM     64  C   UNL A   1      45.170  32.911  28.466  1.00  0.00     0.057 A 
ATOM     65  C   UNL A   1      46.367  33.365  27.880  1.00  0.00     0.134 A 
ATOM     66  C   UNL A   1      44.050  33.741  28.262  1.00  0.00     0.134 A 
ATOM     67  F   UNL A   1      47.504  32.662  27.941  1.00  0.00    -0.206 F 
ATOM     68  C   UNL A   1      46.432  34.524  27.102  1.00  0.00     0.040 A 
ATOM     69  C   UNL A   1      44.095  34.877  27.445  1.00  0.00     0.040 A 
ATOM     70  F   UNL A   1      42.852  33.422  28.776  1.00  0.00    -0.206 F 
ATOM     71  C   UNL A   1      45.287  35.262  26.847  1.00  0.00     0.006 A 
ENDBRANCH  50  64
BRANCH  51  72
ATOM     72  C   UNL A   1      37.071  31.164  30.898  1.00  0.00     0.057 A 
ATOM     73  C   UNL A   1      36.566  31.660  29.682  1.00  0.00     0.134 A 
ATOM     74  C   UNL A   1      36.311  31.451  32.041  1.00  0.00     0.134 A 
ATOM     75  F   UNL A   1      37.249  31.512  28.539  1.00  0.00    -0.206 F 
ATOM     76  C   UNL A   1      35.385  32.405  29.609  1.00  0.00     0.040 A 
ATOM     77  C   UNL A   1      35.128  32.203  31.982  1.00  0.00     0.040 A 
ATOM     78  F   UNL A   1      36.731  31.062  33.253  1.00  0.00    -0.206 F 
ATOM     79  C   UNL A   1      34.668  32.692  30.764  1.00  0.00     0.006 A 
ENDBRANCH  51  72
BRANCH  63  80
ATOM     80  C   UNL A   1      42.418  29.687  33.782  1.00  0.00     0.057 A 
ATOM     81  C   UNL A   1      42.091  28.392  33.365  1.00  0.00     0.134 A 
ATOM     82  C   UNL A   1      42.351  29.947  35.159  1.00  0.00     0.134 A 
ATOM     83  F   UNL A   1      42.075  28.088  32.058  1.00  0.00    -0.206 F 
ATOM     84  C   UNL A   1      41.724  27.398  34.273  1.00  0.00     0.040 A 
ATOM     85  C   UNL A   1      42.017  28.953  36.081  1.00  0.00     0.040 A 
ATOM     86  F   UNL A   1      42.548  31.181  35.641  1.00  0.00    -0.206 F 
ATOM     87  C   UNL A   1      41.695  27.673  35.638  1.00  0.00     0.006 A 
ENDBRANCH  63  80
ENDBRANCH  37  38
ENDBRANCH  29  32
ENDBRANCH  27  28
ENDBRANCH  26  27
ENDBRANCH   1  26
TORSDOF 14
ENDMDL
MODEL 2
REMARK VINA RESULT:     -11.6      4.613     10.427
REMARK SMILES CCc1cccc2c3c([nH]c12)[C@](CC)(CC(=O)NCCCCNC(=O)c1ccc(-c2c4nc(c(-c5c(F)cccc5F)c5ccc([nH]5)c(-c5c(F)cccc5F)c5nc(c(-c6c(F)cccc6F)c6ccc2[nH]6)C=C5)C=C4)cc1)OCC3
REMARK SMILES IDX 20 1 19 2 18 3 16 4 17 5 15 7 12 8 3 9 4 10 11 11 5 12 7 13
REMARK SMILES IDX 10 14 6 15 8 16 9 17 82 19 81 20 80 21 2 22 1 23 13 24 14 25
REMARK SMILES IDX 21 26 22 27 23 28 24 29 25 31 26 32 27 33 79 34 28 35 78 36
REMARK SMILES IDX 29 37 30 38 31 39 72 40 32 41 77 42 71 43 73 44 33 45 76 46
REMARK SMILES IDX 70 47 69 48 34 50 60 51 43 52 59 53 44 54 47 55 58 56 74 57
REMARK SMILES IDX 45 58 46 59 57 61 75 62 48 63 35 64 36 65 41 66 37 67 38 68
REMARK SMILES IDX 40 69 42 70 39 71 61 72 62 73 67 74 63 75 64 76 66 77 68 78
REMARK SMILES IDX 65 79 49 80 50 81 55 82 51 83 52 84 54 85 56 86 53 87
REMARK H PARENT 18 6 10 18 23 30 73 49 47 60
REMARK Flexibility Score: inf
ROOT
ATOM      1  C   UNL A   1      35.549  32.695  33.028  1.00  0.00     0.023 C 
ENDROOT
BRANCH   1   2
ATOM      2  C   UNL A   1      36.561  31.563  32.781  1.00  0.00     0.116 C 
BRANCH   2   3
ATOM      3  N   UNL A   1      37.502  31.320  33.868  1.00  0.00    -0.356 N 
ATOM      4  C   UNL A   1      38.865  31.421  33.939  1.00  0.00     0.223 C 
ATOM      5  O   UNL A   1      39.402  31.120  35.009  1.00  0.00    -0.275 OA
ATOM      6  H   UNL A   1      37.078  31.028  34.707  1.00  0.00     0.163 HD
BRANCH   4   7
ATOM      7  C   UNL A   1      39.678  31.944  32.775  1.00  0.00     0.142 C 
BRANCH   7   8
ATOM      8  C   UNL A   1      40.123  33.429  32.752  1.00  0.00     0.117 C 
ATOM      9  C   UNL A   1      43.670  34.759  29.366  1.00  0.00    -0.024 A 
ATOM     10  C   UNL A   1      43.576  35.414  28.116  1.00  0.00     0.006 A 
ATOM     11  C   UNL A   1      42.449  34.455  30.001  1.00  0.00     0.049 A 
ATOM     12  C   UNL A   1      42.354  35.745  27.538  1.00  0.00     0.001 A 
ATOM     13  C   UNL A   1      41.221  34.825  29.455  1.00  0.00     0.003 A 
ATOM     14  N   UNL A   1      42.175  33.831  31.209  1.00  0.00    -0.356 N 
ATOM     15  C   UNL A   1      41.167  35.465  28.205  1.00  0.00     0.010 A 
ATOM     16  C   UNL A   1      40.244  34.532  30.427  1.00  0.00    -0.014 A 
ATOM     17  C   UNL A   1      40.827  33.858  31.477  1.00  0.00     0.052 A 
ATOM     18  H   UNL A   1      42.854  33.422  31.795  1.00  0.00     0.166 HD
ATOM     19  C   UNL A   1      38.849  34.984  30.454  1.00  0.00     0.066 C 
ATOM     20  C   UNL A   1      38.194  34.606  31.770  1.00  0.00     0.166 C 
ATOM     21  O   UNL A   1      39.034  34.367  32.915  1.00  0.00    -0.368 OA
BRANCH   9  22
ATOM     22  C   UNL A   1      45.029  34.505  29.967  1.00  0.00     0.034 C 
ATOM     23  C   UNL A   1      46.090  35.475  29.475  1.00  0.00     0.009 C 
ENDBRANCH   9  22
BRANCH   8  24
ATOM     24  C   UNL A   1      41.069  33.681  33.975  1.00  0.00     0.039 C 
ATOM     25  C   UNL A   1      41.438  35.141  34.248  1.00  0.00     0.007 C 
ENDBRANCH   8  24
ENDBRANCH   7   8
ENDBRANCH   4   7
ENDBRANCH   2   3
ENDBRANCH   1   2
BRANCH   1  26
ATOM     26  C   UNL A   1      34.400  32.850  32.009  1.00  0.00     0.023 C 
BRANCH  26  27
ATOM     27  C   UNL A   1      34.793  33.598  30.745  1.00  0.00     0.116 C 
BRANCH  27  28
ATOM     28  N   UNL A   1      34.392  32.876  29.557  1.00  0.00    -0.352 N 
ATOM     29  C   UNL A   1      34.988  31.989  28.715  1.00  0.00     0.251 C 
ATOM     30  H   UNL A   1      33.464  33.074  29.296  1.00  0.00     0.163 HD
ATOM     31  O   UNL A   1      34.329  31.713  27.698  1.00  0.00    -0.269 OA
BRANCH  29  32
ATOM     32  C   UNL A   1      36.320  31.347  28.887  1.00  0.00     0.039 A 
ATOM     33  C   UNL A   1      37.527  31.987  29.173  1.00  0.00     0.014 A 
ATOM     34  C   UNL A   1      36.328  29.942  28.754  1.00  0.00     0.014 A 
ATOM     35  C   UNL A   1      38.708  31.246  29.279  1.00  0.00     0.010 A 
ATOM     36  C   UNL A   1      37.496  29.201  28.874  1.00  0.00     0.010 A 
ATOM     37  C   UNL A   1      38.699  29.856  29.106  1.00  0.00    -0.014 A 
BRANCH  37  38
ATOM     38  C   UNL A   1      39.947  29.115  29.272  1.00  0.00     0.031 A 
ATOM     39  C   UNL A   1      40.354  28.864  30.687  1.00  0.00     0.074 A 
ATOM     40  C   UNL A   1      40.654  28.579  28.255  1.00  0.00     0.049 A 
ATOM     41  N   UNL A   1      41.394  29.323  31.305  1.00  0.00    -0.248 NA
ATOM     42  C   UNL A   1      39.442  28.096  31.547  1.00  0.00     0.031 C 
ATOM     43  C   UNL A   1      40.291  28.482  26.839  1.00  0.00     0.029 A 
ATOM     44  N   UNL A   1      41.851  27.927  28.305  1.00  0.00    -0.354 N 
ATOM     45  C   UNL A   1      41.362  28.778  32.588  1.00  0.00     0.074 A 
ATOM     46  C   UNL A   1      40.082  28.130  32.719  1.00  0.00     0.031 C 
ATOM     47  C   UNL A   1      41.139  27.633  26.213  1.00  0.00     0.029 A 
ATOM     48  C   UNL A   1      42.185  27.242  27.143  1.00  0.00     0.049 A 
ATOM     49  H   UNL A   1      42.433  27.941  29.099  1.00  0.00     0.167 HD
ATOM     50  C   UNL A   1      42.469  28.751  33.382  1.00  0.00     0.037 A 
ATOM     51  C   UNL A   1      43.226  26.389  26.971  1.00  0.00     0.037 A 
ATOM     52  C   UNL A   1      43.484  29.650  32.901  1.00  0.00     0.049 A 
ATOM     53  C   UNL A   1      44.225  26.682  28.026  1.00  0.00     0.074 A 
ATOM     54  C   UNL A   1      43.577  31.016  32.724  1.00  0.00     0.029 A 
ATOM     55  N   UNL A   1      44.530  29.111  32.194  1.00  0.00    -0.354 N 
ATOM     56  N   UNL A   1      44.938  27.772  28.065  1.00  0.00    -0.248 NA
ATOM     57  C   UNL A   1      44.117  25.961  29.285  1.00  0.00     0.031 C 
ATOM     58  C   UNL A   1      44.352  31.180  31.539  1.00  0.00     0.029 A 
ATOM     59  C   UNL A   1      44.724  29.908  31.099  1.00  0.00     0.049 A 
ATOM     60  H   UNL A   1      45.043  28.305  32.431  1.00  0.00     0.167 HD
ATOM     61  C   UNL A   1      44.993  28.107  29.410  1.00  0.00     0.074 A 
ATOM     62  C   UNL A   1      44.552  26.908  30.120  1.00  0.00     0.031 C 
ATOM     63  C   UNL A   1      45.118  29.406  29.805  1.00  0.00     0.037 A 
BRANCH  50  64
ATOM     64  C   UNL A   1      42.798  27.667  34.379  1.00  0.00     0.057 A 
ATOM     65  C   UNL A   1      42.449  27.726  35.741  1.00  0.00     0.134 A 
ATOM     66  C   UNL A   1      43.166  26.391  33.909  1.00  0.00     0.134 A 
ATOM     67  F   UNL A   1      42.028  28.856  36.323  1.00  0.00    -0.206 F 
ATOM     68  C   UNL A   1      42.412  26.594  36.560  1.00  0.00     0.040 A 
ATOM     69  C   UNL A   1      43.085  25.244  34.708  1.00  0.00     0.040 A 
ATOM     70  F   UNL A   1      43.527  26.204  32.630  1.00  0.00    -0.206 F 
ATOM     71  C   UNL A   1      42.690  25.342  36.035  1.00  0.00     0.006 A 
ENDBRANCH  50  64
BRANCH  51  72
ATOM     72  C   UNL A   1      43.301  25.176  26.126  1.00  0.00     0.057 A 
ATOM     73  C   UNL A   1      42.513  24.046  26.407  1.00  0.00     0.134 A 
ATOM     74  C   UNL A   1      44.337  24.986  25.200  1.00  0.00     0.134 A 
ATOM     75  F   UNL A   1      41.546  24.091  27.334  1.00  0.00    -0.206 F 
ATOM     76  C   UNL A   1      42.747  22.801  25.814  1.00  0.00     0.040 A 
ATOM     77  C   UNL A   1      44.586  23.742  24.602  1.00  0.00     0.040 A 
ATOM     78  F   UNL A   1      45.174  25.990  24.899  1.00  0.00    -0.206 F 
ATOM     79  C   UNL A   1      43.796  22.642  24.917  1.00  0.00     0.006 A 
ENDBRANCH  51  72
BRANCH  63  80
ATOM     80  C   UNL A   1      45.440  30.430  28.756  1.00  0.00     0.057 A 
ATOM     81  C   UNL A   1      46.753  30.900  28.654  1.00  0.00     0.134 A 
ATOM     82  C   UNL A   1      44.473  31.069  27.964  1.00  0.00     0.134 A 
ATOM     83  F   UNL A   1      47.719  30.376  29.426  1.00  0.00    -0.206 F 
ATOM     84  C   UNL A   1      47.095  31.949  27.800  1.00  0.00     0.040 A 
ATOM     85  C   UNL A   1      44.807  32.098  27.081  1.00  0.00     0.040 A 
ATOM     86  F   UNL A   1      43.175  30.756  28.069  1.00  0.00    -0.206 F 
ATOM     87  C   UNL A   1      46.122  32.546  27.001  1.00  0.00     0.006 A 
ENDBRANCH  63  80
ENDBRANCH  37  38
ENDBRANCH  29  32
ENDBRANCH  27  28
ENDBRANCH  26  27
ENDBRANCH   1  26
TORSDOF 14
ENDMDL
MODEL 3
REMARK VINA RESULT:     -11.6      2.556      7.741
REMARK SMILES CCc1cccc2c3c([nH]c12)[C@](CC)(CC(=O)NCCCCNC(=O)c1ccc(-c2c4nc(c(-c5c(F)cccc5F)c5ccc([nH]5)c(-c5c(F)cccc5F)c5nc(c(-c6c(F)cccc6F)c6ccc2[nH]6)C=C5)C=C4)cc1)OCC3
REMARK SMILES IDX 20 1 19 2 18 3 16 4 17 5 15 7 12 8 3 9 4 10 11 11 5 12 7 13
REMARK SMILES IDX 10 14 6 15 8 16 9 17 82 19 81 20 80 21 2 22 1 23 13 24 14 25
REMARK SMILES IDX 21 26 22 27 23 28 24 29 25 31 26 32 27 33 79 34 28 35 78 36
REMARK SMILES IDX 29 37 30 38 31 39 72 40 32 41 77 42 71 43 73 44 33 45 76 46
REMARK SMILES IDX 70 47 69 48 34 50 60 51 43 52 59 53 44 54 47 55 58 56 74 57
REMARK SMILES IDX 45 58 46 59 57 61 75 62 48 63 35 64 36 65 41 66 37 67 38 68
REMARK SMILES IDX 40 69 42 70 39 71 61 72 62 73 67 74 63 75 64 76 66 77 68 78
REMARK SMILES IDX 65 79 49 80 50 81 55 82 51 83 52 84 54 85 56 86 53 87
REMARK H PARENT 18 6 10 18 23 30 73 49 47 60
REMARK Flexibility Score: inf
ROOT
ATOM      1  C   UNL A   1      31.842  28.309  27.198  1.00  0.00     0.023 C 
ENDROOT
BRANCH   1   2
ATOM      2  C   UNL A   1      31.361  27.099  26.378  1.00  0.00     0.116 C 
BRANCH   2   3
ATOM      3  N   UNL A   1      31.573  25.798  27.002  1.00  0.00    -0.356 N 
ATOM      4  C   UNL A   1      31.442  24.521  26.525  1.00  0.00     0.223 C 
ATOM      5  O   UNL A   1      31.672  23.596  27.309  1.00  0.00    -0.275 OA
ATOM      6  H   UNL A   1      31.867  25.847  27.940  1.00  0.00     0.163 HD
BRANCH   4   7
ATOM      7  C   UNL A   1      31.090  24.253  25.078  1.00  0.00     0.142 C 
BRANCH   7   8
ATOM      8  C   UNL A   1      32.219  24.122  24.023  1.00  0.00     0.117 C 
ATOM      9  C   UNL A   1      36.882  23.011  25.708  1.00  0.00    -0.024 A 
ATOM     10  C   UNL A   1      37.609  21.799  25.727  1.00  0.00     0.006 A 
ATOM     11  C   UNL A   1      35.551  22.930  25.251  1.00  0.00     0.049 A 
ATOM     12  C   UNL A   1      37.053  20.590  25.318  1.00  0.00     0.001 A 
ATOM     13  C   UNL A   1      35.000  21.735  24.794  1.00  0.00     0.003 A 
ATOM     14  N   UNL A   1      34.572  23.902  25.104  1.00  0.00    -0.356 N 
ATOM     15  C   UNL A   1      35.750  20.547  24.838  1.00  0.00     0.010 A 
ATOM     16  C   UNL A   1      33.738  22.055  24.252  1.00  0.00    -0.014 A 
ATOM     17  C   UNL A   1      33.451  23.377  24.505  1.00  0.00     0.052 A 
ATOM     18  H   UNL A   1      34.667  24.840  25.390  1.00  0.00     0.166 HD
ATOM     19  C   UNL A   1      32.892  21.210  23.404  1.00  0.00     0.066 C 
ATOM     20  C   UNL A   1      31.710  22.001  22.877  1.00  0.00     0.166 C 
ATOM     21  O   UNL A   1      31.813  23.436  22.816  1.00  0.00    -0.368 OA
BRANCH   9  22
ATOM     22  C   UNL A   1      37.575  24.295  26.087  1.00  0.00     0.034 C 
ATOM     23  C   UNL A   1      38.892  24.071  26.810  1.00  0.00     0.009 C 
ENDBRANCH   9  22
BRANCH   8  24
ATOM     24  C   UNL A   1      32.632  25.561  23.561  1.00  0.00     0.039 C 
ATOM     25  C   UNL A   1      33.178  25.675  22.135  1.00  0.00     0.007 C 
ENDBRANCH   8  24
ENDBRANCH   7   8
ENDBRANCH   4   7
ENDBRANCH   2   3
ENDBRANCH   1   2
BRANCH   1  26
ATOM     26  C   UNL A   1      31.971  29.657  26.458  1.00  0.00     0.023 C 
BRANCH  26  27
ATOM     27  C   UNL A   1      33.404  30.139  26.299  1.00  0.00     0.116 C 
BRANCH  27  28
ATOM     28  N   UNL A   1      33.687  31.253  27.179  1.00  0.00    -0.352 N 
ATOM     29  C   UNL A   1      34.653  31.546  28.091  1.00  0.00     0.251 C 
ATOM     30  H   UNL A   1      33.019  31.972  27.096  1.00  0.00     0.163 HD
ATOM     31  O   UNL A   1      34.443  32.573  28.760  1.00  0.00    -0.269 OA
BRANCH  29  32
ATOM     32  C   UNL A   1      35.895  30.771  28.361  1.00  0.00     0.039 A 
ATOM     33  C   UNL A   1      36.053  29.387  28.271  1.00  0.00     0.014 A 
ATOM     34  C   UNL A   1      37.014  31.546  28.732  1.00  0.00     0.014 A 
ATOM     35  C   UNL A   1      37.282  28.798  28.585  1.00  0.00     0.010 A 
ATOM     36  C   UNL A   1      38.240  30.966  29.029  1.00  0.00     0.010 A 
ATOM     37  C   UNL A   1      38.369  29.584  28.988  1.00  0.00    -0.014 A 
BRANCH  37  38
ATOM     38  C   UNL A   1      39.649  28.932  29.260  1.00  0.00     0.031 A 
ATOM     39  C   UNL A   1      40.021  28.841  30.703  1.00  0.00     0.074 A 
ATOM     40  C   UNL A   1      40.417  28.343  28.319  1.00  0.00     0.049 A 
ATOM     41  N   UNL A   1      41.015  29.413  31.303  1.00  0.00    -0.248 NA
ATOM     42  C   UNL A   1      39.124  28.107  31.608  1.00  0.00     0.031 C 
ATOM     43  C   UNL A   1      40.106  28.092  26.910  1.00  0.00     0.029 A 
ATOM     44  N   UNL A   1      41.645  27.766  28.465  1.00  0.00    -0.354 N 
ATOM     45  C   UNL A   1      40.970  28.991  32.631  1.00  0.00     0.074 A 
ATOM     46  C   UNL A   1      39.722  28.289  32.788  1.00  0.00     0.031 C 
ATOM     47  C   UNL A   1      41.018  27.235  26.393  1.00  0.00     0.029 A 
ATOM     48  C   UNL A   1      42.052  26.994  27.385  1.00  0.00     0.049 A 
ATOM     49  H   UNL A   1      42.198  27.888  29.270  1.00  0.00     0.167 HD
ATOM     50  C   UNL A   1      42.050  29.102  33.454  1.00  0.00     0.037 A 
ATOM     51  C   UNL A   1      43.142  26.188  27.325  1.00  0.00     0.037 A 
ATOM     52  C   UNL A   1      43.031  30.006  32.917  1.00  0.00     0.049 A 
ATOM     53  C   UNL A   1      44.089  26.635  28.374  1.00  0.00     0.074 A 
ATOM     54  C   UNL A   1      43.057  31.352  32.612  1.00  0.00     0.029 A 
ATOM     55  N   UNL A   1      44.127  29.462  32.295  1.00  0.00    -0.354 N 
ATOM     56  N   UNL A   1      44.742  27.762  28.327  1.00  0.00    -0.248 NA
ATOM     57  C   UNL A   1      43.977  26.032  29.693  1.00  0.00     0.031 C 
ATOM     58  C   UNL A   1      43.861  31.446  31.438  1.00  0.00     0.029 A 
ATOM     59  C   UNL A   1      44.314  30.161  31.133  1.00  0.00     0.049 A 
ATOM     60  H   UNL A   1      44.674  28.712  32.623  1.00  0.00     0.167 HD
ATOM     61  C   UNL A   1      44.734  28.226  29.634  1.00  0.00     0.074 A 
ATOM     62  C   UNL A   1      44.334  27.077  30.444  1.00  0.00     0.031 C 
ATOM     63  C   UNL A   1      44.776  29.562  29.906  1.00  0.00     0.037 A 
BRANCH  50  64
ATOM     64  C   UNL A   1      42.403  28.137  34.560  1.00  0.00     0.057 A 
ATOM     65  C   UNL A   1      42.039  28.326  35.907  1.00  0.00     0.134 A 
ATOM     66  C   UNL A   1      42.813  26.831  34.227  1.00  0.00     0.134 A 
ATOM     67  F   UNL A   1      41.579  29.496  36.366  1.00  0.00    -0.206 F 
ATOM     68  C   UNL A   1      42.029  27.283  36.838  1.00  0.00     0.040 A 
ATOM     69  C   UNL A   1      42.761  25.772  35.139  1.00  0.00     0.040 A 
ATOM     70  F   UNL A   1      43.192  26.525  32.976  1.00  0.00    -0.206 F 
ATOM     71  C   UNL A   1      42.350  25.993  36.447  1.00  0.00     0.006 A 
ENDBRANCH  50  64
BRANCH  51  72
ATOM     72  C   UNL A   1      43.309  24.906  26.603  1.00  0.00     0.057 A 
ATOM     73  C   UNL A   1      43.928  24.860  25.341  1.00  0.00     0.134 A 
ATOM     74  C   UNL A   1      42.628  23.745  26.995  1.00  0.00     0.134 A 
ATOM     75  F   UNL A   1      44.540  25.938  24.833  1.00  0.00    -0.206 F 
ATOM     76  C   UNL A   1      43.864  23.735  24.514  1.00  0.00     0.040 A 
ATOM     77  C   UNL A   1      42.550  22.612  26.173  1.00  0.00     0.040 A 
ATOM     78  F   UNL A   1      41.966  23.704  28.161  1.00  0.00    -0.206 F 
ATOM     79  C   UNL A   1      43.161  22.608  24.923  1.00  0.00     0.006 A 
ENDBRANCH  51  72
BRANCH  63  80
ATOM     80  C   UNL A   1      45.078  30.498  28.772  1.00  0.00     0.057 A 
ATOM     81  C   UNL A   1      46.361  31.047  28.676  1.00  0.00     0.134 A 
ATOM     82  C   UNL A   1      44.109  30.985  27.882  1.00  0.00     0.134 A 
ATOM     83  F   UNL A   1      47.322  30.672  29.534  1.00  0.00    -0.206 F 
ATOM     84  C   UNL A   1      46.672  32.029  27.734  1.00  0.00     0.040 A 
ATOM     85  C   UNL A   1      44.415  31.944  26.913  1.00  0.00     0.040 A 
ATOM     86  F   UNL A   1      42.832  30.592  27.965  1.00  0.00    -0.206 F 
ATOM     87  C   UNL A   1      45.700  32.474  26.841  1.00  0.00     0.006 A 
ENDBRANCH  63  80
ENDBRANCH  37  38
ENDBRANCH  29  32
ENDBRANCH  27  28
ENDBRANCH  26  27
ENDBRANCH   1  26
TORSDOF 14
ENDMDL
