MODEL 1
REMARK VINA RESULT:     -11.9      0.000      0.000
REMARK SMILES O=C(NCCCCNC(=O)[C@@H]1CC[C@@H](CS(=O)(=O)c2cccc(F)c2)O1)c1ccc(-c2c3nc(c(-c4c(F)cccc4F)c4ccc([nH]4)c(-c4c(F)cccc4F)c4nc(c(-c5c(F)cccc5F)c5ccc2[nH]5)C=C4)C=C3)cc1
REMARK SMILES IDX 6 1 5 2 4 3 3 4 1 5 2 6 27 8 28 9 80 10 29 11 79 12 30 13
REMARK SMILES IDX 31 14 32 15 73 16 33 17 78 18 72 19 74 20 34 21 77 22 71 23
REMARK SMILES IDX 70 24 35 26 61 27 44 28 60 29 45 30 48 31 59 32 75 33 46 34
REMARK SMILES IDX 47 35 58 37 76 38 49 39 36 40 37 41 42 42 38 43 39 44 41 45
REMARK SMILES IDX 43 46 40 47 62 48 63 49 68 50 64 51 65 52 67 53 69 54 66 55
REMARK SMILES IDX 50 56 51 57 56 58 52 59 53 60 55 61 57 62 54 63 7 64 8 65
REMARK SMILES IDX 9 66 10 68 11 69 12 70 26 71 13 72 14 73 15 74 16 75 17 76
REMARK SMILES IDX 18 77 19 78 20 79 25 80 21 81 23 82 22 83 24 84
REMARK H PARENT 3 7 74 25 48 36 8 67
REMARK Flexibility Score: inf
ROOT
ATOM      1  C   UNL A   1      36.058  21.142  24.744  1.00  0.00     0.023 C 
ENDROOT
BRANCH   1   2
ATOM      2  C   UNL A   1      37.106  20.052  24.966  1.00  0.00     0.023 C 
BRANCH   2   3
ATOM      3  C   UNL A   1      38.447  20.555  25.471  1.00  0.00     0.116 C 
BRANCH   3   4
ATOM      4  N   UNL A   1      39.461  19.516  25.544  1.00  0.00    -0.352 N 
ATOM      5  O   UNL A   1      41.539  18.706  25.915  1.00  0.00    -0.269 OA
ATOM      6  C   UNL A   1      40.754  19.639  25.993  1.00  0.00     0.251 C 
ATOM      7  H   UNL A   1      39.190  18.621  25.236  1.00  0.00     0.163 HD
BRANCH   6   8
ATOM      8  C   UNL A   1      41.181  20.938  26.545  1.00  0.00     0.039 A 
ATOM      9  C   UNL A   1      41.694  21.925  25.699  1.00  0.00     0.014 A 
ATOM     10  C   UNL A   1      41.089  21.151  27.921  1.00  0.00     0.014 A 
ATOM     11  C   UNL A   1      42.203  23.096  26.242  1.00  0.00     0.010 A 
ATOM     12  C   UNL A   1      41.536  22.357  28.459  1.00  0.00     0.010 A 
ATOM     13  C   UNL A   1      42.100  23.333  27.622  1.00  0.00    -0.014 A 
BRANCH  13  14
ATOM     14  C   UNL A   1      42.454  24.667  28.153  1.00  0.00     0.031 A 
ATOM     15  C   UNL A   1      41.414  25.721  28.377  1.00  0.00     0.074 A 
ATOM     16  C   UNL A   1      43.752  24.909  28.418  1.00  0.00     0.049 A 
ATOM     17  N   UNL A   1      41.576  26.952  28.786  1.00  0.00    -0.248 NA
ATOM     18  C   UNL A   1      40.014  25.355  28.107  1.00  0.00     0.031 C 
ATOM     19  C   UNL A   1      44.842  23.947  28.221  1.00  0.00     0.029 A 
ATOM     20  N   UNL A   1      44.379  26.025  28.903  1.00  0.00    -0.354 N 
ATOM     21  C   UNL A   1      40.308  27.516  28.807  1.00  0.00     0.074 A 
ATOM     22  C   UNL A   1      39.383  26.496  28.361  1.00  0.00     0.031 C 
ATOM     23  C   UNL A   1      45.997  24.507  28.601  1.00  0.00     0.029 A 
ATOM     24  C   UNL A   1      45.742  25.884  29.004  1.00  0.00     0.049 A 
ATOM     25  H   UNL A   1      43.901  26.847  29.156  1.00  0.00     0.167 HD
ATOM     26  C   UNL A   1      39.961  28.772  29.172  1.00  0.00     0.037 A 
ATOM     27  C   UNL A   1      46.688  26.776  29.346  1.00  0.00     0.037 A 
ATOM     28  C   UNL A   1      40.894  29.765  29.638  1.00  0.00     0.049 A 
ATOM     29  C   UNL A   1      46.274  28.170  29.704  1.00  0.00     0.074 A 
ATOM     30  C   UNL A   1      40.627  31.041  30.102  1.00  0.00     0.029 A 
ATOM     31  N   UNL A   1      42.269  29.597  29.690  1.00  0.00    -0.354 N 
ATOM     32  N   UNL A   1      45.067  28.674  29.763  1.00  0.00    -0.248 NA
ATOM     33  C   UNL A   1      47.345  29.120  30.026  1.00  0.00     0.031 C 
ATOM     34  C   UNL A   1      41.844  31.663  30.391  1.00  0.00     0.029 A 
ATOM     35  C   UNL A   1      42.867  30.761  30.144  1.00  0.00     0.049 A 
ATOM     36  H   UNL A   1      42.748  28.774  29.443  1.00  0.00     0.167 HD
ATOM     37  C   UNL A   1      45.230  30.003  30.126  1.00  0.00     0.074 A 
ATOM     38  C   UNL A   1      46.652  30.219  30.297  1.00  0.00     0.031 C 
ATOM     39  C   UNL A   1      44.285  30.958  30.294  1.00  0.00     0.037 A 
BRANCH  26  40
ATOM     40  C   UNL A   1      38.519  29.168  29.089  1.00  0.00     0.057 A 
ATOM     41  C   UNL A   1      38.003  29.724  27.910  1.00  0.00     0.134 A 
ATOM     42  C   UNL A   1      37.681  29.128  30.209  1.00  0.00     0.134 A 
ATOM     43  F   UNL A   1      38.759  29.798  26.805  1.00  0.00    -0.206 F 
ATOM     44  C   UNL A   1      36.710  30.248  27.856  1.00  0.00     0.040 A 
ATOM     45  C   UNL A   1      36.380  29.636  30.161  1.00  0.00     0.040 A 
ATOM     46  F   UNL A   1      38.115  28.605  31.364  1.00  0.00    -0.206 F 
ATOM     47  C   UNL A   1      35.896  30.209  28.987  1.00  0.00     0.006 A 
ENDBRANCH  26  40
BRANCH  27  48
ATOM     48  C   UNL A   1      48.114  26.370  29.320  1.00  0.00     0.057 A 
ATOM     49  C   UNL A   1      48.892  26.526  28.164  1.00  0.00     0.134 A 
ATOM     50  C   UNL A   1      48.720  25.774  30.430  1.00  0.00     0.134 A 
ATOM     51  F   UNL A   1      48.363  27.081  27.063  1.00  0.00    -0.206 F 
ATOM     52  C   UNL A   1      50.212  26.084  28.106  1.00  0.00     0.040 A 
ATOM     53  C   UNL A   1      50.048  25.349  30.394  1.00  0.00     0.040 A 
ATOM     54  F   UNL A   1      48.029  25.611  31.568  1.00  0.00    -0.206 F 
ATOM     55  C   UNL A   1      50.796  25.495  29.226  1.00  0.00     0.006 A 
ENDBRANCH  27  48
BRANCH  39  56
ATOM     56  C   UNL A   1      44.755  32.328  30.667  1.00  0.00     0.057 A 
ATOM     57  C   UNL A   1      45.016  33.290  29.685  1.00  0.00     0.134 A 
ATOM     58  C   UNL A   1      45.028  32.663  31.998  1.00  0.00     0.134 A 
ATOM     59  F   UNL A   1      44.784  33.024  28.391  1.00  0.00    -0.206 F 
ATOM     60  C   UNL A   1      45.551  34.536  30.013  1.00  0.00     0.040 A 
ATOM     61  C   UNL A   1      45.543  33.913  32.341  1.00  0.00     0.040 A 
ATOM     62  F   UNL A   1      44.785  31.785  32.984  1.00  0.00    -0.206 F 
ATOM     63  C   UNL A   1      45.817  34.849  31.345  1.00  0.00     0.006 A 
ENDBRANCH  39  56
ENDBRANCH  13  14
ENDBRANCH   6   8
ENDBRANCH   3   4
ENDBRANCH   2   3
ENDBRANCH   1   2
BRANCH   1  64
ATOM     64  C   UNL A   1      34.949  21.188  25.797  1.00  0.00     0.116 C 
BRANCH  64  65
ATOM     65  N   UNL A   1      34.167  19.975  25.773  1.00  0.00    -0.354 N 
ATOM     66  C   UNL A   1      32.932  19.718  25.265  1.00  0.00     0.249 C 
ATOM     67  H   UNL A   1      34.603  19.201  26.197  1.00  0.00     0.163 HD
ATOM     68  O   UNL A   1      32.472  18.598  25.523  1.00  0.00    -0.272 OA
BRANCH  66  69
ATOM     69  C   UNL A   1      32.167  20.695  24.337  1.00  0.00     0.207 C 
ATOM     70  C   UNL A   1      32.853  21.411  23.187  1.00  0.00     0.045 C 
ATOM     71  O   UNL A   1      31.594  21.748  25.148  1.00  0.00    -0.364 OA
ATOM     72  C   UNL A   1      32.129  22.732  23.121  1.00  0.00     0.036 C 
ATOM     73  C   UNL A   1      31.930  23.028  24.594  1.00  0.00     0.134 C 
BRANCH  73  74
ATOM     74  C   UNL A   1      30.803  24.007  24.840  1.00  0.00     0.174 C 
BRANCH  74  75
ATOM     75  S   UNL A   1      30.851  24.760  26.441  1.00  0.00     0.181 S 
ATOM     76  O   UNL A   1      29.503  25.216  26.734  1.00  0.00    -0.224 OA
ATOM     77  O   UNL A   1      31.509  23.820  27.331  1.00  0.00    -0.224 OA
BRANCH  75  78
ATOM     78  C   UNL A   1      31.889  26.196  26.409  1.00  0.00     0.070 A 
ATOM     79  C   UNL A   1      33.195  26.156  25.917  1.00  0.00     0.020 A 
ATOM     80  C   UNL A   1      31.357  27.392  26.904  1.00  0.00     0.059 A 
ATOM     81  C   UNL A   1      33.957  27.328  25.876  1.00  0.00     0.004 A 
ATOM     82  C   UNL A   1      32.138  28.540  26.883  1.00  0.00     0.124 A 
ATOM     83  C   UNL A   1      33.428  28.521  26.363  1.00  0.00     0.039 A 
ATOM     84  F   UNL A   1      31.641  29.685  27.368  1.00  0.00    -0.207 F 
ENDBRANCH  75  78
ENDBRANCH  74  75
ENDBRANCH  73  74
ENDBRANCH  66  69
ENDBRANCH  64  65
ENDBRANCH   1  64
TORSDOF 14
ENDMDL
MODEL 2
REMARK VINA RESULT:     -11.8      1.549      2.178
REMARK SMILES O=C(NCCCCNC(=O)[C@@H]1CC[C@@H](CS(=O)(=O)c2cccc(F)c2)O1)c1ccc(-c2c3nc(c(-c4c(F)cccc4F)c4ccc([nH]4)c(-c4c(F)cccc4F)c4nc(c(-c5c(F)cccc5F)c5ccc2[nH]5)C=C4)C=C3)cc1
REMARK SMILES IDX 6 1 5 2 4 3 3 4 1 5 2 6 27 8 28 9 80 10 29 11 79 12 30 13
REMARK SMILES IDX 31 14 32 15 73 16 33 17 78 18 72 19 74 20 34 21 77 22 71 23
REMARK SMILES IDX 70 24 35 26 61 27 44 28 60 29 45 30 48 31 59 32 75 33 46 34
REMARK SMILES IDX 47 35 58 37 76 38 49 39 36 40 37 41 42 42 38 43 39 44 41 45
REMARK SMILES IDX 43 46 40 47 62 48 63 49 68 50 64 51 65 52 67 53 69 54 66 55
REMARK SMILES IDX 50 56 51 57 56 58 52 59 53 60 55 61 57 62 54 63 7 64 8 65
REMARK SMILES IDX 9 66 10 68 11 69 12 70 26 71 13 72 14 73 15 74 16 75 17 76
REMARK SMILES IDX 18 77 19 78 20 79 25 80 21 81 23 82 22 83 24 84
REMARK H PARENT 3 7 74 25 48 36 8 67
REMARK Flexibility Score: inf
ROOT
ATOM      1  C   UNL A   1      36.840  21.001  24.678  1.00  0.00     0.023 C 
ENDROOT
BRANCH   1   2
ATOM      2  C   UNL A   1      37.795  19.847  24.983  1.00  0.00     0.023 C 
BRANCH   2   3
ATOM      3  C   UNL A   1      39.030  20.239  25.775  1.00  0.00     0.116 C 
BRANCH   3   4
ATOM      4  N   UNL A   1      40.038  19.194  25.824  1.00  0.00    -0.352 N 
ATOM      5  O   UNL A   1      42.140  18.384  26.020  1.00  0.00    -0.269 OA
ATOM      6  C   UNL A   1      41.376  19.333  26.105  1.00  0.00     0.251 C 
ATOM      7  H   UNL A   1      39.727  18.279  25.633  1.00  0.00     0.163 HD
BRANCH   6   8
ATOM      8  C   UNL A   1      41.874  20.669  26.481  1.00  0.00     0.039 A 
ATOM      9  C   UNL A   1      42.254  21.581  25.492  1.00  0.00     0.014 A 
ATOM     10  C   UNL A   1      41.984  20.993  27.834  1.00  0.00     0.014 A 
ATOM     11  C   UNL A   1      42.833  22.788  25.858  1.00  0.00     0.010 A 
ATOM     12  C   UNL A   1      42.501  22.236  28.201  1.00  0.00     0.010 A 
ATOM     13  C   UNL A   1      42.932  23.136  27.215  1.00  0.00    -0.014 A 
BRANCH  13  14
ATOM     14  C   UNL A   1      43.355  24.505  27.579  1.00  0.00     0.031 A 
ATOM     15  C   UNL A   1      42.364  25.542  28.011  1.00  0.00     0.074 A 
ATOM     16  C   UNL A   1      44.668  24.796  27.495  1.00  0.00     0.049 A 
ATOM     17  N   UNL A   1      42.574  26.796  28.310  1.00  0.00    -0.248 NA
ATOM     18  C   UNL A   1      40.956  25.124  28.120  1.00  0.00     0.031 C 
ATOM     19  C   UNL A   1      45.710  23.855  27.072  1.00  0.00     0.029 A 
ATOM     20  N   UNL A   1      45.352  25.953  27.755  1.00  0.00    -0.354 N 
ATOM     21  C   UNL A   1      41.331  27.326  28.626  1.00  0.00     0.074 A 
ATOM     22  C   UNL A   1      40.365  26.259  28.475  1.00  0.00     0.031 C 
ATOM     23  C   UNL A   1      46.901  24.466  27.122  1.00  0.00     0.029 A 
ATOM     24  C   UNL A   1      46.700  25.855  27.514  1.00  0.00     0.049 A 
ATOM     25  H   UNL A   1      44.920  26.775  28.083  1.00  0.00     0.167 HD
ATOM     26  C   UNL A   1      41.037  28.590  29.010  1.00  0.00     0.037 A 
ATOM     27  C   UNL A   1      47.666  26.789  27.566  1.00  0.00     0.037 A 
ATOM     28  C   UNL A   1      42.017  29.631  29.179  1.00  0.00     0.049 A 
ATOM     29  C   UNL A   1      47.300  28.188  27.954  1.00  0.00     0.074 A 
ATOM     30  C   UNL A   1      41.825  30.923  29.638  1.00  0.00     0.029 A 
ATOM     31  N   UNL A   1      43.366  29.504  28.890  1.00  0.00    -0.354 N 
ATOM     32  N   UNL A   1      46.127  28.663  28.294  1.00  0.00    -0.248 NA
ATOM     33  C   UNL A   1      48.379  29.183  27.951  1.00  0.00     0.031 C 
ATOM     34  C   UNL A   1      43.050  31.592  29.581  1.00  0.00     0.029 A 
ATOM     35  C   UNL A   1      44.013  30.706  29.125  1.00  0.00     0.049 A 
ATOM     36  H   UNL A   1      43.801  28.682  28.566  1.00  0.00     0.167 HD
ATOM     37  C   UNL A   1      46.323  30.012  28.544  1.00  0.00     0.074 A 
ATOM     38  C   UNL A   1      47.733  30.276  28.339  1.00  0.00     0.031 C 
ATOM     39  C   UNL A   1      45.414  30.949  28.902  1.00  0.00     0.037 A 
BRANCH  26  40
ATOM     40  C   UNL A   1      39.606  28.942  29.277  1.00  0.00     0.057 A 
ATOM     41  C   UNL A   1      39.050  28.738  30.547  1.00  0.00     0.134 A 
ATOM     42  C   UNL A   1      38.747  29.352  28.252  1.00  0.00     0.134 A 
ATOM     43  F   UNL A   1      39.821  28.337  31.570  1.00  0.00    -0.206 F 
ATOM     44  C   UNL A   1      37.685  28.906  30.782  1.00  0.00     0.040 A 
ATOM     45  C   UNL A   1      37.381  29.539  28.479  1.00  0.00     0.040 A 
ATOM     46  F   UNL A   1      39.219  29.569  27.015  1.00  0.00    -0.206 F 
ATOM     47  C   UNL A   1      36.845  29.303  29.743  1.00  0.00     0.006 A 
ENDBRANCH  26  40
BRANCH  27  48
ATOM     48  C   UNL A   1      49.054  26.421  27.198  1.00  0.00     0.057 A 
ATOM     49  C   UNL A   1      49.519  26.563  25.883  1.00  0.00     0.134 A 
ATOM     50  C   UNL A   1      49.934  25.876  28.138  1.00  0.00     0.134 A 
ATOM     51  F   UNL A   1      48.717  27.070  24.934  1.00  0.00    -0.206 F 
ATOM     52  C   UNL A   1      50.798  26.155  25.511  1.00  0.00     0.040 A 
ATOM     53  C   UNL A   1      51.226  25.486  27.785  1.00  0.00     0.040 A 
ATOM     54  F   UNL A   1      49.550  25.728  29.414  1.00  0.00    -0.206 F 
ATOM     55  C   UNL A   1      51.659  25.617  26.465  1.00  0.00     0.006 A 
ENDBRANCH  27  48
BRANCH  39  56
ATOM     56  C   UNL A   1      45.908  32.350  29.082  1.00  0.00     0.057 A 
ATOM     57  C   UNL A   1      46.352  32.799  30.331  1.00  0.00     0.134 A 
ATOM     58  C   UNL A   1      45.865  33.275  28.033  1.00  0.00     0.134 A 
ATOM     59  F   UNL A   1      46.406  31.960  31.377  1.00  0.00    -0.206 F 
ATOM     60  C   UNL A   1      46.719  34.128  30.536  1.00  0.00     0.040 A 
ATOM     61  C   UNL A   1      46.250  34.602  28.220  1.00  0.00     0.040 A 
ATOM     62  F   UNL A   1      45.461  32.898  26.810  1.00  0.00    -0.206 F 
ATOM     63  C   UNL A   1      46.668  35.034  29.478  1.00  0.00     0.006 A 
ENDBRANCH  39  56
ENDBRANCH  13  14
ENDBRANCH   6   8
ENDBRANCH   3   4
ENDBRANCH   2   3
ENDBRANCH   1   2
BRANCH   1  64
ATOM     64  C   UNL A   1      35.426  20.827  25.237  1.00  0.00     0.116 C 
BRANCH  64  65
ATOM     65  N   UNL A   1      34.923  19.503  24.958  1.00  0.00    -0.354 N 
ATOM     66  C   UNL A   1      33.694  19.082  24.555  1.00  0.00     0.249 C 
ATOM     67  H   UNL A   1      35.582  18.783  25.080  1.00  0.00     0.163 HD
ATOM     68  O   UNL A   1      33.534  17.855  24.530  1.00  0.00    -0.272 OA
BRANCH  66  69
ATOM     69  C   UNL A   1      32.582  20.037  24.054  1.00  0.00     0.207 C 
ATOM     70  C   UNL A   1      32.874  21.170  23.087  1.00  0.00     0.045 C 
ATOM     71  O   UNL A   1      31.969  20.672  25.202  1.00  0.00    -0.364 OA
ATOM     72  C   UNL A   1      31.893  22.239  23.500  1.00  0.00     0.036 C 
ATOM     73  C   UNL A   1      31.922  22.092  25.008  1.00  0.00     0.134 C 
BRANCH  73  74
ATOM     74  C   UNL A   1      30.685  22.661  25.668  1.00  0.00     0.174 C 
BRANCH  74  75
ATOM     75  S   UNL A   1      30.963  24.203  26.491  1.00  0.00     0.181 S 
ATOM     76  O   UNL A   1      29.659  24.802  26.719  1.00  0.00    -0.224 OA
ATOM     77  O   UNL A   1      31.843  23.931  27.613  1.00  0.00    -0.224 OA
BRANCH  75  78
ATOM     78  C   UNL A   1      31.863  25.305  25.434  1.00  0.00     0.070 A 
ATOM     79  C   UNL A   1      33.196  25.640  25.674  1.00  0.00     0.020 A 
ATOM     80  C   UNL A   1      31.186  25.846  24.335  1.00  0.00     0.059 A 
ATOM     81  C   UNL A   1      33.871  26.481  24.785  1.00  0.00     0.004 A 
ATOM     82  C   UNL A   1      31.863  26.704  23.479  1.00  0.00     0.124 A 
ATOM     83  C   UNL A   1      33.202  27.017  23.688  1.00  0.00     0.039 A 
ATOM     84  F   UNL A   1      31.218  27.237  22.433  1.00  0.00    -0.207 F 
ENDBRANCH  75  78
ENDBRANCH  74  75
ENDBRANCH  73  74
ENDBRANCH  66  69
ENDBRANCH  64  65
ENDBRANCH   1  64
TORSDOF 14
ENDMDL
MODEL 3
REMARK VINA RESULT:     -11.8      4.865      9.478
REMARK SMILES O=C(NCCCCNC(=O)[C@@H]1CC[C@@H](CS(=O)(=O)c2cccc(F)c2)O1)c1ccc(-c2c3nc(c(-c4c(F)cccc4F)c4ccc([nH]4)c(-c4c(F)cccc4F)c4nc(c(-c5c(F)cccc5F)c5ccc2[nH]5)C=C4)C=C3)cc1
REMARK SMILES IDX 6 1 5 2 4 3 3 4 1 5 2 6 27 8 28 9 80 10 29 11 79 12 30 13
REMARK SMILES IDX 31 14 32 15 73 16 33 17 78 18 72 19 74 20 34 21 77 22 71 23
REMARK SMILES IDX 70 24 35 26 61 27 44 28 60 29 45 30 48 31 59 32 75 33 46 34
REMARK SMILES IDX 47 35 58 37 76 38 49 39 36 40 37 41 42 42 38 43 39 44 41 45
REMARK SMILES IDX 43 46 40 47 62 48 63 49 68 50 64 51 65 52 67 53 69 54 66 55
REMARK SMILES IDX 50 56 51 57 56 58 52 59 53 60 55 61 57 62 54 63 7 64 8 65
REMARK SMILES IDX 9 66 10 68 11 69 12 70 26 71 13 72 14 73 15 74 16 75 17 76
REMARK SMILES IDX 18 77 19 78 20 79 25 80 21 81 23 82 22 83 24 84
REMARK H PARENT 3 7 74 25 48 36 8 67
REMARK Flexibility Score: inf
ROOT
ATOM      1  C   UNL A   1      31.589  30.218  26.360  1.00  0.00     0.023 C 
ENDROOT
BRANCH   1   2
ATOM      2  C   UNL A   1      31.397  31.725  26.530  1.00  0.00     0.023 C 
BRANCH   2   3
ATOM      3  C   UNL A   1      32.653  32.484  26.921  1.00  0.00     0.116 C 
BRANCH   3   4
ATOM      4  N   UNL A   1      32.385  33.821  27.422  1.00  0.00    -0.352 N 
ATOM      5  O   UNL A   1      32.669  35.582  28.812  1.00  0.00    -0.269 OA
ATOM      6  C   UNL A   1      33.055  34.493  28.416  1.00  0.00     0.251 C 
ATOM      7  H   UNL A   1      31.636  34.302  27.001  1.00  0.00     0.163 HD
BRANCH   6   8
ATOM      8  C   UNL A   1      34.237  33.849  29.019  1.00  0.00     0.039 A 
ATOM      9  C   UNL A   1      34.077  32.813  29.945  1.00  0.00     0.014 A 
ATOM     10  C   UNL A   1      35.508  34.308  28.671  1.00  0.00     0.014 A 
ATOM     11  C   UNL A   1      35.189  32.297  30.594  1.00  0.00     0.010 A 
ATOM     12  C   UNL A   1      36.630  33.739  29.273  1.00  0.00     0.010 A 
ATOM     13  C   UNL A   1      36.475  32.735  30.241  1.00  0.00    -0.014 A 
BRANCH  13  14
ATOM     14  C   UNL A   1      37.653  32.029  30.788  1.00  0.00     0.031 A 
ATOM     15  C   UNL A   1      38.373  30.979  29.999  1.00  0.00     0.074 A 
ATOM     16  C   UNL A   1      38.052  32.353  32.033  1.00  0.00     0.049 A 
ATOM     17  N   UNL A   1      39.386  30.237  30.362  1.00  0.00    -0.248 NA
ATOM     18  C   UNL A   1      37.899  30.722  28.629  1.00  0.00     0.031 C 
ATOM     19  C   UNL A   1      37.407  33.357  32.886  1.00  0.00     0.029 A 
ATOM     20  N   UNL A   1      39.084  31.882  32.799  1.00  0.00    -0.354 N 
ATOM     21  C   UNL A   1      39.662  29.414  29.280  1.00  0.00     0.074 A 
ATOM     22  C   UNL A   1      38.705  29.739  28.244  1.00  0.00     0.031 C 
ATOM     23  C   UNL A   1      38.070  33.440  34.047  1.00  0.00     0.029 A 
ATOM     24  C   UNL A   1      39.142  32.453  34.047  1.00  0.00     0.049 A 
ATOM     25  H   UNL A   1      39.723  31.201  32.486  1.00  0.00     0.167 HD
ATOM     26  C   UNL A   1      40.634  28.478  29.172  1.00  0.00     0.037 A 
ATOM     27  C   UNL A   1      39.944  32.185  35.093  1.00  0.00     0.037 A 
ATOM     28  C   UNL A   1      41.594  28.187  30.205  1.00  0.00     0.049 A 
ATOM     29  C   UNL A   1      40.981  31.114  34.954  1.00  0.00     0.074 A 
ATOM     30  C   UNL A   1      42.662  27.309  30.160  1.00  0.00     0.029 A 
ATOM     31  N   UNL A   1      41.597  28.759  31.468  1.00  0.00    -0.354 N 
ATOM     32  N   UNL A   1      41.260  30.376  33.908  1.00  0.00    -0.248 NA
ATOM     33  C   UNL A   1      41.802  30.826  36.136  1.00  0.00     0.031 C 
ATOM     34  C   UNL A   1      43.284  27.314  31.411  1.00  0.00     0.029 A 
ATOM     35  C   UNL A   1      42.627  28.224  32.223  1.00  0.00     0.049 A 
ATOM     36  H   UNL A   1      40.962  29.443  31.780  1.00  0.00     0.167 HD
ATOM     37  C   UNL A   1      42.287  29.532  34.304  1.00  0.00     0.074 A 
ATOM     38  C   UNL A   1      42.598  29.866  35.679  1.00  0.00     0.031 C 
ATOM     39  C   UNL A   1      42.909  28.562  33.593  1.00  0.00     0.037 A 
BRANCH  26  40
ATOM     40  C   UNL A   1      40.727  27.686  27.904  1.00  0.00     0.057 A 
ATOM     41  C   UNL A   1      40.124  26.424  27.811  1.00  0.00     0.134 A 
ATOM     42  C   UNL A   1      41.520  28.107  26.832  1.00  0.00     0.134 A 
ATOM     43  F   UNL A   1      39.357  25.960  28.810  1.00  0.00    -0.206 F 
ATOM     44  C   UNL A   1      40.328  25.598  26.704  1.00  0.00     0.040 A 
ATOM     45  C   UNL A   1      41.718  27.295  25.712  1.00  0.00     0.040 A 
ATOM     46  F   UNL A   1      42.119  29.306  26.859  1.00  0.00    -0.206 F 
ATOM     47  C   UNL A   1      41.132  26.032  25.652  1.00  0.00     0.006 A 
ENDBRANCH  26  40
BRANCH  27  48
ATOM     48  C   UNL A   1      39.754  32.925  36.363  1.00  0.00     0.057 A 
ATOM     49  C   UNL A   1      38.806  32.511  37.309  1.00  0.00     0.134 A 
ATOM     50  C   UNL A   1      40.479  34.087  36.642  1.00  0.00     0.134 A 
ATOM     51  F   UNL A   1      38.072  31.409  37.093  1.00  0.00    -0.206 F 
ATOM     52  C   UNL A   1      38.569  33.238  38.474  1.00  0.00     0.040 A 
ATOM     53  C   UNL A   1      40.270  34.811  37.816  1.00  0.00     0.040 A 
ATOM     54  F   UNL A   1      41.409  34.525  35.780  1.00  0.00    -0.206 F 
ATOM     55  C   UNL A   1      39.306  34.392  38.732  1.00  0.00     0.006 A 
ENDBRANCH  27  48
BRANCH  39  56
ATOM     56  C   UNL A   1      43.979  27.782  34.290  1.00  0.00     0.057 A 
ATOM     57  C   UNL A   1      43.678  26.588  34.956  1.00  0.00     0.134 A 
ATOM     58  C   UNL A   1      45.291  28.260  34.369  1.00  0.00     0.134 A 
ATOM     59  F   UNL A   1      42.435  26.085  34.924  1.00  0.00    -0.206 F 
ATOM     60  C   UNL A   1      44.644  25.905  35.694  1.00  0.00     0.040 A 
ATOM     61  C   UNL A   1      46.272  27.575  35.086  1.00  0.00     0.040 A 
ATOM     62  F   UNL A   1      45.641  29.393  33.740  1.00  0.00    -0.206 F 
ATOM     63  C   UNL A   1      45.946  26.400  35.761  1.00  0.00     0.006 A 
ENDBRANCH  39  56
ENDBRANCH  13  14
ENDBRANCH   6   8
ENDBRANCH   3   4
ENDBRANCH   2   3
ENDBRANCH   1   2
BRANCH   1  64
ATOM     64  C   UNL A   1      31.465  29.714  24.921  1.00  0.00     0.116 C 
BRANCH  64  65
ATOM     65  N   UNL A   1      30.410  30.410  24.222  1.00  0.00    -0.354 N 
ATOM     66  C   UNL A   1      29.538  29.984  23.270  1.00  0.00     0.249 C 
ATOM     67  H   UNL A   1      30.305  31.353  24.480  1.00  0.00     0.163 HD
ATOM     68  O   UNL A   1      28.831  30.865  22.764  1.00  0.00    -0.272 OA
BRANCH  66  69
ATOM     69  C   UNL A   1      29.341  28.494  22.893  1.00  0.00     0.207 C 
ATOM     70  C   UNL A   1      29.154  27.418  23.948  1.00  0.00     0.045 C 
ATOM     71  O   UNL A   1      30.482  28.062  22.113  1.00  0.00    -0.364 OA
ATOM     72  C   UNL A   1      29.809  26.209  23.328  1.00  0.00     0.036 C 
ATOM     73  C   UNL A   1      31.010  26.843  22.655  1.00  0.00     0.134 C 
BRANCH  73  74
ATOM     74  C   UNL A   1      31.568  25.984  21.541  1.00  0.00     0.174 C 
BRANCH  74  75
ATOM     75  S   UNL A   1      33.149  25.280  21.911  1.00  0.00     0.181 S 
ATOM     76  O   UNL A   1      33.323  24.143  21.023  1.00  0.00    -0.224 OA
ATOM     77  O   UNL A   1      34.111  26.367  21.895  1.00  0.00    -0.224 OA
BRANCH  75  78
ATOM     78  C   UNL A   1      33.164  24.651  23.568  1.00  0.00     0.070 A 
ATOM     79  C   UNL A   1      33.812  25.319  24.608  1.00  0.00     0.020 A 
ATOM     80  C   UNL A   1      32.502  23.442  23.809  1.00  0.00     0.059 A 
ATOM     81  C   UNL A   1      33.758  24.801  25.906  1.00  0.00     0.004 A 
ATOM     82  C   UNL A   1      32.483  22.926  25.098  1.00  0.00     0.124 A 
ATOM     83  C   UNL A   1      33.095  23.600  26.150  1.00  0.00     0.039 A 
ATOM     84  F   UNL A   1      31.864  21.763  25.334  1.00  0.00    -0.207 F 
ENDBRANCH  75  78
ENDBRANCH  74  75
ENDBRANCH  73  74
ENDBRANCH  66  69
ENDBRANCH  64  65
ENDBRANCH   1  64
TORSDOF 14
ENDMDL
