MODEL 1
REMARK VINA RESULT:     -12.8      0.000      0.000
REMARK SMILES Cn1cc(S(=O)(=O)N2CCCc3cc(C(=O)NCCCCNC(=O)c4ccc(-c5c6nc(c(-c7c(F)cccc7F)c7ccc([nH]7)c(-c7c(F)cccc7F)c7nc(c(-c8c(F)cccc8F)c8ccc5[nH]8)C=C7)C=C6)cc4)ccc32)cc1C(N)=O
REMARK SMILES IDX 19 1 18 2 17 3 15 4 16 5 14 7 8 8 9 9 81 10 10 11 12 12
REMARK SMILES IDX 80 13 11 14 13 15 79 16 5 17 6 18 7 19 4 20 1 21 2 22 3 23
REMARK SMILES IDX 83 24 82 25 84 26 85 27 86 28 20 31 21 32 22 33 23 34 24 36
REMARK SMILES IDX 25 37 26 38 78 39 27 40 77 41 28 42 29 43 30 44 71 45 31 46
REMARK SMILES IDX 76 47 70 48 72 49 32 50 75 51 69 52 68 53 33 55 59 56 42 57
REMARK SMILES IDX 58 58 43 59 46 60 57 61 73 62 44 63 45 64 56 66 74 67 47 68
REMARK SMILES IDX 34 69 35 70 40 71 36 72 37 73 39 74 41 75 38 76 60 77 61 78
REMARK SMILES IDX 66 79 62 80 63 81 65 82 67 83 64 84 48 85 49 86 54 87 50 88
REMARK SMILES IDX 51 89 53 90 55 91 52 92
REMARK H PARENT 17 6 85 29 85 30 22 35 72 54 46 65
REMARK Flexibility Score: inf
ROOT
ATOM      1  C   UNL A   1      37.413  21.434  24.636  1.00  0.00     0.023 C 
ENDROOT
BRANCH   1   2
ATOM      2  C   UNL A   1      35.896  21.307  24.487  1.00  0.00     0.116 C 
BRANCH   2   3
ATOM      3  N   UNL A   1      35.292  20.913  25.742  1.00  0.00    -0.352 N 
ATOM      4  C   UNL A   1      34.435  21.565  26.593  1.00  0.00     0.251 C 
ATOM      5  O   UNL A   1      34.071  20.958  27.601  1.00  0.00    -0.269 OA
ATOM      6  H   UNL A   1      35.545  20.010  26.042  1.00  0.00     0.163 HD
BRANCH   4   7
ATOM      7  C   UNL A   1      33.894  22.932  26.337  1.00  0.00     0.040 A 
ATOM      8  N   UNL A   1      32.037  26.683  25.531  1.00  0.00    -0.266 N 
ATOM      9  C   UNL A   1      30.712  26.933  26.125  1.00  0.00     0.136 C 
ATOM     10  C   UNL A   1      32.676  25.432  25.816  1.00  0.00     0.055 A 
ATOM     11  C   UNL A   1      29.812  25.742  25.846  1.00  0.00     0.028 C 
ATOM     12  C   UNL A   1      31.889  24.335  26.197  1.00  0.00    -0.023 A 
ATOM     13  C   UNL A   1      34.062  25.297  25.799  1.00  0.00     0.028 A 
ATOM     14  C   UNL A   1      30.409  24.476  26.452  1.00  0.00     0.039 C 
ATOM     15  C   UNL A   1      32.503  23.092  26.436  1.00  0.00     0.019 A 
ATOM     16  C   UNL A   1      34.664  24.064  26.072  1.00  0.00     0.016 A 
BRANCH   8  17
ATOM     17  S   UNL A   1      32.531  27.653  24.229  1.00  0.00     0.265 S 
ATOM     18  O   UNL A   1      32.671  26.822  23.048  1.00  0.00    -0.201 OA
ATOM     19  O   UNL A   1      33.547  28.601  24.617  1.00  0.00    -0.201 OA
BRANCH  17  20
ATOM     20  C   UNL A   1      31.177  28.663  23.835  1.00  0.00     0.106 A 
ATOM     21  C   UNL A   1      29.225  31.690  24.047  1.00  0.00     0.150 C 
ATOM     22  N   UNL A   1      29.766  30.382  23.740  1.00  0.00    -0.345 N 
ATOM     23  C   UNL A   1      30.922  29.921  24.329  1.00  0.00     0.108 A 
ATOM     24  C   UNL A   1      29.258  29.431  22.864  1.00  0.00     0.107 A 
ATOM     25  C   UNL A   1      30.128  28.345  22.942  1.00  0.00     0.056 A 
BRANCH  24  26
ATOM     26  C   UNL A   1      28.064  29.575  22.049  1.00  0.00     0.265 C 
ATOM     27  N   UNL A   1      26.915  29.059  22.575  1.00  0.00    -0.364 N 
ATOM     28  O   UNL A   1      28.016  30.108  20.946  1.00  0.00    -0.268 OA
ATOM     29  H   UNL A   1      26.929  28.628  23.460  1.00  0.00     0.160 HD
ATOM     30  H   UNL A   1      26.072  29.120  22.070  1.00  0.00     0.160 HD
ENDBRANCH  24  26
ENDBRANCH  17  20
ENDBRANCH   8  17
ENDBRANCH   4   7
ENDBRANCH   2   3
ENDBRANCH   1   2
BRANCH   1  31
ATOM     31  C   UNL A   1      38.123  20.127  24.999  1.00  0.00     0.023 C 
BRANCH  31  32
ATOM     32  C   UNL A   1      39.270  20.277  25.992  1.00  0.00     0.116 C 
BRANCH  32  33
ATOM     33  N   UNL A   1      40.218  19.174  25.947  1.00  0.00    -0.352 N 
ATOM     34  C   UNL A   1      41.577  19.212  26.143  1.00  0.00     0.251 C 
ATOM     35  H   UNL A   1      39.837  18.287  25.754  1.00  0.00     0.163 HD
ATOM     36  O   UNL A   1      42.262  18.210  25.973  1.00  0.00    -0.269 OA
BRANCH  34  37
ATOM     37  C   UNL A   1      42.211  20.492  26.515  1.00  0.00     0.039 A 
ATOM     38  C   UNL A   1      42.706  21.316  25.502  1.00  0.00     0.014 A 
ATOM     39  C   UNL A   1      42.271  20.894  27.852  1.00  0.00     0.014 A 
ATOM     40  C   UNL A   1      43.200  22.579  25.825  1.00  0.00     0.010 A 
ATOM     41  C   UNL A   1      42.699  22.180  28.163  1.00  0.00     0.010 A 
ATOM     42  C   UNL A   1      43.165  23.034  27.152  1.00  0.00    -0.014 A 
BRANCH  42  43
ATOM     43  C   UNL A   1      43.606  24.405  27.505  1.00  0.00     0.031 A 
ATOM     44  C   UNL A   1      42.595  25.440  27.912  1.00  0.00     0.074 A 
ATOM     45  C   UNL A   1      44.906  24.736  27.390  1.00  0.00     0.049 A 
ATOM     46  N   UNL A   1      42.774  26.705  28.190  1.00  0.00    -0.248 NA
ATOM     47  C   UNL A   1      41.193  24.999  27.990  1.00  0.00     0.031 C 
ATOM     48  C   UNL A   1      45.974  23.834  26.954  1.00  0.00     0.029 A 
ATOM     49  N   UNL A   1      45.549  25.926  27.620  1.00  0.00    -0.354 N 
ATOM     50  C   UNL A   1      41.510  27.214  28.459  1.00  0.00     0.074 A 
ATOM     51  C   UNL A   1      40.567  26.134  28.260  1.00  0.00     0.031 C 
ATOM     52  C   UNL A   1      47.142  24.497  26.969  1.00  0.00     0.029 A 
ATOM     53  C   UNL A   1      46.901  25.876  27.382  1.00  0.00     0.049 A 
ATOM     54  H   UNL A   1      45.086  26.739  27.926  1.00  0.00     0.167 HD
ATOM     55  C   UNL A   1      41.168  28.462  28.857  1.00  0.00     0.037 A 
ATOM     56  C   UNL A   1      47.839  26.836  27.484  1.00  0.00     0.037 A 
ATOM     57  C   UNL A   1      42.111  29.526  29.081  1.00  0.00     0.049 A 
ATOM     58  C   UNL A   1      47.435  28.213  27.932  1.00  0.00     0.074 A 
ATOM     59  C   UNL A   1      41.873  30.806  29.547  1.00  0.00     0.029 A 
ATOM     60  N   UNL A   1      43.476  29.430  28.852  1.00  0.00    -0.354 N 
ATOM     61  N   UNL A   1      46.245  28.661  28.251  1.00  0.00    -0.248 NA
ATOM     62  C   UNL A   1      48.504  29.216  28.039  1.00  0.00     0.031 C 
ATOM     63  C   UNL A   1      43.088  31.498  29.565  1.00  0.00     0.029 A 
ATOM     64  C   UNL A   1      44.090  30.635  29.149  1.00  0.00     0.049 A 
ATOM     65  H   UNL A   1      43.939  28.624  28.526  1.00  0.00     0.167 HD
ATOM     66  C   UNL A   1      46.426  29.986  28.624  1.00  0.00     0.074 A 
ATOM     67  C   UNL A   1      47.842  30.266  28.503  1.00  0.00     0.031 C 
ATOM     68  C   UNL A   1      45.502  30.892  29.031  1.00  0.00     0.037 A 
BRANCH  55  69
ATOM     69  C   UNL A   1      39.711  28.739  29.084  1.00  0.00     0.057 A 
ATOM     70  C   UNL A   1      39.119  28.588  30.345  1.00  0.00     0.134 A 
ATOM     71  C   UNL A   1      38.896  29.189  28.037  1.00  0.00     0.134 A 
ATOM     72  F   UNL A   1      39.840  28.147  31.386  1.00  0.00    -0.206 F 
ATOM     73  C   UNL A   1      37.763  28.844  30.550  1.00  0.00     0.040 A 
ATOM     74  C   UNL A   1      37.545  29.476  28.236  1.00  0.00     0.040 A 
ATOM     75  F   UNL A   1      39.401  29.361  26.806  1.00  0.00    -0.206 F 
ATOM     76  C   UNL A   1      36.973  29.296  29.495  1.00  0.00     0.006 A 
ENDBRANCH  55  69
BRANCH  56  77
ATOM     77  C   UNL A   1      49.258  26.524  27.182  1.00  0.00     0.057 A 
ATOM     78  C   UNL A   1      49.761  26.647  25.881  1.00  0.00     0.134 A 
ATOM     79  C   UNL A   1      50.141  26.090  28.177  1.00  0.00     0.134 A 
ATOM     80  F   UNL A   1      48.958  27.042  24.882  1.00  0.00    -0.206 F 
ATOM     81  C   UNL A   1      51.086  26.332  25.576  1.00  0.00     0.040 A 
ATOM     82  C   UNL A   1      51.475  25.793  27.892  1.00  0.00     0.040 A 
ATOM     83  F   UNL A   1      49.722  25.958  29.445  1.00  0.00    -0.206 F 
ATOM     84  C   UNL A   1      51.949  25.906  26.585  1.00  0.00     0.006 A 
ENDBRANCH  56  77
BRANCH  68  85
ATOM     85  C   UNL A   1      45.999  32.256  29.407  1.00  0.00     0.057 A 
ATOM     86  C   UNL A   1      46.118  33.285  28.465  1.00  0.00     0.134 A 
ATOM     87  C   UNL A   1      46.324  32.553  30.737  1.00  0.00     0.134 A 
ATOM     88  F   UNL A   1      45.836  33.060  27.173  1.00  0.00    -0.206 F 
ATOM     89  C   UNL A   1      46.563  34.557  28.829  1.00  0.00     0.040 A 
ATOM     90  C   UNL A   1      46.745  33.828  31.117  1.00  0.00     0.040 A 
ATOM     91  F   UNL A   1      46.224  31.613  31.690  1.00  0.00    -0.206 F 
ATOM     92  C   UNL A   1      46.870  34.833  30.160  1.00  0.00     0.006 A 
ENDBRANCH  68  85
ENDBRANCH  42  43
ENDBRANCH  34  37
ENDBRANCH  32  33
ENDBRANCH  31  32
ENDBRANCH   1  31
TORSDOF 14
ENDMDL
MODEL 2
REMARK VINA RESULT:     -12.7      4.934     10.430
REMARK SMILES Cn1cc(S(=O)(=O)N2CCCc3cc(C(=O)NCCCCNC(=O)c4ccc(-c5c6nc(c(-c7c(F)cccc7F)c7ccc([nH]7)c(-c7c(F)cccc7F)c7nc(c(-c8c(F)cccc8F)c8ccc5[nH]8)C=C7)C=C6)cc4)ccc32)cc1C(N)=O
REMARK SMILES IDX 19 1 18 2 17 3 15 4 16 5 14 7 8 8 9 9 81 10 10 11 12 12
REMARK SMILES IDX 80 13 11 14 13 15 79 16 5 17 6 18 7 19 4 20 1 21 2 22 3 23
REMARK SMILES IDX 83 24 82 25 84 26 85 27 86 28 20 31 21 32 22 33 23 34 24 36
REMARK SMILES IDX 25 37 26 38 78 39 27 40 77 41 28 42 29 43 30 44 71 45 31 46
REMARK SMILES IDX 76 47 70 48 72 49 32 50 75 51 69 52 68 53 33 55 59 56 42 57
REMARK SMILES IDX 58 58 43 59 46 60 57 61 73 62 44 63 45 64 56 66 74 67 47 68
REMARK SMILES IDX 34 69 35 70 40 71 36 72 37 73 39 74 41 75 38 76 60 77 61 78
REMARK SMILES IDX 66 79 62 80 63 81 65 82 67 83 64 84 48 85 49 86 54 87 50 88
REMARK SMILES IDX 51 89 53 90 55 91 52 92
REMARK H PARENT 17 6 85 29 85 30 22 35 72 54 46 65
REMARK Flexibility Score: inf
ROOT
ATOM      1  C   UNL A   1      31.951  30.096  26.837  1.00  0.00     0.023 C 
ENDROOT
BRANCH   1   2
ATOM      2  C   UNL A   1      33.219  29.569  26.162  1.00  0.00     0.116 C 
BRANCH   2   3
ATOM      3  N   UNL A   1      33.088  29.623  24.721  1.00  0.00    -0.352 N 
ATOM      4  C   UNL A   1      32.934  28.640  23.776  1.00  0.00     0.251 C 
ATOM      5  O   UNL A   1      32.832  28.997  22.602  1.00  0.00    -0.269 OA
ATOM      6  H   UNL A   1      33.116  30.535  24.350  1.00  0.00     0.163 HD
BRANCH   4   7
ATOM      7  C   UNL A   1      32.838  27.187  24.100  1.00  0.00     0.040 A 
ATOM      8  N   UNL A   1      32.358  23.125  25.300  1.00  0.00    -0.266 N 
ATOM      9  C   UNL A   1      30.996  22.662  25.621  1.00  0.00     0.136 C 
ATOM     10  C   UNL A   1      32.523  24.484  24.876  1.00  0.00     0.055 A 
ATOM     11  C   UNL A   1      30.349  23.653  26.573  1.00  0.00     0.028 C 
ATOM     12  C   UNL A   1      31.554  25.433  25.233  1.00  0.00    -0.023 A 
ATOM     13  C   UNL A   1      33.579  24.871  24.053  1.00  0.00     0.028 A 
ATOM     14  C   UNL A   1      30.277  25.034  25.928  1.00  0.00     0.039 C 
ATOM     15  C   UNL A   1      31.730  26.777  24.858  1.00  0.00     0.019 A 
ATOM     16  C   UNL A   1      33.725  26.205  23.658  1.00  0.00     0.016 A 
BRANCH   8  17
ATOM     17  S   UNL A   1      33.672  22.204  25.853  1.00  0.00     0.265 S 
ATOM     18  O   UNL A   1      33.602  22.103  27.299  1.00  0.00    -0.201 OA
ATOM     19  O   UNL A   1      34.898  22.549  25.173  1.00  0.00    -0.201 OA
BRANCH  17  20
ATOM     20  C   UNL A   1      33.377  20.575  25.334  1.00  0.00     0.106 A 
ATOM     21  C   UNL A   1      32.545  17.106  25.873  1.00  0.00     0.150 C 
ATOM     22  N   UNL A   1      32.886  18.405  25.329  1.00  0.00    -0.345 N 
ATOM     23  C   UNL A   1      33.071  19.502  26.138  1.00  0.00     0.108 A 
ATOM     24  C   UNL A   1      33.073  18.751  23.996  1.00  0.00     0.107 A 
ATOM     25  C   UNL A   1      33.405  20.104  24.002  1.00  0.00     0.056 A 
BRANCH  24  26
ATOM     26  C   UNL A   1      32.940  17.858  22.858  1.00  0.00     0.265 C 
ATOM     27  N   UNL A   1      31.845  18.057  22.066  1.00  0.00    -0.364 N 
ATOM     28  O   UNL A   1      33.717  16.956  22.566  1.00  0.00    -0.268 OA
ATOM     29  H   UNL A   1      31.208  18.776  22.279  1.00  0.00     0.160 HD
ATOM     30  H   UNL A   1      31.695  17.482  21.281  1.00  0.00     0.160 HD
ENDBRANCH  24  26
ENDBRANCH  17  20
ENDBRANCH   8  17
ENDBRANCH   4   7
ENDBRANCH   2   3
ENDBRANCH   1   2
BRANCH   1  31
ATOM     31  C   UNL A   1      31.765  31.612  26.734  1.00  0.00     0.023 C 
BRANCH  31  32
ATOM     32  C   UNL A   1      32.934  32.436  27.262  1.00  0.00     0.116 C 
BRANCH  32  33
ATOM     33  N   UNL A   1      32.564  33.798  27.618  1.00  0.00    -0.352 N 
ATOM     34  C   UNL A   1      33.128  34.610  28.572  1.00  0.00     0.251 C 
ATOM     35  H   UNL A   1      31.816  34.187  27.110  1.00  0.00     0.163 HD
ATOM     36  O   UNL A   1      32.639  35.704  28.829  1.00  0.00    -0.269 OA
BRANCH  34  37
ATOM     37  C   UNL A   1      34.305  34.126  29.320  1.00  0.00     0.039 A 
ATOM     38  C   UNL A   1      34.101  33.338  30.454  1.00  0.00     0.014 A 
ATOM     39  C   UNL A   1      35.598  34.411  28.874  1.00  0.00     0.014 A 
ATOM     40  C   UNL A   1      35.200  32.774  31.104  1.00  0.00     0.010 A 
ATOM     41  C   UNL A   1      36.685  33.793  29.481  1.00  0.00     0.010 A 
ATOM     42  C   UNL A   1      36.495  32.967  30.599  1.00  0.00    -0.014 A 
BRANCH  42  43
ATOM     43  C   UNL A   1      37.667  32.308  31.223  1.00  0.00     0.031 A 
ATOM     44  C   UNL A   1      38.393  31.213  30.494  1.00  0.00     0.074 A 
ATOM     45  C   UNL A   1      38.034  32.647  32.474  1.00  0.00     0.049 A 
ATOM     46  N   UNL A   1      39.391  30.471  30.898  1.00  0.00    -0.248 NA
ATOM     47  C   UNL A   1      37.912  30.889  29.141  1.00  0.00     0.031 C 
ATOM     48  C   UNL A   1      37.375  33.658  33.304  1.00  0.00     0.029 A 
ATOM     49  N   UNL A   1      39.043  32.170  33.271  1.00  0.00    -0.354 N 
ATOM     50  C   UNL A   1      39.648  29.586  29.860  1.00  0.00     0.074 A 
ATOM     51  C   UNL A   1      38.667  29.847  28.828  1.00  0.00     0.031 C 
ATOM     52  C   UNL A   1      38.012  33.741  34.484  1.00  0.00     0.029 A 
ATOM     53  C   UNL A   1      39.099  32.767  34.506  1.00  0.00     0.049 A 
ATOM     54  H   UNL A   1      39.669  31.466  32.984  1.00  0.00     0.167 HD
ATOM     55  C   UNL A   1      40.626  28.655  29.764  1.00  0.00     0.037 A 
ATOM     56  C   UNL A   1      39.932  32.551  35.541  1.00  0.00     0.037 A 
ATOM     57  C   UNL A   1      41.617  28.418  30.780  1.00  0.00     0.049 A 
ATOM     58  C   UNL A   1      41.013  31.514  35.409  1.00  0.00     0.074 A 
ATOM     59  C   UNL A   1      42.689  27.543  30.752  1.00  0.00     0.029 A 
ATOM     60  N   UNL A   1      41.656  29.059  32.009  1.00  0.00    -0.354 N 
ATOM     61  N   UNL A   1      41.288  30.733  34.393  1.00  0.00    -0.248 NA
ATOM     62  C   UNL A   1      41.902  31.333  36.565  1.00  0.00     0.031 C 
ATOM     63  C   UNL A   1      43.354  27.627  31.980  1.00  0.00     0.029 A 
ATOM     64  C   UNL A   1      42.721  28.585  32.756  1.00  0.00     0.049 A 
ATOM     65  H   UNL A   1      41.019  29.749  32.306  1.00  0.00     0.167 HD
ATOM     66  C   UNL A   1      42.397  29.990  34.774  1.00  0.00     0.074 A 
ATOM     67  C   UNL A   1      42.751  30.422  36.111  1.00  0.00     0.031 C 
ATOM     68  C   UNL A   1      43.063  29.034  34.081  1.00  0.00     0.037 A 
BRANCH  55  69
ATOM     69  C   UNL A   1      40.674  27.831  28.511  1.00  0.00     0.057 A 
ATOM     70  C   UNL A   1      39.978  26.620  28.399  1.00  0.00     0.134 A 
ATOM     71  C   UNL A   1      41.402  28.263  27.396  1.00  0.00     0.134 A 
ATOM     72  F   UNL A   1      39.273  26.142  29.435  1.00  0.00    -0.206 F 
ATOM     73  C   UNL A   1      40.027  25.855  27.233  1.00  0.00     0.040 A 
ATOM     74  C   UNL A   1      41.437  27.521  26.215  1.00  0.00     0.040 A 
ATOM     75  F   UNL A   1      42.087  29.416  27.435  1.00  0.00    -0.206 F 
ATOM     76  C   UNL A   1      40.753  26.309  26.134  1.00  0.00     0.006 A 
ENDBRANCH  55  69
BRANCH  56  77
ATOM     77  C   UNL A   1      39.797  33.350  36.784  1.00  0.00     0.057 A 
ATOM     78  C   UNL A   1      38.915  32.959  37.799  1.00  0.00     0.134 A 
ATOM     79  C   UNL A   1      40.534  34.522  36.986  1.00  0.00     0.134 A 
ATOM     80  F   UNL A   1      38.169  31.854  37.654  1.00  0.00    -0.206 F 
ATOM     81  C   UNL A   1      38.757  33.714  38.962  1.00  0.00     0.040 A 
ATOM     82  C   UNL A   1      40.404  35.275  38.154  1.00  0.00     0.040 A 
ATOM     83  F   UNL A   1      41.402  34.947  36.055  1.00  0.00    -0.206 F 
ATOM     84  C   UNL A   1      39.506  34.875  39.143  1.00  0.00     0.006 A 
ENDBRANCH  56  77
BRANCH  68  85
ATOM     85  C   UNL A   1      44.262  28.418  34.740  1.00  0.00     0.057 A 
ATOM     86  C   UNL A   1      45.532  29.003  34.659  1.00  0.00     0.134 A 
ATOM     87  C   UNL A   1      44.133  27.248  35.499  1.00  0.00     0.134 A 
ATOM     88  F   UNL A   1      45.723  30.116  33.935  1.00  0.00    -0.206 F 
ATOM     89  C   UNL A   1      46.637  28.433  35.291  1.00  0.00     0.040 A 
ATOM     90  C   UNL A   1      45.227  26.683  36.157  1.00  0.00     0.040 A 
ATOM     91  F   UNL A   1      42.942  26.643  35.624  1.00  0.00    -0.206 F 
ATOM     92  C   UNL A   1      46.484  27.274  36.050  1.00  0.00     0.006 A 
ENDBRANCH  68  85
ENDBRANCH  42  43
ENDBRANCH  34  37
ENDBRANCH  32  33
ENDBRANCH  31  32
ENDBRANCH   1  31
TORSDOF 14
ENDMDL
MODEL 3
REMARK VINA RESULT:     -12.7      2.662      8.142
REMARK SMILES Cn1cc(S(=O)(=O)N2CCCc3cc(C(=O)NCCCCNC(=O)c4ccc(-c5c6nc(c(-c7c(F)cccc7F)c7ccc([nH]7)c(-c7c(F)cccc7F)c7nc(c(-c8c(F)cccc8F)c8ccc5[nH]8)C=C7)C=C6)cc4)ccc32)cc1C(N)=O
REMARK SMILES IDX 19 1 18 2 17 3 15 4 16 5 14 7 8 8 9 9 81 10 10 11 12 12
REMARK SMILES IDX 80 13 11 14 13 15 79 16 5 17 6 18 7 19 4 20 1 21 2 22 3 23
REMARK SMILES IDX 83 24 82 25 84 26 85 27 86 28 20 31 21 32 22 33 23 34 24 36
REMARK SMILES IDX 25 37 26 38 78 39 27 40 77 41 28 42 29 43 30 44 71 45 31 46
REMARK SMILES IDX 76 47 70 48 72 49 32 50 75 51 69 52 68 53 33 55 59 56 42 57
REMARK SMILES IDX 58 58 43 59 46 60 57 61 73 62 44 63 45 64 56 66 74 67 47 68
REMARK SMILES IDX 34 69 35 70 40 71 36 72 37 73 39 74 41 75 38 76 60 77 61 78
REMARK SMILES IDX 66 79 62 80 63 81 65 82 67 83 64 84 48 85 49 86 54 87 50 88
REMARK SMILES IDX 51 89 53 90 55 91 52 92
REMARK H PARENT 17 6 85 29 85 30 22 35 72 54 46 65
REMARK Flexibility Score: inf
ROOT
ATOM      1  C   UNL A   1      32.882  29.638  25.038  1.00  0.00     0.023 C 
ENDROOT
BRANCH   1   2
ATOM      2  C   UNL A   1      31.370  29.832  25.163  1.00  0.00     0.116 C 
BRANCH   2   3
ATOM      3  N   UNL A   1      30.737  29.745  23.863  1.00  0.00    -0.352 N 
ATOM      4  C   UNL A   1      30.497  28.683  23.029  1.00  0.00     0.251 C 
ATOM      5  O   UNL A   1      29.913  28.917  21.970  1.00  0.00    -0.269 OA
ATOM      6  H   UNL A   1      30.422  30.609  23.513  1.00  0.00     0.163 HD
BRANCH   4   7
ATOM      7  C   UNL A   1      30.861  27.273  23.356  1.00  0.00     0.040 A 
ATOM      8  N   UNL A   1      31.832  23.324  24.632  1.00  0.00    -0.266 N 
ATOM      9  C   UNL A   1      30.905  22.656  25.563  1.00  0.00     0.136 C 
ATOM     10  C   UNL A   1      31.501  24.644  24.183  1.00  0.00     0.055 A 
ATOM     11  C   UNL A   1      30.592  23.602  26.710  1.00  0.00     0.028 C 
ATOM     12  C   UNL A   1      30.642  25.434  24.962  1.00  0.00    -0.023 A 
ATOM     13  C   UNL A   1      31.946  25.134  22.957  1.00  0.00     0.028 A 
ATOM     14  C   UNL A   1      29.949  24.880  26.181  1.00  0.00     0.039 C 
ATOM     15  C   UNL A   1      30.345  26.746  24.551  1.00  0.00     0.019 A 
ATOM     16  C   UNL A   1      31.617  26.429  22.543  1.00  0.00     0.016 A 
BRANCH   8  17
ATOM     17  S   UNL A   1      33.409  22.710  24.490  1.00  0.00     0.265 S 
ATOM     18  O   UNL A   1      34.067  22.796  25.780  1.00  0.00    -0.201 OA
ATOM     19  O   UNL A   1      34.053  23.152  23.276  1.00  0.00    -0.201 OA
BRANCH  17  20
ATOM     20  C   UNL A   1      33.245  21.000  24.251  1.00  0.00     0.106 A 
ATOM     21  C   UNL A   1      32.153  18.073  22.446  1.00  0.00     0.150 C 
ATOM     22  N   UNL A   1      32.726  19.017  23.383  1.00  0.00    -0.345 N 
ATOM     23  C   UNL A   1      32.597  20.376  23.210  1.00  0.00     0.108 A 
ATOM     24  C   UNL A   1      33.452  18.744  24.535  1.00  0.00     0.107 A 
ATOM     25  C   UNL A   1      33.755  19.985  25.092  1.00  0.00     0.056 A 
BRANCH  24  26
ATOM     26  C   UNL A   1      33.804  17.423  25.027  1.00  0.00     0.265 C 
ATOM     27  N   UNL A   1      33.116  16.989  26.124  1.00  0.00    -0.364 N 
ATOM     28  O   UNL A   1      34.660  16.689  24.545  1.00  0.00    -0.268 OA
ATOM     29  H   UNL A   1      32.424  17.561  26.528  1.00  0.00     0.160 HD
ATOM     30  H   UNL A   1      33.312  16.105  26.509  1.00  0.00     0.160 HD
ENDBRANCH  24  26
ENDBRANCH  17  20
ENDBRANCH   8  17
ENDBRANCH   4   7
ENDBRANCH   2   3
ENDBRANCH   1   2
BRANCH   1  31
ATOM     31  C   UNL A   1      33.414  28.371  25.712  1.00  0.00     0.023 C 
BRANCH  31  32
ATOM     32  C   UNL A   1      33.807  28.541  27.175  1.00  0.00     0.116 C 
BRANCH  32  33
ATOM     33  N   UNL A   1      33.762  29.924  27.626  1.00  0.00    -0.352 N 
ATOM     34  C   UNL A   1      34.766  30.664  28.202  1.00  0.00     0.251 C 
ATOM     35  H   UNL A   1      32.903  30.389  27.501  1.00  0.00     0.163 HD
ATOM     36  O   UNL A   1      34.547  31.794  28.624  1.00  0.00    -0.269 OA
BRANCH  34  37
ATOM     37  C   UNL A   1      36.105  30.062  28.350  1.00  0.00     0.039 A 
ATOM     38  C   UNL A   1      36.989  30.116  27.270  1.00  0.00     0.014 A 
ATOM     39  C   UNL A   1      36.499  29.493  29.564  1.00  0.00     0.014 A 
ATOM     40  C   UNL A   1      38.297  29.658  27.431  1.00  0.00     0.010 A 
ATOM     41  C   UNL A   1      37.821  29.102  29.742  1.00  0.00     0.010 A 
ATOM     42  C   UNL A   1      38.732  29.184  28.678  1.00  0.00    -0.014 A 
BRANCH  42  43
ATOM     43  C   UNL A   1      40.140  28.774  28.894  1.00  0.00     0.031 A 
ATOM     44  C   UNL A   1      41.125  29.742  29.486  1.00  0.00     0.074 A 
ATOM     45  C   UNL A   1      40.547  27.555  28.491  1.00  0.00     0.049 A 
ATOM     46  N   UNL A   1      42.409  29.596  29.687  1.00  0.00    -0.248 NA
ATOM     47  C   UNL A   1      40.601  31.061  29.876  1.00  0.00     0.031 C 
ATOM     48  C   UNL A   1      39.697  26.546  27.855  1.00  0.00     0.029 A 
ATOM     49  N   UNL A   1      41.783  26.961  28.547  1.00  0.00    -0.354 N 
ATOM     50  C   UNL A   1      42.848  30.804  30.212  1.00  0.00     0.074 A 
ATOM     51  C   UNL A   1      41.705  31.691  30.249  1.00  0.00     0.031 C 
ATOM     52  C   UNL A   1      40.431  25.450  27.601  1.00  0.00     0.029 A 
ATOM     53  C   UNL A   1      41.808  25.692  28.023  1.00  0.00     0.049 A 
ATOM     54  H   UNL A   1      42.576  27.403  28.927  1.00  0.00     0.167 HD
ATOM     55  C   UNL A   1      44.087  31.138  30.645  1.00  0.00     0.037 A 
ATOM     56  C   UNL A   1      42.828  24.822  27.895  1.00  0.00     0.037 A 
ATOM     57  C   UNL A   1      45.215  30.244  30.633  1.00  0.00     0.049 A 
ATOM     58  C   UNL A   1      44.193  25.215  28.388  1.00  0.00     0.074 A 
ATOM     59  C   UNL A   1      46.495  30.465  31.109  1.00  0.00     0.029 A 
ATOM     60  N   UNL A   1      45.196  28.957  30.115  1.00  0.00    -0.354 N 
ATOM     61  N   UNL A   1      44.578  26.336  28.946  1.00  0.00    -0.248 NA
ATOM     62  C   UNL A   1      45.263  24.220  28.236  1.00  0.00     0.031 C 
ATOM     63  C   UNL A   1      47.262  29.325  30.845  1.00  0.00     0.029 A 
ATOM     64  C   UNL A   1      46.447  28.379  30.243  1.00  0.00     0.049 A 
ATOM     65  H   UNL A   1      44.408  28.521  29.716  1.00  0.00     0.167 HD
ATOM     66  C   UNL A   1      45.925  26.171  29.240  1.00  0.00     0.074 A 
ATOM     67  C   UNL A   1      46.288  24.837  28.807  1.00  0.00     0.031 C 
ATOM     68  C   UNL A   1      46.786  27.046  29.815  1.00  0.00     0.037 A 
BRANCH  55  69
ATOM     69  C   UNL A   1      44.281  32.528  31.175  1.00  0.00     0.057 A 
ATOM     70  C   UNL A   1      44.100  32.832  32.531  1.00  0.00     0.134 A 
ATOM     71  C   UNL A   1      44.681  33.569  30.328  1.00  0.00     0.134 A 
ATOM     72  F   UNL A   1      43.704  31.883  33.394  1.00  0.00    -0.206 F 
ATOM     73  C   UNL A   1      44.280  34.126  33.020  1.00  0.00     0.040 A 
ATOM     74  C   UNL A   1      44.891  34.861  30.809  1.00  0.00     0.040 A 
ATOM     75  F   UNL A   1      44.877  33.345  29.020  1.00  0.00    -0.206 F 
ATOM     76  C   UNL A   1      44.683  35.144  32.159  1.00  0.00     0.006 A 
ENDBRANCH  55  69
BRANCH  56  77
ATOM     77  C   UNL A   1      42.593  23.483  27.301  1.00  0.00     0.057 A 
ATOM     78  C   UNL A   1      42.181  22.406  28.094  1.00  0.00     0.134 A 
ATOM     79  C   UNL A   1      42.780  23.244  25.935  1.00  0.00     0.134 A 
ATOM     80  F   UNL A   1      42.003  22.569  29.414  1.00  0.00    -0.206 F 
ATOM     81  C   UNL A   1      41.982  21.134  27.555  1.00  0.00     0.040 A 
ATOM     82  C   UNL A   1      42.562  21.983  25.377  1.00  0.00     0.040 A 
ATOM     83  F   UNL A   1      43.167  24.237  25.120  1.00  0.00    -0.206 F 
ATOM     84  C   UNL A   1      42.170  20.921  26.190  1.00  0.00     0.006 A 
ENDBRANCH  56  77
BRANCH  68  85
ATOM     85  C   UNL A   1      48.192  26.575  30.042  1.00  0.00     0.057 A 
ATOM     86  C   UNL A   1      48.565  25.896  31.209  1.00  0.00     0.134 A 
ATOM     87  C   UNL A   1      49.174  26.770  29.062  1.00  0.00     0.134 A 
ATOM     88  F   UNL A   1      47.674  25.692  32.190  1.00  0.00    -0.206 F 
ATOM     89  C   UNL A   1      49.871  25.445  31.403  1.00  0.00     0.040 A 
ATOM     90  C   UNL A   1      50.478  26.300  29.234  1.00  0.00     0.040 A 
ATOM     91  F   UNL A   1      48.881  27.405  27.918  1.00  0.00    -0.206 F 
ATOM     92  C   UNL A   1      50.829  25.640  30.409  1.00  0.00     0.006 A 
ENDBRANCH  68  85
ENDBRANCH  42  43
ENDBRANCH  34  37
ENDBRANCH  32  33
ENDBRANCH  31  32
ENDBRANCH   1  31
TORSDOF 14
ENDMDL
