MODEL 1
REMARK VINA RESULT:     -11.9      0.000      0.000
REMARK SMILES O=C(NCCCCNC(=O)c1cc(Cl)cc(Cl)c1NC(=S)NC(=O)c1cccc([N+](=O)[O-])c1)c1ccc(-c2c3nc(c(-c4c(F)cccc4F)c4ccc([nH]4)c(-c4c(F)cccc4F)c4nc(c(-c5c(F)cccc5F)c5ccc2[nH]5)C=C4)C=C3)cc1
REMARK SMILES IDX 7 1 6 2 5 3 4 4 3 5 1 6 2 7 34 9 35 10 87 11 36 12 86 13
REMARK SMILES IDX 37 14 38 15 39 16 80 17 40 18 85 19 79 20 81 21 41 22 84 23
REMARK SMILES IDX 78 24 77 25 42 27 68 28 51 29 67 30 52 31 55 32 66 33 82 34
REMARK SMILES IDX 53 35 54 36 65 38 83 39 56 40 43 41 44 42 49 43 45 44 46 45
REMARK SMILES IDX 48 46 50 47 47 48 69 49 70 50 75 51 71 52 72 53 74 54 76 55
REMARK SMILES IDX 73 56 57 57 58 58 63 59 59 60 60 61 62 62 64 63 61 64 8 65
REMARK SMILES IDX 9 66 10 68 11 69 12 70 18 71 13 72 16 73 14 74 15 75 17 76
REMARK SMILES IDX 19 77 20 79 21 80 22 81 23 82 24 84 25 85 26 86 33 87 27 88
REMARK SMILES IDX 29 89 28 90 30 91 31 92 32 93
REMARK H PARENT 3 8 81 26 55 37 8 67 19 78 22 83
REMARK Flexibility Score: inf
ROOT
ATOM      1  C   UNL A   1      34.026  29.321  26.614  1.00  0.00     0.116 C 
ENDROOT
BRANCH   1   2
ATOM      2  C   UNL A   1      34.516  30.632  27.219  1.00  0.00     0.023 C 
BRANCH   2   3
ATOM      3  C   UNL A   1      33.406  31.561  27.693  1.00  0.00     0.023 C 
BRANCH   3   4
ATOM      4  C   UNL A   1      33.521  32.992  27.187  1.00  0.00     0.116 C 
BRANCH   4   5
ATOM      5  N   UNL A   1      32.865  33.958  28.058  1.00  0.00    -0.352 N 
ATOM      6  O   UNL A   1      32.616  35.183  29.950  1.00  0.00    -0.269 OA
ATOM      7  C   UNL A   1      33.312  34.447  29.262  1.00  0.00     0.251 C 
ATOM      8  H   UNL A   1      31.997  34.302  27.748  1.00  0.00     0.163 HD
BRANCH   7   9
ATOM      9  C   UNL A   1      34.643  34.020  29.720  1.00  0.00     0.039 A 
ATOM     10  C   UNL A   1      35.777  34.426  29.007  1.00  0.00     0.014 A 
ATOM     11  C   UNL A   1      34.736  33.114  30.776  1.00  0.00     0.014 A 
ATOM     12  C   UNL A   1      36.993  33.812  29.265  1.00  0.00     0.010 A 
ATOM     13  C   UNL A   1      35.976  32.562  31.086  1.00  0.00     0.010 A 
ATOM     14  C   UNL A   1      37.105  32.882  30.312  1.00  0.00    -0.014 A 
BRANCH  14  15
ATOM     15  C   UNL A   1      38.422  32.290  30.632  1.00  0.00     0.031 A 
ATOM     16  C   UNL A   1      38.874  31.016  29.983  1.00  0.00     0.074 A 
ATOM     17  C   UNL A   1      39.194  32.908  31.542  1.00  0.00     0.049 A 
ATOM     18  N   UNL A   1      39.940  30.299  30.230  1.00  0.00    -0.248 NA
ATOM     19  C   UNL A   1      38.012  30.467  28.923  1.00  0.00     0.031 C 
ATOM     20  C   UNL A   1      38.850  34.157  32.229  1.00  0.00     0.029 A 
ATOM     21  N   UNL A   1      40.418  32.571  32.055  1.00  0.00    -0.354 N 
ATOM     22  C   UNL A   1      39.864  29.200  29.385  1.00  0.00     0.074 A 
ATOM     23  C   UNL A   1      38.641  29.338  28.622  1.00  0.00     0.031 C 
ATOM     24  C   UNL A   1      39.846  34.488  33.061  1.00  0.00     0.029 A 
ATOM     25  C   UNL A   1      40.859  33.442  33.020  1.00  0.00     0.049 A 
ATOM     26  H   UNL A   1      40.930  31.783  31.761  1.00  0.00     0.167 HD
ATOM     27  C   UNL A   1      40.738  28.172  29.263  1.00  0.00     0.037 A 
ATOM     28  C   UNL A   1      41.941  33.384  33.816  1.00  0.00     0.037 A 
ATOM     29  C   UNL A   1      41.960  28.060  30.019  1.00  0.00     0.049 A 
ATOM     30  C   UNL A   1      42.879  32.225  33.681  1.00  0.00     0.074 A 
ATOM     31  C   UNL A   1      42.933  27.077  29.950  1.00  0.00     0.029 A 
ATOM     32  N   UNL A   1      42.374  28.963  30.989  1.00  0.00    -0.354 N 
ATOM     33  N   UNL A   1      42.803  31.196  32.873  1.00  0.00    -0.248 NA
ATOM     34  C   UNL A   1      44.046  32.212  34.571  1.00  0.00     0.031 C 
ATOM     35  C   UNL A   1      43.915  27.367  30.903  1.00  0.00     0.029 A 
ATOM     36  C   UNL A   1      43.578  28.551  31.537  1.00  0.00     0.049 A 
ATOM     37  H   UNL A   1      41.885  29.778  31.247  1.00  0.00     0.167 HD
ATOM     38  C   UNL A   1      43.922  30.420  33.139  1.00  0.00     0.074 A 
ATOM     39  C   UNL A   1      44.663  31.104  34.181  1.00  0.00     0.031 C 
ATOM     40  C   UNL A   1      44.301  29.251  32.570  1.00  0.00     0.037 A 
BRANCH  27  41
ATOM     41  C   UNL A   1      40.389  27.073  28.302  1.00  0.00     0.057 A 
ATOM     42  C   UNL A   1      40.942  27.004  27.016  1.00  0.00     0.134 A 
ATOM     43  C   UNL A   1      39.506  26.052  28.679  1.00  0.00     0.134 A 
ATOM     44  F   UNL A   1      41.784  27.955  26.587  1.00  0.00    -0.206 F 
ATOM     45  C   UNL A   1      40.609  25.975  26.133  1.00  0.00     0.040 A 
ATOM     46  C   UNL A   1      39.184  25.006  27.813  1.00  0.00     0.040 A 
ATOM     47  F   UNL A   1      38.945  26.054  29.898  1.00  0.00    -0.206 F 
ATOM     48  C   UNL A   1      39.732  24.968  26.533  1.00  0.00     0.006 A 
ENDBRANCH  27  41
BRANCH  28  49
ATOM     49  C   UNL A   1      42.163  34.460  34.809  1.00  0.00     0.057 A 
ATOM     50  C   UNL A   1      42.867  35.619  34.472  1.00  0.00     0.134 A 
ATOM     51  C   UNL A   1      41.612  34.385  36.095  1.00  0.00     0.134 A 
ATOM     52  F   UNL A   1      43.423  35.743  33.258  1.00  0.00    -0.206 F 
ATOM     53  C   UNL A   1      43.017  36.670  35.379  1.00  0.00     0.040 A 
ATOM     54  C   UNL A   1      41.733  35.436  37.003  1.00  0.00     0.040 A 
ATOM     55  F   UNL A   1      40.910  33.305  36.469  1.00  0.00    -0.206 F 
ATOM     56  C   UNL A   1      42.439  36.582  36.646  1.00  0.00     0.006 A 
ENDBRANCH  28  49
BRANCH  40  57
ATOM     57  C   UNL A   1      45.595  28.658  33.036  1.00  0.00     0.057 A 
ATOM     58  C   UNL A   1      46.817  28.998  32.446  1.00  0.00     0.134 A 
ATOM     59  C   UNL A   1      45.619  27.769  34.118  1.00  0.00     0.134 A 
ATOM     60  F   UNL A   1      46.857  29.832  31.394  1.00  0.00    -0.206 F 
ATOM     61  C   UNL A   1      48.020  28.463  32.907  1.00  0.00     0.040 A 
ATOM     62  C   UNL A   1      46.817  27.244  34.602  1.00  0.00     0.040 A 
ATOM     63  F   UNL A   1      44.480  27.408  34.728  1.00  0.00    -0.206 F 
ATOM     64  C   UNL A   1      48.022  27.590  33.994  1.00  0.00     0.006 A 
ENDBRANCH  40  57
ENDBRANCH  14  15
ENDBRANCH   7   9
ENDBRANCH   4   5
ENDBRANCH   3   4
ENDBRANCH   2   3
ENDBRANCH   1   2
BRANCH   1  65
ATOM     65  N   UNL A   1      33.152  28.589  27.510  1.00  0.00    -0.352 N 
ATOM     66  C   UNL A   1      31.906  28.090  27.244  1.00  0.00     0.253 C 
ATOM     67  H   UNL A   1      33.495  28.432  28.419  1.00  0.00     0.163 HD
ATOM     68  O   UNL A   1      31.171  27.673  28.125  1.00  0.00    -0.269 OA
BRANCH  66  69
ATOM     69  C   UNL A   1      31.441  28.109  25.857  1.00  0.00     0.066 A 
ATOM     70  C   UNL A   1      30.732  29.626  25.192  1.00  0.00     0.036 A 
ATOM     71  C   UNL A   1      31.659  26.638  24.919  1.00  0.00     0.072 A 
ATOM     72  C   UNL A   1      30.203  29.770  23.490  1.00  0.00     0.043 A 
ATOM     73  C   UNL A   1      31.009  26.605  23.329  1.00  0.00     0.066 A 
ATOM     74  Cl  UNL A   1      29.484  31.205  22.905  1.00  0.00    -0.084 Cl
ATOM     75  C   UNL A   1      30.324  28.290  22.444  1.00  0.00     0.043 A 
ATOM     76  Cl  UNL A   1      30.370  24.666  23.429  1.00  0.00    -0.082 Cl
BRANCH  71  77
ATOM     77  N   UNL A   1      32.855  25.861  24.923  1.00  0.00    -0.330 N 
ATOM     78  H   UNL A   1      33.520  26.130  24.250  1.00  0.00     0.169 HD
BRANCH  77  79
ATOM     79  C   UNL A   1      33.238  24.789  25.714  1.00  0.00     0.177 C 
ATOM     80  S   UNL A   1      32.028  24.098  26.658  1.00  0.00    -0.040 S 
BRANCH  79  81
ATOM     81  N   UNL A   1      34.539  24.174  25.845  1.00  0.00    -0.299 N 
ATOM     82  C   UNL A   1      35.581  23.104  25.609  1.00  0.00     0.257 C 
ATOM     83  H   UNL A   1      35.022  24.819  26.410  1.00  0.00     0.172 HD
ATOM     84  O   UNL A   1      36.580  23.047  26.320  1.00  0.00    -0.269 OA
BRANCH  82  85
ATOM     85  C   UNL A   1      35.415  22.076  24.487  1.00  0.00     0.047 A 
ATOM     86  C   UNL A   1      34.454  20.633  24.954  1.00  0.00     0.014 A 
ATOM     87  C   UNL A   1      35.020  23.109  23.179  1.00  0.00     0.099 A 
ATOM     88  C   UNL A   1      32.808  20.314  24.311  1.00  0.00     0.008 A 
ATOM     89  C   UNL A   1      33.430  22.962  22.458  1.00  0.00     0.270 A 
ATOM     90  C   UNL A   1      32.168  21.514  23.104  1.00  0.00     0.085 A 
BRANCH  89  91
ATOM     91  N   UNL A   1      33.480  24.080  21.373  1.00  0.00     0.062 N 
ATOM     92  O   UNL A   1      33.472  25.257  21.760  1.00  0.00    -0.258 OA
ATOM     93  O   UNL A   1      33.326  23.714  20.202  1.00  0.00    -0.258 OA
ENDBRANCH  89  91
ENDBRANCH  82  85
ENDBRANCH  79  81
ENDBRANCH  77  79
ENDBRANCH  71  77
ENDBRANCH  66  69
ENDBRANCH   1  65
TORSDOF 16
ENDMDL
MODEL 2
REMARK VINA RESULT:     -11.7      0.466      5.899
REMARK SMILES O=C(NCCCCNC(=O)c1cc(Cl)cc(Cl)c1NC(=S)NC(=O)c1cccc([N+](=O)[O-])c1)c1ccc(-c2c3nc(c(-c4c(F)cccc4F)c4ccc([nH]4)c(-c4c(F)cccc4F)c4nc(c(-c5c(F)cccc5F)c5ccc2[nH]5)C=C4)C=C3)cc1
REMARK SMILES IDX 7 1 6 2 5 3 4 4 3 5 1 6 2 7 34 9 35 10 87 11 36 12 86 13
REMARK SMILES IDX 37 14 38 15 39 16 80 17 40 18 85 19 79 20 81 21 41 22 84 23
REMARK SMILES IDX 78 24 77 25 42 27 68 28 51 29 67 30 52 31 55 32 66 33 82 34
REMARK SMILES IDX 53 35 54 36 65 38 83 39 56 40 43 41 44 42 49 43 45 44 46 45
REMARK SMILES IDX 48 46 50 47 47 48 69 49 70 50 75 51 71 52 72 53 74 54 76 55
REMARK SMILES IDX 73 56 57 57 58 58 63 59 59 60 60 61 62 62 64 63 61 64 8 65
REMARK SMILES IDX 9 66 10 68 11 69 12 70 18 71 13 72 16 73 14 74 15 75 17 76
REMARK SMILES IDX 19 77 20 79 21 80 22 81 23 82 24 84 25 85 26 86 33 87 27 88
REMARK SMILES IDX 29 89 28 90 30 91 31 92 32 93
REMARK H PARENT 3 8 81 26 55 37 8 67 19 78 22 83
REMARK Flexibility Score: inf
ROOT
ATOM      1  C   UNL A   1      34.015  29.324  26.664  1.00  0.00     0.116 C 
ENDROOT
BRANCH   1   2
ATOM      2  C   UNL A   1      34.505  30.644  27.246  1.00  0.00     0.023 C 
BRANCH   2   3
ATOM      3  C   UNL A   1      33.395  31.615  27.630  1.00  0.00     0.023 C 
BRANCH   3   4
ATOM      4  C   UNL A   1      33.642  33.055  27.206  1.00  0.00     0.116 C 
BRANCH   4   5
ATOM      5  N   UNL A   1      32.964  34.023  28.058  1.00  0.00    -0.352 N 
ATOM      6  O   UNL A   1      32.607  35.179  29.976  1.00  0.00    -0.269 OA
ATOM      7  C   UNL A   1      33.320  34.430  29.321  1.00  0.00     0.251 C 
ATOM      8  H   UNL A   1      32.151  34.435  27.686  1.00  0.00     0.163 HD
BRANCH   7   9
ATOM      9  C   UNL A   1      34.574  33.899  29.880  1.00  0.00     0.039 A 
ATOM     10  C   UNL A   1      35.793  34.265  29.300  1.00  0.00     0.014 A 
ATOM     11  C   UNL A   1      34.510  32.941  30.892  1.00  0.00     0.014 A 
ATOM     12  C   UNL A   1      36.940  33.564  29.640  1.00  0.00     0.010 A 
ATOM     13  C   UNL A   1      35.679  32.298  31.289  1.00  0.00     0.010 A 
ATOM     14  C   UNL A   1      36.894  32.582  30.643  1.00  0.00    -0.014 A 
BRANCH  14  15
ATOM     15  C   UNL A   1      38.137  31.893  31.055  1.00  0.00     0.031 A 
ATOM     16  C   UNL A   1      38.987  32.432  32.168  1.00  0.00     0.074 A 
ATOM     17  C   UNL A   1      38.501  30.783  30.389  1.00  0.00     0.049 A 
ATOM     18  N   UNL A   1      40.159  32.024  32.580  1.00  0.00    -0.248 NA
ATOM     19  C   UNL A   1      38.457  33.588  32.909  1.00  0.00     0.031 C 
ATOM     20  C   UNL A   1      37.742  30.172  29.295  1.00  0.00     0.029 A 
ATOM     21  N   UNL A   1      39.601  29.979  30.524  1.00  0.00    -0.354 N 
ATOM     22  C   UNL A   1      40.525  32.888  33.604  1.00  0.00     0.074 A 
ATOM     23  C   UNL A   1      39.453  33.851  33.745  1.00  0.00     0.031 C 
ATOM     24  C   UNL A   1      38.391  29.081  28.868  1.00  0.00     0.029 A 
ATOM     25  C   UNL A   1      39.641  28.960  29.606  1.00  0.00     0.049 A 
ATOM     26  H   UNL A   1      40.294  30.119  31.209  1.00  0.00     0.167 HD
ATOM     27  C   UNL A   1      41.654  32.875  34.352  1.00  0.00     0.037 A 
ATOM     28  C   UNL A   1      40.599  28.050  29.356  1.00  0.00     0.037 A 
ATOM     29  C   UNL A   1      42.704  31.897  34.207  1.00  0.00     0.049 A 
ATOM     30  C   UNL A   1      41.850  28.071  30.178  1.00  0.00     0.074 A 
ATOM     31  C   UNL A   1      43.874  31.772  34.935  1.00  0.00     0.029 A 
ATOM     32  N   UNL A   1      42.708  30.877  33.266  1.00  0.00    -0.354 N 
ATOM     33  N   UNL A   1      42.182  28.887  31.149  1.00  0.00    -0.248 NA
ATOM     34  C   UNL A   1      42.862  27.055  29.868  1.00  0.00     0.031 C 
ATOM     35  C   UNL A   1      44.604  30.700  34.409  1.00  0.00     0.029 A 
ATOM     36  C   UNL A   1      43.869  30.130  33.382  1.00  0.00     0.049 A 
ATOM     37  H   UNL A   1      41.991  30.708  32.612  1.00  0.00     0.167 HD
ATOM     38  C   UNL A   1      43.432  28.472  31.583  1.00  0.00     0.074 A 
ATOM     39  C   UNL A   1      43.795  27.327  30.770  1.00  0.00     0.031 C 
ATOM     40  C   UNL A   1      44.207  28.991  32.566  1.00  0.00     0.037 A 
BRANCH  27  41
ATOM     41  C   UNL A   1      41.828  33.965  35.368  1.00  0.00     0.057 A 
ATOM     42  C   UNL A   1      42.491  35.163  35.070  1.00  0.00     0.134 A 
ATOM     43  C   UNL A   1      41.299  33.825  36.659  1.00  0.00     0.134 A 
ATOM     44  F   UNL A   1      43.031  35.357  33.859  1.00  0.00    -0.206 F 
ATOM     45  C   UNL A   1      42.644  36.170  36.026  1.00  0.00     0.040 A 
ATOM     46  C   UNL A   1      41.425  34.835  37.615  1.00  0.00     0.040 A 
ATOM     47  F   UNL A   1      40.647  32.706  37.009  1.00  0.00    -0.206 F 
ATOM     48  C   UNL A   1      42.105  36.009  37.301  1.00  0.00     0.006 A 
ENDBRANCH  27  41
BRANCH  28  49
ATOM     49  C   UNL A   1      40.393  27.067  28.267  1.00  0.00     0.057 A 
ATOM     50  C   UNL A   1      41.018  27.223  27.027  1.00  0.00     0.134 A 
ATOM     51  C   UNL A   1      39.625  25.912  28.468  1.00  0.00     0.134 A 
ATOM     52  F   UNL A   1      41.759  28.312  26.777  1.00  0.00    -0.206 F 
ATOM     53  C   UNL A   1      40.888  26.264  26.021  1.00  0.00     0.040 A 
ATOM     54  C   UNL A   1      39.506  24.935  27.481  1.00  0.00     0.040 A 
ATOM     55  F   UNL A   1      39.016  25.700  29.644  1.00  0.00    -0.206 F 
ATOM     56  C   UNL A   1      40.138  25.111  26.252  1.00  0.00     0.006 A 
ENDBRANCH  28  49
BRANCH  40  57
ATOM     57  C   UNL A   1      45.506  28.299  32.842  1.00  0.00     0.057 A 
ATOM     58  C   UNL A   1      46.700  28.698  32.231  1.00  0.00     0.134 A 
ATOM     59  C   UNL A   1      45.567  27.246  33.765  1.00  0.00     0.134 A 
ATOM     60  F   UNL A   1      46.702  29.689  31.325  1.00  0.00    -0.206 F 
ATOM     61  C   UNL A   1      47.909  28.065  32.517  1.00  0.00     0.040 A 
ATOM     62  C   UNL A   1      46.774  26.620  34.075  1.00  0.00     0.040 A 
ATOM     63  F   UNL A   1      44.458  26.820  34.386  1.00  0.00    -0.206 F 
ATOM     64  C   UNL A   1      47.949  27.028  33.448  1.00  0.00     0.006 A 
ENDBRANCH  40  57
ENDBRANCH  14  15
ENDBRANCH   7   9
ENDBRANCH   4   5
ENDBRANCH   3   4
ENDBRANCH   2   3
ENDBRANCH   1   2
BRANCH   1  65
ATOM     65  N   UNL A   1      33.101  28.631  27.550  1.00  0.00    -0.352 N 
ATOM     66  C   UNL A   1      31.841  28.179  27.269  1.00  0.00     0.253 C 
ATOM     67  H   UNL A   1      33.425  28.466  28.465  1.00  0.00     0.163 HD
ATOM     68  O   UNL A   1      31.078  27.795  28.142  1.00  0.00    -0.269 OA
BRANCH  66  69
ATOM     69  C   UNL A   1      31.397  28.208  25.875  1.00  0.00     0.066 A 
ATOM     70  C   UNL A   1      30.661  29.717  25.223  1.00  0.00     0.036 A 
ATOM     71  C   UNL A   1      31.664  26.757  24.919  1.00  0.00     0.072 A 
ATOM     72  C   UNL A   1      30.154  29.875  23.515  1.00  0.00     0.043 A 
ATOM     73  C   UNL A   1      31.039  26.734  23.319  1.00  0.00     0.066 A 
ATOM     74  Cl  UNL A   1      29.410  31.302  22.941  1.00  0.00    -0.084 Cl
ATOM     75  C   UNL A   1      30.326  28.415  22.450  1.00  0.00     0.043 A 
ATOM     76  Cl  UNL A   1      30.445  24.779  23.380  1.00  0.00    -0.082 Cl
BRANCH  71  77
ATOM     77  N   UNL A   1      32.878  26.009  24.930  1.00  0.00    -0.330 N 
ATOM     78  H   UNL A   1      33.550  26.311  24.278  1.00  0.00     0.169 HD
BRANCH  77  79
ATOM     79  C   UNL A   1      33.270  24.927  25.702  1.00  0.00     0.177 C 
ATOM     80  S   UNL A   1      32.062  24.194  26.616  1.00  0.00    -0.040 S 
BRANCH  79  81
ATOM     81  N   UNL A   1      34.580  24.332  25.835  1.00  0.00    -0.299 N 
ATOM     82  C   UNL A   1      35.631  23.264  25.626  1.00  0.00     0.257 C 
ATOM     83  H   UNL A   1      35.065  25.006  26.365  1.00  0.00     0.172 HD
ATOM     84  O   UNL A   1      36.642  23.247  26.322  1.00  0.00    -0.269 OA
BRANCH  82  85
ATOM     85  C   UNL A   1      35.457  22.188  24.551  1.00  0.00     0.047 A 
ATOM     86  C   UNL A   1      34.509  20.762  25.090  1.00  0.00     0.014 A 
ATOM     87  C   UNL A   1      35.042  23.163  23.205  1.00  0.00     0.099 A 
ATOM     88  C   UNL A   1      32.857  20.408  24.481  1.00  0.00     0.008 A 
ATOM     89  C   UNL A   1      33.445  22.977  22.509  1.00  0.00     0.270 A 
ATOM     90  C   UNL A   1      32.197  21.553  23.232  1.00  0.00     0.085 A 
BRANCH  89  91
ATOM     91  N   UNL A   1      33.476  24.048  21.377  1.00  0.00     0.062 N 
ATOM     92  O   UNL A   1      33.467  25.240  21.714  1.00  0.00    -0.258 OA
ATOM     93  O   UNL A   1      33.309  23.631  20.225  1.00  0.00    -0.258 OA
ENDBRANCH  89  91
ENDBRANCH  82  85
ENDBRANCH  79  81
ENDBRANCH  77  79
ENDBRANCH  71  77
ENDBRANCH  66  69
ENDBRANCH   1  65
TORSDOF 16
ENDMDL
MODEL 3
REMARK VINA RESULT:     -11.4      1.772      2.758
REMARK SMILES O=C(NCCCCNC(=O)c1cc(Cl)cc(Cl)c1NC(=S)NC(=O)c1cccc([N+](=O)[O-])c1)c1ccc(-c2c3nc(c(-c4c(F)cccc4F)c4ccc([nH]4)c(-c4c(F)cccc4F)c4nc(c(-c5c(F)cccc5F)c5ccc2[nH]5)C=C4)C=C3)cc1
REMARK SMILES IDX 7 1 6 2 5 3 4 4 3 5 1 6 2 7 34 9 35 10 87 11 36 12 86 13
REMARK SMILES IDX 37 14 38 15 39 16 80 17 40 18 85 19 79 20 81 21 41 22 84 23
REMARK SMILES IDX 78 24 77 25 42 27 68 28 51 29 67 30 52 31 55 32 66 33 82 34
REMARK SMILES IDX 53 35 54 36 65 38 83 39 56 40 43 41 44 42 49 43 45 44 46 45
REMARK SMILES IDX 48 46 50 47 47 48 69 49 70 50 75 51 71 52 72 53 74 54 76 55
REMARK SMILES IDX 73 56 57 57 58 58 63 59 59 60 60 61 62 62 64 63 61 64 8 65
REMARK SMILES IDX 9 66 10 68 11 69 12 70 18 71 13 72 16 73 14 74 15 75 17 76
REMARK SMILES IDX 19 77 20 79 21 80 22 81 23 82 24 84 25 85 26 86 33 87 27 88
REMARK SMILES IDX 29 89 28 90 30 91 31 92 32 93
REMARK H PARENT 3 8 81 26 55 37 8 67 19 78 22 83
REMARK Flexibility Score: inf
ROOT
ATOM      1  C   UNL A   1      34.338  29.555  26.830  1.00  0.00     0.116 C 
ENDROOT
BRANCH   1   2
ATOM      2  C   UNL A   1      34.616  30.813  27.644  1.00  0.00     0.023 C 
BRANCH   2   3
ATOM      3  C   UNL A   1      33.433  31.766  27.756  1.00  0.00     0.023 C 
BRANCH   3   4
ATOM      4  C   UNL A   1      33.707  33.175  27.251  1.00  0.00     0.116 C 
BRANCH   4   5
ATOM      5  N   UNL A   1      32.991  34.198  28.001  1.00  0.00    -0.352 N 
ATOM      6  O   UNL A   1      32.528  35.464  29.824  1.00  0.00    -0.269 OA
ATOM      7  C   UNL A   1      33.270  34.670  29.261  1.00  0.00     0.251 C 
ATOM      8  H   UNL A   1      32.213  34.600  27.552  1.00  0.00     0.163 HD
BRANCH   7   9
ATOM      9  C   UNL A   1      34.474  34.154  29.931  1.00  0.00     0.039 A 
ATOM     10  C   UNL A   1      35.737  34.520  29.453  1.00  0.00     0.014 A 
ATOM     11  C   UNL A   1      34.329  33.207  30.945  1.00  0.00     0.014 A 
ATOM     12  C   UNL A   1      36.855  33.831  29.898  1.00  0.00     0.010 A 
ATOM     13  C   UNL A   1      35.464  32.576  31.448  1.00  0.00     0.010 A 
ATOM     14  C   UNL A   1      36.728  32.860  30.905  1.00  0.00    -0.014 A 
BRANCH  14  15
ATOM     15  C   UNL A   1      37.935  32.184  31.431  1.00  0.00     0.031 A 
ATOM     16  C   UNL A   1      38.625  31.112  30.641  1.00  0.00     0.074 A 
ATOM     17  C   UNL A   1      38.383  32.537  32.648  1.00  0.00     0.049 A 
ATOM     18  N   UNL A   1      39.618  30.338  30.995  1.00  0.00    -0.248 NA
ATOM     19  C   UNL A   1      38.129  30.866  29.277  1.00  0.00     0.031 C 
ATOM     20  C   UNL A   1      37.788  33.573  33.496  1.00  0.00     0.029 A 
ATOM     21  N   UNL A   1      39.432  32.060  33.388  1.00  0.00    -0.354 N 
ATOM     22  C   UNL A   1      39.847  29.494  29.917  1.00  0.00     0.074 A 
ATOM     23  C   UNL A   1      38.881  29.842  28.897  1.00  0.00     0.031 C 
ATOM     24  C   UNL A   1      38.490  33.664  34.634  1.00  0.00     0.029 A 
ATOM     25  C   UNL A   1      39.533  32.647  34.624  1.00  0.00     0.049 A 
ATOM     26  H   UNL A   1      40.051  31.365  33.066  1.00  0.00     0.167 HD
ATOM     27  C   UNL A   1      40.779  28.517  29.798  1.00  0.00     0.037 A 
ATOM     28  C   UNL A   1      40.349  32.370  35.656  1.00  0.00     0.037 A 
ATOM     29  C   UNL A   1      41.743  28.195  30.819  1.00  0.00     0.049 A 
ATOM     30  C   UNL A   1      41.353  31.269  35.510  1.00  0.00     0.074 A 
ATOM     31  C   UNL A   1      42.752  27.248  30.788  1.00  0.00     0.029 A 
ATOM     32  N   UNL A   1      41.815  28.814  32.060  1.00  0.00    -0.354 N 
ATOM     33  N   UNL A   1      41.567  30.482  34.483  1.00  0.00    -0.248 NA
ATOM     34  C   UNL A   1      42.222  31.010  36.664  1.00  0.00     0.031 C 
ATOM     35  C   UNL A   1      43.409  27.268  32.024  1.00  0.00     0.029 A 
ATOM     36  C   UNL A   1      42.838  28.256  32.809  1.00  0.00     0.049 A 
ATOM     37  H   UNL A   1      41.226  29.543  32.363  1.00  0.00     0.167 HD
ATOM     38  C   UNL A   1      42.609  29.647  34.856  1.00  0.00     0.074 A 
ATOM     39  C   UNL A   1      42.987  30.029  36.203  1.00  0.00     0.031 C 
ATOM     40  C   UNL A   1      43.200  28.656  34.146  1.00  0.00     0.037 A 
BRANCH  27  41
ATOM     41  C   UNL A   1      40.778  27.707  28.534  1.00  0.00     0.057 A 
ATOM     42  C   UNL A   1      40.015  26.539  28.398  1.00  0.00     0.134 A 
ATOM     43  C   UNL A   1      41.533  28.117  27.426  1.00  0.00     0.134 A 
ATOM     44  F   UNL A   1      39.281  26.084  29.423  1.00  0.00    -0.206 F 
ATOM     45  C   UNL A   1      40.023  25.796  27.216  1.00  0.00     0.040 A 
ATOM     46  C   UNL A   1      41.530  27.395  26.231  1.00  0.00     0.040 A 
ATOM     47  F   UNL A   1      42.281  29.229  27.486  1.00  0.00    -0.206 F 
ATOM     48  C   UNL A   1      40.778  26.227  26.126  1.00  0.00     0.006 A 
ENDBRANCH  27  41
BRANCH  28  49
ATOM     49  C   UNL A   1      40.220  33.152  36.907  1.00  0.00     0.057 A 
ATOM     50  C   UNL A   1      41.050  34.246  37.163  1.00  0.00     0.134 A 
ATOM     51  C   UNL A   1      39.214  32.867  37.840  1.00  0.00     0.134 A 
ATOM     52  F   UNL A   1      42.035  34.561  36.308  1.00  0.00    -0.206 F 
ATOM     53  C   UNL A   1      40.887  35.033  38.304  1.00  0.00     0.040 A 
ATOM     54  C   UNL A   1      39.024  33.658  38.972  1.00  0.00     0.040 A 
ATOM     55  F   UNL A   1      38.375  31.840  37.639  1.00  0.00    -0.206 F 
ATOM     56  C   UNL A   1      39.864  34.745  39.207  1.00  0.00     0.006 A 
ENDBRANCH  28  49
BRANCH  40  57
ATOM     57  C   UNL A   1      44.344  27.943  34.800  1.00  0.00     0.057 A 
ATOM     58  C   UNL A   1      44.161  26.754  35.515  1.00  0.00     0.134 A 
ATOM     59  C   UNL A   1      45.650  28.433  34.674  1.00  0.00     0.134 A 
ATOM     60  F   UNL A   1      42.930  26.245  35.684  1.00  0.00    -0.206 F 
ATOM     61  C   UNL A   1      45.237  26.083  36.095  1.00  0.00     0.040 A 
ATOM     62  C   UNL A   1      46.737  27.759  35.230  1.00  0.00     0.040 A 
ATOM     63  F   UNL A   1      45.891  29.565  33.996  1.00  0.00    -0.206 F 
ATOM     64  C   UNL A   1      46.531  26.581  35.946  1.00  0.00     0.006 A 
ENDBRANCH  40  57
ENDBRANCH  14  15
ENDBRANCH   7   9
ENDBRANCH   4   5
ENDBRANCH   3   4
ENDBRANCH   2   3
ENDBRANCH   1   2
BRANCH   1  65
ATOM     65  N   UNL A   1      33.535  28.590  27.556  1.00  0.00    -0.352 N 
ATOM     66  C   UNL A   1      32.303  28.102  27.220  1.00  0.00     0.253 C 
ATOM     67  H   UNL A   1      33.923  28.244  28.392  1.00  0.00     0.163 HD
ATOM     68  O   UNL A   1      31.625  27.453  28.002  1.00  0.00    -0.269 OA
BRANCH  66  69
ATOM     69  C   UNL A   1      31.778  28.418  25.891  1.00  0.00     0.066 A 
ATOM     70  C   UNL A   1      30.872  29.956  25.651  1.00  0.00     0.036 A 
ATOM     71  C   UNL A   1      32.122  27.274  24.601  1.00  0.00     0.072 A 
ATOM     72  C   UNL A   1      30.256  30.465  24.051  1.00  0.00     0.043 A 
ATOM     73  C   UNL A   1      31.412  27.570  23.065  1.00  0.00     0.066 A 
ATOM     74  Cl  UNL A   1      29.353  31.904  23.868  1.00  0.00    -0.084 Cl
ATOM     75  C   UNL A   1      30.500  29.328  22.656  1.00  0.00     0.043 A 
ATOM     76  Cl  UNL A   1      31.003  25.607  22.668  1.00  0.00    -0.082 Cl
BRANCH  71  77
ATOM     77  N   UNL A   1      33.398  26.673  24.389  1.00  0.00    -0.330 N 
ATOM     78  H   UNL A   1      34.130  27.311  24.234  1.00  0.00     0.169 HD
BRANCH  77  79
ATOM     79  C   UNL A   1      33.780  25.341  24.362  1.00  0.00     0.177 C 
ATOM     80  S   UNL A   1      34.834  24.851  25.580  1.00  0.00    -0.040 S 
BRANCH  79  81
ATOM     81  N   UNL A   1      33.399  24.303  23.433  1.00  0.00    -0.299 N 
ATOM     82  C   UNL A   1      33.070  22.887  23.015  1.00  0.00     0.257 C 
ATOM     83  H   UNL A   1      33.294  24.802  22.590  1.00  0.00     0.172 HD
ATOM     84  O   UNL A   1      33.064  22.579  21.826  1.00  0.00    -0.269 OA
BRANCH  82  85
ATOM     85  C   UNL A   1      32.741  21.815  24.056  1.00  0.00     0.047 A 
ATOM     86  C   UNL A   1      34.182  21.131  24.882  1.00  0.00     0.014 A 
ATOM     87  C   UNL A   1      31.436  22.567  24.870  1.00  0.00     0.099 A 
ATOM     88  C   UNL A   1      34.558  21.458  26.608  1.00  0.00     0.008 A 
ATOM     89  C   UNL A   1      31.648  22.996  26.556  1.00  0.00     0.270 A 
ATOM     90  C   UNL A   1      33.363  22.490  27.510  1.00  0.00     0.085 A 
BRANCH  89  91
ATOM     91  N   UNL A   1      30.280  23.671  26.876  1.00  0.00     0.062 N 
ATOM     92  O   UNL A   1      30.126  24.850  26.528  1.00  0.00    -0.258 OA
ATOM     93  O   UNL A   1      29.523  23.044  27.626  1.00  0.00    -0.258 OA
ENDBRANCH  89  91
ENDBRANCH  82  85
ENDBRANCH  79  81
ENDBRANCH  77  79
ENDBRANCH  71  77
ENDBRANCH  66  69
ENDBRANCH   1  65
TORSDOF 16
ENDMDL
