MODEL 1
REMARK VINA RESULT:     -11.8      0.000      0.000
REMARK SMILES C[C@@H](c1ccco1)n1c(SCC(=O)NCCCCNC(=O)c2ccc(-c3c4nc(c(-c5c(F)cccc5F)c5ccc([nH]5)c(-c5c(F)cccc5F)c5nc(c(-c6c(F)cccc6F)c6ccc3[nH]6)C=C5)C=C4)cc2)nc2cnccc21
REMARK SMILES IDX 15 1 14 2 12 3 13 4 11 6 10 7 9 8 8 9 82 10 76 11 77 12
REMARK SMILES IDX 81 13 78 14 80 15 79 16 2 17 1 18 3 19 4 20 7 21 5 22 6 23
REMARK SMILES IDX 16 24 17 25 18 26 19 27 20 28 21 30 22 31 23 32 75 33 24 34
REMARK SMILES IDX 74 35 25 36 26 37 27 38 68 39 28 40 73 41 67 42 69 43 29 44
REMARK SMILES IDX 72 45 66 46 65 47 30 49 56 50 39 51 55 52 40 53 43 54 54 55
REMARK SMILES IDX 70 56 41 57 42 58 53 60 71 61 44 62 31 63 32 64 37 65 33 66
REMARK SMILES IDX 34 67 36 68 38 69 35 70 57 71 58 72 63 73 59 74 60 75 62 76
REMARK SMILES IDX 64 77 61 78 45 79 46 80 51 81 47 82 48 83 50 84 52 85 49 86
REMARK H PARENT 14 5 19 29 69 48 43 59
REMARK Flexibility Score: inf
ROOT
ATOM      1  C   UNL A   1      39.422  20.151  25.642  1.00  0.00     0.116 C 
ENDROOT
BRANCH   1   2
ATOM      2  N   UNL A   1      39.101  21.524  25.977  1.00  0.00    -0.355 N 
ATOM      3  C   UNL A   1      38.057  22.296  25.553  1.00  0.00     0.230 C 
ATOM      4  O   UNL A   1      37.850  23.361  26.145  1.00  0.00    -0.274 OA
ATOM      5  H   UNL A   1      39.725  21.963  26.599  1.00  0.00     0.163 HD
BRANCH   3   6
ATOM      6  C   UNL A   1      37.101  21.822  24.488  1.00  0.00     0.178 C 
BRANCH   6   7
ATOM      7  S   UNL A   1      35.778  20.770  25.018  1.00  0.00    -0.078 SA
BRANCH   7   8
ATOM      8  C   UNL A   1      34.220  21.436  25.337  1.00  0.00     0.170 A 
ATOM      9  N   UNL A   1      32.919  21.125  24.987  1.00  0.00    -0.308 N 
ATOM     10  C   UNL A   1      32.089  22.029  25.666  1.00  0.00     0.073 A 
ATOM     11  N   UNL A   1      34.242  22.487  26.138  1.00  0.00    -0.221 NA
ATOM     12  C   UNL A   1      32.953  22.855  26.367  1.00  0.00     0.108 A 
ATOM     13  C   UNL A   1      30.701  22.201  25.749  1.00  0.00     0.049 A 
ATOM     14  C   UNL A   1      32.435  23.879  27.165  1.00  0.00     0.141 A 
ATOM     15  C   UNL A   1      30.278  23.247  26.560  1.00  0.00     0.113 A 
ATOM     16  N   UNL A   1      31.093  24.072  27.251  1.00  0.00    -0.262 NA
BRANCH   9  17
ATOM     17  C   UNL A   1      32.330  20.104  24.127  1.00  0.00     0.153 C 
ATOM     18  C   UNL A   1      32.182  20.445  22.650  1.00  0.00     0.040 C 
BRANCH  17  19
ATOM     19  C   UNL A   1      32.797  18.722  24.465  1.00  0.00     0.126 A 
ATOM     20  C   UNL A   1      33.689  17.871  23.835  1.00  0.00     0.048 A 
ATOM     21  O   UNL A   1      32.224  18.076  25.522  1.00  0.00    -0.467 OA
ATOM     22  C   UNL A   1      33.686  16.662  24.567  1.00  0.00     0.042 A 
ATOM     23  C   UNL A   1      32.791  16.844  25.590  1.00  0.00     0.195 A 
ENDBRANCH  17  19
ENDBRANCH   9  17
ENDBRANCH   7   8
ENDBRANCH   6   7
ENDBRANCH   3   6
ENDBRANCH   1   2
BRANCH   1  24
ATOM     24  C   UNL A   1      40.579  19.560  26.451  1.00  0.00     0.023 C 
BRANCH  24  25
ATOM     25  C   UNL A   1      42.002  20.018  26.104  1.00  0.00     0.023 C 
BRANCH  25  26
ATOM     26  C   UNL A   1      43.015  18.928  25.766  1.00  0.00     0.116 C 
BRANCH  26  27
ATOM     27  N   UNL A   1      44.099  19.374  24.919  1.00  0.00    -0.352 N 
ATOM     28  C   UNL A   1      44.742  20.559  24.706  1.00  0.00     0.251 C 
ATOM     29  H   UNL A   1      44.461  18.648  24.362  1.00  0.00     0.163 HD
ATOM     30  O   UNL A   1      45.717  20.506  23.948  1.00  0.00    -0.269 OA
BRANCH  28  31
ATOM     31  C   UNL A   1      44.355  21.880  25.273  1.00  0.00     0.039 A 
ATOM     32  C   UNL A   1      43.541  22.828  24.655  1.00  0.00     0.014 A 
ATOM     33  C   UNL A   1      44.892  22.188  26.540  1.00  0.00     0.014 A 
ATOM     34  C   UNL A   1      43.320  24.066  25.257  1.00  0.00     0.010 A 
ATOM     35  C   UNL A   1      44.664  23.418  27.151  1.00  0.00     0.010 A 
ATOM     36  C   UNL A   1      43.899  24.373  26.493  1.00  0.00    -0.014 A 
BRANCH  36  37
ATOM     37  C   UNL A   1      43.583  25.672  27.087  1.00  0.00     0.031 A 
ATOM     38  C   UNL A   1      44.548  26.766  26.783  1.00  0.00     0.074 A 
ATOM     39  C   UNL A   1      42.469  25.954  27.794  1.00  0.00     0.049 A 
ATOM     40  N   UNL A   1      45.311  27.404  27.610  1.00  0.00    -0.248 NA
ATOM     41  C   UNL A   1      44.740  27.139  25.375  1.00  0.00     0.031 C 
ATOM     42  C   UNL A   1      41.277  25.124  27.972  1.00  0.00     0.029 A 
ATOM     43  N   UNL A   1      42.145  27.110  28.448  1.00  0.00    -0.354 N 
ATOM     44  C   UNL A   1      45.949  28.389  26.861  1.00  0.00     0.074 A 
ATOM     45  C   UNL A   1      45.657  28.104  25.478  1.00  0.00     0.031 C 
ATOM     46  C   UNL A   1      40.289  25.873  28.513  1.00  0.00     0.029 A 
ATOM     47  C   UNL A   1      40.817  27.188  28.842  1.00  0.00     0.049 A 
ATOM     48  H   UNL A   1      42.797  27.825  28.625  1.00  0.00     0.167 HD
ATOM     49  C   UNL A   1      46.496  29.489  27.447  1.00  0.00     0.037 A 
ATOM     50  C   UNL A   1      40.179  28.265  29.364  1.00  0.00     0.037 A 
ATOM     51  C   UNL A   1      46.735  29.289  28.853  1.00  0.00     0.049 A 
ATOM     52  C   UNL A   1      41.199  29.182  29.918  1.00  0.00     0.074 A 
ATOM     53  C   UNL A   1      47.463  28.390  29.609  1.00  0.00     0.029 A 
ATOM     54  N   UNL A   1      45.911  29.929  29.745  1.00  0.00    -0.354 N 
ATOM     55  N   UNL A   1      41.884  28.952  31.001  1.00  0.00    -0.248 NA
ATOM     56  C   UNL A   1      41.730  30.228  29.059  1.00  0.00     0.031 C 
ATOM     57  C   UNL A   1      46.696  28.194  30.796  1.00  0.00     0.029 A 
ATOM     58  C   UNL A   1      45.570  29.010  30.703  1.00  0.00     0.049 A 
ATOM     59  H   UNL A   1      45.622  30.868  29.705  1.00  0.00     0.167 HD
ATOM     60  C   UNL A   1      43.137  29.480  30.741  1.00  0.00     0.074 A 
ATOM     61  C   UNL A   1      42.944  30.366  29.597  1.00  0.00     0.031 C 
ATOM     62  C   UNL A   1      44.258  28.932  31.297  1.00  0.00     0.037 A 
BRANCH  49  63
ATOM     63  C   UNL A   1      46.461  30.869  26.833  1.00  0.00     0.057 A 
ATOM     64  C   UNL A   1      45.269  31.551  26.516  1.00  0.00     0.134 A 
ATOM     65  C   UNL A   1      47.619  31.668  26.861  1.00  0.00     0.134 A 
ATOM     66  F   UNL A   1      44.075  30.947  26.522  1.00  0.00    -0.206 F 
ATOM     67  C   UNL A   1      45.226  32.928  26.277  1.00  0.00     0.040 A 
ATOM     68  C   UNL A   1      47.578  33.055  26.675  1.00  0.00     0.040 A 
ATOM     69  F   UNL A   1      48.813  31.137  27.166  1.00  0.00    -0.206 F 
ATOM     70  C   UNL A   1      46.375  33.692  26.392  1.00  0.00     0.006 A 
ENDBRANCH  49  63
BRANCH  50  71
ATOM     71  C   UNL A   1      38.758  28.660  29.246  1.00  0.00     0.057 A 
ATOM     72  C   UNL A   1      38.268  29.279  28.084  1.00  0.00     0.134 A 
ATOM     73  C   UNL A   1      37.914  28.692  30.365  1.00  0.00     0.134 A 
ATOM     74  F   UNL A   1      39.022  29.375  26.979  1.00  0.00    -0.206 F 
ATOM     75  C   UNL A   1      37.021  29.909  28.041  1.00  0.00     0.040 A 
ATOM     76  C   UNL A   1      36.665  29.327  30.338  1.00  0.00     0.040 A 
ATOM     77  F   UNL A   1      38.306  28.163  31.533  1.00  0.00    -0.206 F 
ATOM     78  C   UNL A   1      36.220  29.948  29.175  1.00  0.00     0.006 A 
ENDBRANCH  50  71
BRANCH  62  79
ATOM     79  C   UNL A   1      44.066  27.977  32.440  1.00  0.00     0.057 A 
ATOM     80  C   UNL A   1      44.087  28.476  33.747  1.00  0.00     0.134 A 
ATOM     81  C   UNL A   1      43.944  26.587  32.296  1.00  0.00     0.134 A 
ATOM     82  F   UNL A   1      44.264  29.789  33.968  1.00  0.00    -0.206 F 
ATOM     83  C   UNL A   1      43.956  27.641  34.859  1.00  0.00     0.040 A 
ATOM     84  C   UNL A   1      43.772  25.743  33.398  1.00  0.00     0.040 A 
ATOM     85  F   UNL A   1      44.028  26.003  31.092  1.00  0.00    -0.206 F 
ATOM     86  C   UNL A   1      43.777  26.272  34.685  1.00  0.00     0.006 A 
ENDBRANCH  62  79
ENDBRANCH  36  37
ENDBRANCH  28  31
ENDBRANCH  26  27
ENDBRANCH  25  26
ENDBRANCH  24  25
ENDBRANCH   1  24
TORSDOF 15
ENDMDL
MODEL 2
REMARK VINA RESULT:     -11.7      1.277      2.543
REMARK SMILES C[C@@H](c1ccco1)n1c(SCC(=O)NCCCCNC(=O)c2ccc(-c3c4nc(c(-c5c(F)cccc5F)c5ccc([nH]5)c(-c5c(F)cccc5F)c5nc(c(-c6c(F)cccc6F)c6ccc3[nH]6)C=C5)C=C4)cc2)nc2cnccc21
REMARK SMILES IDX 15 1 14 2 12 3 13 4 11 6 10 7 9 8 8 9 82 10 76 11 77 12
REMARK SMILES IDX 81 13 78 14 80 15 79 16 2 17 1 18 3 19 4 20 7 21 5 22 6 23
REMARK SMILES IDX 16 24 17 25 18 26 19 27 20 28 21 30 22 31 23 32 75 33 24 34
REMARK SMILES IDX 74 35 25 36 26 37 27 38 68 39 28 40 73 41 67 42 69 43 29 44
REMARK SMILES IDX 72 45 66 46 65 47 30 49 56 50 39 51 55 52 40 53 43 54 54 55
REMARK SMILES IDX 70 56 41 57 42 58 53 60 71 61 44 62 31 63 32 64 37 65 33 66
REMARK SMILES IDX 34 67 36 68 38 69 35 70 57 71 58 72 63 73 59 74 60 75 62 76
REMARK SMILES IDX 64 77 61 78 45 79 46 80 51 81 47 82 48 83 50 84 52 85 49 86
REMARK H PARENT 14 5 19 29 69 48 43 59
REMARK Flexibility Score: inf
ROOT
ATOM      1  C   UNL A   1      39.484  21.098  26.139  1.00  0.00     0.116 C 
ENDROOT
BRANCH   1   2
ATOM      2  N   UNL A   1      39.189  22.498  26.366  1.00  0.00    -0.355 N 
ATOM      3  C   UNL A   1      38.079  23.216  26.020  1.00  0.00     0.230 C 
ATOM      4  O   UNL A   1      37.940  24.338  26.517  1.00  0.00    -0.274 OA
ATOM      5  H   UNL A   1      39.889  23.005  26.838  1.00  0.00     0.163 HD
BRANCH   3   6
ATOM      6  C   UNL A   1      36.987  22.624  25.165  1.00  0.00     0.178 C 
BRANCH   6   7
ATOM      7  S   UNL A   1      35.661  21.815  26.016  1.00  0.00    -0.078 SA
BRANCH   7   8
ATOM      8  C   UNL A   1      34.658  20.689  25.180  1.00  0.00     0.170 A 
ATOM      9  N   UNL A   1      33.417  20.730  24.572  1.00  0.00    -0.308 N 
ATOM     10  C   UNL A   1      33.212  19.473  23.985  1.00  0.00     0.073 A 
ATOM     11  N   UNL A   1      35.197  19.491  25.045  1.00  0.00    -0.221 NA
ATOM     12  C   UNL A   1      34.341  18.738  24.304  1.00  0.00     0.108 A 
ATOM     13  C   UNL A   1      32.183  18.917  23.214  1.00  0.00     0.049 A 
ATOM     14  C   UNL A   1      34.456  17.418  23.856  1.00  0.00     0.141 A 
ATOM     15  C   UNL A   1      32.381  17.599  22.818  1.00  0.00     0.113 A 
ATOM     16  N   UNL A   1      33.466  16.854  23.117  1.00  0.00    -0.262 NA
BRANCH   9  17
ATOM     17  C   UNL A   1      32.398  21.767  24.442  1.00  0.00     0.153 C 
ATOM     18  C   UNL A   1      31.529  22.039  25.663  1.00  0.00     0.040 C 
BRANCH  17  19
ATOM     19  C   UNL A   1      32.877  22.955  23.667  1.00  0.00     0.126 A 
ATOM     20  C   UNL A   1      33.391  24.174  24.073  1.00  0.00     0.048 A 
ATOM     21  O   UNL A   1      32.734  22.953  22.310  1.00  0.00    -0.467 OA
ATOM     22  C   UNL A   1      33.606  24.937  22.904  1.00  0.00     0.042 A 
ATOM     23  C   UNL A   1      33.205  24.144  21.858  1.00  0.00     0.195 A 
ENDBRANCH  17  19
ENDBRANCH   9  17
ENDBRANCH   7   8
ENDBRANCH   6   7
ENDBRANCH   3   6
ENDBRANCH   1   2
BRANCH   1  24
ATOM     24  C   UNL A   1      40.927  20.698  26.460  1.00  0.00     0.023 C 
BRANCH  24  25
ATOM     25  C   UNL A   1      41.424  19.340  25.950  1.00  0.00     0.023 C 
BRANCH  25  26
ATOM     26  C   UNL A   1      42.894  19.008  26.191  1.00  0.00     0.116 C 
BRANCH  26  27
ATOM     27  N   UNL A   1      43.774  19.426  25.121  1.00  0.00    -0.352 N 
ATOM     28  C   UNL A   1      44.405  20.587  24.778  1.00  0.00     0.251 C 
ATOM     29  H   UNL A   1      43.964  18.696  24.488  1.00  0.00     0.163 HD
ATOM     30  O   UNL A   1      45.176  20.507  23.815  1.00  0.00    -0.269 OA
BRANCH  28  31
ATOM     31  C   UNL A   1      44.220  21.910  25.433  1.00  0.00     0.039 A 
ATOM     32  C   UNL A   1      44.825  22.328  26.617  1.00  0.00     0.014 A 
ATOM     33  C   UNL A   1      43.327  22.795  24.793  1.00  0.00     0.014 A 
ATOM     34  C   UNL A   1      44.504  23.566  27.173  1.00  0.00     0.010 A 
ATOM     35  C   UNL A   1      43.013  24.037  25.337  1.00  0.00     0.010 A 
ATOM     36  C   UNL A   1      43.581  24.412  26.549  1.00  0.00    -0.014 A 
BRANCH  36  37
ATOM     37  C   UNL A   1      43.331  25.716  27.164  1.00  0.00     0.031 A 
ATOM     38  C   UNL A   1      44.326  26.776  26.841  1.00  0.00     0.074 A 
ATOM     39  C   UNL A   1      42.250  26.031  27.907  1.00  0.00     0.049 A 
ATOM     40  N   UNL A   1      45.138  27.377  27.650  1.00  0.00    -0.248 NA
ATOM     41  C   UNL A   1      44.491  27.157  25.431  1.00  0.00     0.031 C 
ATOM     42  C   UNL A   1      41.034  25.244  28.114  1.00  0.00     0.029 A 
ATOM     43  N   UNL A   1      41.989  27.192  28.581  1.00  0.00    -0.354 N 
ATOM     44  C   UNL A   1      45.789  28.345  26.891  1.00  0.00     0.074 A 
ATOM     45  C   UNL A   1      45.445  28.085  25.516  1.00  0.00     0.031 C 
ATOM     46  C   UNL A   1      40.092  26.024  28.691  1.00  0.00     0.029 A 
ATOM     47  C   UNL A   1      40.677  27.315  29.016  1.00  0.00     0.049 A 
ATOM     48  H   UNL A   1      42.673  27.881  28.745  1.00  0.00     0.167 HD
ATOM     49  C   UNL A   1      46.394  29.419  27.470  1.00  0.00     0.037 A 
ATOM     50  C   UNL A   1      40.097  28.409  29.567  1.00  0.00     0.037 A 
ATOM     51  C   UNL A   1      46.667  29.195  28.866  1.00  0.00     0.049 A 
ATOM     52  C   UNL A   1      41.166  29.282  30.099  1.00  0.00     0.074 A 
ATOM     53  C   UNL A   1      47.384  28.262  29.591  1.00  0.00     0.029 A 
ATOM     54  N   UNL A   1      45.895  29.856  29.789  1.00  0.00    -0.354 N 
ATOM     55  N   UNL A   1      41.874  29.015  31.158  1.00  0.00    -0.248 NA
ATOM     56  C   UNL A   1      41.709  30.317  29.233  1.00  0.00     0.031 C 
ATOM     57  C   UNL A   1      46.646  28.083  30.800  1.00  0.00     0.029 A 
ATOM     58  C   UNL A   1      45.549  28.941  30.748  1.00  0.00     0.049 A 
ATOM     59  H   UNL A   1      45.640  30.805  29.766  1.00  0.00     0.167 HD
ATOM     60  C   UNL A   1      43.138  29.499  30.864  1.00  0.00     0.074 A 
ATOM     61  C   UNL A   1      42.943  30.404  29.735  1.00  0.00     0.031 C 
ATOM     62  C   UNL A   1      44.253  28.905  31.381  1.00  0.00     0.037 A 
BRANCH  49  63
ATOM     63  C   UNL A   1      46.392  30.805  26.871  1.00  0.00     0.057 A 
ATOM     64  C   UNL A   1      45.218  31.538  26.604  1.00  0.00     0.134 A 
ATOM     65  C   UNL A   1      47.581  31.557  26.862  1.00  0.00     0.134 A 
ATOM     66  F   UNL A   1      44.001  30.981  26.650  1.00  0.00    -0.206 F 
ATOM     67  C   UNL A   1      45.221  32.917  26.379  1.00  0.00     0.040 A 
ATOM     68  C   UNL A   1      47.590  32.946  26.690  1.00  0.00     0.040 A 
ATOM     69  F   UNL A   1      48.764  30.975  27.117  1.00  0.00    -0.206 F 
ATOM     70  C   UNL A   1      46.404  33.633  26.458  1.00  0.00     0.006 A 
ENDBRANCH  49  63
BRANCH  50  71
ATOM     71  C   UNL A   1      38.688  28.857  29.496  1.00  0.00     0.057 A 
ATOM     72  C   UNL A   1      38.187  29.505  28.355  1.00  0.00     0.134 A 
ATOM     73  C   UNL A   1      37.880  28.911  30.641  1.00  0.00     0.134 A 
ATOM     74  F   UNL A   1      38.909  29.583  27.228  1.00  0.00    -0.206 F 
ATOM     75  C   UNL A   1      36.963  30.181  28.355  1.00  0.00     0.040 A 
ATOM     76  C   UNL A   1      36.656  29.592  30.657  1.00  0.00     0.040 A 
ATOM     77  F   UNL A   1      38.288  28.358  31.792  1.00  0.00    -0.206 F 
ATOM     78  C   UNL A   1      36.200  30.240  29.513  1.00  0.00     0.006 A 
ENDBRANCH  50  71
BRANCH  62  79
ATOM     79  C   UNL A   1      44.060  27.945  32.521  1.00  0.00     0.057 A 
ATOM     80  C   UNL A   1      44.144  28.430  33.831  1.00  0.00     0.134 A 
ATOM     81  C   UNL A   1      43.878  26.563  32.367  1.00  0.00     0.134 A 
ATOM     82  F   UNL A   1      44.380  29.732  34.059  1.00  0.00    -0.206 F 
ATOM     83  C   UNL A   1      44.015  27.588  34.939  1.00  0.00     0.040 A 
ATOM     84  C   UNL A   1      43.708  25.715  33.466  1.00  0.00     0.040 A 
ATOM     85  F   UNL A   1      43.899  25.990  31.156  1.00  0.00    -0.206 F 
ATOM     86  C   UNL A   1      43.776  26.229  34.757  1.00  0.00     0.006 A 
ENDBRANCH  62  79
ENDBRANCH  36  37
ENDBRANCH  28  31
ENDBRANCH  26  27
ENDBRANCH  25  26
ENDBRANCH  24  25
ENDBRANCH   1  24
TORSDOF 15
ENDMDL
MODEL 3
REMARK VINA RESULT:     -11.5      1.820      3.003
REMARK SMILES C[C@@H](c1ccco1)n1c(SCC(=O)NCCCCNC(=O)c2ccc(-c3c4nc(c(-c5c(F)cccc5F)c5ccc([nH]5)c(-c5c(F)cccc5F)c5nc(c(-c6c(F)cccc6F)c6ccc3[nH]6)C=C5)C=C4)cc2)nc2cnccc21
REMARK SMILES IDX 15 1 14 2 12 3 13 4 11 6 10 7 9 8 8 9 82 10 76 11 77 12
REMARK SMILES IDX 81 13 78 14 80 15 79 16 2 17 1 18 3 19 4 20 7 21 5 22 6 23
REMARK SMILES IDX 16 24 17 25 18 26 19 27 20 28 21 30 22 31 23 32 75 33 24 34
REMARK SMILES IDX 74 35 25 36 26 37 27 38 68 39 28 40 73 41 67 42 69 43 29 44
REMARK SMILES IDX 72 45 66 46 65 47 30 49 56 50 39 51 55 52 40 53 43 54 54 55
REMARK SMILES IDX 70 56 41 57 42 58 53 60 71 61 44 62 31 63 32 64 37 65 33 66
REMARK SMILES IDX 34 67 36 68 38 69 35 70 57 71 58 72 63 73 59 74 60 75 62 76
REMARK SMILES IDX 64 77 61 78 45 79 46 80 51 81 47 82 48 83 50 84 52 85 49 86
REMARK H PARENT 14 5 19 29 69 48 43 59
REMARK Flexibility Score: inf
ROOT
ATOM      1  C   UNL A   1      40.438  21.567  26.486  1.00  0.00     0.116 C 
ENDROOT
BRANCH   1   2
ATOM      2  N   UNL A   1      39.263  20.859  26.018  1.00  0.00    -0.355 N 
ATOM      3  C   UNL A   1      38.093  21.359  25.520  1.00  0.00     0.230 C 
ATOM      4  O   UNL A   1      37.319  20.571  24.967  1.00  0.00    -0.274 OA
ATOM      5  H   UNL A   1      39.315  19.877  26.067  1.00  0.00     0.163 HD
BRANCH   3   6
ATOM      6  C   UNL A   1      37.799  22.838  25.520  1.00  0.00     0.178 C 
BRANCH   6   7
ATOM      7  S   UNL A   1      36.607  23.411  24.342  1.00  0.00    -0.078 SA
BRANCH   7   8
ATOM      8  C   UNL A   1      34.981  23.710  24.833  1.00  0.00     0.170 A 
ATOM      9  N   UNL A   1      33.883  24.347  24.288  1.00  0.00    -0.308 N 
ATOM     10  C   UNL A   1      32.816  24.150  25.177  1.00  0.00     0.073 A 
ATOM     11  N   UNL A   1      34.672  23.183  26.005  1.00  0.00    -0.221 NA
ATOM     12  C   UNL A   1      33.352  23.423  26.227  1.00  0.00     0.108 A 
ATOM     13  C   UNL A   1      31.463  24.514  25.168  1.00  0.00     0.049 A 
ATOM     14  C   UNL A   1      32.535  23.051  27.298  1.00  0.00     0.141 A 
ATOM     15  C   UNL A   1      30.729  24.106  26.275  1.00  0.00     0.113 A 
ATOM     16  N   UNL A   1      31.223  23.402  27.317  1.00  0.00    -0.262 NA
BRANCH   9  17
ATOM     17  C   UNL A   1      33.671  25.101  23.056  1.00  0.00     0.153 C 
ATOM     18  C   UNL A   1      32.656  24.541  22.069  1.00  0.00     0.040 C 
BRANCH  17  19
ATOM     19  C   UNL A   1      33.663  26.582  23.277  1.00  0.00     0.126 A 
ATOM     20  C   UNL A   1      33.617  27.645  22.392  1.00  0.00     0.048 A 
ATOM     21  O   UNL A   1      33.816  27.056  24.548  1.00  0.00    -0.467 OA
ATOM     22  C   UNL A   1      33.708  28.824  23.166  1.00  0.00     0.042 A 
ATOM     23  C   UNL A   1      33.811  28.412  24.470  1.00  0.00     0.195 A 
ENDBRANCH  17  19
ENDBRANCH   9  17
ENDBRANCH   7   8
ENDBRANCH   6   7
ENDBRANCH   3   6
ENDBRANCH   1   2
BRANCH   1  24
ATOM     24  C   UNL A   1      41.233  20.825  27.563  1.00  0.00     0.023 C 
BRANCH  24  25
ATOM     25  C   UNL A   1      42.126  19.660  27.118  1.00  0.00     0.023 C 
BRANCH  25  26
ATOM     26  C   UNL A   1      42.194  19.375  25.620  1.00  0.00     0.116 C 
BRANCH  26  27
ATOM     27  N   UNL A   1      43.497  19.613  25.035  1.00  0.00    -0.352 N 
ATOM     28  C   UNL A   1      44.403  20.632  25.062  1.00  0.00     0.251 C 
ATOM     29  H   UNL A   1      43.802  18.855  24.486  1.00  0.00     0.163 HD
ATOM     30  O   UNL A   1      45.478  20.402  24.496  1.00  0.00    -0.269 OA
BRANCH  28  31
ATOM     31  C   UNL A   1      44.196  21.973  25.675  1.00  0.00     0.039 A 
ATOM     32  C   UNL A   1      44.727  22.408  26.888  1.00  0.00     0.014 A 
ATOM     33  C   UNL A   1      43.363  22.856  24.957  1.00  0.00     0.014 A 
ATOM     34  C   UNL A   1      44.388  23.662  27.394  1.00  0.00     0.010 A 
ATOM     35  C   UNL A   1      43.033  24.115  25.453  1.00  0.00     0.010 A 
ATOM     36  C   UNL A   1      43.523  24.508  26.692  1.00  0.00    -0.014 A 
BRANCH  36  37
ATOM     37  C   UNL A   1      43.253  25.828  27.261  1.00  0.00     0.031 A 
ATOM     38  C   UNL A   1      44.242  26.887  26.916  1.00  0.00     0.074 A 
ATOM     39  C   UNL A   1      42.160  26.157  27.979  1.00  0.00     0.049 A 
ATOM     40  N   UNL A   1      45.038  27.522  27.714  1.00  0.00    -0.248 NA
ATOM     41  C   UNL A   1      44.421  27.223  25.496  1.00  0.00     0.031 C 
ATOM     42  C   UNL A   1      40.949  25.365  28.197  1.00  0.00     0.029 A 
ATOM     43  N   UNL A   1      41.880  27.336  28.612  1.00  0.00    -0.354 N 
ATOM     44  C   UNL A   1      45.689  28.472  26.932  1.00  0.00     0.074 A 
ATOM     45  C   UNL A   1      45.365  28.164  25.562  1.00  0.00     0.031 C 
ATOM     46  C   UNL A   1      39.992  26.154  28.737  1.00  0.00     0.029 A 
ATOM     47  C   UNL A   1      40.561  27.461  29.026  1.00  0.00     0.049 A 
ATOM     48  H   UNL A   1      42.555  28.037  28.762  1.00  0.00     0.167 HD
ATOM     49  C   UNL A   1      46.277  29.569  27.483  1.00  0.00     0.037 A 
ATOM     50  C   UNL A   1      39.963  28.566  29.534  1.00  0.00     0.037 A 
ATOM     51  C   UNL A   1      46.534  29.393  28.890  1.00  0.00     0.049 A 
ATOM     52  C   UNL A   1      41.018  29.467  30.050  1.00  0.00     0.074 A 
ATOM     53  C   UNL A   1      47.251  28.492  29.653  1.00  0.00     0.029 A 
ATOM     54  N   UNL A   1      45.745  30.076  29.780  1.00  0.00    -0.354 N 
ATOM     55  N   UNL A   1      41.714  29.242  31.126  1.00  0.00    -0.248 NA
ATOM     56  C   UNL A   1      41.562  30.478  29.158  1.00  0.00     0.031 C 
ATOM     57  C   UNL A   1      46.499  28.345  30.858  1.00  0.00     0.029 A 
ATOM     58  C   UNL A   1      45.395  29.190  30.765  1.00  0.00     0.049 A 
ATOM     59  H   UNL A   1      45.481  31.022  29.724  1.00  0.00     0.167 HD
ATOM     60  C   UNL A   1      42.977  29.728  30.833  1.00  0.00     0.074 A 
ATOM     61  C   UNL A   1      42.789  30.593  29.672  1.00  0.00     0.031 C 
ATOM     62  C   UNL A   1      44.092  29.162  31.382  1.00  0.00     0.037 A 
BRANCH  49  63
ATOM     63  C   UNL A   1      46.270  30.935  26.839  1.00  0.00     0.057 A 
ATOM     64  C   UNL A   1      45.093  31.653  26.547  1.00  0.00     0.134 A 
ATOM     65  C   UNL A   1      47.455  31.692  26.808  1.00  0.00     0.134 A 
ATOM     66  F   UNL A   1      43.878  31.093  26.608  1.00  0.00    -0.206 F 
ATOM     67  C   UNL A   1      45.090  33.024  26.277  1.00  0.00     0.040 A 
ATOM     68  C   UNL A   1      47.457  33.075  26.590  1.00  0.00     0.040 A 
ATOM     69  F   UNL A   1      48.640  31.125  27.084  1.00  0.00    -0.206 F 
ATOM     70  C   UNL A   1      46.269  33.748  26.334  1.00  0.00     0.006 A 
ENDBRANCH  49  63
BRANCH  50  71
ATOM     71  C   UNL A   1      38.552  28.998  29.431  1.00  0.00     0.057 A 
ATOM     72  C   UNL A   1      38.062  29.615  28.268  1.00  0.00     0.134 A 
ATOM     73  C   UNL A   1      37.725  29.069  30.562  1.00  0.00     0.134 A 
ATOM     74  F   UNL A   1      38.801  29.676  27.151  1.00  0.00    -0.206 F 
ATOM     75  C   UNL A   1      36.832  30.278  28.234  1.00  0.00     0.040 A 
ATOM     76  C   UNL A   1      36.494  29.738  30.543  1.00  0.00     0.040 A 
ATOM     77  F   UNL A   1      38.120  28.546  31.732  1.00  0.00    -0.206 F 
ATOM     78  C   UNL A   1      36.049  30.355  29.379  1.00  0.00     0.006 A 
ENDBRANCH  50  71
BRANCH  62  79
ATOM     79  C   UNL A   1      43.894  28.238  32.551  1.00  0.00     0.057 A 
ATOM     80  C   UNL A   1      43.733  26.870  32.308  1.00  0.00     0.134 A 
ATOM     81  C   UNL A   1      43.777  28.664  33.882  1.00  0.00     0.134 A 
ATOM     82  F   UNL A   1      43.769  26.394  31.053  1.00  0.00    -0.206 F 
ATOM     83  C   UNL A   1      43.505  25.958  33.343  1.00  0.00     0.040 A 
ATOM     84  C   UNL A   1      43.588  27.759  34.931  1.00  0.00     0.040 A 
ATOM     85  F   UNL A   1      43.801  29.965  34.200  1.00  0.00    -0.206 F 
ATOM     86  C   UNL A   1      43.452  26.401  34.661  1.00  0.00     0.006 A 
ENDBRANCH  62  79
ENDBRANCH  36  37
ENDBRANCH  28  31
ENDBRANCH  26  27
ENDBRANCH  25  26
ENDBRANCH  24  25
ENDBRANCH   1  24
TORSDOF 15
ENDMDL
