MODEL 1
REMARK VINA RESULT:     -12.4      0.000      0.000
REMARK SMILES Cc1ccc(Nc2c(Cl)cccc2Cl)c(CC(=O)NCCCCNC(=O)c2ccc(-c3c4nc(c(-c5c(F)cccc5F)c5ccc([nH]5)c(-c5c(F)cccc5F)c5nc(c(-c6c(F)cccc6F)c6ccc3[nH]6)C=C5)C=C4)cc2)c1
REMARK SMILES IDX 21 1 20 2 19 3 17 4 18 5 16 7 15 8 1 9 2 10 3 11 81 12 4 13
REMARK SMILES IDX 5 14 6 15 7 17 8 18 13 19 9 20 10 21 12 22 14 23 11 24 22 25
REMARK SMILES IDX 23 26 24 27 25 28 26 30 27 31 28 32 80 33 29 34 79 35 30 36
REMARK SMILES IDX 31 37 32 38 73 39 33 40 78 41 72 42 74 43 34 44 77 45 71 46
REMARK SMILES IDX 70 47 35 49 61 50 44 51 60 52 45 53 48 54 59 55 75 56 46 57
REMARK SMILES IDX 47 58 58 60 76 61 49 62 36 63 37 64 42 65 38 66 39 67 41 68
REMARK SMILES IDX 43 69 40 70 62 71 63 72 68 73 64 74 65 75 67 76 69 77 66 78
REMARK SMILES IDX 50 79 51 80 56 81 52 82 53 83 55 84 57 85 54 86
REMARK H PARENT 19 6 6 16 24 29 74 48 48 59
REMARK Flexibility Score: inf
ROOT
ATOM      1  C   UNL A   1      34.038  29.115  27.258  1.00  0.00     0.023 C 
ENDROOT
BRANCH   1   2
ATOM      2  C   UNL A   1      33.242  28.497  26.096  1.00  0.00     0.116 C 
BRANCH   2   3
ATOM      3  N   UNL A   1      32.396  27.387  26.499  1.00  0.00    -0.356 N 
ATOM      4  C   UNL A   1      32.592  26.045  26.366  1.00  0.00     0.224 C 
ATOM      5  O   UNL A   1      31.672  25.285  26.687  1.00  0.00    -0.275 OA
ATOM      6  H   UNL A   1      31.553  27.644  26.936  1.00  0.00     0.163 HD
BRANCH   4   7
ATOM      7  C   UNL A   1      33.890  25.483  25.815  1.00  0.00     0.137 C 
BRANCH   7   8
ATOM      8  C   UNL A   1      33.732  24.813  24.468  1.00  0.00    -0.015 A 
ATOM      9  C   UNL A   1      32.330  25.877  21.073  1.00  0.00     0.044 C 
ATOM     10  C   UNL A   1      32.934  25.047  22.165  1.00  0.00    -0.051 A 
ATOM     11  C   UNL A   1      33.141  23.682  21.977  1.00  0.00     0.005 A 
ATOM     12  C   UNL A   1      33.262  25.609  23.399  1.00  0.00     0.009 A 
ATOM     13  C   UNL A   1      33.661  22.896  23.010  1.00  0.00     0.026 A 
ATOM     14  C   UNL A   1      33.961  23.433  24.273  1.00  0.00     0.042 A 
BRANCH  14  15
ATOM     15  N   UNL A   1      34.506  22.627  25.298  1.00  0.00    -0.353 N 
ATOM     16  H   UNL A   1      34.023  22.648  26.155  1.00  0.00     0.167 HD
BRANCH  15  17
ATOM     17  C   UNL A   1      35.653  21.792  25.265  1.00  0.00     0.076 A 
ATOM     18  C   UNL A   1      36.964  22.280  25.434  1.00  0.00     0.066 A 
ATOM     19  C   UNL A   1      35.504  20.419  24.974  1.00  0.00     0.066 A 
ATOM     20  Cl  UNL A   1      37.286  23.916  25.906  1.00  0.00    -0.082 Cl
ATOM     21  C   UNL A   1      38.074  21.437  25.284  1.00  0.00     0.023 A 
ATOM     22  C   UNL A   1      36.613  19.577  24.834  1.00  0.00     0.023 A 
ATOM     23  Cl  UNL A   1      33.935  19.721  24.740  1.00  0.00    -0.082 Cl
ATOM     24  C   UNL A   1      37.899  20.088  24.979  1.00  0.00     0.003 A 
ENDBRANCH  15  17
ENDBRANCH  14  15
ENDBRANCH   7   8
ENDBRANCH   4   7
ENDBRANCH   2   3
ENDBRANCH   1   2
BRANCH   1  25
ATOM     25  C   UNL A   1      33.681  30.559  27.618  1.00  0.00     0.023 C 
BRANCH  25  26
ATOM     26  C   UNL A   1      34.866  31.510  27.594  1.00  0.00     0.116 C 
BRANCH  26  27
ATOM     27  N   UNL A   1      35.317  31.954  28.908  1.00  0.00    -0.352 N 
ATOM     28  C   UNL A   1      36.186  31.334  29.794  1.00  0.00     0.251 C 
ATOM     29  H   UNL A   1      34.952  32.817  29.209  1.00  0.00     0.163 HD
ATOM     30  O   UNL A   1      36.412  31.833  30.885  1.00  0.00    -0.269 OA
BRANCH  28  31
ATOM     31  C   UNL A   1      36.956  30.145  29.347  1.00  0.00     0.039 A 
ATOM     32  C   UNL A   1      37.095  29.091  30.258  1.00  0.00     0.014 A 
ATOM     33  C   UNL A   1      37.725  30.170  28.188  1.00  0.00     0.014 A 
ATOM     34  C   UNL A   1      38.197  28.248  30.158  1.00  0.00     0.010 A 
ATOM     35  C   UNL A   1      38.873  29.404  28.140  1.00  0.00     0.010 A 
ATOM     36  C   UNL A   1      39.152  28.511  29.179  1.00  0.00    -0.014 A 
BRANCH  36  37
ATOM     37  C   UNL A   1      40.530  28.042  29.274  1.00  0.00     0.031 A 
ATOM     38  C   UNL A   1      40.914  26.711  28.769  1.00  0.00     0.074 A 
ATOM     39  C   UNL A   1      41.477  28.885  29.748  1.00  0.00     0.049 A 
ATOM     40  N   UNL A   1      42.052  26.158  29.022  1.00  0.00    -0.248 NA
ATOM     41  C   UNL A   1      40.017  25.853  27.999  1.00  0.00     0.031 C 
ATOM     42  C   UNL A   1      42.929  28.751  29.651  1.00  0.00     0.029 A 
ATOM     43  N   UNL A   1      41.290  29.932  30.664  1.00  0.00    -0.354 N 
ATOM     44  C   UNL A   1      42.157  25.051  28.222  1.00  0.00     0.074 A 
ATOM     45  C   UNL A   1      40.827  24.825  27.718  1.00  0.00     0.031 C 
ATOM     46  C   UNL A   1      43.493  29.426  30.664  1.00  0.00     0.029 A 
ATOM     47  C   UNL A   1      42.416  29.887  31.522  1.00  0.00     0.049 A 
ATOM     48  H   UNL A   1      40.536  30.565  30.703  1.00  0.00     0.167 HD
ATOM     49  C   UNL A   1      43.394  24.537  27.982  1.00  0.00     0.037 A 
ATOM     50  C   UNL A   1      42.272  29.566  32.841  1.00  0.00     0.037 A 
ATOM     51  C   UNL A   1      44.370  25.015  28.962  1.00  0.00     0.049 A 
ATOM     52  C   UNL A   1      42.992  28.303  33.274  1.00  0.00     0.074 A 
ATOM     53  C   UNL A   1      45.467  25.857  28.951  1.00  0.00     0.029 A 
ATOM     54  N   UNL A   1      44.112  24.749  30.298  1.00  0.00    -0.354 N 
ATOM     55  N   UNL A   1      43.690  27.534  32.482  1.00  0.00    -0.248 NA
ATOM     56  C   UNL A   1      42.894  27.758  34.631  1.00  0.00     0.031 C 
ATOM     57  C   UNL A   1      45.812  26.148  30.311  1.00  0.00     0.029 A 
ATOM     58  C   UNL A   1      44.948  25.453  31.139  1.00  0.00     0.049 A 
ATOM     59  H   UNL A   1      43.414  24.128  30.610  1.00  0.00     0.167 HD
ATOM     60  C   UNL A   1      44.060  26.402  33.160  1.00  0.00     0.074 A 
ATOM     61  C   UNL A   1      43.548  26.592  34.505  1.00  0.00     0.031 C 
ATOM     62  C   UNL A   1      44.714  25.360  32.571  1.00  0.00     0.037 A 
BRANCH  49  63
ATOM     63  C   UNL A   1      43.743  23.675  26.793  1.00  0.00     0.057 A 
ATOM     64  C   UNL A   1      43.409  22.307  26.782  1.00  0.00     0.134 A 
ATOM     65  C   UNL A   1      44.515  24.092  25.688  1.00  0.00     0.134 A 
ATOM     66  F   UNL A   1      42.708  21.752  27.782  1.00  0.00    -0.206 F 
ATOM     67  C   UNL A   1      43.803  21.436  25.754  1.00  0.00     0.040 A 
ATOM     68  C   UNL A   1      44.864  23.245  24.628  1.00  0.00     0.040 A 
ATOM     69  F   UNL A   1      45.037  25.320  25.599  1.00  0.00    -0.206 F 
ATOM     70  C   UNL A   1      44.519  21.907  24.663  1.00  0.00     0.006 A 
ENDBRANCH  49  63
BRANCH  50  71
ATOM     71  C   UNL A   1      40.996  30.065  33.421  1.00  0.00     0.057 A 
ATOM     72  C   UNL A   1      40.894  31.427  33.757  1.00  0.00     0.134 A 
ATOM     73  C   UNL A   1      39.804  29.344  33.320  1.00  0.00     0.134 A 
ATOM     74  F   UNL A   1      42.000  32.180  33.869  1.00  0.00    -0.206 F 
ATOM     75  C   UNL A   1      39.659  32.069  33.873  1.00  0.00     0.040 A 
ATOM     76  C   UNL A   1      38.561  29.973  33.454  1.00  0.00     0.040 A 
ATOM     77  F   UNL A   1      39.814  28.049  32.976  1.00  0.00    -0.206 F 
ATOM     78  C   UNL A   1      38.487  31.345  33.690  1.00  0.00     0.006 A 
ENDBRANCH  50  71
BRANCH  62  79
ATOM     79  C   UNL A   1      45.138  24.135  33.332  1.00  0.00     0.057 A 
ATOM     80  C   UNL A   1      44.273  23.053  33.550  1.00  0.00     0.134 A 
ATOM     81  C   UNL A   1      46.394  24.050  33.962  1.00  0.00     0.134 A 
ATOM     82  F   UNL A   1      43.031  23.051  33.041  1.00  0.00    -0.206 F 
ATOM     83  C   UNL A   1      44.647  21.939  34.312  1.00  0.00     0.040 A 
ATOM     84  C   UNL A   1      46.761  22.965  34.764  1.00  0.00     0.040 A 
ATOM     85  F   UNL A   1      47.324  25.003  33.804  1.00  0.00    -0.206 F 
ATOM     86  C   UNL A   1      45.891  21.899  34.933  1.00  0.00     0.006 A 
ENDBRANCH  62  79
ENDBRANCH  36  37
ENDBRANCH  28  31
ENDBRANCH  26  27
ENDBRANCH  25  26
ENDBRANCH   1  25
TORSDOF 14
ENDMDL
MODEL 2
REMARK VINA RESULT:     -12.0      3.980      9.465
REMARK SMILES Cc1ccc(Nc2c(Cl)cccc2Cl)c(CC(=O)NCCCCNC(=O)c2ccc(-c3c4nc(c(-c5c(F)cccc5F)c5ccc([nH]5)c(-c5c(F)cccc5F)c5nc(c(-c6c(F)cccc6F)c6ccc3[nH]6)C=C5)C=C4)cc2)c1
REMARK SMILES IDX 21 1 20 2 19 3 17 4 18 5 16 7 15 8 1 9 2 10 3 11 81 12 4 13
REMARK SMILES IDX 5 14 6 15 7 17 8 18 13 19 9 20 10 21 12 22 14 23 11 24 22 25
REMARK SMILES IDX 23 26 24 27 25 28 26 30 27 31 28 32 80 33 29 34 79 35 30 36
REMARK SMILES IDX 31 37 32 38 73 39 33 40 78 41 72 42 74 43 34 44 77 45 71 46
REMARK SMILES IDX 70 47 35 49 61 50 44 51 60 52 45 53 48 54 59 55 75 56 46 57
REMARK SMILES IDX 47 58 58 60 76 61 49 62 36 63 37 64 42 65 38 66 39 67 41 68
REMARK SMILES IDX 43 69 40 70 62 71 63 72 68 73 64 74 65 75 67 76 69 77 66 78
REMARK SMILES IDX 50 79 51 80 56 81 52 82 53 83 55 84 57 85 54 86
REMARK H PARENT 19 6 6 16 24 29 74 48 48 59
REMARK Flexibility Score: inf
ROOT
ATOM      1  C   UNL A   1      37.240  21.636  24.684  1.00  0.00     0.023 C 
ENDROOT
BRANCH   1   2
ATOM      2  C   UNL A   1      36.253  22.765  25.026  1.00  0.00     0.116 C 
BRANCH   2   3
ATOM      3  N   UNL A   1      35.535  23.278  23.872  1.00  0.00    -0.356 N 
ATOM      4  C   UNL A   1      34.681  24.335  23.772  1.00  0.00     0.224 C 
ATOM      5  O   UNL A   1      34.097  24.516  22.698  1.00  0.00    -0.275 OA
ATOM      6  H   UNL A   1      35.690  22.786  23.034  1.00  0.00     0.163 HD
BRANCH   4   7
ATOM      7  C   UNL A   1      34.424  25.261  24.947  1.00  0.00     0.137 C 
BRANCH   7   8
ATOM      8  C   UNL A   1      32.981  25.272  25.399  1.00  0.00    -0.015 A 
ATOM      9  C   UNL A   1      30.485  22.603  26.524  1.00  0.00     0.044 C 
ATOM     10  C   UNL A   1      31.076  23.927  26.146  1.00  0.00    -0.051 A 
ATOM     11  C   UNL A   1      30.264  25.053  26.034  1.00  0.00     0.005 A 
ATOM     12  C   UNL A   1      32.436  24.053  25.859  1.00  0.00     0.009 A 
ATOM     13  C   UNL A   1      30.804  26.280  25.636  1.00  0.00     0.026 A 
ATOM     14  C   UNL A   1      32.162  26.420  25.304  1.00  0.00     0.042 A 
BRANCH  14  15
ATOM     15  N   UNL A   1      32.696  27.673  24.924  1.00  0.00    -0.353 N 
ATOM     16  H   UNL A   1      33.340  27.650  24.181  1.00  0.00     0.167 HD
BRANCH  15  17
ATOM     17  C   UNL A   1      32.432  28.958  25.464  1.00  0.00     0.076 A 
ATOM     18  C   UNL A   1      33.149  29.497  26.552  1.00  0.00     0.066 A 
ATOM     19  C   UNL A   1      31.357  29.717  24.957  1.00  0.00     0.066 A 
ATOM     20  Cl  UNL A   1      34.560  28.726  27.198  1.00  0.00    -0.082 Cl
ATOM     21  C   UNL A   1      32.783  30.723  27.122  1.00  0.00     0.023 A 
ATOM     22  C   UNL A   1      30.998  30.946  25.522  1.00  0.00     0.023 A 
ATOM     23  Cl  UNL A   1      30.406  29.142  23.627  1.00  0.00    -0.082 Cl
ATOM     24  C   UNL A   1      31.704  31.444  26.613  1.00  0.00     0.003 A 
ENDBRANCH  15  17
ENDBRANCH  14  15
ENDBRANCH   7   8
ENDBRANCH   4   7
ENDBRANCH   2   3
ENDBRANCH   1   2
BRANCH   1  25
ATOM     25  C   UNL A   1      38.474  21.533  25.581  1.00  0.00     0.023 C 
BRANCH  25  26
ATOM     26  C   UNL A   1      38.861  22.844  26.247  1.00  0.00     0.116 C 
BRANCH  26  27
ATOM     27  N   UNL A   1      40.286  22.991  26.519  1.00  0.00    -0.352 N 
ATOM     28  C   UNL A   1      41.004  24.132  26.845  1.00  0.00     0.251 C 
ATOM     29  H   UNL A   1      40.813  22.162  26.463  1.00  0.00     0.163 HD
ATOM     30  O   UNL A   1      42.215  24.076  26.991  1.00  0.00    -0.269 OA
BRANCH  28  31
ATOM     31  C   UNL A   1      40.275  25.385  27.168  1.00  0.00     0.039 A 
ATOM     32  C   UNL A   1      40.574  26.518  26.401  1.00  0.00     0.014 A 
ATOM     33  C   UNL A   1      39.526  25.510  28.334  1.00  0.00     0.014 A 
ATOM     34  C   UNL A   1      40.389  27.780  26.955  1.00  0.00     0.010 A 
ATOM     35  C   UNL A   1      39.433  26.753  28.930  1.00  0.00     0.010 A 
ATOM     36  C   UNL A   1      39.954  27.874  28.275  1.00  0.00    -0.014 A 
BRANCH  36  37
ATOM     37  C   UNL A   1      40.185  29.053  29.100  1.00  0.00     0.031 A 
ATOM     38  C   UNL A   1      39.176  30.123  29.194  1.00  0.00     0.074 A 
ATOM     39  C   UNL A   1      41.305  29.111  29.860  1.00  0.00     0.049 A 
ATOM     40  N   UNL A   1      39.410  31.277  29.721  1.00  0.00    -0.248 NA
ATOM     41  C   UNL A   1      37.832  30.013  28.629  1.00  0.00     0.031 C 
ATOM     42  C   UNL A   1      41.593  30.022  30.966  1.00  0.00     0.029 A 
ATOM     43  N   UNL A   1      42.538  28.498  29.591  1.00  0.00    -0.354 N 
ATOM     44  C   UNL A   1      38.211  31.925  29.843  1.00  0.00     0.074 A 
ATOM     45  C   UNL A   1      37.292  31.170  29.029  1.00  0.00     0.031 C 
ATOM     46  C   UNL A   1      42.924  30.153  31.081  1.00  0.00     0.029 A 
ATOM     47  C   UNL A   1      43.521  29.449  29.960  1.00  0.00     0.049 A 
ATOM     48  H   UNL A   1      42.689  27.596  29.224  1.00  0.00     0.167 HD
ATOM     49  C   UNL A   1      38.113  32.953  30.729  1.00  0.00     0.037 A 
ATOM     50  C   UNL A   1      44.326  30.017  29.016  1.00  0.00     0.037 A 
ATOM     51  C   UNL A   1      39.434  33.461  31.104  1.00  0.00     0.049 A 
ATOM     52  C   UNL A   1      44.185  31.521  28.876  1.00  0.00     0.074 A 
ATOM     53  C   UNL A   1      40.220  33.456  32.242  1.00  0.00     0.029 A 
ATOM     54  N   UNL A   1      40.249  33.927  30.084  1.00  0.00    -0.354 N 
ATOM     55  N   UNL A   1      43.355  32.259  29.563  1.00  0.00    -0.248 NA
ATOM     56  C   UNL A   1      44.910  32.296  27.866  1.00  0.00     0.031 C 
ATOM     57  C   UNL A   1      41.543  33.858  31.864  1.00  0.00     0.029 A 
ATOM     58  C   UNL A   1      41.543  34.140  30.509  1.00  0.00     0.049 A 
ATOM     59  H   UNL A   1      39.939  34.089  29.163  1.00  0.00     0.167 HD
ATOM     60  C   UNL A   1      43.371  33.537  29.070  1.00  0.00     0.074 A 
ATOM     61  C   UNL A   1      44.367  33.515  28.015  1.00  0.00     0.031 C 
ATOM     62  C   UNL A   1      42.536  34.519  29.517  1.00  0.00     0.037 A 
BRANCH  49  63
ATOM     63  C   UNL A   1      36.818  33.437  31.336  1.00  0.00     0.057 A 
ATOM     64  C   UNL A   1      36.507  33.144  32.677  1.00  0.00     0.134 A 
ATOM     65  C   UNL A   1      35.780  34.079  30.627  1.00  0.00     0.134 A 
ATOM     66  F   UNL A   1      37.378  32.504  33.471  1.00  0.00    -0.206 F 
ATOM     67  C   UNL A   1      35.274  33.473  33.262  1.00  0.00     0.040 A 
ATOM     68  C   UNL A   1      34.568  34.464  31.215  1.00  0.00     0.040 A 
ATOM     69  F   UNL A   1      35.845  34.310  29.311  1.00  0.00    -0.206 F 
ATOM     70  C   UNL A   1      34.305  34.151  32.535  1.00  0.00     0.006 A 
ENDBRANCH  49  63
BRANCH  50  71
ATOM     71  C   UNL A   1      44.667  29.083  27.910  1.00  0.00     0.057 A 
ATOM     72  C   UNL A   1      45.569  28.034  28.166  1.00  0.00     0.134 A 
ATOM     73  C   UNL A   1      43.885  28.982  26.757  1.00  0.00     0.134 A 
ATOM     74  F   UNL A   1      46.350  28.065  29.258  1.00  0.00    -0.206 F 
ATOM     75  C   UNL A   1      45.608  26.884  27.375  1.00  0.00     0.040 A 
ATOM     76  C   UNL A   1      43.931  27.843  25.945  1.00  0.00     0.040 A 
ATOM     77  F   UNL A   1      42.982  29.926  26.457  1.00  0.00    -0.206 F 
ATOM     78  C   UNL A   1      44.762  26.774  26.276  1.00  0.00     0.006 A 
ENDBRANCH  50  71
BRANCH  62  79
ATOM     79  C   UNL A   1      42.581  35.925  28.986  1.00  0.00     0.057 A 
ATOM     80  C   UNL A   1      43.290  36.947  29.635  1.00  0.00     0.134 A 
ATOM     81  C   UNL A   1      41.825  36.320  27.867  1.00  0.00     0.134 A 
ATOM     82  F   UNL A   1      44.003  36.695  30.743  1.00  0.00    -0.206 F 
ATOM     83  C   UNL A   1      43.280  38.269  29.175  1.00  0.00     0.040 A 
ATOM     84  C   UNL A   1      41.770  37.646  27.427  1.00  0.00     0.040 A 
ATOM     85  F   UNL A   1      41.131  35.433  27.139  1.00  0.00    -0.206 F 
ATOM     86  C   UNL A   1      42.508  38.625  28.075  1.00  0.00     0.006 A 
ENDBRANCH  62  79
ENDBRANCH  36  37
ENDBRANCH  28  31
ENDBRANCH  26  27
ENDBRANCH  25  26
ENDBRANCH   1  25
TORSDOF 14
ENDMDL
MODEL 3
REMARK VINA RESULT:     -11.9      3.838      8.959
REMARK SMILES Cc1ccc(Nc2c(Cl)cccc2Cl)c(CC(=O)NCCCCNC(=O)c2ccc(-c3c4nc(c(-c5c(F)cccc5F)c5ccc([nH]5)c(-c5c(F)cccc5F)c5nc(c(-c6c(F)cccc6F)c6ccc3[nH]6)C=C5)C=C4)cc2)c1
REMARK SMILES IDX 21 1 20 2 19 3 17 4 18 5 16 7 15 8 1 9 2 10 3 11 81 12 4 13
REMARK SMILES IDX 5 14 6 15 7 17 8 18 13 19 9 20 10 21 12 22 14 23 11 24 22 25
REMARK SMILES IDX 23 26 24 27 25 28 26 30 27 31 28 32 80 33 29 34 79 35 30 36
REMARK SMILES IDX 31 37 32 38 73 39 33 40 78 41 72 42 74 43 34 44 77 45 71 46
REMARK SMILES IDX 70 47 35 49 61 50 44 51 60 52 45 53 48 54 59 55 75 56 46 57
REMARK SMILES IDX 47 58 58 60 76 61 49 62 36 63 37 64 42 65 38 66 39 67 41 68
REMARK SMILES IDX 43 69 40 70 62 71 63 72 68 73 64 74 65 75 67 76 69 77 66 78
REMARK SMILES IDX 50 79 51 80 56 81 52 82 53 83 55 84 57 85 54 86
REMARK H PARENT 19 6 6 16 24 29 74 48 48 59
REMARK Flexibility Score: inf
ROOT
ATOM      1  C   UNL A   1      37.545  21.163  24.981  1.00  0.00     0.023 C 
ENDROOT
BRANCH   1   2
ATOM      2  C   UNL A   1      36.565  22.266  25.416  1.00  0.00     0.116 C 
BRANCH   2   3
ATOM      3  N   UNL A   1      35.956  22.972  24.302  1.00  0.00    -0.356 N 
ATOM      4  C   UNL A   1      35.124  24.051  24.300  1.00  0.00     0.224 C 
ATOM      5  O   UNL A   1      34.639  24.414  23.223  1.00  0.00    -0.275 OA
ATOM      6  H   UNL A   1      36.180  22.617  23.412  1.00  0.00     0.163 HD
BRANCH   4   7
ATOM      7  C   UNL A   1      34.773  24.785  25.582  1.00  0.00     0.137 C 
BRANCH   7   8
ATOM      8  C   UNL A   1      33.513  25.613  25.474  1.00  0.00    -0.015 A 
ATOM      9  C   UNL A   1      32.748  29.277  24.692  1.00  0.00     0.044 C 
ATOM     10  C   UNL A   1      32.570  27.834  25.053  1.00  0.00    -0.051 A 
ATOM     11  C   UNL A   1      31.325  27.359  25.458  1.00  0.00     0.005 A 
ATOM     12  C   UNL A   1      33.649  26.948  25.033  1.00  0.00     0.009 A 
ATOM     13  C   UNL A   1      31.166  26.024  25.841  1.00  0.00     0.026 A 
ATOM     14  C   UNL A   1      32.246  25.125  25.866  1.00  0.00     0.042 A 
BRANCH  14  15
ATOM     15  N   UNL A   1      32.062  23.773  26.236  1.00  0.00    -0.353 N 
ATOM     16  H   UNL A   1      31.659  23.628  27.122  1.00  0.00     0.167 HD
BRANCH  15  17
ATOM     17  C   UNL A   1      32.375  22.597  25.508  1.00  0.00     0.076 A 
ATOM     18  C   UNL A   1      31.901  22.350  24.203  1.00  0.00     0.066 A 
ATOM     19  C   UNL A   1      33.128  21.577  26.127  1.00  0.00     0.066 A 
ATOM     20  Cl  UNL A   1      31.062  23.556  23.284  1.00  0.00    -0.082 Cl
ATOM     21  C   UNL A   1      32.145  21.127  23.565  1.00  0.00     0.023 A 
ATOM     22  C   UNL A   1      33.378  20.358  25.484  1.00  0.00     0.023 A 
ATOM     23  Cl  UNL A   1      33.750  21.775  27.732  1.00  0.00    -0.082 Cl
ATOM     24  C   UNL A   1      32.877  20.129  24.206  1.00  0.00     0.003 A 
ENDBRANCH  15  17
ENDBRANCH  14  15
ENDBRANCH   7   8
ENDBRANCH   4   7
ENDBRANCH   2   3
ENDBRANCH   1   2
BRANCH   1  25
ATOM     25  C   UNL A   1      38.920  21.190  25.651  1.00  0.00     0.023 C 
BRANCH  25  26
ATOM     26  C   UNL A   1      39.267  22.526  26.288  1.00  0.00     0.116 C 
BRANCH  26  27
ATOM     27  N   UNL A   1      40.695  22.813  26.360  1.00  0.00    -0.352 N 
ATOM     28  C   UNL A   1      41.339  24.028  26.540  1.00  0.00     0.251 C 
ATOM     29  H   UNL A   1      41.287  22.031  26.268  1.00  0.00     0.163 HD
ATOM     30  O   UNL A   1      42.558  24.087  26.524  1.00  0.00    -0.269 OA
BRANCH  28  31
ATOM     31  C   UNL A   1      40.542  25.227  26.907  1.00  0.00     0.039 A 
ATOM     32  C   UNL A   1      40.772  26.398  26.175  1.00  0.00     0.014 A 
ATOM     33  C   UNL A   1      39.794  25.273  28.079  1.00  0.00     0.014 A 
ATOM     34  C   UNL A   1      40.520  27.630  26.770  1.00  0.00     0.010 A 
ATOM     35  C   UNL A   1      39.636  26.489  28.715  1.00  0.00     0.010 A 
ATOM     36  C   UNL A   1      40.089  27.657  28.094  1.00  0.00    -0.014 A 
BRANCH  36  37
ATOM     37  C   UNL A   1      40.258  28.821  28.956  1.00  0.00     0.031 A 
ATOM     38  C   UNL A   1      39.218  29.861  29.039  1.00  0.00     0.074 A 
ATOM     39  C   UNL A   1      41.348  28.889  29.757  1.00  0.00     0.049 A 
ATOM     40  N   UNL A   1      39.402  31.007  29.602  1.00  0.00    -0.248 NA
ATOM     41  C   UNL A   1      37.899  29.731  28.423  1.00  0.00     0.031 C 
ATOM     42  C   UNL A   1      41.572  29.778  30.895  1.00  0.00     0.029 A 
ATOM     43  N   UNL A   1      42.607  28.315  29.518  1.00  0.00    -0.354 N 
ATOM     44  C   UNL A   1      38.182  31.620  29.697  1.00  0.00     0.074 A 
ATOM     45  C   UNL A   1      37.313  30.863  28.832  1.00  0.00     0.031 C 
ATOM     46  C   UNL A   1      42.894  29.941  31.061  1.00  0.00     0.029 A 
ATOM     47  C   UNL A   1      43.549  29.281  29.946  1.00  0.00     0.049 A 
ATOM     48  H   UNL A   1      42.795  27.427  29.135  1.00  0.00     0.167 HD
ATOM     49  C   UNL A   1      38.025  32.623  30.603  1.00  0.00     0.037 A 
ATOM     50  C   UNL A   1      44.372  29.894  29.046  1.00  0.00     0.037 A 
ATOM     51  C   UNL A   1      39.317  33.155  31.038  1.00  0.00     0.049 A 
ATOM     52  C   UNL A   1      44.195  31.397  28.937  1.00  0.00     0.074 A 
ATOM     53  C   UNL A   1      40.063  33.142  32.204  1.00  0.00     0.029 A 
ATOM     54  N   UNL A   1      40.155  33.668  30.061  1.00  0.00    -0.354 N 
ATOM     55  N   UNL A   1      43.322  32.096  29.612  1.00  0.00    -0.248 NA
ATOM     56  C   UNL A   1      44.935  32.217  27.974  1.00  0.00     0.031 C 
ATOM     57  C   UNL A   1      41.386  33.587  31.884  1.00  0.00     0.029 A 
ATOM     58  C   UNL A   1      41.427  33.904  30.537  1.00  0.00     0.049 A 
ATOM     59  H   UNL A   1      39.874  33.845  29.133  1.00  0.00     0.167 HD
ATOM     60  C   UNL A   1      43.321  33.386  29.151  1.00  0.00     0.074 A 
ATOM     61  C   UNL A   1      44.354  33.417  28.133  1.00  0.00     0.031 C 
ATOM     62  C   UNL A   1      42.445  34.334  29.591  1.00  0.00     0.037 A 
BRANCH  49  63
ATOM     63  C   UNL A   1      36.696  33.057  31.174  1.00  0.00     0.057 A 
ATOM     64  C   UNL A   1      35.830  33.873  30.422  1.00  0.00     0.134 A 
ATOM     65  C   UNL A   1      36.265  32.816  32.496  1.00  0.00     0.134 A 
ATOM     66  F   UNL A   1      36.120  34.221  29.160  1.00  0.00    -0.206 F 
ATOM     67  C   UNL A   1      34.635  34.394  30.942  1.00  0.00     0.040 A 
ATOM     68  C   UNL A   1      35.047  33.283  33.007  1.00  0.00     0.040 A 
ATOM     69  F   UNL A   1      37.024  32.178  33.395  1.00  0.00    -0.206 F 
ATOM     70  C   UNL A   1      34.230  34.087  32.233  1.00  0.00     0.006 A 
ENDBRANCH  49  63
BRANCH  50  71
ATOM     71  C   UNL A   1      44.778  28.998  27.930  1.00  0.00     0.057 A 
ATOM     72  C   UNL A   1      45.752  28.013  28.175  1.00  0.00     0.134 A 
ATOM     73  C   UNL A   1      44.004  28.854  26.776  1.00  0.00     0.134 A 
ATOM     74  F   UNL A   1      46.529  28.088  29.267  1.00  0.00    -0.206 F 
ATOM     75  C   UNL A   1      45.871  26.876  27.373  1.00  0.00     0.040 A 
ATOM     76  C   UNL A   1      44.129  27.729  25.953  1.00  0.00     0.040 A 
ATOM     77  F   UNL A   1      43.036  29.734  26.486  1.00  0.00    -0.206 F 
ATOM     78  C   UNL A   1      45.034  26.718  26.273  1.00  0.00     0.006 A 
ENDBRANCH  50  71
BRANCH  62  79
ATOM     79  C   UNL A   1      42.470  35.753  29.097  1.00  0.00     0.057 A 
ATOM     80  C   UNL A   1      41.728  36.171  27.983  1.00  0.00     0.134 A 
ATOM     81  C   UNL A   1      43.325  36.720  29.659  1.00  0.00     0.134 A 
ATOM     82  F   UNL A   1      40.919  35.319  27.335  1.00  0.00    -0.206 F 
ATOM     83  C   UNL A   1      41.800  37.478  27.485  1.00  0.00     0.040 A 
ATOM     84  C   UNL A   1      43.442  38.013  29.142  1.00  0.00     0.040 A 
ATOM     85  F   UNL A   1      44.062  36.456  30.748  1.00  0.00    -0.206 F 
ATOM     86  C   UNL A   1      42.669  38.400  28.057  1.00  0.00     0.006 A 
ENDBRANCH  62  79
ENDBRANCH  36  37
ENDBRANCH  28  31
ENDBRANCH  26  27
ENDBRANCH  25  26
ENDBRANCH   1  25
TORSDOF 14
ENDMDL
