MODEL 1
REMARK VINA RESULT:     -11.5      0.000      0.000
REMARK SMILES CC(C)Cc1ccc([C@H](CC(=O)NCCCCNC(=O)c2ccc(-c3c4nc(c(-c5c(F)cccc5F)c5ccc([nH]5)c(-c5c(F)cccc5F)c5nc(c(-c6c(F)cccc6F)c6ccc3[nH]6)C=C5)C=C4)cc2)C(F)(F)F)cc1
REMARK SMILES IDX 14 1 13 2 11 3 12 4 10 6 9 7 8 8 5 9 6 10 80 11 7 12 79 13
REMARK SMILES IDX 4 14 2 15 1 16 3 17 75 18 76 19 77 20 78 21 15 22 16 23
REMARK SMILES IDX 17 24 18 25 19 26 20 28 21 29 22 30 74 31 23 32 73 33 24 34
REMARK SMILES IDX 25 35 26 36 67 37 27 38 72 39 66 40 68 41 28 42 71 43 65 44
REMARK SMILES IDX 64 45 29 47 55 48 38 49 54 50 39 51 42 52 53 53 69 54 40 55
REMARK SMILES IDX 41 56 52 58 70 59 43 60 30 61 31 62 36 63 32 64 33 65 35 66
REMARK SMILES IDX 37 67 34 68 56 69 57 70 62 71 58 72 59 73 61 74 63 75 60 76
REMARK SMILES IDX 44 77 45 78 50 79 46 80 47 81 49 82 51 83 48 84
REMARK H PARENT 13 5 18 27 68 46 42 57
REMARK Flexibility Score: inf
ROOT
ATOM      1  C   UNL A   1      37.139  22.108  24.706  1.00  0.00     0.116 C 
ENDROOT
BRANCH   1   2
ATOM      2  N   UNL A   1      36.398  22.619  23.573  1.00  0.00    -0.356 N 
ATOM      3  C   UNL A   1      35.167  23.190  23.497  1.00  0.00     0.220 C 
ATOM      4  O   UNL A   1      34.762  23.506  22.376  1.00  0.00    -0.275 OA
ATOM      5  H   UNL A   1      36.866  22.541  22.710  1.00  0.00     0.163 HD
BRANCH   3   6
ATOM      6  C   UNL A   1      34.342  23.521  24.729  1.00  0.00     0.117 C 
BRANCH   6   7
ATOM      7  C   UNL A   1      32.902  22.958  24.756  1.00  0.00     0.134 C 
BRANCH   7   8
ATOM      8  C   UNL A   1      32.772  21.429  24.691  1.00  0.00    -0.035 A 
ATOM      9  C   UNL A   1      32.936  18.618  24.268  1.00  0.00    -0.048 A 
ATOM     10  C   UNL A   1      32.408  19.460  23.288  1.00  0.00     0.004 A 
ATOM     11  C   UNL A   1      33.276  19.188  25.502  1.00  0.00     0.004 A 
ATOM     12  C   UNL A   1      32.349  20.844  23.487  1.00  0.00     0.004 A 
ATOM     13  C   UNL A   1      33.162  20.566  25.726  1.00  0.00     0.004 A 
BRANCH   9  14
ATOM     14  C   UNL A   1      33.190  17.137  24.081  1.00  0.00     0.038 C 
BRANCH  14  15
ATOM     15  C   UNL A   1      33.503  16.268  25.317  1.00  0.00    -0.013 C 
ATOM     16  C   UNL A   1      32.635  15.007  25.396  1.00  0.00     0.008 C 
ATOM     17  C   UNL A   1      34.976  15.839  25.281  1.00  0.00     0.008 C 
ENDBRANCH  14  15
ENDBRANCH   9  14
ENDBRANCH   7   8
BRANCH   7  18
ATOM     18  C   UNL A   1      32.141  23.528  25.956  1.00  0.00     0.396 C 
ATOM     19  F   UNL A   1      31.872  24.841  25.769  1.00  0.00    -0.170 F 
ATOM     20  F   UNL A   1      30.950  22.915  26.139  1.00  0.00    -0.170 F 
ATOM     21  F   UNL A   1      32.849  23.414  27.100  1.00  0.00    -0.170 F 
ENDBRANCH   7  18
ENDBRANCH   6   7
ENDBRANCH   3   6
ENDBRANCH   1   2
BRANCH   1  22
ATOM     22  C   UNL A   1      36.788  20.654  25.008  1.00  0.00     0.023 C 
BRANCH  22  23
ATOM     23  C   UNL A   1      37.970  19.693  24.929  1.00  0.00     0.023 C 
BRANCH  23  24
ATOM     24  C   UNL A   1      39.170  20.079  25.788  1.00  0.00     0.116 C 
BRANCH  24  25
ATOM     25  N   UNL A   1      40.181  19.034  25.867  1.00  0.00    -0.352 N 
ATOM     26  C   UNL A   1      41.526  19.151  26.130  1.00  0.00     0.251 C 
ATOM     27  H   UNL A   1      39.858  18.119  25.710  1.00  0.00     0.163 HD
ATOM     28  O   UNL A   1      42.263  18.173  26.039  1.00  0.00    -0.269 OA
BRANCH  26  29
ATOM     29  C   UNL A   1      42.087  20.471  26.487  1.00  0.00     0.039 A 
ATOM     30  C   UNL A   1      42.608  21.281  25.476  1.00  0.00     0.014 A 
ATOM     31  C   UNL A   1      42.065  20.920  27.809  1.00  0.00     0.014 A 
ATOM     32  C   UNL A   1      43.033  22.575  25.779  1.00  0.00     0.010 A 
ATOM     33  C   UNL A   1      42.414  22.236  28.096  1.00  0.00     0.010 A 
ATOM     34  C   UNL A   1      42.898  23.078  27.083  1.00  0.00    -0.014 A 
BRANCH  34  35
ATOM     35  C   UNL A   1      43.248  24.484  27.410  1.00  0.00     0.031 A 
ATOM     36  C   UNL A   1      44.683  24.933  27.377  1.00  0.00     0.074 A 
ATOM     37  C   UNL A   1      42.285  25.336  27.811  1.00  0.00     0.049 A 
ATOM     38  N   UNL A   1      45.194  26.092  27.705  1.00  0.00    -0.248 NA
ATOM     39  C   UNL A   1      45.678  23.936  26.949  1.00  0.00     0.031 C 
ATOM     40  C   UNL A   1      40.863  25.009  27.938  1.00  0.00     0.029 A 
ATOM     41  N   UNL A   1      42.359  26.650  28.199  1.00  0.00    -0.354 N 
ATOM     42  C   UNL A   1      46.567  25.959  27.538  1.00  0.00     0.074 A 
ATOM     43  C   UNL A   1      46.813  24.591  27.135  1.00  0.00     0.031 C 
ATOM     44  C   UNL A   1      40.197  26.099  28.352  1.00  0.00     0.029 A 
ATOM     45  C   UNL A   1      41.146  27.189  28.555  1.00  0.00     0.049 A 
ATOM     46  H   UNL A   1      43.202  27.159  28.221  1.00  0.00     0.167 HD
ATOM     47  C   UNL A   1      47.533  26.896  27.685  1.00  0.00     0.037 A 
ATOM     48  C   UNL A   1      40.835  28.421  29.001  1.00  0.00     0.037 A 
ATOM     49  C   UNL A   1      47.284  28.262  28.061  1.00  0.00     0.049 A 
ATOM     50  C   UNL A   1      41.924  29.445  29.155  1.00  0.00     0.074 A 
ATOM     51  C   UNL A   1      48.188  29.305  28.171  1.00  0.00     0.029 A 
ATOM     52  N   UNL A   1      46.039  28.776  28.392  1.00  0.00    -0.354 N 
ATOM     53  N   UNL A   1      43.209  29.326  28.925  1.00  0.00    -0.248 NA
ATOM     54  C   UNL A   1      41.520  30.777  29.625  1.00  0.00     0.031 C 
ATOM     55  C   UNL A   1      47.496  30.439  28.610  1.00  0.00     0.029 A 
ATOM     56  C   UNL A   1      46.154  30.115  28.727  1.00  0.00     0.049 A 
ATOM     57  H   UNL A   1      45.198  28.264  28.388  1.00  0.00     0.167 HD
ATOM     58  C   UNL A   1      43.762  30.571  29.196  1.00  0.00     0.074 A 
ATOM     59  C   UNL A   1      42.670  31.435  29.595  1.00  0.00     0.031 C 
ATOM     60  C   UNL A   1      45.057  30.963  29.119  1.00  0.00     0.037 A 
BRANCH  47  61
ATOM     61  C   UNL A   1      48.951  26.469  27.433  1.00  0.00     0.057 A 
ATOM     62  C   UNL A   1      49.784  26.025  28.468  1.00  0.00     0.134 A 
ATOM     63  C   UNL A   1      49.483  26.482  26.138  1.00  0.00     0.134 A 
ATOM     64  F   UNL A   1      49.341  25.999  29.734  1.00  0.00    -0.206 F 
ATOM     65  C   UNL A   1      51.104  25.640  28.229  1.00  0.00     0.040 A 
ATOM     66  C   UNL A   1      50.792  26.073  25.881  1.00  0.00     0.040 A 
ATOM     67  F   UNL A   1      48.737  26.890  25.099  1.00  0.00    -0.206 F 
ATOM     68  C   UNL A   1      51.609  25.657  26.931  1.00  0.00     0.006 A 
ENDBRANCH  47  61
BRANCH  48  69
ATOM     69  C   UNL A   1      39.423  28.763  29.308  1.00  0.00     0.057 A 
ATOM     70  C   UNL A   1      38.904  28.586  30.596  1.00  0.00     0.134 A 
ATOM     71  C   UNL A   1      38.563  29.272  28.330  1.00  0.00     0.134 A 
ATOM     72  F   UNL A   1      39.676  28.084  31.571  1.00  0.00    -0.206 F 
ATOM     73  C   UNL A   1      37.575  28.887  30.896  1.00  0.00     0.040 A 
ATOM     74  C   UNL A   1      37.238  29.601  28.621  1.00  0.00     0.040 A 
ATOM     75  F   UNL A   1      39.002  29.472  27.078  1.00  0.00    -0.206 F 
ATOM     76  C   UNL A   1      36.739  29.401  29.908  1.00  0.00     0.006 A 
ENDBRANCH  48  69
BRANCH  60  77
ATOM     77  C   UNL A   1      45.360  32.397  29.442  1.00  0.00     0.057 A 
ATOM     78  C   UNL A   1      45.735  32.802  30.729  1.00  0.00     0.134 A 
ATOM     79  C   UNL A   1      45.316  33.377  28.442  1.00  0.00     0.134 A 
ATOM     80  F   UNL A   1      45.784  31.914  31.734  1.00  0.00    -0.206 F 
ATOM     81  C   UNL A   1      46.033  34.135  31.015  1.00  0.00     0.040 A 
ATOM     82  C   UNL A   1      45.637  34.708  28.710  1.00  0.00     0.040 A 
ATOM     83  F   UNL A   1      44.973  33.054  27.186  1.00  0.00    -0.206 F 
ATOM     84  C   UNL A   1      45.992  35.092  30.002  1.00  0.00     0.006 A 
ENDBRANCH  60  77
ENDBRANCH  34  35
ENDBRANCH  26  29
ENDBRANCH  24  25
ENDBRANCH  23  24
ENDBRANCH  22  23
ENDBRANCH   1  22
TORSDOF 16
ENDMDL
MODEL 2
REMARK VINA RESULT:     -11.4      5.933     10.799
REMARK SMILES CC(C)Cc1ccc([C@H](CC(=O)NCCCCNC(=O)c2ccc(-c3c4nc(c(-c5c(F)cccc5F)c5ccc([nH]5)c(-c5c(F)cccc5F)c5nc(c(-c6c(F)cccc6F)c6ccc3[nH]6)C=C5)C=C4)cc2)C(F)(F)F)cc1
REMARK SMILES IDX 14 1 13 2 11 3 12 4 10 6 9 7 8 8 5 9 6 10 80 11 7 12 79 13
REMARK SMILES IDX 4 14 2 15 1 16 3 17 75 18 76 19 77 20 78 21 15 22 16 23
REMARK SMILES IDX 17 24 18 25 19 26 20 28 21 29 22 30 74 31 23 32 73 33 24 34
REMARK SMILES IDX 25 35 26 36 67 37 27 38 72 39 66 40 68 41 28 42 71 43 65 44
REMARK SMILES IDX 64 45 29 47 55 48 38 49 54 50 39 51 42 52 53 53 69 54 40 55
REMARK SMILES IDX 41 56 52 58 70 59 43 60 30 61 31 62 36 63 32 64 33 65 35 66
REMARK SMILES IDX 37 67 34 68 56 69 57 70 62 71 58 72 59 73 61 74 63 75 60 76
REMARK SMILES IDX 44 77 45 78 50 79 46 80 47 81 49 82 51 83 48 84
REMARK H PARENT 13 5 18 27 68 46 42 57
REMARK Flexibility Score: inf
ROOT
ATOM      1  C   UNL A   1      32.598  29.605  26.564  1.00  0.00     0.116 C 
ENDROOT
BRANCH   1   2
ATOM      2  N   UNL A   1      31.900  28.420  27.014  1.00  0.00    -0.356 N 
ATOM      3  C   UNL A   1      31.720  27.211  26.419  1.00  0.00     0.220 C 
ATOM      4  O   UNL A   1      31.041  26.380  27.026  1.00  0.00    -0.275 OA
ATOM      5  H   UNL A   1      31.486  28.502  27.903  1.00  0.00     0.163 HD
BRANCH   3   6
ATOM      6  C   UNL A   1      32.392  26.838  25.108  1.00  0.00     0.117 C 
BRANCH   6   7
ATOM      7  C   UNL A   1      31.452  26.384  23.967  1.00  0.00     0.134 C 
BRANCH   7   8
ATOM      8  C   UNL A   1      30.557  27.471  23.354  1.00  0.00    -0.035 A 
ATOM      9  C   UNL A   1      28.798  29.610  22.697  1.00  0.00    -0.048 A 
ATOM     10  C   UNL A   1      28.299  28.381  23.128  1.00  0.00     0.004 A 
ATOM     11  C   UNL A   1      30.180  29.718  22.495  1.00  0.00     0.004 A 
ATOM     12  C   UNL A   1      29.164  27.336  23.473  1.00  0.00     0.004 A 
ATOM     13  C   UNL A   1      31.044  28.655  22.781  1.00  0.00     0.004 A 
BRANCH   9  14
ATOM     14  C   UNL A   1      27.951  30.844  22.460  1.00  0.00     0.038 C 
BRANCH  14  15
ATOM     15  C   UNL A   1      28.601  32.085  21.812  1.00  0.00    -0.013 C 
ATOM     16  C   UNL A   1      27.797  32.628  20.625  1.00  0.00     0.008 C 
ATOM     17  C   UNL A   1      28.729  33.200  22.859  1.00  0.00     0.008 C 
ENDBRANCH  14  15
ENDBRANCH   9  14
ENDBRANCH   7   8
BRANCH   7  18
ATOM     18  C   UNL A   1      32.256  25.654  22.888  1.00  0.00     0.396 C 
ATOM     19  F   UNL A   1      32.217  24.316  23.087  1.00  0.00    -0.170 F 
ATOM     20  F   UNL A   1      31.758  25.872  21.650  1.00  0.00    -0.170 F 
ATOM     21  F   UNL A   1      33.553  26.030  22.888  1.00  0.00    -0.170 F 
ENDBRANCH   7  18
ENDBRANCH   6   7
ENDBRANCH   3   6
ENDBRANCH   1   2
BRANCH   1  22
ATOM     22  C   UNL A   1      31.676  30.557  25.809  1.00  0.00     0.023 C 
BRANCH  22  23
ATOM     23  C   UNL A   1      31.410  31.877  26.528  1.00  0.00     0.023 C 
BRANCH  23  24
ATOM     24  C   UNL A   1      32.619  32.474  27.243  1.00  0.00     0.116 C 
BRANCH  24  25
ATOM     25  N   UNL A   1      32.457  33.883  27.569  1.00  0.00    -0.352 N 
ATOM     26  C   UNL A   1      33.153  34.646  28.477  1.00  0.00     0.251 C 
ATOM     27  H   UNL A   1      31.752  34.355  27.071  1.00  0.00     0.163 HD
ATOM     28  O   UNL A   1      32.804  35.799  28.716  1.00  0.00    -0.269 OA
BRANCH  26  29
ATOM     29  C   UNL A   1      34.303  34.057  29.193  1.00  0.00     0.039 A 
ATOM     30  C   UNL A   1      34.063  33.181  30.255  1.00  0.00     0.014 A 
ATOM     31  C   UNL A   1      35.611  34.340  28.796  1.00  0.00     0.014 A 
ATOM     32  C   UNL A   1      35.134  32.526  30.864  1.00  0.00     0.010 A 
ATOM     33  C   UNL A   1      36.670  33.628  29.350  1.00  0.00     0.010 A 
ATOM     34  C   UNL A   1      36.442  32.711  30.388  1.00  0.00    -0.014 A 
BRANCH  34  35
ATOM     35  C   UNL A   1      37.585  31.950  30.952  1.00  0.00     0.031 A 
ATOM     36  C   UNL A   1      38.100  32.268  32.329  1.00  0.00     0.074 A 
ATOM     37  C   UNL A   1      38.210  31.026  30.197  1.00  0.00     0.049 A 
ATOM     38  N   UNL A   1      39.131  31.772  32.962  1.00  0.00    -0.248 NA
ATOM     39  C   UNL A   1      37.375  33.306  33.081  1.00  0.00     0.031 C 
ATOM     40  C   UNL A   1      37.844  30.662  28.827  1.00  0.00     0.029 A 
ATOM     41  N   UNL A   1      39.295  30.232  30.472  1.00  0.00    -0.354 N 
ATOM     42  C   UNL A   1      39.190  32.445  34.175  1.00  0.00     0.074 A 
ATOM     43  C   UNL A   1      38.124  33.423  34.167  1.00  0.00     0.031 C 
ATOM     44  C   UNL A   1      38.675  29.703  28.390  1.00  0.00     0.029 A 
ATOM     45  C   UNL A   1      39.654  29.409  29.432  1.00  0.00     0.049 A 
ATOM     46  H   UNL A   1      39.772  30.250  31.334  1.00  0.00     0.167 HD
ATOM     47  C   UNL A   1      40.038  32.251  35.212  1.00  0.00     0.037 A 
ATOM     48  C   UNL A   1      40.662  28.522  29.327  1.00  0.00     0.037 A 
ATOM     49  C   UNL A   1      41.082  31.260  35.229  1.00  0.00     0.049 A 
ATOM     50  C   UNL A   1      41.591  28.323  30.492  1.00  0.00     0.074 A 
ATOM     51  C   UNL A   1      41.951  30.939  36.257  1.00  0.00     0.029 A 
ATOM     52  N   UNL A   1      41.400  30.429  34.164  1.00  0.00    -0.354 N 
ATOM     53  N   UNL A   1      41.589  28.916  31.661  1.00  0.00    -0.248 NA
ATOM     54  C   UNL A   1      42.658  27.327  30.325  1.00  0.00     0.031 C 
ATOM     55  C   UNL A   1      42.822  29.946  35.801  1.00  0.00     0.029 A 
ATOM     56  C   UNL A   1      42.465  29.612  34.503  1.00  0.00     0.049 A 
ATOM     57  H   UNL A   1      40.935  30.422  33.296  1.00  0.00     0.167 HD
ATOM     58  C   UNL A   1      42.635  28.348  32.378  1.00  0.00     0.074 A 
ATOM     59  C   UNL A   1      43.241  27.353  31.515  1.00  0.00     0.031 C 
ATOM     60  C   UNL A   1      43.055  28.624  33.636  1.00  0.00     0.037 A 
BRANCH  47  61
ATOM     61  C   UNL A   1      39.867  33.131  36.417  1.00  0.00     0.057 A 
ATOM     62  C   UNL A   1      40.607  34.309  36.582  1.00  0.00     0.134 A 
ATOM     63  C   UNL A   1      38.937  32.808  37.413  1.00  0.00     0.134 A 
ATOM     64  F   UNL A   1      41.523  34.670  35.672  1.00  0.00    -0.206 F 
ATOM     65  C   UNL A   1      40.450  35.118  37.709  1.00  0.00     0.040 A 
ATOM     66  C   UNL A   1      38.751  33.623  38.530  1.00  0.00     0.040 A 
ATOM     67  F   UNL A   1      38.191  31.697  37.314  1.00  0.00    -0.206 F 
ATOM     68  C   UNL A   1      39.515  34.778  38.685  1.00  0.00     0.006 A 
ENDBRANCH  47  61
BRANCH  48  69
ATOM     69  C   UNL A   1      40.829  27.734  28.080  1.00  0.00     0.057 A 
ATOM     70  C   UNL A   1      40.230  26.478  27.937  1.00  0.00     0.134 A 
ATOM     71  C   UNL A   1      41.587  28.214  27.006  1.00  0.00     0.134 A 
ATOM     72  F   UNL A   1      39.506  25.957  28.939  1.00  0.00    -0.206 F 
ATOM     73  C   UNL A   1      40.392  25.718  26.777  1.00  0.00     0.040 A 
ATOM     74  C   UNL A   1      41.738  27.476  25.831  1.00  0.00     0.040 A 
ATOM     75  F   UNL A   1      42.180  29.414  27.079  1.00  0.00    -0.206 F 
ATOM     76  C   UNL A   1      41.143  26.220  25.718  1.00  0.00     0.006 A 
ENDBRANCH  48  69
BRANCH  60  77
ATOM     77  C   UNL A   1      44.203  27.818  34.170  1.00  0.00     0.057 A 
ATOM     78  C   UNL A   1      44.011  26.571  34.777  1.00  0.00     0.134 A 
ATOM     79  C   UNL A   1      45.519  28.278  34.035  1.00  0.00     0.134 A 
ATOM     80  F   UNL A   1      42.774  26.080  34.948  1.00  0.00    -0.206 F 
ATOM     81  C   UNL A   1      45.087  25.820  35.252  1.00  0.00     0.040 A 
ATOM     82  C   UNL A   1      46.605  27.524  34.483  1.00  0.00     0.040 A 
ATOM     83  F   UNL A   1      45.772  29.460  33.455  1.00  0.00    -0.206 F 
ATOM     84  C   UNL A   1      46.390  26.293  35.099  1.00  0.00     0.006 A 
ENDBRANCH  60  77
ENDBRANCH  34  35
ENDBRANCH  26  29
ENDBRANCH  24  25
ENDBRANCH  23  24
ENDBRANCH  22  23
ENDBRANCH   1  22
TORSDOF 16
ENDMDL
MODEL 3
REMARK VINA RESULT:     -11.4      0.621      6.364
REMARK SMILES CC(C)Cc1ccc([C@H](CC(=O)NCCCCNC(=O)c2ccc(-c3c4nc(c(-c5c(F)cccc5F)c5ccc([nH]5)c(-c5c(F)cccc5F)c5nc(c(-c6c(F)cccc6F)c6ccc3[nH]6)C=C5)C=C4)cc2)C(F)(F)F)cc1
REMARK SMILES IDX 14 1 13 2 11 3 12 4 10 6 9 7 8 8 5 9 6 10 80 11 7 12 79 13
REMARK SMILES IDX 4 14 2 15 1 16 3 17 75 18 76 19 77 20 78 21 15 22 16 23
REMARK SMILES IDX 17 24 18 25 19 26 20 28 21 29 22 30 74 31 23 32 73 33 24 34
REMARK SMILES IDX 25 35 26 36 67 37 27 38 72 39 66 40 68 41 28 42 71 43 65 44
REMARK SMILES IDX 64 45 29 47 55 48 38 49 54 50 39 51 42 52 53 53 69 54 40 55
REMARK SMILES IDX 41 56 52 58 70 59 43 60 30 61 31 62 36 63 32 64 33 65 35 66
REMARK SMILES IDX 37 67 34 68 56 69 57 70 62 71 58 72 59 73 61 74 63 75 60 76
REMARK SMILES IDX 44 77 45 78 50 79 46 80 47 81 49 82 51 83 48 84
REMARK H PARENT 13 5 18 27 68 46 42 57
REMARK Flexibility Score: inf
ROOT
ATOM      1  C   UNL A   1      37.232  22.195  24.740  1.00  0.00     0.116 C 
ENDROOT
BRANCH   1   2
ATOM      2  N   UNL A   1      36.465  22.624  23.590  1.00  0.00    -0.356 N 
ATOM      3  C   UNL A   1      35.225  23.173  23.500  1.00  0.00     0.220 C 
ATOM      4  O   UNL A   1      34.796  23.413  22.370  1.00  0.00    -0.275 OA
ATOM      5  H   UNL A   1      36.918  22.498  22.725  1.00  0.00     0.163 HD
BRANCH   3   6
ATOM      6  C   UNL A   1      34.417  23.572  24.724  1.00  0.00     0.117 C 
BRANCH   6   7
ATOM      7  C   UNL A   1      32.970  23.032  24.790  1.00  0.00     0.134 C 
BRANCH   7   8
ATOM      8  C   UNL A   1      32.813  21.506  24.714  1.00  0.00    -0.035 A 
ATOM      9  C   UNL A   1      32.928  18.696  24.273  1.00  0.00    -0.048 A 
ATOM     10  C   UNL A   1      32.424  19.554  23.295  1.00  0.00     0.004 A 
ATOM     11  C   UNL A   1      33.269  19.252  25.513  1.00  0.00     0.004 A 
ATOM     12  C   UNL A   1      32.388  20.937  23.502  1.00  0.00     0.004 A 
ATOM     13  C   UNL A   1      33.178  20.629  25.745  1.00  0.00     0.004 A 
BRANCH   9  14
ATOM     14  C   UNL A   1      33.157  17.211  24.077  1.00  0.00     0.038 C 
BRANCH  14  15
ATOM     15  C   UNL A   1      33.533  16.344  25.298  1.00  0.00    -0.013 C 
ATOM     16  C   UNL A   1      32.661  15.089  25.428  1.00  0.00     0.008 C 
ATOM     17  C   UNL A   1      34.998  15.905  25.182  1.00  0.00     0.008 C 
ENDBRANCH  14  15
ENDBRANCH   9  14
ENDBRANCH   7   8
BRANCH   7  18
ATOM     18  C   UNL A   1      32.255  23.602  26.018  1.00  0.00     0.396 C 
ATOM     19  F   UNL A   1      32.055  24.933  25.878  1.00  0.00    -0.170 F 
ATOM     20  F   UNL A   1      31.035  23.047  26.198  1.00  0.00    -0.170 F 
ATOM     21  F   UNL A   1      32.970  23.413  27.148  1.00  0.00    -0.170 F 
ENDBRANCH   7  18
ENDBRANCH   6   7
ENDBRANCH   3   6
ENDBRANCH   1   2
BRANCH   1  22
ATOM     22  C   UNL A   1      36.904  20.760  25.140  1.00  0.00     0.023 C 
BRANCH  22  23
ATOM     23  C   UNL A   1      38.056  19.776  24.951  1.00  0.00     0.023 C 
BRANCH  23  24
ATOM     24  C   UNL A   1      39.319  20.107  25.740  1.00  0.00     0.116 C 
BRANCH  24  25
ATOM     25  N   UNL A   1      40.256  18.996  25.818  1.00  0.00    -0.352 N 
ATOM     26  C   UNL A   1      41.605  19.020  26.082  1.00  0.00     0.251 C 
ATOM     27  H   UNL A   1      39.871  18.105  25.659  1.00  0.00     0.163 HD
ATOM     28  O   UNL A   1      42.274  17.994  25.990  1.00  0.00    -0.269 OA
BRANCH  26  29
ATOM     29  C   UNL A   1      42.255  20.297  26.442  1.00  0.00     0.039 A 
ATOM     30  C   UNL A   1      42.956  21.000  25.459  1.00  0.00     0.014 A 
ATOM     31  C   UNL A   1      42.141  20.815  27.733  1.00  0.00     0.014 A 
ATOM     32  C   UNL A   1      43.474  22.263  25.752  1.00  0.00     0.010 A 
ATOM     33  C   UNL A   1      42.588  22.105  28.001  1.00  0.00     0.010 A 
ATOM     34  C   UNL A   1      43.256  22.844  27.011  1.00  0.00    -0.014 A 
BRANCH  34  35
ATOM     35  C   UNL A   1      43.709  24.225  27.314  1.00  0.00     0.031 A 
ATOM     36  C   UNL A   1      42.717  25.270  27.742  1.00  0.00     0.074 A 
ATOM     37  C   UNL A   1      45.001  24.559  27.129  1.00  0.00     0.049 A 
ATOM     38  N   UNL A   1      42.905  26.544  27.974  1.00  0.00    -0.248 NA
ATOM     39  C   UNL A   1      41.321  24.831  27.900  1.00  0.00     0.031 C 
ATOM     40  C   UNL A   1      46.053  23.652  26.665  1.00  0.00     0.029 A 
ATOM     41  N   UNL A   1      45.648  25.758  27.298  1.00  0.00    -0.354 N 
ATOM     42  C   UNL A   1      41.654  27.060  28.288  1.00  0.00     0.074 A 
ATOM     43  C   UNL A   1      40.707  25.973  28.163  1.00  0.00     0.031 C 
ATOM     44  C   UNL A   1      47.216  24.321  26.607  1.00  0.00     0.029 A 
ATOM     45  C   UNL A   1      46.986  25.710  26.993  1.00  0.00     0.049 A 
ATOM     46  H   UNL A   1      45.195  26.576  27.607  1.00  0.00     0.167 HD
ATOM     47  C   UNL A   1      41.327  28.317  28.669  1.00  0.00     0.037 A 
ATOM     48  C   UNL A   1      47.923  26.677  27.017  1.00  0.00     0.037 A 
ATOM     49  C   UNL A   1      42.275  29.390  28.817  1.00  0.00     0.049 A 
ATOM     50  C   UNL A   1      47.536  28.065  27.444  1.00  0.00     0.074 A 
ATOM     51  C   UNL A   1      42.053  30.681  29.263  1.00  0.00     0.029 A 
ATOM     52  N   UNL A   1      43.626  29.296  28.521  1.00  0.00    -0.354 N 
ATOM     53  N   UNL A   1      46.362  28.521  27.808  1.00  0.00    -0.248 NA
ATOM     54  C   UNL A   1      48.605  29.073  27.469  1.00  0.00     0.031 C 
ATOM     55  C   UNL A   1      43.261  31.381  29.195  1.00  0.00     0.029 A 
ATOM     56  C   UNL A   1      44.247  30.512  28.753  1.00  0.00     0.049 A 
ATOM     57  H   UNL A   1      44.078  28.484  28.195  1.00  0.00     0.167 HD
ATOM     58  C   UNL A   1      46.556  29.859  28.131  1.00  0.00     0.074 A 
ATOM     59  C   UNL A   1      47.964  30.137  27.932  1.00  0.00     0.031 C 
ATOM     60  C   UNL A   1      45.650  30.773  28.555  1.00  0.00     0.037 A 
BRANCH  47  61
ATOM     61  C   UNL A   1      39.879  28.596  28.954  1.00  0.00     0.057 A 
ATOM     62  C   UNL A   1      39.011  29.081  27.967  1.00  0.00     0.134 A 
ATOM     63  C   UNL A   1      39.341  28.356  30.225  1.00  0.00     0.134 A 
ATOM     64  F   UNL A   1      39.465  29.344  26.732  1.00  0.00    -0.206 F 
ATOM     65  C   UNL A   1      37.669  29.348  28.241  1.00  0.00     0.040 A 
ATOM     66  C   UNL A   1      37.994  28.591  30.504  1.00  0.00     0.040 A 
ATOM     67  F   UNL A   1      40.115  27.885  31.215  1.00  0.00    -0.206 F 
ATOM     68  C   UNL A   1      37.156  29.097  29.512  1.00  0.00     0.006 A 
ENDBRANCH  47  61
BRANCH  48  69
ATOM     69  C   UNL A   1      49.326  26.360  26.649  1.00  0.00     0.057 A 
ATOM     70  C   UNL A   1      49.809  26.622  25.363  1.00  0.00     0.134 A 
ATOM     71  C   UNL A   1      50.213  25.790  27.569  1.00  0.00     0.134 A 
ATOM     72  F   UNL A   1      49.000  27.150  24.433  1.00  0.00    -0.206 F 
ATOM     73  C   UNL A   1      51.121  26.314  24.997  1.00  0.00     0.040 A 
ATOM     74  C   UNL A   1      51.535  25.499  27.225  1.00  0.00     0.040 A 
ATOM     75  F   UNL A   1      49.813  25.522  28.820  1.00  0.00    -0.206 F 
ATOM     76  C   UNL A   1      51.989  25.755  25.932  1.00  0.00     0.006 A 
ENDBRANCH  48  69
BRANCH  60  77
ATOM     77  C   UNL A   1      46.158  32.151  28.864  1.00  0.00     0.057 A 
ATOM     78  C   UNL A   1      46.176  33.166  27.900  1.00  0.00     0.134 A 
ATOM     79  C   UNL A   1      46.596  32.475  30.154  1.00  0.00     0.134 A 
ATOM     80  F   UNL A   1      45.782  32.916  26.642  1.00  0.00    -0.206 F 
ATOM     81  C   UNL A   1      46.633  34.449  28.203  1.00  0.00     0.040 A 
ATOM     82  C   UNL A   1      47.030  33.761  30.476  1.00  0.00     0.040 A 
ATOM     83  F   UNL A   1      46.596  31.550  31.126  1.00  0.00    -0.206 F 
ATOM     84  C   UNL A   1      47.055  34.752  29.497  1.00  0.00     0.006 A 
ENDBRANCH  60  77
ENDBRANCH  34  35
ENDBRANCH  26  29
ENDBRANCH  24  25
ENDBRANCH  23  24
ENDBRANCH  22  23
ENDBRANCH   1  22
TORSDOF 16
ENDMDL
