MODEL 1
REMARK VINA RESULT:     -11.8      0.000      0.000
REMARK SMILES CO[C@H]1C[C@@H](C(=O)NCCCCNC(=O)c2ccc(-c3c4nc(c(-c5c(F)cccc5F)c5ccc([nH]5)c(-c5c(F)cccc5F)c5nc(c(-c6c(F)cccc6F)c6ccc3[nH]6)C=C5)C=C4)cc2)N(C(=O)c2cc(SC)ccc2C)C1
REMARK SMILES IDX 10 1 9 2 8 3 6 4 7 5 5 7 3 8 4 9 82 10 70 11 2 12 1 13 71 14
REMARK SMILES IDX 72 15 73 16 74 17 80 18 75 19 79 20 81 21 78 22 76 23 77 24
REMARK SMILES IDX 11 25 12 26 13 27 14 28 15 30 16 31 17 32 69 33 18 34 68 35
REMARK SMILES IDX 19 36 20 37 21 38 62 39 22 40 67 41 61 42 63 43 23 44 66 45
REMARK SMILES IDX 60 46 59 47 24 49 50 50 33 51 49 52 34 53 37 54 48 55 64 56
REMARK SMILES IDX 35 57 36 58 47 60 65 61 38 62 25 63 26 64 31 65 27 66 28 67
REMARK SMILES IDX 30 68 32 69 29 70 51 71 52 72 57 73 53 74 54 75 56 76 58 77
REMARK SMILES IDX 55 78 39 79 40 80 45 81 41 82 42 83 44 84 46 85 43 86
REMARK H PARENT 8 6 13 29 63 48 37 59
REMARK Flexibility Score: inf
ROOT
ATOM      1  C   UNL A   1      37.122  20.562  24.730  1.00  0.00     0.023 C 
ENDROOT
BRANCH   1   2
ATOM      2  C   UNL A   1      37.412  21.914  25.372  1.00  0.00     0.116 C 
BRANCH   2   3
ATOM      3  N   UNL A   1      36.374  22.308  26.303  1.00  0.00    -0.354 N 
ATOM      4  C   UNL A   1      35.044  22.100  26.084  1.00  0.00     0.242 C 
ATOM      5  O   UNL A   1      34.512  21.313  26.864  1.00  0.00    -0.273 OA
ATOM      6  H   UNL A   1      36.644  22.750  27.140  1.00  0.00     0.163 HD
BRANCH   4   7
ATOM      7  C   UNL A   1      34.322  22.702  24.856  1.00  0.00     0.177 C 
ATOM      8  C   UNL A   1      33.439  24.581  23.632  1.00  0.00     0.139 C 
ATOM      9  C   UNL A   1      34.353  24.236  24.807  1.00  0.00     0.069 C 
ATOM     10  C   UNL A   1      32.373  23.490  23.686  1.00  0.00     0.152 C 
ATOM     11  N   UNL A   1      32.873  22.485  24.616  1.00  0.00    -0.324 N 
BRANCH   8  12
ATOM     12  O   UNL A   1      32.849  25.870  23.768  1.00  0.00    -0.380 OA
ATOM     13  C   UNL A   1      32.214  26.070  25.024  1.00  0.00     0.195 C 
ENDBRANCH   8  12
BRANCH  11  14
ATOM     14  C   UNL A   1      32.062  21.383  24.837  1.00  0.00     0.254 C 
ATOM     15  O   UNL A   1      31.161  21.382  25.675  1.00  0.00    -0.269 OA
BRANCH  14  16
ATOM     16  C   UNL A   1      32.370  20.097  24.183  1.00  0.00     0.044 A 
ATOM     17  C   UNL A   1      32.874  19.071  24.998  1.00  0.00     0.029 A 
ATOM     18  C   UNL A   1      32.235  19.914  22.793  1.00  0.00    -0.038 A 
ATOM     19  C   UNL A   1      33.159  17.810  24.462  1.00  0.00     0.008 A 
ATOM     20  C   UNL A   1      32.506  18.643  22.270  1.00  0.00     0.005 A 
ATOM     21  C   UNL A   1      31.760  20.988  21.859  1.00  0.00     0.045 C 
ATOM     22  C   UNL A   1      32.952  17.603  23.095  1.00  0.00     0.015 A 
BRANCH  19  23
ATOM     23  S   UNL A   1      33.748  16.564  25.606  1.00  0.00    -0.130 SA
ATOM     24  C   UNL A   1      32.608  15.181  25.344  1.00  0.00     0.091 C 
ENDBRANCH  19  23
ENDBRANCH  14  16
ENDBRANCH  11  14
ENDBRANCH   4   7
ENDBRANCH   2   3
ENDBRANCH   1   2
BRANCH   1  25
ATOM     25  C   UNL A   1      38.164  19.473  25.014  1.00  0.00     0.023 C 
BRANCH  25  26
ATOM     26  C   UNL A   1      39.355  19.897  25.868  1.00  0.00     0.116 C 
BRANCH  26  27
ATOM     27  N   UNL A   1      40.405  18.894  25.911  1.00  0.00    -0.352 N 
ATOM     28  C   UNL A   1      41.755  19.047  26.105  1.00  0.00     0.251 C 
ATOM     29  H   UNL A   1      40.103  17.966  25.779  1.00  0.00     0.163 HD
ATOM     30  O   UNL A   1      42.503  18.084  25.976  1.00  0.00    -0.269 OA
BRANCH  28  31
ATOM     31  C   UNL A   1      42.317  20.375  26.436  1.00  0.00     0.039 A 
ATOM     32  C   UNL A   1      42.853  21.149  25.403  1.00  0.00     0.014 A 
ATOM     33  C   UNL A   1      42.329  20.851  27.751  1.00  0.00     0.014 A 
ATOM     34  C   UNL A   1      43.345  22.427  25.677  1.00  0.00     0.010 A 
ATOM     35  C   UNL A   1      42.764  22.149  28.012  1.00  0.00     0.010 A 
ATOM     36  C   UNL A   1      43.275  22.949  26.979  1.00  0.00    -0.014 A 
BRANCH  36  37
ATOM     37  C   UNL A   1      43.731  24.331  27.271  1.00  0.00     0.031 A 
ATOM     38  C   UNL A   1      42.747  25.380  27.704  1.00  0.00     0.074 A 
ATOM     39  C   UNL A   1      45.026  24.655  27.091  1.00  0.00     0.049 A 
ATOM     40  N   UNL A   1      42.950  26.646  27.963  1.00  0.00    -0.248 NA
ATOM     41  C   UNL A   1      41.346  24.955  27.843  1.00  0.00     0.031 C 
ATOM     42  C   UNL A   1      46.073  23.741  26.635  1.00  0.00     0.029 A 
ATOM     43  N   UNL A   1      45.679  25.849  27.267  1.00  0.00    -0.354 N 
ATOM     44  C   UNL A   1      41.703  27.173  28.272  1.00  0.00     0.074 A 
ATOM     45  C   UNL A   1      40.744  26.098  28.131  1.00  0.00     0.031 C 
ATOM     46  C   UNL A   1      47.244  24.398  26.596  1.00  0.00     0.029 A 
ATOM     47  C   UNL A   1      47.024  25.785  26.993  1.00  0.00     0.049 A 
ATOM     48  H   UNL A   1      45.227  26.673  27.561  1.00  0.00     0.167 HD
ATOM     49  C   UNL A   1      41.387  28.433  28.658  1.00  0.00     0.037 A 
ATOM     50  C   UNL A   1      47.972  26.737  27.059  1.00  0.00     0.037 A 
ATOM     51  C   UNL A   1      42.344  29.493  28.834  1.00  0.00     0.049 A 
ATOM     52  C   UNL A   1      47.598  28.126  27.491  1.00  0.00     0.074 A 
ATOM     53  C   UNL A   1      42.133  30.779  29.300  1.00  0.00     0.029 A 
ATOM     54  N   UNL A   1      43.697  29.389  28.547  1.00  0.00    -0.354 N 
ATOM     55  N   UNL A   1      46.426  28.592  27.849  1.00  0.00    -0.248 NA
ATOM     56  C   UNL A   1      48.678  29.121  27.529  1.00  0.00     0.031 C 
ATOM     57  C   UNL A   1      43.352  31.465  29.262  1.00  0.00     0.029 A 
ATOM     58  C   UNL A   1      44.329  30.595  28.804  1.00  0.00     0.049 A 
ATOM     59  H   UNL A   1      44.143  28.578  28.211  1.00  0.00     0.167 HD
ATOM     60  C   UNL A   1      46.633  29.924  28.180  1.00  0.00     0.074 A 
ATOM     61  C   UNL A   1      48.044  30.190  27.987  1.00  0.00     0.031 C 
ATOM     62  C   UNL A   1      45.734  30.843  28.610  1.00  0.00     0.037 A 
BRANCH  49  63
ATOM     63  C   UNL A   1      39.939  28.728  28.915  1.00  0.00     0.057 A 
ATOM     64  C   UNL A   1      39.359  28.539  30.176  1.00  0.00     0.134 A 
ATOM     65  C   UNL A   1      39.119  29.219  27.892  1.00  0.00     0.134 A 
ATOM     66  F   UNL A   1      40.086  28.058  31.194  1.00  0.00    -0.206 F 
ATOM     67  C   UNL A   1      38.005  28.798  30.403  1.00  0.00     0.040 A 
ATOM     68  C   UNL A   1      37.771  29.506  28.113  1.00  0.00     0.040 A 
ATOM     69  F   UNL A   1      39.613  29.428  26.663  1.00  0.00    -0.206 F 
ATOM     70  C   UNL A   1      37.208  29.286  29.369  1.00  0.00     0.006 A 
ENDBRANCH  49  63
BRANCH  50  71
ATOM     71  C   UNL A   1      49.382  26.397  26.749  1.00  0.00     0.057 A 
ATOM     72  C   UNL A   1      49.888  26.561  25.454  1.00  0.00     0.134 A 
ATOM     73  C   UNL A   1      50.253  25.908  27.728  1.00  0.00     0.134 A 
ATOM     74  F   UNL A   1      49.092  27.008  24.471  1.00  0.00    -0.206 F 
ATOM     75  C   UNL A   1      51.208  26.239  25.140  1.00  0.00     0.040 A 
ATOM     76  C   UNL A   1      51.582  25.601  27.432  1.00  0.00     0.040 A 
ATOM     77  F   UNL A   1      49.829  25.736  28.988  1.00  0.00    -0.206 F 
ATOM     78  C   UNL A   1      52.061  25.762  26.132  1.00  0.00     0.006 A 
ENDBRANCH  50  71
BRANCH  62  79
ATOM     79  C   UNL A   1      46.258  32.212  28.928  1.00  0.00     0.057 A 
ATOM     80  C   UNL A   1      46.288  33.231  27.968  1.00  0.00     0.134 A 
ATOM     81  C   UNL A   1      46.711  32.521  30.216  1.00  0.00     0.134 A 
ATOM     82  F   UNL A   1      45.881  32.992  26.712  1.00  0.00    -0.206 F 
ATOM     83  C   UNL A   1      46.769  34.504  28.273  1.00  0.00     0.040 A 
ATOM     84  C   UNL A   1      47.175  33.796  30.540  1.00  0.00     0.040 A 
ATOM     85  F   UNL A   1      46.703  31.590  31.182  1.00  0.00    -0.206 F 
ATOM     86  C   UNL A   1      47.210  34.791  29.564  1.00  0.00     0.006 A 
ENDBRANCH  62  79
ENDBRANCH  36  37
ENDBRANCH  28  31
ENDBRANCH  26  27
ENDBRANCH  25  26
ENDBRANCH   1  25
TORSDOF 15
ENDMDL
MODEL 2
REMARK VINA RESULT:     -11.8      0.619      6.082
REMARK SMILES CO[C@H]1C[C@@H](C(=O)NCCCCNC(=O)c2ccc(-c3c4nc(c(-c5c(F)cccc5F)c5ccc([nH]5)c(-c5c(F)cccc5F)c5nc(c(-c6c(F)cccc6F)c6ccc3[nH]6)C=C5)C=C4)cc2)N(C(=O)c2cc(SC)ccc2C)C1
REMARK SMILES IDX 10 1 9 2 8 3 6 4 7 5 5 7 3 8 4 9 82 10 70 11 2 12 1 13 71 14
REMARK SMILES IDX 72 15 73 16 74 17 80 18 75 19 79 20 81 21 78 22 76 23 77 24
REMARK SMILES IDX 11 25 12 26 13 27 14 28 15 30 16 31 17 32 69 33 18 34 68 35
REMARK SMILES IDX 19 36 20 37 21 38 62 39 22 40 67 41 61 42 63 43 23 44 66 45
REMARK SMILES IDX 60 46 59 47 24 49 50 50 33 51 49 52 34 53 37 54 48 55 64 56
REMARK SMILES IDX 35 57 36 58 47 60 65 61 38 62 25 63 26 64 31 65 27 66 28 67
REMARK SMILES IDX 30 68 32 69 29 70 51 71 52 72 57 73 53 74 54 75 56 76 58 77
REMARK SMILES IDX 55 78 39 79 40 80 45 81 41 82 42 83 44 84 46 85 43 86
REMARK H PARENT 8 6 13 29 63 48 37 59
REMARK Flexibility Score: inf
ROOT
ATOM      1  C   UNL A   1      37.240  20.631  24.925  1.00  0.00     0.023 C 
ENDROOT
BRANCH   1   2
ATOM      2  C   UNL A   1      37.549  21.910  25.694  1.00  0.00     0.116 C 
BRANCH   2   3
ATOM      3  N   UNL A   1      36.395  22.400  26.422  1.00  0.00    -0.354 N 
ATOM      4  C   UNL A   1      35.106  22.148  26.052  1.00  0.00     0.242 C 
ATOM      5  O   UNL A   1      34.472  21.453  26.843  1.00  0.00    -0.273 OA
ATOM      6  H   UNL A   1      36.550  22.943  27.228  1.00  0.00     0.163 HD
BRANCH   4   7
ATOM      7  C   UNL A   1      34.559  22.587  24.674  1.00  0.00     0.177 C 
ATOM      8  C   UNL A   1      33.911  24.294  23.102  1.00  0.00     0.139 C 
ATOM      9  C   UNL A   1      34.667  24.096  24.415  1.00  0.00     0.069 C 
ATOM     10  C   UNL A   1      32.796  23.253  23.179  1.00  0.00     0.152 C 
ATOM     11  N   UNL A   1      33.139  22.379  24.294  1.00  0.00    -0.324 N 
BRANCH   8  12
ATOM     12  O   UNL A   1      33.369  25.606  22.983  1.00  0.00    -0.380 OA
ATOM     13  C   UNL A   1      32.788  25.863  21.712  1.00  0.00     0.195 C 
ENDBRANCH   8  12
BRANCH  11  14
ATOM     14  C   UNL A   1      32.259  21.345  24.567  1.00  0.00     0.254 C 
ATOM     15  O   UNL A   1      31.340  21.455  25.378  1.00  0.00    -0.269 OA
BRANCH  14  16
ATOM     16  C   UNL A   1      32.504  20.001  24.011  1.00  0.00     0.044 A 
ATOM     17  C   UNL A   1      33.034  19.036  24.882  1.00  0.00     0.029 A 
ATOM     18  C   UNL A   1      32.285  19.703  22.652  1.00  0.00    -0.038 A 
ATOM     19  C   UNL A   1      33.264  17.727  24.443  1.00  0.00     0.008 A 
ATOM     20  C   UNL A   1      32.501  18.385  22.226  1.00  0.00     0.005 A 
ATOM     21  C   UNL A   1      31.778  20.705  21.656  1.00  0.00     0.045 C 
ATOM     22  C   UNL A   1      32.974  17.409  23.112  1.00  0.00     0.015 A 
BRANCH  19  23
ATOM     23  S   UNL A   1      33.893  16.570  25.655  1.00  0.00    -0.130 SA
ATOM     24  C   UNL A   1      32.895  15.085  25.376  1.00  0.00     0.091 C 
ENDBRANCH  19  23
ENDBRANCH  14  16
ENDBRANCH  11  14
ENDBRANCH   4   7
ENDBRANCH   2   3
ENDBRANCH   1   2
BRANCH   1  25
ATOM     25  C   UNL A   1      38.327  19.551  25.001  1.00  0.00     0.023 C 
BRANCH  25  26
ATOM     26  C   UNL A   1      39.355  19.718  26.116  1.00  0.00     0.116 C 
BRANCH  26  27
ATOM     27  N   UNL A   1      40.494  18.828  25.971  1.00  0.00    -0.352 N 
ATOM     28  C   UNL A   1      41.837  19.107  26.029  1.00  0.00     0.251 C 
ATOM     29  H   UNL A   1      40.269  17.884  25.807  1.00  0.00     0.163 HD
ATOM     30  O   UNL A   1      42.653  18.235  25.750  1.00  0.00    -0.269 OA
BRANCH  28  31
ATOM     31  C   UNL A   1      42.304  20.462  26.393  1.00  0.00     0.039 A 
ATOM     32  C   UNL A   1      42.745  21.311  25.375  1.00  0.00     0.014 A 
ATOM     33  C   UNL A   1      42.320  20.892  27.723  1.00  0.00     0.014 A 
ATOM     34  C   UNL A   1      43.145  22.614  25.681  1.00  0.00     0.010 A 
ATOM     35  C   UNL A   1      42.660  22.211  28.020  1.00  0.00     0.010 A 
ATOM     36  C   UNL A   1      43.075  23.083  27.003  1.00  0.00    -0.014 A 
BRANCH  36  37
ATOM     37  C   UNL A   1      43.431  24.486  27.334  1.00  0.00     0.031 A 
ATOM     38  C   UNL A   1      44.858  24.945  27.261  1.00  0.00     0.074 A 
ATOM     39  C   UNL A   1      42.471  25.332  27.755  1.00  0.00     0.049 A 
ATOM     40  N   UNL A   1      45.366  26.116  27.551  1.00  0.00    -0.248 NA
ATOM     41  C   UNL A   1      45.851  23.951  26.826  1.00  0.00     0.031 C 
ATOM     42  C   UNL A   1      41.055  24.999  27.909  1.00  0.00     0.029 A 
ATOM     43  N   UNL A   1      42.548  26.649  28.136  1.00  0.00    -0.354 N 
ATOM     44  C   UNL A   1      46.736  25.993  27.356  1.00  0.00     0.074 A 
ATOM     45  C   UNL A   1      46.984  24.623  26.962  1.00  0.00     0.031 C 
ATOM     46  C   UNL A   1      40.389  26.091  28.322  1.00  0.00     0.029 A 
ATOM     47  C   UNL A   1      41.336  27.189  28.492  1.00  0.00     0.049 A 
ATOM     48  H   UNL A   1      43.390  27.157  28.152  1.00  0.00     0.167 HD
ATOM     49  C   UNL A   1      47.697  26.940  27.476  1.00  0.00     0.037 A 
ATOM     50  C   UNL A   1      41.023  28.430  28.906  1.00  0.00     0.037 A 
ATOM     51  C   UNL A   1      47.447  28.311  27.834  1.00  0.00     0.049 A 
ATOM     52  C   UNL A   1      42.107  29.464  29.031  1.00  0.00     0.074 A 
ATOM     53  C   UNL A   1      48.343  29.364  27.902  1.00  0.00     0.029 A 
ATOM     54  N   UNL A   1      46.206  28.820  28.187  1.00  0.00    -0.354 N 
ATOM     55  N   UNL A   1      43.388  29.352  28.775  1.00  0.00    -0.248 NA
ATOM     56  C   UNL A   1      41.700  30.795  29.499  1.00  0.00     0.031 C 
ATOM     57  C   UNL A   1      47.651  30.502  28.331  1.00  0.00     0.029 A 
ATOM     58  C   UNL A   1      46.318  30.166  28.497  1.00  0.00     0.049 A 
ATOM     59  H   UNL A   1      45.369  28.301  28.214  1.00  0.00     0.167 HD
ATOM     60  C   UNL A   1      43.934  30.603  29.025  1.00  0.00     0.074 A 
ATOM     61  C   UNL A   1      42.845  31.460  29.446  1.00  0.00     0.031 C 
ATOM     62  C   UNL A   1      45.223  31.006  28.912  1.00  0.00     0.037 A 
BRANCH  49  63
ATOM     63  C   UNL A   1      49.113  26.516  27.218  1.00  0.00     0.057 A 
ATOM     64  C   UNL A   1      49.958  26.093  28.252  1.00  0.00     0.134 A 
ATOM     65  C   UNL A   1      49.632  26.521  25.917  1.00  0.00     0.134 A 
ATOM     66  F   UNL A   1      49.525  26.080  29.521  1.00  0.00    -0.206 F 
ATOM     67  C   UNL A   1      51.280  25.719  28.006  1.00  0.00     0.040 A 
ATOM     68  C   UNL A   1      50.945  26.125  25.656  1.00  0.00     0.040 A 
ATOM     69  F   UNL A   1      48.874  26.909  24.881  1.00  0.00    -0.206 F 
ATOM     70  C   UNL A   1      51.776  25.731  26.704  1.00  0.00     0.006 A 
ENDBRANCH  49  63
BRANCH  50  71
ATOM     71  C   UNL A   1      39.611  28.780  29.192  1.00  0.00     0.057 A 
ATOM     72  C   UNL A   1      38.771  29.247  28.174  1.00  0.00     0.134 A 
ATOM     73  C   UNL A   1      39.068  28.656  30.475  1.00  0.00     0.134 A 
ATOM     74  F   UNL A   1      39.244  29.404  26.928  1.00  0.00    -0.206 F 
ATOM     75  C   UNL A   1      37.442  29.589  28.423  1.00  0.00     0.040 A 
ATOM     76  C   UNL A   1      37.734  28.977  30.734  1.00  0.00     0.040 A 
ATOM     77  F   UNL A   1      39.821  28.209  31.490  1.00  0.00    -0.206 F 
ATOM     78  C   UNL A   1      36.919  29.450  29.707  1.00  0.00     0.006 A 
ENDBRANCH  50  71
BRANCH  62  79
ATOM     79  C   UNL A   1      45.518  32.444  29.220  1.00  0.00     0.057 A 
ATOM     80  C   UNL A   1      45.419  33.442  28.243  1.00  0.00     0.134 A 
ATOM     81  C   UNL A   1      45.877  32.836  30.515  1.00  0.00     0.134 A 
ATOM     82  F   UNL A   1      45.093  33.126  26.980  1.00  0.00    -0.206 F 
ATOM     83  C   UNL A   1      45.687  34.779  28.539  1.00  0.00     0.040 A 
ATOM     84  C   UNL A   1      46.127  34.173  30.829  1.00  0.00     0.040 A 
ATOM     85  F   UNL A   1      45.984  31.929  31.496  1.00  0.00    -0.206 F 
ATOM     86  C   UNL A   1      46.037  35.148  29.836  1.00  0.00     0.006 A 
ENDBRANCH  62  79
ENDBRANCH  36  37
ENDBRANCH  28  31
ENDBRANCH  26  27
ENDBRANCH  25  26
ENDBRANCH   1  25
TORSDOF 15
ENDMDL
MODEL 3
REMARK VINA RESULT:     -11.7      5.740     10.051
REMARK SMILES CO[C@H]1C[C@@H](C(=O)NCCCCNC(=O)c2ccc(-c3c4nc(c(-c5c(F)cccc5F)c5ccc([nH]5)c(-c5c(F)cccc5F)c5nc(c(-c6c(F)cccc6F)c6ccc3[nH]6)C=C5)C=C4)cc2)N(C(=O)c2cc(SC)ccc2C)C1
REMARK SMILES IDX 10 1 9 2 8 3 6 4 7 5 5 7 3 8 4 9 82 10 70 11 2 12 1 13 71 14
REMARK SMILES IDX 72 15 73 16 74 17 80 18 75 19 79 20 81 21 78 22 76 23 77 24
REMARK SMILES IDX 11 25 12 26 13 27 14 28 15 30 16 31 17 32 69 33 18 34 68 35
REMARK SMILES IDX 19 36 20 37 21 38 62 39 22 40 67 41 61 42 63 43 23 44 66 45
REMARK SMILES IDX 60 46 59 47 24 49 50 50 33 51 49 52 34 53 37 54 48 55 64 56
REMARK SMILES IDX 35 57 36 58 47 60 65 61 38 62 25 63 26 64 31 65 27 66 28 67
REMARK SMILES IDX 30 68 32 69 29 70 51 71 52 72 57 73 53 74 54 75 56 76 58 77
REMARK SMILES IDX 55 78 39 79 40 80 45 81 41 82 42 83 44 84 46 85 43 86
REMARK H PARENT 8 6 13 29 63 48 37 59
REMARK Flexibility Score: inf
ROOT
ATOM      1  C   UNL A   1      31.545  30.905  26.369  1.00  0.00     0.023 C 
ENDROOT
BRANCH   1   2
ATOM      2  C   UNL A   1      32.865  30.280  26.804  1.00  0.00     0.116 C 
BRANCH   2   3
ATOM      3  N   UNL A   1      33.549  29.631  25.704  1.00  0.00    -0.354 N 
ATOM      4  C   UNL A   1      32.912  28.905  24.741  1.00  0.00     0.242 C 
ATOM      5  O   UNL A   1      32.968  29.388  23.612  1.00  0.00    -0.273 OA
ATOM      6  H   UNL A   1      34.527  29.721  25.648  1.00  0.00     0.163 HD
BRANCH   4   7
ATOM      7  C   UNL A   1      32.069  27.658  25.093  1.00  0.00     0.177 C 
ATOM      8  C   UNL A   1      31.880  25.367  25.816  1.00  0.00     0.139 C 
ATOM      9  C   UNL A   1      32.877  26.522  25.735  1.00  0.00     0.069 C 
ATOM     10  C   UNL A   1      31.022  25.557  24.567  1.00  0.00     0.152 C 
ATOM     11  N   UNL A   1      31.348  26.882  24.053  1.00  0.00    -0.324 N 
BRANCH   8  12
ATOM     12  O   UNL A   1      32.523  24.096  25.798  1.00  0.00    -0.380 OA
ATOM     13  C   UNL A   1      33.939  24.180  25.897  1.00  0.00     0.195 C 
ENDBRANCH   8  12
BRANCH  11  14
ATOM     14  C   UNL A   1      30.689  27.282  22.902  1.00  0.00     0.254 C 
ATOM     15  O   UNL A   1      31.125  27.049  21.775  1.00  0.00    -0.269 OA
BRANCH  14  16
ATOM     16  C   UNL A   1      29.510  28.164  22.996  1.00  0.00     0.044 A 
ATOM     17  C   UNL A   1      29.692  29.512  22.648  1.00  0.00     0.029 A 
ATOM     18  C   UNL A   1      28.268  27.705  23.476  1.00  0.00    -0.038 A 
ATOM     19  C   UNL A   1      28.618  30.408  22.677  1.00  0.00     0.008 A 
ATOM     20  C   UNL A   1      27.194  28.605  23.483  1.00  0.00     0.005 A 
ATOM     21  C   UNL A   1      28.024  26.292  23.920  1.00  0.00     0.045 C 
ATOM     22  C   UNL A   1      27.365  29.935  23.079  1.00  0.00     0.015 A 
BRANCH  19  23
ATOM     23  S   UNL A   1      28.958  32.089  22.163  1.00  0.00    -0.130 SA
ATOM     24  C   UNL A   1      27.996  32.265  20.638  1.00  0.00     0.091 C 
ENDBRANCH  19  23
ENDBRANCH  14  16
ENDBRANCH  11  14
ENDBRANCH   4   7
ENDBRANCH   2   3
ENDBRANCH   1   2
BRANCH   1  25
ATOM     25  C   UNL A   1      31.372  32.382  26.746  1.00  0.00     0.023 C 
BRANCH  25  26
ATOM     26  C   UNL A   1      32.660  33.186  26.897  1.00  0.00     0.116 C 
BRANCH  26  27
ATOM     27  N   UNL A   1      32.501  34.352  27.750  1.00  0.00    -0.352 N 
ATOM     28  C   UNL A   1      33.181  34.702  28.889  1.00  0.00     0.251 C 
ATOM     29  H   UNL A   1      31.801  34.984  27.468  1.00  0.00     0.163 HD
ATOM     30  O   UNL A   1      32.810  35.669  29.547  1.00  0.00    -0.269 OA
BRANCH  28  31
ATOM     31  C   UNL A   1      34.337  33.902  29.346  1.00  0.00     0.039 A 
ATOM     32  C   UNL A   1      35.623  34.340  29.019  1.00  0.00     0.014 A 
ATOM     33  C   UNL A   1      34.162  32.723  30.078  1.00  0.00     0.014 A 
ATOM     34  C   UNL A   1      36.736  33.633  29.478  1.00  0.00     0.010 A 
ATOM     35  C   UNL A   1      35.273  32.054  30.587  1.00  0.00     0.010 A 
ATOM     36  C   UNL A   1      36.569  32.501  30.293  1.00  0.00    -0.014 A 
BRANCH  36  37
ATOM     37  C   UNL A   1      37.743  31.780  30.846  1.00  0.00     0.031 A 
ATOM     38  C   UNL A   1      38.253  32.099  32.221  1.00  0.00     0.074 A 
ATOM     39  C   UNL A   1      38.384  30.874  30.083  1.00  0.00     0.049 A 
ATOM     40  N   UNL A   1      39.286  31.606  32.855  1.00  0.00    -0.248 NA
ATOM     41  C   UNL A   1      37.519  33.126  32.976  1.00  0.00     0.031 C 
ATOM     42  C   UNL A   1      38.014  30.502  28.717  1.00  0.00     0.029 A 
ATOM     43  N   UNL A   1      39.488  30.103  30.351  1.00  0.00    -0.354 N 
ATOM     44  C   UNL A   1      39.340  32.276  34.070  1.00  0.00     0.074 A 
ATOM     45  C   UNL A   1      38.259  33.238  34.068  1.00  0.00     0.031 C 
ATOM     46  C   UNL A   1      38.857  29.552  28.276  1.00  0.00     0.029 A 
ATOM     47  C   UNL A   1      39.843  29.273  29.316  1.00  0.00     0.049 A 
ATOM     48  H   UNL A   1      39.978  30.142  31.204  1.00  0.00     0.167 HD
ATOM     49  C   UNL A   1      40.199  32.094  35.101  1.00  0.00     0.037 A 
ATOM     50  C   UNL A   1      40.849  28.384  29.218  1.00  0.00     0.037 A 
ATOM     51  C   UNL A   1      41.251  31.113  35.118  1.00  0.00     0.049 A 
ATOM     52  C   UNL A   1      41.788  28.198  30.376  1.00  0.00     0.074 A 
ATOM     53  C   UNL A   1      42.121  30.796  36.147  1.00  0.00     0.029 A 
ATOM     54  N   UNL A   1      41.580  30.290  34.050  1.00  0.00    -0.354 N 
ATOM     55  N   UNL A   1      41.783  28.789  31.546  1.00  0.00    -0.248 NA
ATOM     56  C   UNL A   1      42.870  27.222  30.198  1.00  0.00     0.031 C 
ATOM     57  C   UNL A   1      42.999  29.806  35.691  1.00  0.00     0.029 A 
ATOM     58  C   UNL A   1      42.654  29.483  34.389  1.00  0.00     0.049 A 
ATOM     59  H   UNL A   1      41.118  30.282  33.181  1.00  0.00     0.167 HD
ATOM     60  C   UNL A   1      42.842  28.237  32.253  1.00  0.00     0.074 A 
ATOM     61  C   UNL A   1      43.463  27.259  31.383  1.00  0.00     0.031 C 
ATOM     62  C   UNL A   1      43.259  28.513  33.513  1.00  0.00     0.037 A 
BRANCH  49  63
ATOM     63  C   UNL A   1      40.030  32.981  36.299  1.00  0.00     0.057 A 
ATOM     64  C   UNL A   1      39.104  32.691  37.309  1.00  0.00     0.134 A 
ATOM     65  C   UNL A   1      40.813  34.133  36.449  1.00  0.00     0.134 A 
ATOM     66  F   UNL A   1      38.315  31.611  37.218  1.00  0.00    -0.206 F 
ATOM     67  C   UNL A   1      38.939  33.532  38.411  1.00  0.00     0.040 A 
ATOM     68  C   UNL A   1      40.675  34.968  37.559  1.00  0.00     0.040 A 
ATOM     69  F   UNL A   1      41.722  34.465  35.521  1.00  0.00    -0.206 F 
ATOM     70  C   UNL A   1      39.729  34.673  38.540  1.00  0.00     0.006 A 
ENDBRANCH  49  63
BRANCH  50  71
ATOM     71  C   UNL A   1      40.994  27.566  27.990  1.00  0.00     0.057 A 
ATOM     72  C   UNL A   1      41.748  28.031  26.907  1.00  0.00     0.134 A 
ATOM     73  C   UNL A   1      40.391  26.309  27.867  1.00  0.00     0.134 A 
ATOM     74  F   UNL A   1      42.333  29.238  26.961  1.00  0.00    -0.206 F 
ATOM     75  C   UNL A   1      41.890  27.281  25.739  1.00  0.00     0.040 A 
ATOM     76  C   UNL A   1      40.541  25.540  26.713  1.00  0.00     0.040 A 
ATOM     77  F   UNL A   1      39.660  25.807  28.873  1.00  0.00    -0.206 F 
ATOM     78  C   UNL A   1      41.288  26.028  25.642  1.00  0.00     0.006 A 
ENDBRANCH  50  71
BRANCH  62  79
ATOM     79  C   UNL A   1      44.424  27.725  34.033  1.00  0.00     0.057 A 
ATOM     80  C   UNL A   1      44.259  26.462  34.613  1.00  0.00     0.134 A 
ATOM     81  C   UNL A   1      45.728  28.225  33.926  1.00  0.00     0.134 A 
ATOM     82  F   UNL A   1      43.034  25.935  34.757  1.00  0.00    -0.206 F 
ATOM     83  C   UNL A   1      45.349  25.731  35.088  1.00  0.00     0.040 A 
ATOM     84  C   UNL A   1      46.828  27.496  34.377  1.00  0.00     0.040 A 
ATOM     85  F   UNL A   1      45.953  29.427  33.375  1.00  0.00    -0.206 F 
ATOM     86  C   UNL A   1      46.639  26.246  34.966  1.00  0.00     0.006 A 
ENDBRANCH  62  79
ENDBRANCH  36  37
ENDBRANCH  28  31
ENDBRANCH  26  27
ENDBRANCH  25  26
ENDBRANCH   1  25
TORSDOF 15
ENDMDL
