MODEL 1
REMARK VINA RESULT:     -12.0      0.000      0.000
REMARK SMILES O=C(NCCCCNC(=O)[C@H]1C[C@H](O)CN1S(=O)(=O)c1ccc2c(c1)OCCO2)c1ccc(-c2c3nc(c(-c4c(F)cccc4F)c4ccc([nH]4)c(-c4c(F)cccc4F)c4nc(c(-c5c(F)cccc5F)c5ccc2[nH]5)C=C4)C=C3)cc1
REMARK SMILES IDX 5 1 4 2 3 3 1 4 2 5 30 7 31 8 83 9 32 10 82 11 33 12 34 13
REMARK SMILES IDX 35 14 76 15 36 16 81 17 75 18 77 19 37 20 80 21 74 22 73 23
REMARK SMILES IDX 38 25 64 26 47 27 63 28 48 29 51 30 62 31 78 32 49 33 50 34
REMARK SMILES IDX 61 36 79 37 52 38 39 39 40 40 45 41 41 42 42 43 44 44 46 45
REMARK SMILES IDX 43 46 65 47 66 48 71 49 67 50 68 51 70 52 72 53 69 54 53 55
REMARK SMILES IDX 54 56 59 57 55 58 56 59 58 60 60 61 57 62 6 63 7 64 8 65
REMARK SMILES IDX 9 66 10 68 11 69 12 70 16 71 13 72 15 73 17 74 18 75 19 76
REMARK SMILES IDX 20 77 21 78 25 79 22 80 24 81 23 82 26 83 29 84 27 85 28 86
REMARK SMILES IDX 14 87
REMARK H PARENT 3 6 77 24 51 35 8 67 14 88
REMARK Flexibility Score: inf
ROOT
ATOM      1  C   UNL A   1      37.790  20.171  24.656  1.00  0.00     0.023 C 
ENDROOT
BRANCH   1   2
ATOM      2  C   UNL A   1      38.837  20.362  25.744  1.00  0.00     0.116 C 
BRANCH   2   3
ATOM      3  N   UNL A   1      39.895  19.363  25.721  1.00  0.00    -0.352 N 
ATOM      4  O   UNL A   1      42.015  18.597  25.896  1.00  0.00    -0.269 OA
ATOM      5  C   UNL A   1      41.219  19.514  26.067  1.00  0.00     0.251 C 
ATOM      6  H   UNL A   1      39.630  18.465  25.418  1.00  0.00     0.163 HD
BRANCH   5   7
ATOM      7  C   UNL A   1      41.681  20.808  26.615  1.00  0.00     0.039 A 
ATOM      8  C   UNL A   1      41.662  21.035  27.992  1.00  0.00     0.014 A 
ATOM      9  C   UNL A   1      42.103  21.815  25.742  1.00  0.00     0.014 A 
ATOM     10  C   UNL A   1      41.905  22.312  28.479  1.00  0.00     0.010 A 
ATOM     11  C   UNL A   1      42.443  23.076  26.246  1.00  0.00     0.010 A 
ATOM     12  C   UNL A   1      42.316  23.344  27.617  1.00  0.00    -0.014 A 
BRANCH  12  13
ATOM     13  C   UNL A   1      42.670  24.661  28.207  1.00  0.00     0.031 A 
ATOM     14  C   UNL A   1      44.095  25.038  28.506  1.00  0.00     0.074 A 
ATOM     15  C   UNL A   1      41.679  25.553  28.402  1.00  0.00     0.049 A 
ATOM     16  N   UNL A   1      44.565  26.179  28.947  1.00  0.00    -0.248 NA
ATOM     17  C   UNL A   1      45.123  24.007  28.297  1.00  0.00     0.031 C 
ATOM     18  C   UNL A   1      40.256  25.290  28.170  1.00  0.00     0.029 A 
ATOM     19  N   UNL A   1      41.712  26.863  28.803  1.00  0.00    -0.354 N 
ATOM     20  C   UNL A   1      45.938  26.004  29.073  1.00  0.00     0.074 A 
ATOM     21  C   UNL A   1      46.222  24.636  28.692  1.00  0.00     0.031 C 
ATOM     22  C   UNL A   1      39.562  26.419  28.367  1.00  0.00     0.029 A 
ATOM     23  C   UNL A   1      40.478  27.466  28.801  1.00  0.00     0.049 A 
ATOM     24  H   UNL A   1      42.540  27.326  29.067  1.00  0.00     0.167 HD
ATOM     25  C   UNL A   1      46.873  26.905  29.461  1.00  0.00     0.037 A 
ATOM     26  C   UNL A   1      40.118  28.722  29.121  1.00  0.00     0.037 A 
ATOM     27  C   UNL A   1      46.584  28.269  29.830  1.00  0.00     0.049 A 
ATOM     28  C   UNL A   1      41.175  29.695  29.544  1.00  0.00     0.074 A 
ATOM     29  C   UNL A   1      47.466  29.260  30.230  1.00  0.00     0.029 A 
ATOM     30  N   UNL A   1      45.319  28.836  29.842  1.00  0.00    -0.354 N 
ATOM     31  N   UNL A   1      42.471  29.516  29.641  1.00  0.00    -0.248 NA
ATOM     32  C   UNL A   1      40.723  31.045  29.904  1.00  0.00     0.031 C 
ATOM     33  C   UNL A   1      46.730  30.415  30.515  1.00  0.00     0.029 A 
ATOM     34  C   UNL A   1      45.394  30.157  30.253  1.00  0.00     0.049 A 
ATOM     35  H   UNL A   1      44.488  28.368  29.594  1.00  0.00     0.167 HD
ATOM     36  C   UNL A   1      42.988  30.728  30.073  1.00  0.00     0.074 A 
ATOM     37  C   UNL A   1      41.871  31.645  30.180  1.00  0.00     0.031 C 
ATOM     38  C   UNL A   1      44.270  31.051  30.367  1.00  0.00     0.037 A 
BRANCH  25  39
ATOM     39  C   UNL A   1      48.304  26.452  29.512  1.00  0.00     0.057 A 
ATOM     40  C   UNL A   1      49.178  26.652  28.436  1.00  0.00     0.134 A 
ATOM     41  C   UNL A   1      48.832  25.876  30.674  1.00  0.00     0.134 A 
ATOM     42  F   UNL A   1      48.734  27.191  27.290  1.00  0.00    -0.206 F 
ATOM     43  C   UNL A   1      50.523  26.286  28.511  1.00  0.00     0.040 A 
ATOM     44  C   UNL A   1      50.181  25.525  30.769  1.00  0.00     0.040 A 
ATOM     45  F   UNL A   1      48.052  25.664  31.744  1.00  0.00    -0.206 F 
ATOM     46  C   UNL A   1      51.031  25.729  29.684  1.00  0.00     0.006 A 
ENDBRANCH  25  39
BRANCH  26  47
ATOM     47  C   UNL A   1      38.689  29.116  29.065  1.00  0.00     0.057 A 
ATOM     48  C   UNL A   1      37.864  29.032  30.191  1.00  0.00     0.134 A 
ATOM     49  C   UNL A   1      38.115  29.590  27.878  1.00  0.00     0.134 A 
ATOM     50  F   UNL A   1      38.351  28.569  31.352  1.00  0.00    -0.206 F 
ATOM     51  C   UNL A   1      36.515  29.387  30.137  1.00  0.00     0.040 A 
ATOM     52  C   UNL A   1      36.777  29.977  27.816  1.00  0.00     0.040 A 
ATOM     53  F   UNL A   1      38.856  29.704  26.766  1.00  0.00    -0.206 F 
ATOM     54  C   UNL A   1      35.971  29.868  28.948  1.00  0.00     0.006 A 
ENDBRANCH  26  47
BRANCH  38  55
ATOM     55  C   UNL A   1      44.521  32.456  30.827  1.00  0.00     0.057 A 
ATOM     56  C   UNL A   1      44.495  32.799  32.185  1.00  0.00     0.134 A 
ATOM     57  C   UNL A   1      44.782  33.476  29.905  1.00  0.00     0.134 A 
ATOM     58  F   UNL A   1      44.233  31.869  33.116  1.00  0.00    -0.206 F 
ATOM     59  C   UNL A   1      44.688  34.114  32.608  1.00  0.00     0.040 A 
ATOM     60  C   UNL A   1      45.001  34.791  30.317  1.00  0.00     0.040 A 
ATOM     61  F   UNL A   1      44.826  33.213  28.590  1.00  0.00    -0.206 F 
ATOM     62  C   UNL A   1      44.945  35.114  31.672  1.00  0.00     0.006 A 
ENDBRANCH  38  55
ENDBRANCH  12  13
ENDBRANCH   5   7
ENDBRANCH   2   3
ENDBRANCH   1   2
BRANCH   1  63
ATOM     63  C   UNL A   1      36.375  20.624  25.017  1.00  0.00     0.023 C 
BRANCH  63  64
ATOM     64  C   UNL A   1      36.195  22.135  25.133  1.00  0.00     0.116 C 
BRANCH  64  65
ATOM     65  N   UNL A   1      35.637  22.540  26.411  1.00  0.00    -0.355 N 
ATOM     66  C   UNL A   1      34.324  22.660  26.794  1.00  0.00     0.238 C 
ATOM     67  H   UNL A   1      36.298  22.763  27.105  1.00  0.00     0.163 HD
ATOM     68  O   UNL A   1      34.103  22.811  27.992  1.00  0.00    -0.273 OA
BRANCH  66  69
ATOM     69  C   UNL A   1      33.242  22.476  25.740  1.00  0.00     0.165 C 
ATOM     70  C   UNL A   1      32.067  21.741  26.416  1.00  0.00     0.063 C 
ATOM     71  N   UNL A   1      32.624  23.609  24.955  1.00  0.00    -0.183 NA
ATOM     72  C   UNL A   1      30.935  22.745  26.394  1.00  0.00     0.131 C 
ATOM     73  C   UNL A   1      31.154  23.425  25.054  1.00  0.00     0.135 C 
BRANCH  71  74
ATOM     74  S   UNL A   1      33.231  25.175  25.259  1.00  0.00     0.244 S 
ATOM     75  O   UNL A   1      32.892  25.535  26.617  1.00  0.00    -0.207 OA
ATOM     76  O   UNL A   1      34.586  25.218  24.747  1.00  0.00    -0.207 OA
BRANCH  74  77
ATOM     77  C   UNL A   1      32.258  26.233  24.197  1.00  0.00     0.086 A 
ATOM     78  C   UNL A   1      31.970  25.837  22.885  1.00  0.00     0.026 A 
ATOM     79  C   UNL A   1      31.876  27.499  24.650  1.00  0.00     0.072 A 
ATOM     80  C   UNL A   1      31.260  26.700  22.042  1.00  0.00     0.052 A 
ATOM     81  C   UNL A   1      31.106  28.318  23.833  1.00  0.00     0.162 A 
ATOM     82  C   UNL A   1      30.825  27.937  22.517  1.00  0.00     0.161 A 
ATOM     83  O   UNL A   1      30.651  29.486  24.392  1.00  0.00    -0.486 OA
ATOM     84  O   UNL A   1      30.123  28.728  21.643  1.00  0.00    -0.486 OA
ATOM     85  C   UNL A   1      29.581  30.036  23.616  1.00  0.00     0.271 C 
ATOM     86  C   UNL A   1      29.969  30.063  22.146  1.00  0.00     0.271 C 
ENDBRANCH  74  77
ENDBRANCH  71  74
BRANCH  72  87
ATOM     87  O   UNL A   1      29.673  22.107  26.497  1.00  0.00    -0.392 OA
ATOM     88  H   UNL A   1      29.107  22.388  25.760  1.00  0.00     0.211 HD
ENDBRANCH  72  87
ENDBRANCH  66  69
ENDBRANCH  64  65
ENDBRANCH  63  64
ENDBRANCH   1  63
TORSDOF 14
ENDMDL
MODEL 2
REMARK VINA RESULT:     -12.0      0.951      1.661
REMARK SMILES O=C(NCCCCNC(=O)[C@H]1C[C@H](O)CN1S(=O)(=O)c1ccc2c(c1)OCCO2)c1ccc(-c2c3nc(c(-c4c(F)cccc4F)c4ccc([nH]4)c(-c4c(F)cccc4F)c4nc(c(-c5c(F)cccc5F)c5ccc2[nH]5)C=C4)C=C3)cc1
REMARK SMILES IDX 5 1 4 2 3 3 1 4 2 5 30 7 31 8 83 9 32 10 82 11 33 12 34 13
REMARK SMILES IDX 35 14 76 15 36 16 81 17 75 18 77 19 37 20 80 21 74 22 73 23
REMARK SMILES IDX 38 25 64 26 47 27 63 28 48 29 51 30 62 31 78 32 49 33 50 34
REMARK SMILES IDX 61 36 79 37 52 38 39 39 40 40 45 41 41 42 42 43 44 44 46 45
REMARK SMILES IDX 43 46 65 47 66 48 71 49 67 50 68 51 70 52 72 53 69 54 53 55
REMARK SMILES IDX 54 56 59 57 55 58 56 59 58 60 60 61 57 62 6 63 7 64 8 65
REMARK SMILES IDX 9 66 10 68 11 69 12 70 16 71 13 72 15 73 17 74 18 75 19 76
REMARK SMILES IDX 20 77 21 78 25 79 22 80 24 81 23 82 26 83 29 84 27 85 28 86
REMARK SMILES IDX 14 87
REMARK H PARENT 3 6 77 24 51 35 8 67 14 88
REMARK Flexibility Score: inf
ROOT
ATOM      1  C   UNL A   1      37.785  20.039  24.658  1.00  0.00     0.023 C 
ENDROOT
BRANCH   1   2
ATOM      2  C   UNL A   1      38.831  20.213  25.749  1.00  0.00     0.116 C 
BRANCH   2   3
ATOM      3  N   UNL A   1      39.834  19.159  25.772  1.00  0.00    -0.352 N 
ATOM      4  O   UNL A   1      41.918  18.295  25.932  1.00  0.00    -0.269 OA
ATOM      5  C   UNL A   1      41.178  19.266  26.053  1.00  0.00     0.251 C 
ATOM      6  H   UNL A   1      39.511  18.254  25.559  1.00  0.00     0.163 HD
BRANCH   5   7
ATOM      7  C   UNL A   1      41.730  20.575  26.468  1.00  0.00     0.039 A 
ATOM      8  C   UNL A   1      41.883  20.875  27.822  1.00  0.00     0.014 A 
ATOM      9  C   UNL A   1      42.062  21.522  25.494  1.00  0.00     0.014 A 
ATOM     10  C   UNL A   1      42.210  22.170  28.204  1.00  0.00     0.010 A 
ATOM     11  C   UNL A   1      42.486  22.799  25.883  1.00  0.00     0.010 A 
ATOM     12  C   UNL A   1      42.532  23.142  27.241  1.00  0.00    -0.014 A 
BRANCH  12  13
ATOM     13  C   UNL A   1      42.983  24.479  27.709  1.00  0.00     0.031 A 
ATOM     14  C   UNL A   1      44.427  24.894  27.652  1.00  0.00     0.074 A 
ATOM     15  C   UNL A   1      42.043  25.352  28.124  1.00  0.00     0.049 A 
ATOM     16  N   UNL A   1      44.959  26.054  27.950  1.00  0.00    -0.248 NA
ATOM     17  C   UNL A   1      45.402  23.883  27.217  1.00  0.00     0.031 C 
ATOM     18  C   UNL A   1      40.614  25.053  28.244  1.00  0.00     0.029 A 
ATOM     19  N   UNL A   1      42.137  26.671  28.485  1.00  0.00    -0.354 N 
ATOM     20  C   UNL A   1      46.326  25.912  27.746  1.00  0.00     0.074 A 
ATOM     21  C   UNL A   1      46.547  24.543  27.328  1.00  0.00     0.031 C 
ATOM     22  C   UNL A   1      39.958  26.170  28.585  1.00  0.00     0.029 A 
ATOM     23  C   UNL A   1      40.923  27.246  28.771  1.00  0.00     0.049 A 
ATOM     24  H   UNL A   1      42.991  27.158  28.536  1.00  0.00     0.167 HD
ATOM     25  C   UNL A   1      47.302  26.842  27.885  1.00  0.00     0.037 A 
ATOM     26  C   UNL A   1      40.616  28.500  29.150  1.00  0.00     0.037 A 
ATOM     27  C   UNL A   1      47.073  28.207  28.292  1.00  0.00     0.049 A 
ATOM     28  C   UNL A   1      41.718  29.505  29.291  1.00  0.00     0.074 A 
ATOM     29  C   UNL A   1      47.999  29.226  28.453  1.00  0.00     0.029 A 
ATOM     30  N   UNL A   1      45.833  28.745  28.599  1.00  0.00    -0.354 N 
ATOM     31  N   UNL A   1      43.003  29.357  29.078  1.00  0.00    -0.248 NA
ATOM     32  C   UNL A   1      41.329  30.852  29.730  1.00  0.00     0.031 C 
ATOM     33  C   UNL A   1      47.322  30.369  28.890  1.00  0.00     0.029 A 
ATOM     34  C   UNL A   1      45.970  30.076  28.960  1.00  0.00     0.049 A 
ATOM     35  H   UNL A   1      44.980  28.254  28.564  1.00  0.00     0.167 HD
ATOM     36  C   UNL A   1      43.576  30.589  29.354  1.00  0.00     0.074 A 
ATOM     37  C   UNL A   1      42.493  31.483  29.713  1.00  0.00     0.031 C 
ATOM     38  C   UNL A   1      44.882  30.946  29.327  1.00  0.00     0.037 A 
BRANCH  25  39
ATOM     39  C   UNL A   1      48.715  26.422  27.597  1.00  0.00     0.057 A 
ATOM     40  C   UNL A   1      49.527  25.849  28.584  1.00  0.00     0.134 A 
ATOM     41  C   UNL A   1      49.244  26.526  26.305  1.00  0.00     0.134 A 
ATOM     42  F   UNL A   1      49.084  25.729  29.845  1.00  0.00    -0.206 F 
ATOM     43  C   UNL A   1      50.819  25.403  28.298  1.00  0.00     0.040 A 
ATOM     44  C   UNL A   1      50.527  26.064  26.001  1.00  0.00     0.040 A 
ATOM     45  F   UNL A   1      48.517  27.058  25.312  1.00  0.00    -0.206 F 
ATOM     46  C   UNL A   1      51.320  25.502  27.000  1.00  0.00     0.006 A 
ENDBRANCH  25  39
BRANCH  26  47
ATOM     47  C   UNL A   1      39.205  28.860  29.432  1.00  0.00     0.057 A 
ATOM     48  C   UNL A   1      38.388  29.430  28.451  1.00  0.00     0.134 A 
ATOM     49  C   UNL A   1      38.641  28.639  30.695  1.00  0.00     0.134 A 
ATOM     50  F   UNL A   1      38.876  29.682  27.227  1.00  0.00    -0.206 F 
ATOM     51  C   UNL A   1      37.064  29.785  28.719  1.00  0.00     0.040 A 
ATOM     52  C   UNL A   1      37.311  28.960  30.968  1.00  0.00     0.040 A 
ATOM     53  F   UNL A   1      39.370  28.086  31.675  1.00  0.00    -0.206 F 
ATOM     54  C   UNL A   1      36.522  29.543  29.979  1.00  0.00     0.006 A 
ENDBRANCH  26  47
BRANCH  38  55
ATOM     55  C   UNL A   1      45.198  32.366  29.692  1.00  0.00     0.057 A 
ATOM     56  C   UNL A   1      45.494  32.736  31.011  1.00  0.00     0.134 A 
ATOM     57  C   UNL A   1      45.198  33.374  28.721  1.00  0.00     0.134 A 
ATOM     58  F   UNL A   1      45.494  31.818  31.991  1.00  0.00    -0.206 F 
ATOM     59  C   UNL A   1      45.748  34.063  31.356  1.00  0.00     0.040 A 
ATOM     60  C   UNL A   1      45.474  34.702  29.049  1.00  0.00     0.040 A 
ATOM     61  F   UNL A   1      44.927  33.085  27.439  1.00  0.00    -0.206 F 
ATOM     62  C   UNL A   1      45.741  35.050  30.371  1.00  0.00     0.006 A 
ENDBRANCH  38  55
ENDBRANCH  12  13
ENDBRANCH   5   7
ENDBRANCH   2   3
ENDBRANCH   1   2
BRANCH   1  63
ATOM     63  C   UNL A   1      36.384  20.546  25.002  1.00  0.00     0.023 C 
BRANCH  63  64
ATOM     64  C   UNL A   1      36.253  22.063  25.084  1.00  0.00     0.116 C 
BRANCH  64  65
ATOM     65  N   UNL A   1      35.700  22.515  26.349  1.00  0.00    -0.355 N 
ATOM     66  C   UNL A   1      34.389  22.675  26.724  1.00  0.00     0.238 C 
ATOM     67  H   UNL A   1      36.364  22.740  27.040  1.00  0.00     0.163 HD
ATOM     68  O   UNL A   1      34.168  22.861  27.917  1.00  0.00    -0.273 OA
BRANCH  66  69
ATOM     69  C   UNL A   1      33.307  22.488  25.671  1.00  0.00     0.165 C 
ATOM     70  C   UNL A   1      32.132  21.755  26.350  1.00  0.00     0.063 C 
ATOM     71  N   UNL A   1      32.688  23.618  24.883  1.00  0.00    -0.183 NA
ATOM     72  C   UNL A   1      31.000  22.759  26.326  1.00  0.00     0.131 C 
ATOM     73  C   UNL A   1      31.218  23.435  24.983  1.00  0.00     0.135 C 
BRANCH  71  74
ATOM     74  S   UNL A   1      33.297  25.185  25.181  1.00  0.00     0.244 S 
ATOM     75  O   UNL A   1      32.984  25.537  26.548  1.00  0.00    -0.207 OA
ATOM     76  O   UNL A   1      34.641  25.234  24.643  1.00  0.00    -0.207 OA
BRANCH  74  77
ATOM     77  C   UNL A   1      32.300  26.244  24.143  1.00  0.00     0.086 A 
ATOM     78  C   UNL A   1      32.012  25.867  22.826  1.00  0.00     0.026 A 
ATOM     79  C   UNL A   1      31.897  27.495  24.621  1.00  0.00     0.072 A 
ATOM     80  C   UNL A   1      31.283  26.732  22.002  1.00  0.00     0.052 A 
ATOM     81  C   UNL A   1      31.108  28.314  23.823  1.00  0.00     0.162 A 
ATOM     82  C   UNL A   1      30.828  27.952  22.502  1.00  0.00     0.161 A 
ATOM     83  O   UNL A   1      30.635  29.463  24.406  1.00  0.00    -0.486 OA
ATOM     84  O   UNL A   1      30.108  28.746  21.645  1.00  0.00    -0.486 OA
ATOM     85  C   UNL A   1      29.552  30.008  23.644  1.00  0.00     0.271 C 
ATOM     86  C   UNL A   1      29.932  30.069  22.174  1.00  0.00     0.271 C 
ENDBRANCH  74  77
ENDBRANCH  71  74
BRANCH  72  87
ATOM     87  O   UNL A   1      29.738  22.123  26.431  1.00  0.00    -0.392 OA
ATOM     88  H   UNL A   1      29.037  22.751  26.193  1.00  0.00     0.211 HD
ENDBRANCH  72  87
ENDBRANCH  66  69
ENDBRANCH  64  65
ENDBRANCH  63  64
ENDBRANCH   1  63
TORSDOF 14
ENDMDL
MODEL 3
REMARK VINA RESULT:     -11.9      0.357      6.169
REMARK SMILES O=C(NCCCCNC(=O)[C@H]1C[C@H](O)CN1S(=O)(=O)c1ccc2c(c1)OCCO2)c1ccc(-c2c3nc(c(-c4c(F)cccc4F)c4ccc([nH]4)c(-c4c(F)cccc4F)c4nc(c(-c5c(F)cccc5F)c5ccc2[nH]5)C=C4)C=C3)cc1
REMARK SMILES IDX 5 1 4 2 3 3 1 4 2 5 30 7 31 8 83 9 32 10 82 11 33 12 34 13
REMARK SMILES IDX 35 14 76 15 36 16 81 17 75 18 77 19 37 20 80 21 74 22 73 23
REMARK SMILES IDX 38 25 64 26 47 27 63 28 48 29 51 30 62 31 78 32 49 33 50 34
REMARK SMILES IDX 61 36 79 37 52 38 39 39 40 40 45 41 41 42 42 43 44 44 46 45
REMARK SMILES IDX 43 46 65 47 66 48 71 49 67 50 68 51 70 52 72 53 69 54 53 55
REMARK SMILES IDX 54 56 59 57 55 58 56 59 58 60 60 61 57 62 6 63 7 64 8 65
REMARK SMILES IDX 9 66 10 68 11 69 12 70 16 71 13 72 15 73 17 74 18 75 19 76
REMARK SMILES IDX 20 77 21 78 25 79 22 80 24 81 23 82 26 83 29 84 27 85 28 86
REMARK SMILES IDX 14 87
REMARK H PARENT 3 6 77 24 51 35 8 67 14 88
REMARK Flexibility Score: inf
ROOT
ATOM      1  C   UNL A   1      37.793  19.874  24.680  1.00  0.00     0.023 C 
ENDROOT
BRANCH   1   2
ATOM      2  C   UNL A   1      38.893  20.234  25.667  1.00  0.00     0.116 C 
BRANCH   2   3
ATOM      3  N   UNL A   1      39.950  19.238  25.754  1.00  0.00    -0.352 N 
ATOM      4  O   UNL A   1      42.064  18.491  26.054  1.00  0.00    -0.269 OA
ATOM      5  C   UNL A   1      41.264  19.417  26.129  1.00  0.00     0.251 C 
ATOM      6  H   UNL A   1      39.694  18.319  25.515  1.00  0.00     0.163 HD
BRANCH   5   7
ATOM      7  C   UNL A   1      41.710  20.751  26.588  1.00  0.00     0.039 A 
ATOM      8  C   UNL A   1      41.599  21.105  27.934  1.00  0.00     0.014 A 
ATOM      9  C   UNL A   1      42.209  21.669  25.659  1.00  0.00     0.014 A 
ATOM     10  C   UNL A   1      41.831  22.418  28.319  1.00  0.00     0.010 A 
ATOM     11  C   UNL A   1      42.536  22.967  26.069  1.00  0.00     0.010 A 
ATOM     12  C   UNL A   1      42.319  23.361  27.397  1.00  0.00    -0.014 A 
BRANCH  12  13
ATOM     13  C   UNL A   1      42.655  24.723  27.888  1.00  0.00     0.031 A 
ATOM     14  C   UNL A   1      41.596  25.763  28.126  1.00  0.00     0.074 A 
ATOM     15  C   UNL A   1      43.942  24.986  28.190  1.00  0.00     0.049 A 
ATOM     16  N   UNL A   1      41.728  26.967  28.627  1.00  0.00    -0.248 NA
ATOM     17  C   UNL A   1      40.217  25.420  27.749  1.00  0.00     0.031 C 
ATOM     18  C   UNL A   1      45.059  24.060  27.977  1.00  0.00     0.029 A 
ATOM     19  N   UNL A   1      44.526  26.082  28.768  1.00  0.00    -0.354 N 
ATOM     20  C   UNL A   1      40.456  27.527  28.620  1.00  0.00     0.074 A 
ATOM     21  C   UNL A   1      39.570  26.542  28.035  1.00  0.00     0.031 C 
ATOM     22  C   UNL A   1      46.178  24.601  28.478  1.00  0.00     0.029 A 
ATOM     23  C   UNL A   1      45.873  25.932  28.987  1.00  0.00     0.049 A 
ATOM     24  H   UNL A   1      44.028  26.899  29.002  1.00  0.00     0.167 HD
ATOM     25  C   UNL A   1      40.066  28.744  29.068  1.00  0.00     0.037 A 
ATOM     26  C   UNL A   1      46.770  26.774  29.531  1.00  0.00     0.037 A 
ATOM     27  C   UNL A   1      40.953  29.717  29.659  1.00  0.00     0.049 A 
ATOM     28  C   UNL A   1      46.307  28.112  30.020  1.00  0.00     0.074 A 
ATOM     29  C   UNL A   1      40.649  30.976  30.151  1.00  0.00     0.029 A 
ATOM     30  N   UNL A   1      42.316  29.538  29.839  1.00  0.00    -0.354 N 
ATOM     31  N   UNL A   1      45.097  28.616  30.020  1.00  0.00    -0.248 NA
ATOM     32  C   UNL A   1      47.332  29.000  30.583  1.00  0.00     0.031 C 
ATOM     33  C   UNL A   1      41.833  31.571  30.597  1.00  0.00     0.029 A 
ATOM     34  C   UNL A   1      42.869  30.668  30.423  1.00  0.00     0.049 A 
ATOM     35  H   UNL A   1      42.818  28.729  29.590  1.00  0.00     0.167 HD
ATOM     36  C   UNL A   1      45.214  29.879  30.581  1.00  0.00     0.074 A 
ATOM     37  C   UNL A   1      46.607  30.047  30.946  1.00  0.00     0.031 C 
ATOM     38  C   UNL A   1      44.259  30.821  30.767  1.00  0.00     0.037 A 
BRANCH  25  39
ATOM     39  C   UNL A   1      38.614  29.105  28.941  1.00  0.00     0.057 A 
ATOM     40  C   UNL A   1      37.734  29.012  30.027  1.00  0.00     0.134 A 
ATOM     41  C   UNL A   1      38.106  29.619  27.741  1.00  0.00     0.134 A 
ATOM     42  F   UNL A   1      38.154  28.520  31.202  1.00  0.00    -0.206 F 
ATOM     43  C   UNL A   1      36.399  29.408  29.921  1.00  0.00     0.040 A 
ATOM     44  C   UNL A   1      36.778  30.038  27.629  1.00  0.00     0.040 A 
ATOM     45  F   UNL A   1      38.896  29.742  26.664  1.00  0.00    -0.206 F 
ATOM     46  C   UNL A   1      35.920  29.932  28.721  1.00  0.00     0.006 A 
ENDBRANCH  25  39
BRANCH  26  47
ATOM     47  C   UNL A   1      48.196  26.373  29.624  1.00  0.00     0.057 A 
ATOM     48  C   UNL A   1      49.097  26.640  28.588  1.00  0.00     0.134 A 
ATOM     49  C   UNL A   1      48.690  25.714  30.757  1.00  0.00     0.134 A 
ATOM     50  F   UNL A   1      48.680  27.252  27.470  1.00  0.00    -0.206 F 
ATOM     51  C   UNL A   1      50.435  26.249  28.666  1.00  0.00     0.040 A 
ATOM     52  C   UNL A   1      50.031  25.346  30.862  1.00  0.00     0.040 A 
ATOM     53  F   UNL A   1      47.878  25.440  31.788  1.00  0.00    -0.206 F 
ATOM     54  C   UNL A   1      50.906  25.607  29.810  1.00  0.00     0.006 A 
ENDBRANCH  26  47
BRANCH  38  55
ATOM     55  C   UNL A   1      44.699  32.109  31.396  1.00  0.00     0.057 A 
ATOM     56  C   UNL A   1      44.687  32.289  32.786  1.00  0.00     0.134 A 
ATOM     57  C   UNL A   1      45.132  33.181  30.607  1.00  0.00     0.134 A 
ATOM     58  F   UNL A   1      44.267  31.304  33.595  1.00  0.00    -0.206 F 
ATOM     59  C   UNL A   1      45.059  33.501  33.367  1.00  0.00     0.040 A 
ATOM     60  C   UNL A   1      45.530  34.391  31.178  1.00  0.00     0.040 A 
ATOM     61  F   UNL A   1      45.172  33.072  29.271  1.00  0.00    -0.206 F 
ATOM     62  C   UNL A   1      45.484  34.556  32.561  1.00  0.00     0.006 A 
ENDBRANCH  38  55
ENDBRANCH  12  13
ENDBRANCH   5   7
ENDBRANCH   2   3
ENDBRANCH   1   2
BRANCH   1  63
ATOM     63  C   UNL A   1      36.399  20.398  25.027  1.00  0.00     0.023 C 
BRANCH  63  64
ATOM     64  C   UNL A   1      36.283  21.917  25.102  1.00  0.00     0.116 C 
BRANCH  64  65
ATOM     65  N   UNL A   1      35.736  22.381  26.365  1.00  0.00    -0.355 N 
ATOM     66  C   UNL A   1      34.427  22.560  26.738  1.00  0.00     0.238 C 
ATOM     67  H   UNL A   1      36.402  22.600  27.055  1.00  0.00     0.163 HD
ATOM     68  O   UNL A   1      34.208  22.754  27.930  1.00  0.00    -0.273 OA
BRANCH  66  69
ATOM     69  C   UNL A   1      33.343  22.384  25.685  1.00  0.00     0.165 C 
ATOM     70  C   UNL A   1      32.161  21.662  26.363  1.00  0.00     0.063 C 
ATOM     71  N   UNL A   1      32.736  23.520  24.897  1.00  0.00    -0.183 NA
ATOM     72  C   UNL A   1      31.039  22.677  26.339  1.00  0.00     0.131 C 
ATOM     73  C   UNL A   1      31.264  23.351  24.997  1.00  0.00     0.135 C 
BRANCH  71  74
ATOM     74  S   UNL A   1      33.359  25.081  25.196  1.00  0.00     0.244 S 
ATOM     75  O   UNL A   1      33.041  25.440  26.560  1.00  0.00    -0.207 OA
ATOM     76  O   UNL A   1      34.707  25.115  24.667  1.00  0.00    -0.207 OA
BRANCH  74  77
ATOM     77  C   UNL A   1      32.380  26.148  24.149  1.00  0.00     0.086 A 
ATOM     78  C   UNL A   1      32.126  25.788  22.820  1.00  0.00     0.026 A 
ATOM     79  C   UNL A   1      31.958  27.390  24.634  1.00  0.00     0.072 A 
ATOM     80  C   UNL A   1      31.412  26.660  21.991  1.00  0.00     0.052 A 
ATOM     81  C   UNL A   1      31.183  28.216  23.829  1.00  0.00     0.162 A 
ATOM     82  C   UNL A   1      30.937  27.870  22.497  1.00  0.00     0.161 A 
ATOM     83  O   UNL A   1      30.689  29.353  24.416  1.00  0.00    -0.486 OA
ATOM     84  O   UNL A   1      30.232  28.672  21.634  1.00  0.00    -0.486 OA
ATOM     85  C   UNL A   1      29.621  29.902  23.636  1.00  0.00     0.271 C 
ATOM     86  C   UNL A   1      30.036  29.986  22.176  1.00  0.00     0.271 C 
ENDBRANCH  74  77
ENDBRANCH  71  74
BRANCH  72  87
ATOM     87  O   UNL A   1      29.771  22.052  26.444  1.00  0.00    -0.392 OA
ATOM     88  H   UNL A   1      29.541  21.941  27.381  1.00  0.00     0.211 HD
ENDBRANCH  72  87
ENDBRANCH  66  69
ENDBRANCH  64  65
ENDBRANCH  63  64
ENDBRANCH   1  63
TORSDOF 14
ENDMDL
