MODEL 1
REMARK VINA RESULT:     -11.6      0.000      0.000
REMARK SMILES C[C@@H](C(=O)NCCCCNC(=O)c1ccc(-c2c3nc(c(-c4c(F)cccc4F)c4ccc([nH]4)c(-c4c(F)cccc4F)c4nc(c(-c5c(F)cccc5F)c5ccc2[nH]5)C=C4)C=C3)cc1)c1ccc(Cc2cccs2)cc1F
REMARK SMILES IDX 7 1 6 2 5 3 3 4 4 5 2 7 1 8 67 9 68 10 78 11 69 12 77 13
REMARK SMILES IDX 79 14 70 15 71 16 72 17 73 18 76 19 74 20 75 21 8 22 9 23
REMARK SMILES IDX 10 24 11 25 12 27 13 28 14 29 66 30 15 31 65 32 16 33 17 34
REMARK SMILES IDX 18 35 59 36 19 37 64 38 58 39 60 40 20 41 63 42 57 43 56 44
REMARK SMILES IDX 21 46 47 47 30 48 46 49 31 50 34 51 45 52 61 53 32 54 33 55
REMARK SMILES IDX 44 57 62 58 35 59 22 60 23 61 28 62 24 63 25 64 27 65 29 66
REMARK SMILES IDX 26 67 48 68 49 69 54 70 50 71 51 72 53 73 55 74 52 75 36 76
REMARK SMILES IDX 37 77 42 78 38 79 39 80 41 81 43 82 40 83
REMARK H PARENT 5 6 10 26 60 45 34 56
REMARK Flexibility Score: inf
ROOT
ATOM      1  C   UNL A   1      31.859  27.957  27.255  1.00  0.00     0.023 C 
ENDROOT
BRANCH   1   2
ATOM      2  C   UNL A   1      32.085  26.561  26.674  1.00  0.00     0.116 C 
BRANCH   2   3
ATOM      3  N   UNL A   1      33.160  26.547  25.704  1.00  0.00    -0.356 N 
ATOM      4  C   UNL A   1      33.201  26.051  24.430  1.00  0.00     0.227 C 
ATOM      5  O   UNL A   1      34.247  26.242  23.805  1.00  0.00    -0.274 OA
ATOM      6  H   UNL A   1      33.999  26.961  26.011  1.00  0.00     0.163 HD
BRANCH   4   7
ATOM      7  C   UNL A   1      31.963  25.367  23.824  1.00  0.00     0.108 C 
ATOM      8  C   UNL A   1      32.259  24.638  22.511  1.00  0.00     0.023 C 
BRANCH   7   9
ATOM      9  C   UNL A   1      30.801  26.330  23.614  1.00  0.00    -0.000 A 
ATOM     10  C   UNL A   1      29.528  26.023  24.113  1.00  0.00     0.008 A 
ATOM     11  C   UNL A   1      30.957  27.519  22.889  1.00  0.00     0.127 A 
ATOM     12  C   UNL A   1      28.447  26.876  23.874  1.00  0.00     0.004 A 
ATOM     13  C   UNL A   1      29.882  28.369  22.642  1.00  0.00     0.043 A 
ATOM     14  F   UNL A   1      32.156  27.849  22.387  1.00  0.00    -0.207 F 
ATOM     15  C   UNL A   1      28.608  28.053  23.129  1.00  0.00    -0.040 A 
BRANCH  15  16
ATOM     16  C   UNL A   1      27.429  28.955  22.840  1.00  0.00     0.082 C 
BRANCH  16  17
ATOM     17  C   UNL A   1      27.811  30.400  22.667  1.00  0.00     0.009 A 
ATOM     18  C   UNL A   1      28.060  31.348  23.643  1.00  0.00     0.016 A 
ATOM     19  S   UNL A   1      28.028  31.056  21.097  1.00  0.00    -0.149 S 
ATOM     20  C   UNL A   1      28.431  32.612  23.098  1.00  0.00     0.012 A 
ATOM     21  C   UNL A   1      28.461  32.587  21.722  1.00  0.00     0.065 A 
ENDBRANCH  16  17
ENDBRANCH  15  16
ENDBRANCH   7   9
ENDBRANCH   4   7
ENDBRANCH   2   3
ENDBRANCH   1   2
BRANCH   1  22
ATOM     22  C   UNL A   1      31.405  29.015  26.245  1.00  0.00     0.023 C 
BRANCH  22  23
ATOM     23  C   UNL A   1      32.444  30.071  25.885  1.00  0.00     0.116 C 
BRANCH  23  24
ATOM     24  N   UNL A   1      32.119  31.392  26.400  1.00  0.00    -0.352 N 
ATOM     25  C   UNL A   1      32.842  32.197  27.249  1.00  0.00     0.251 C 
ATOM     26  H   UNL A   1      31.258  31.763  26.099  1.00  0.00     0.163 HD
ATOM     27  O   UNL A   1      32.361  33.243  27.673  1.00  0.00    -0.269 OA
BRANCH  25  28
ATOM     28  C   UNL A   1      34.189  31.774  27.685  1.00  0.00     0.039 A 
ATOM     29  C   UNL A   1      35.179  32.747  27.852  1.00  0.00     0.014 A 
ATOM     30  C   UNL A   1      34.461  30.433  27.971  1.00  0.00     0.014 A 
ATOM     31  C   UNL A   1      36.412  32.390  28.401  1.00  0.00     0.010 A 
ATOM     32  C   UNL A   1      35.670  30.089  28.570  1.00  0.00     0.010 A 
ATOM     33  C   UNL A   1      36.646  31.069  28.815  1.00  0.00    -0.014 A 
BRANCH  33  34
ATOM     34  C   UNL A   1      37.867  30.701  29.574  1.00  0.00     0.031 A 
ATOM     35  C   UNL A   1      38.873  29.752  28.990  1.00  0.00     0.074 A 
ATOM     36  C   UNL A   1      38.010  31.143  30.840  1.00  0.00     0.049 A 
ATOM     37  N   UNL A   1      39.925  29.217  29.555  1.00  0.00    -0.248 NA
ATOM     38  C   UNL A   1      38.654  29.329  27.598  1.00  0.00     0.031 C 
ATOM     39  C   UNL A   1      37.075  32.029  31.539  1.00  0.00     0.029 A 
ATOM     40  N   UNL A   1      38.980  30.884  31.776  1.00  0.00    -0.354 N 
ATOM     41  C   UNL A   1      40.483  28.381  28.597  1.00  0.00     0.074 A 
ATOM     42  C   UNL A   1      39.639  28.457  27.424  1.00  0.00     0.031 C 
ATOM     43  C   UNL A   1      37.514  32.235  32.791  1.00  0.00     0.029 A 
ATOM     44  C   UNL A   1      38.736  31.466  32.997  1.00  0.00     0.049 A 
ATOM     45  H   UNL A   1      39.774  30.333  31.590  1.00  0.00     0.167 HD
ATOM     46  C   UNL A   1      41.605  27.629  28.688  1.00  0.00     0.037 A 
ATOM     47  C   UNL A   1      39.406  31.371  34.161  1.00  0.00     0.037 A 
ATOM     48  C   UNL A   1      42.463  27.583  29.843  1.00  0.00     0.049 A 
ATOM     49  C   UNL A   1      40.642  30.519  34.233  1.00  0.00     0.074 A 
ATOM     50  C   UNL A   1      43.677  26.934  29.987  1.00  0.00     0.029 A 
ATOM     51  N   UNL A   1      42.194  28.202  31.052  1.00  0.00    -0.354 N 
ATOM     52  N   UNL A   1      41.210  29.807  33.290  1.00  0.00    -0.248 NA
ATOM     53  C   UNL A   1      41.330  30.453  35.531  1.00  0.00     0.031 C 
ATOM     54  C   UNL A   1      44.121  27.121  31.299  1.00  0.00     0.029 A 
ATOM     55  C   UNL A   1      43.202  27.919  31.960  1.00  0.00     0.049 A 
ATOM     56  H   UNL A   1      41.404  28.760  31.239  1.00  0.00     0.167 HD
ATOM     57  C   UNL A   1      42.325  29.222  33.874  1.00  0.00     0.074 A 
ATOM     58  C   UNL A   1      42.368  29.678  35.247  1.00  0.00     0.031 C 
ATOM     59  C   UNL A   1      43.229  28.379  33.323  1.00  0.00     0.037 A 
BRANCH  46  60
ATOM     60  C   UNL A   1      41.986  26.791  27.505  1.00  0.00     0.057 A 
ATOM     61  C   UNL A   1      42.801  27.288  26.482  1.00  0.00     0.134 A 
ATOM     62  C   UNL A   1      41.600  25.446  27.432  1.00  0.00     0.134 A 
ATOM     63  F   UNL A   1      43.197  28.569  26.491  1.00  0.00    -0.206 F 
ATOM     64  C   UNL A   1      43.215  26.479  25.423  1.00  0.00     0.040 A 
ATOM     65  C   UNL A   1      42.024  24.622  26.389  1.00  0.00     0.040 A 
ATOM     66  F   UNL A   1      40.823  24.907  28.385  1.00  0.00    -0.206 F 
ATOM     67  C   UNL A   1      42.834  25.139  25.380  1.00  0.00     0.006 A 
ENDBRANCH  46  60
BRANCH  47  68
ATOM     68  C   UNL A   1      38.915  32.082  35.368  1.00  0.00     0.057 A 
ATOM     69  C   UNL A   1      38.153  31.421  36.338  1.00  0.00     0.134 A 
ATOM     70  C   UNL A   1      39.168  33.446  35.563  1.00  0.00     0.134 A 
ATOM     71  F   UNL A   1      37.860  30.121  36.194  1.00  0.00    -0.206 F 
ATOM     72  C   UNL A   1      37.640  32.095  37.448  1.00  0.00     0.040 A 
ATOM     73  C   UNL A   1      38.683  34.126  36.681  1.00  0.00     0.040 A 
ATOM     74  F   UNL A   1      39.896  34.135  34.672  1.00  0.00    -0.206 F 
ATOM     75  C   UNL A   1      37.908  33.451  37.623  1.00  0.00     0.006 A 
ENDBRANCH  47  68
BRANCH  59  76
ATOM     76  C   UNL A   1      44.346  27.903  34.202  1.00  0.00     0.057 A 
ATOM     77  C   UNL A   1      44.257  26.702  34.915  1.00  0.00     0.134 A 
ATOM     78  C   UNL A   1      45.539  28.631  34.304  1.00  0.00     0.134 A 
ATOM     79  F   UNL A   1      43.135  25.967  34.871  1.00  0.00    -0.206 F 
ATOM     80  C   UNL A   1      45.309  26.247  35.711  1.00  0.00     0.040 A 
ATOM     81  C   UNL A   1      46.606  28.175  35.077  1.00  0.00     0.040 A 
ATOM     82  F   UNL A   1      45.689  29.787  33.639  1.00  0.00    -0.206 F 
ATOM     83  C   UNL A   1      46.491  26.982  35.787  1.00  0.00     0.006 A 
ENDBRANCH  59  76
ENDBRANCH  33  34
ENDBRANCH  25  28
ENDBRANCH  23  24
ENDBRANCH  22  23
ENDBRANCH   1  22
TORSDOF 14
ENDMDL
MODEL 2
REMARK VINA RESULT:     -11.6      1.975      2.589
REMARK SMILES C[C@@H](C(=O)NCCCCNC(=O)c1ccc(-c2c3nc(c(-c4c(F)cccc4F)c4ccc([nH]4)c(-c4c(F)cccc4F)c4nc(c(-c5c(F)cccc5F)c5ccc2[nH]5)C=C4)C=C3)cc1)c1ccc(Cc2cccs2)cc1F
REMARK SMILES IDX 7 1 6 2 5 3 3 4 4 5 2 7 1 8 67 9 68 10 78 11 69 12 77 13
REMARK SMILES IDX 79 14 70 15 71 16 72 17 73 18 76 19 74 20 75 21 8 22 9 23
REMARK SMILES IDX 10 24 11 25 12 27 13 28 14 29 66 30 15 31 65 32 16 33 17 34
REMARK SMILES IDX 18 35 59 36 19 37 64 38 58 39 60 40 20 41 63 42 57 43 56 44
REMARK SMILES IDX 21 46 47 47 30 48 46 49 31 50 34 51 45 52 61 53 32 54 33 55
REMARK SMILES IDX 44 57 62 58 35 59 22 60 23 61 28 62 24 63 25 64 27 65 29 66
REMARK SMILES IDX 26 67 48 68 49 69 54 70 50 71 51 72 53 73 55 74 52 75 36 76
REMARK SMILES IDX 37 77 42 78 38 79 39 80 41 81 43 82 40 83
REMARK H PARENT 5 6 10 26 60 45 34 56
REMARK Flexibility Score: inf
ROOT
ATOM      1  C   UNL A   1      31.818  29.144  26.452  1.00  0.00     0.023 C 
ENDROOT
BRANCH   1   2
ATOM      2  C   UNL A   1      32.905  28.359  25.715  1.00  0.00     0.116 C 
BRANCH   2   3
ATOM      3  N   UNL A   1      33.031  27.007  26.218  1.00  0.00    -0.356 N 
ATOM      4  C   UNL A   1      32.919  25.806  25.575  1.00  0.00     0.227 C 
ATOM      5  O   UNL A   1      33.144  24.802  26.254  1.00  0.00    -0.274 OA
ATOM      6  H   UNL A   1      33.228  26.941  27.181  1.00  0.00     0.163 HD
BRANCH   4   7
ATOM      7  C   UNL A   1      32.604  25.759  24.069  1.00  0.00     0.108 C 
ATOM      8  C   UNL A   1      33.748  26.282  23.197  1.00  0.00     0.023 C 
BRANCH   7   9
ATOM      9  C   UNL A   1      31.320  26.498  23.712  1.00  0.00    -0.000 A 
ATOM     10  C   UNL A   1      31.357  27.607  22.856  1.00  0.00     0.008 A 
ATOM     11  C   UNL A   1      30.084  26.122  24.254  1.00  0.00     0.127 A 
ATOM     12  C   UNL A   1      30.190  28.322  22.570  1.00  0.00     0.004 A 
ATOM     13  C   UNL A   1      28.920  26.836  23.978  1.00  0.00     0.043 A 
ATOM     14  F   UNL A   1      30.004  25.073  25.083  1.00  0.00    -0.207 F 
ATOM     15  C   UNL A   1      28.961  27.951  23.134  1.00  0.00    -0.040 A 
BRANCH  15  16
ATOM     16  C   UNL A   1      27.708  28.750  22.853  1.00  0.00     0.082 C 
BRANCH  16  17
ATOM     17  C   UNL A   1      27.963  30.225  22.693  1.00  0.00     0.009 A 
ATOM     18  C   UNL A   1      28.167  31.175  23.677  1.00  0.00     0.016 A 
ATOM     19  S   UNL A   1      28.072  30.920  21.129  1.00  0.00    -0.149 S 
ATOM     20  C   UNL A   1      28.414  32.473  23.143  1.00  0.00     0.012 A 
ATOM     21  C   UNL A   1      28.399  32.472  21.767  1.00  0.00     0.065 A 
ENDBRANCH  16  17
ENDBRANCH  15  16
ENDBRANCH   7   9
ENDBRANCH   4   7
ENDBRANCH   2   3
ENDBRANCH   1   2
BRANCH   1  22
ATOM     22  C   UNL A   1      31.866  30.661  26.252  1.00  0.00     0.023 C 
BRANCH  22  23
ATOM     23  C   UNL A   1      32.791  31.422  27.196  1.00  0.00     0.116 C 
BRANCH  23  24
ATOM     24  N   UNL A   1      32.373  32.798  27.421  1.00  0.00    -0.352 N 
ATOM     25  C   UNL A   1      33.003  33.793  28.131  1.00  0.00     0.251 C 
ATOM     26  H   UNL A   1      31.517  33.052  27.007  1.00  0.00     0.163 HD
ATOM     27  O   UNL A   1      32.448  34.872  28.311  1.00  0.00    -0.269 OA
BRANCH  25  28
ATOM     28  C   UNL A   1      34.337  33.542  28.713  1.00  0.00     0.039 A 
ATOM     29  C   UNL A   1      34.427  32.805  29.897  1.00  0.00     0.014 A 
ATOM     30  C   UNL A   1      35.495  33.993  28.072  1.00  0.00     0.014 A 
ATOM     31  C   UNL A   1      35.681  32.433  30.385  1.00  0.00     0.010 A 
ATOM     32  C   UNL A   1      36.742  33.574  28.528  1.00  0.00     0.010 A 
ATOM     33  C   UNL A   1      36.844  32.768  29.674  1.00  0.00    -0.014 A 
BRANCH  33  34
ATOM     34  C   UNL A   1      38.171  32.225  30.060  1.00  0.00     0.031 A 
ATOM     35  C   UNL A   1      38.645  30.908  29.517  1.00  0.00     0.074 A 
ATOM     36  C   UNL A   1      38.899  32.875  30.991  1.00  0.00     0.049 A 
ATOM     37  N   UNL A   1      39.709  30.219  29.841  1.00  0.00    -0.248 NA
ATOM     38  C   UNL A   1      37.802  30.271  28.494  1.00  0.00     0.031 C 
ATOM     39  C   UNL A   1      38.522  34.137  31.633  1.00  0.00     0.029 A 
ATOM     40  N   UNL A   1      40.094  32.549  31.582  1.00  0.00    -0.354 N 
ATOM     41  C   UNL A   1      39.655  29.060  29.079  1.00  0.00     0.074 A 
ATOM     42  C   UNL A   1      38.440  29.125  28.295  1.00  0.00     0.031 C 
ATOM     43  C   UNL A   1      39.463  34.475  32.529  1.00  0.00     0.029 A 
ATOM     44  C   UNL A   1      40.487  33.436  32.555  1.00  0.00     0.049 A 
ATOM     45  H   UNL A   1      40.620  31.755  31.332  1.00  0.00     0.167 HD
ATOM     46  C   UNL A   1      40.546  28.042  29.031  1.00  0.00     0.037 A 
ATOM     47  C   UNL A   1      41.540  33.405  33.395  1.00  0.00     0.037 A 
ATOM     48  C   UNL A   1      41.771  27.997  29.784  1.00  0.00     0.049 A 
ATOM     49  C   UNL A   1      42.505  32.255  33.324  1.00  0.00     0.074 A 
ATOM     50  C   UNL A   1      42.787  27.058  29.718  1.00  0.00     0.029 A 
ATOM     51  N   UNL A   1      42.144  28.924  30.743  1.00  0.00    -0.354 N 
ATOM     52  N   UNL A   1      42.489  31.212  32.532  1.00  0.00    -0.248 NA
ATOM     53  C   UNL A   1      43.633  32.276  34.266  1.00  0.00     0.031 C 
ATOM     54  C   UNL A   1      43.753  27.391  30.673  1.00  0.00     0.029 A 
ATOM     55  C   UNL A   1      43.357  28.558  31.304  1.00  0.00     0.049 A 
ATOM     56  H   UNL A   1      41.624  29.723  30.990  1.00  0.00     0.167 HD
ATOM     57  C   UNL A   1      43.607  30.461  32.869  1.00  0.00     0.074 A 
ATOM     58  C   UNL A   1      44.292  31.178  33.923  1.00  0.00     0.031 C 
ATOM     59  C   UNL A   1      44.025  29.281  32.353  1.00  0.00     0.037 A 
BRANCH  46  60
ATOM     60  C   UNL A   1      40.241  26.885  28.129  1.00  0.00     0.057 A 
ATOM     61  C   UNL A   1      40.802  26.779  26.851  1.00  0.00     0.134 A 
ATOM     62  C   UNL A   1      39.444  25.823  28.578  1.00  0.00     0.134 A 
ATOM     63  F   UNL A   1      41.567  27.766  26.361  1.00  0.00    -0.206 F 
ATOM     64  C   UNL A   1      40.575  25.662  26.046  1.00  0.00     0.040 A 
ATOM     65  C   UNL A   1      39.226  24.692  27.790  1.00  0.00     0.040 A 
ATOM     66  F   UNL A   1      38.882  25.861  29.795  1.00  0.00    -0.206 F 
ATOM     67  C   UNL A   1      39.793  24.609  26.520  1.00  0.00     0.006 A 
ENDBRANCH  46  60
BRANCH  47  68
ATOM     68  C   UNL A   1      41.730  34.484  34.396  1.00  0.00     0.057 A 
ATOM     69  C   UNL A   1      41.225  34.364  35.695  1.00  0.00     0.134 A 
ATOM     70  C   UNL A   1      42.394  35.673  34.067  1.00  0.00     0.134 A 
ATOM     71  F   UNL A   1      40.562  33.258  36.060  1.00  0.00    -0.206 F 
ATOM     72  C   UNL A   1      41.352  35.396  36.626  1.00  0.00     0.040 A 
ATOM     73  C   UNL A   1      42.549  36.703  34.996  1.00  0.00     0.040 A 
ATOM     74  F   UNL A   1      42.905  35.848  32.840  1.00  0.00    -0.206 F 
ATOM     75  C   UNL A   1      42.018  36.569  36.278  1.00  0.00     0.006 A 
ENDBRANCH  47  68
BRANCH  59  76
ATOM     76  C   UNL A   1      45.286  28.698  32.915  1.00  0.00     0.057 A 
ATOM     77  C   UNL A   1      46.544  29.045  32.408  1.00  0.00     0.134 A 
ATOM     78  C   UNL A   1      45.246  27.814  34.002  1.00  0.00     0.134 A 
ATOM     79  F   UNL A   1      46.648  29.874  31.358  1.00  0.00    -0.206 F 
ATOM     80  C   UNL A   1      47.718  28.522  32.951  1.00  0.00     0.040 A 
ATOM     81  C   UNL A   1      46.414  27.303  34.569  1.00  0.00     0.040 A 
ATOM     82  F   UNL A   1      44.072  27.448  34.538  1.00  0.00    -0.206 F 
ATOM     83  C   UNL A   1      47.654  27.654  34.041  1.00  0.00     0.006 A 
ENDBRANCH  59  76
ENDBRANCH  33  34
ENDBRANCH  25  28
ENDBRANCH  23  24
ENDBRANCH  22  23
ENDBRANCH   1  22
TORSDOF 14
ENDMDL
MODEL 3
REMARK VINA RESULT:     -11.5      4.101      8.050
REMARK SMILES C[C@@H](C(=O)NCCCCNC(=O)c1ccc(-c2c3nc(c(-c4c(F)cccc4F)c4ccc([nH]4)c(-c4c(F)cccc4F)c4nc(c(-c5c(F)cccc5F)c5ccc2[nH]5)C=C4)C=C3)cc1)c1ccc(Cc2cccs2)cc1F
REMARK SMILES IDX 7 1 6 2 5 3 3 4 4 5 2 7 1 8 67 9 68 10 78 11 69 12 77 13
REMARK SMILES IDX 79 14 70 15 71 16 72 17 73 18 76 19 74 20 75 21 8 22 9 23
REMARK SMILES IDX 10 24 11 25 12 27 13 28 14 29 66 30 15 31 65 32 16 33 17 34
REMARK SMILES IDX 18 35 59 36 19 37 64 38 58 39 60 40 20 41 63 42 57 43 56 44
REMARK SMILES IDX 21 46 47 47 30 48 46 49 31 50 34 51 45 52 61 53 32 54 33 55
REMARK SMILES IDX 44 57 62 58 35 59 22 60 23 61 28 62 24 63 25 64 27 65 29 66
REMARK SMILES IDX 26 67 48 68 49 69 54 70 50 71 51 72 53 73 55 74 52 75 36 76
REMARK SMILES IDX 37 77 42 78 38 79 39 80 41 81 43 82 40 83
REMARK H PARENT 5 6 10 26 60 45 34 56
REMARK Flexibility Score: inf
ROOT
ATOM      1  C   UNL A   1      31.495  28.536  26.623  1.00  0.00     0.023 C 
ENDROOT
BRANCH   1   2
ATOM      2  C   UNL A   1      31.677  29.519  25.466  1.00  0.00     0.116 C 
BRANCH   2   3
ATOM      3  N   UNL A   1      31.195  28.976  24.213  1.00  0.00    -0.356 N 
ATOM      4  C   UNL A   1      31.855  28.302  23.224  1.00  0.00     0.227 C 
ATOM      5  O   UNL A   1      31.165  27.895  22.288  1.00  0.00    -0.274 OA
ATOM      6  H   UNL A   1      30.235  29.116  24.045  1.00  0.00     0.163 HD
BRANCH   4   7
ATOM      7  C   UNL A   1      33.363  28.021  23.351  1.00  0.00     0.108 C 
ATOM      8  C   UNL A   1      34.140  28.304  22.062  1.00  0.00     0.023 C 
BRANCH   7   9
ATOM      9  C   UNL A   1      33.662  26.601  23.816  1.00  0.00    -0.000 A 
ATOM     10  C   UNL A   1      33.952  26.344  25.163  1.00  0.00     0.008 A 
ATOM     11  C   UNL A   1      33.696  25.528  22.917  1.00  0.00     0.127 A 
ATOM     12  C   UNL A   1      34.281  25.053  25.585  1.00  0.00     0.004 A 
ATOM     13  C   UNL A   1      34.032  24.240  23.330  1.00  0.00     0.043 A 
ATOM     14  F   UNL A   1      33.433  25.729  21.618  1.00  0.00    -0.207 F 
ATOM     15  C   UNL A   1      34.335  23.989  24.673  1.00  0.00    -0.040 A 
BRANCH  15  16
ATOM     16  C   UNL A   1      34.729  22.601  25.126  1.00  0.00     0.082 C 
BRANCH  16  17
ATOM     17  C   UNL A   1      36.209  22.443  25.348  1.00  0.00     0.009 A 
ATOM     18  C   UNL A   1      37.113  23.375  25.825  1.00  0.00     0.016 A 
ATOM     19  S   UNL A   1      36.975  20.940  25.035  1.00  0.00    -0.149 S 
ATOM     20  C   UNL A   1      38.434  22.851  25.934  1.00  0.00     0.012 A 
ATOM     21  C   UNL A   1      38.496  21.533  25.544  1.00  0.00     0.065 A 
ENDBRANCH  16  17
ENDBRANCH  15  16
ENDBRANCH   7   9
ENDBRANCH   4   7
ENDBRANCH   2   3
ENDBRANCH   1   2
BRANCH   1  22
ATOM     22  C   UNL A   1      32.671  28.461  27.601  1.00  0.00     0.023 C 
BRANCH  22  23
ATOM     23  C   UNL A   1      33.867  29.345  27.265  1.00  0.00     0.116 C 
BRANCH  23  24
ATOM     24  N   UNL A   1      33.915  30.566  28.054  1.00  0.00    -0.352 N 
ATOM     25  C   UNL A   1      34.925  31.046  28.854  1.00  0.00     0.251 C 
ATOM     26  H   UNL A   1      33.108  31.130  28.010  1.00  0.00     0.163 HD
ATOM     27  O   UNL A   1      34.751  32.048  29.541  1.00  0.00    -0.269 OA
BRANCH  25  28
ATOM     28  C   UNL A   1      36.213  30.323  28.916  1.00  0.00     0.039 A 
ATOM     29  C   UNL A   1      37.037  30.319  27.788  1.00  0.00     0.014 A 
ATOM     30  C   UNL A   1      36.624  29.693  30.094  1.00  0.00     0.014 A 
ATOM     31  C   UNL A   1      38.317  29.768  27.870  1.00  0.00     0.010 A 
ATOM     32  C   UNL A   1      37.921  29.196  30.192  1.00  0.00     0.010 A 
ATOM     33  C   UNL A   1      38.788  29.253  29.088  1.00  0.00    -0.014 A 
BRANCH  33  34
ATOM     34  C   UNL A   1      40.204  28.840  29.258  1.00  0.00     0.031 A 
ATOM     35  C   UNL A   1      41.235  29.822  29.733  1.00  0.00     0.074 A 
ATOM     36  C   UNL A   1      40.575  27.602  28.876  1.00  0.00     0.049 A 
ATOM     37  N   UNL A   1      42.533  29.679  29.815  1.00  0.00    -0.248 NA
ATOM     38  C   UNL A   1      40.746  31.148  30.146  1.00  0.00     0.031 C 
ATOM     39  C   UNL A   1      39.676  26.571  28.349  1.00  0.00     0.029 A 
ATOM     40  N   UNL A   1      41.812  27.006  28.843  1.00  0.00    -0.354 N 
ATOM     41  C   UNL A   1      43.019  30.898  30.270  1.00  0.00     0.074 A 
ATOM     42  C   UNL A   1      41.881  31.778  30.420  1.00  0.00     0.031 C 
ATOM     43  C   UNL A   1      40.390  25.477  28.042  1.00  0.00     0.029 A 
ATOM     44  C   UNL A   1      41.799  25.739  28.311  1.00  0.00     0.049 A 
ATOM     45  H   UNL A   1      42.630  27.446  29.169  1.00  0.00     0.167 HD
ATOM     46  C   UNL A   1      44.299  31.242  30.547  1.00  0.00     0.037 A 
ATOM     47  C   UNL A   1      42.812  24.892  28.043  1.00  0.00     0.037 A 
ATOM     48  C   UNL A   1      45.424  30.353  30.431  1.00  0.00     0.049 A 
ATOM     49  C   UNL A   1      44.222  25.309  28.352  1.00  0.00     0.074 A 
ATOM     50  C   UNL A   1      46.741  30.581  30.792  1.00  0.00     0.029 A 
ATOM     51  N   UNL A   1      45.369  29.071  29.909  1.00  0.00    -0.354 N 
ATOM     52  N   UNL A   1      44.657  26.432  28.869  1.00  0.00    -0.248 NA
ATOM     53  C   UNL A   1      45.285  24.342  28.037  1.00  0.00     0.031 C 
ATOM     54  C   UNL A   1      47.492  29.454  30.444  1.00  0.00     0.029 A 
ATOM     55  C   UNL A   1      46.635  28.510  29.903  1.00  0.00     0.049 A 
ATOM     56  H   UNL A   1      44.551  28.625  29.588  1.00  0.00     0.167 HD
ATOM     57  C   UNL A   1      46.036  26.302  28.955  1.00  0.00     0.074 A 
ATOM     58  C   UNL A   1      46.366  24.984  28.456  1.00  0.00     0.031 C 
ATOM     59  C   UNL A   1      46.948  27.198  29.402  1.00  0.00     0.037 A 
BRANCH  46  60
ATOM     60  C   UNL A   1      44.563  32.642  31.012  1.00  0.00     0.057 A 
ATOM     61  C   UNL A   1      44.780  33.690  30.109  1.00  0.00     0.134 A 
ATOM     62  C   UNL A   1      44.517  32.960  32.375  1.00  0.00     0.134 A 
ATOM     63  F   UNL A   1      44.843  33.448  28.791  1.00  0.00    -0.206 F 
ATOM     64  C   UNL A   1      44.949  35.003  30.546  1.00  0.00     0.040 A 
ATOM     65  C   UNL A   1      44.665  34.273  32.823  1.00  0.00     0.040 A 
ATOM     66  F   UNL A   1      44.308  32.002  33.291  1.00  0.00    -0.206 F 
ATOM     67  C   UNL A   1      44.882  35.300  31.906  1.00  0.00     0.006 A 
ENDBRANCH  46  60
BRANCH  47  68
ATOM     68  C   UNL A   1      42.538  23.570  27.427  1.00  0.00     0.057 A 
ATOM     69  C   UNL A   1      42.542  23.403  26.038  1.00  0.00     0.134 A 
ATOM     70  C   UNL A   1      42.234  22.450  28.212  1.00  0.00     0.134 A 
ATOM     71  F   UNL A   1      42.804  24.445  25.235  1.00  0.00    -0.206 F 
ATOM     72  C   UNL A   1      42.231  22.177  25.448  1.00  0.00     0.040 A 
ATOM     73  C   UNL A   1      41.946  21.211  27.636  1.00  0.00     0.040 A 
ATOM     74  F   UNL A   1      42.219  22.543  29.549  1.00  0.00    -0.206 F 
ATOM     75  C   UNL A   1      41.935  21.076  26.249  1.00  0.00     0.006 A 
ENDBRANCH  47  68
BRANCH  59  76
ATOM     76  C   UNL A   1      48.386  26.778  29.382  1.00  0.00     0.057 A 
ATOM     77  C   UNL A   1      49.233  27.116  28.319  1.00  0.00     0.134 A 
ATOM     78  C   UNL A   1      48.942  26.067  30.454  1.00  0.00     0.134 A 
ATOM     79  F   UNL A   1      48.757  27.782  27.256  1.00  0.00    -0.206 F 
ATOM     80  C   UNL A   1      50.579  26.747  28.315  1.00  0.00     0.040 A 
ATOM     81  C   UNL A   1      50.291  25.714  30.472  1.00  0.00     0.040 A 
ATOM     82  F   UNL A   1      48.184  25.720  31.505  1.00  0.00    -0.206 F 
ATOM     83  C   UNL A   1      51.113  26.051  29.399  1.00  0.00     0.006 A 
ENDBRANCH  59  76
ENDBRANCH  33  34
ENDBRANCH  25  28
ENDBRANCH  23  24
ENDBRANCH  22  23
ENDBRANCH   1  22
TORSDOF 14
ENDMDL
