MODEL 1
REMARK VINA RESULT:     -11.6      0.000      0.000
REMARK SMILES CC(C)(CNC(=O)[C@H]1CCC[C@H](C(=O)NCCCCNC(=O)c2ccc(-c3c4nc(c(-c5c(F)cccc5F)c5ccc([nH]5)c(-c5c(F)cccc5F)c5nc(c(-c6c(F)cccc6F)c6ccc3[nH]6)C=C5)C=C4)cc2)C1)S(C)(=O)=O
REMARK SMILES IDX 16 1 15 2 13 3 14 4 12 6 8 7 9 8 77 9 10 10 11 11 6 12 5 13
REMARK SMILES IDX 7 15 4 16 2 17 1 18 3 19 78 20 79 21 80 22 81 23 17 24 18 25
REMARK SMILES IDX 19 26 20 27 21 28 22 30 23 31 24 32 76 33 25 34 75 35 26 36
REMARK SMILES IDX 27 37 28 38 69 39 29 40 74 41 68 42 70 43 30 44 73 45 67 46
REMARK SMILES IDX 66 47 31 49 57 50 40 51 56 52 41 53 44 54 55 55 71 56 42 57
REMARK SMILES IDX 43 58 54 60 72 61 45 62 32 63 33 64 38 65 34 66 35 67 37 68
REMARK SMILES IDX 39 69 36 70 58 71 59 72 64 73 60 74 61 75 63 76 65 77 62 78
REMARK SMILES IDX 46 79 47 80 52 81 48 82 49 83 51 84 53 85 50 86
REMARK H PARENT 15 5 5 14 20 29 70 48 44 59
REMARK Flexibility Score: inf
ROOT
ATOM      1  C   UNL A   1      33.323  29.579  26.159  1.00  0.00     0.116 C 
ENDROOT
BRANCH   1   2
ATOM      2  N   UNL A   1      33.165  29.654  24.731  1.00  0.00    -0.356 N 
ATOM      3  C   UNL A   1      32.549  28.797  23.890  1.00  0.00     0.223 C 
ATOM      4  O   UNL A   1      32.664  29.020  22.680  1.00  0.00    -0.275 OA
ATOM      5  H   UNL A   1      33.567  30.447  24.306  1.00  0.00     0.163 HD
BRANCH   3   6
ATOM      6  C   UNL A   1      31.650  27.653  24.366  1.00  0.00     0.079 C 
ATOM      7  C   UNL A   1      31.618  25.037  24.519  1.00  0.00     0.079 C 
ATOM      8  C   UNL A   1      30.327  25.048  23.706  1.00  0.00     0.013 C 
ATOM      9  C   UNL A   1      32.424  26.327  24.318  1.00  0.00     0.027 C 
ATOM     10  C   UNL A   1      29.453  26.251  23.988  1.00  0.00     0.002 C 
ATOM     11  C   UNL A   1      30.187  27.588  23.885  1.00  0.00     0.013 C 
BRANCH   7  12
ATOM     12  C   UNL A   1      31.457  24.424  25.936  1.00  0.00     0.223 C 
ATOM     13  N   UNL A   1      31.686  23.115  26.263  1.00  0.00    -0.354 N 
ATOM     14  H   UNL A   1      31.698  22.900  27.224  1.00  0.00     0.163 HD
ATOM     15  O   UNL A   1      31.165  25.166  26.882  1.00  0.00    -0.275 OA
BRANCH  13  16
ATOM     16  C   UNL A   1      31.913  22.020  25.362  1.00  0.00     0.138 C 
BRANCH  16  17
ATOM     17  C   UNL A   1      33.309  21.592  24.900  1.00  0.00     0.084 C 
ATOM     18  C   UNL A   1      33.409  20.094  24.636  1.00  0.00     0.030 C 
ATOM     19  C   UNL A   1      33.564  22.356  23.571  1.00  0.00     0.030 C 
BRANCH  17  20
ATOM     20  S   UNL A   1      34.609  22.148  26.065  1.00  0.00     0.154 S 
ATOM     21  C   UNL A   1      36.116  21.325  25.601  1.00  0.00     0.158 C 
ATOM     22  O   UNL A   1      34.824  23.566  25.847  1.00  0.00    -0.229 OA
ATOM     23  O   UNL A   1      34.259  21.679  27.393  1.00  0.00    -0.229 OA
ENDBRANCH  17  20
ENDBRANCH  16  17
ENDBRANCH  13  16
ENDBRANCH   7  12
ENDBRANCH   3   6
ENDBRANCH   1   2
BRANCH   1  24
ATOM     24  C   UNL A   1      32.057  30.090  26.865  1.00  0.00     0.023 C 
BRANCH  24  25
ATOM     25  C   UNL A   1      31.801  31.585  26.710  1.00  0.00     0.023 C 
BRANCH  25  26
ATOM     26  C   UNL A   1      32.924  32.458  27.232  1.00  0.00     0.116 C 
BRANCH  26  27
ATOM     27  N   UNL A   1      32.485  33.803  27.580  1.00  0.00    -0.352 N 
ATOM     28  C   UNL A   1      33.039  34.663  28.488  1.00  0.00     0.251 C 
ATOM     29  H   UNL A   1      31.690  34.134  27.102  1.00  0.00     0.163 HD
ATOM     30  O   UNL A   1      32.529  35.752  28.723  1.00  0.00    -0.269 OA
BRANCH  28  31
ATOM     31  C   UNL A   1      34.228  34.210  29.222  1.00  0.00     0.039 A 
ATOM     32  C   UNL A   1      34.046  33.332  30.287  1.00  0.00     0.014 A 
ATOM     33  C   UNL A   1      35.506  34.557  28.774  1.00  0.00     0.014 A 
ATOM     34  C   UNL A   1      35.162  32.747  30.875  1.00  0.00     0.010 A 
ATOM     35  C   UNL A   1      36.610  33.904  29.302  1.00  0.00     0.010 A 
ATOM     36  C   UNL A   1      36.445  33.001  30.361  1.00  0.00    -0.014 A 
BRANCH  36  37
ATOM     37  C   UNL A   1      37.622  32.309  30.929  1.00  0.00     0.031 A 
ATOM     38  C   UNL A   1      38.114  32.665  32.300  1.00  0.00     0.074 A 
ATOM     39  C   UNL A   1      38.260  31.385  30.188  1.00  0.00     0.049 A 
ATOM     40  N   UNL A   1      39.095  32.138  32.985  1.00  0.00    -0.248 NA
ATOM     41  C   UNL A   1      37.437  33.781  32.981  1.00  0.00     0.031 C 
ATOM     42  C   UNL A   1      37.917  31.021  28.810  1.00  0.00     0.029 A 
ATOM     43  N   UNL A   1      39.325  30.578  30.491  1.00  0.00    -0.354 N 
ATOM     44  C   UNL A   1      39.157  32.860  34.168  1.00  0.00     0.074 A 
ATOM     45  C   UNL A   1      38.161  33.905  34.083  1.00  0.00     0.031 C 
ATOM     46  C   UNL A   1      38.732  30.036  28.402  1.00  0.00     0.029 A 
ATOM     47  C   UNL A   1      39.665  29.716  29.477  1.00  0.00     0.049 A 
ATOM     48  H   UNL A   1      39.801  30.613  31.351  1.00  0.00     0.167 HD
ATOM     49  C   UNL A   1      39.954  32.652  35.242  1.00  0.00     0.037 A 
ATOM     50  C   UNL A   1      40.615  28.766  29.430  1.00  0.00     0.037 A 
ATOM     51  C   UNL A   1      40.928  31.595  35.322  1.00  0.00     0.049 A 
ATOM     52  C   UNL A   1      41.461  28.526  30.648  1.00  0.00     0.074 A 
ATOM     53  C   UNL A   1      41.734  31.245  36.390  1.00  0.00     0.029 A 
ATOM     54  N   UNL A   1      41.232  30.724  34.286  1.00  0.00    -0.354 N 
ATOM     55  N   UNL A   1      41.443  29.148  31.802  1.00  0.00    -0.248 NA
ATOM     56  C   UNL A   1      42.447  27.442  30.562  1.00  0.00     0.031 C 
ATOM     57  C   UNL A   1      42.561  30.191  35.982  1.00  0.00     0.029 A 
ATOM     58  C   UNL A   1      42.233  29.852  34.679  1.00  0.00     0.049 A 
ATOM     59  H   UNL A   1      40.800  30.726  33.401  1.00  0.00     0.167 HD
ATOM     60  C   UNL A   1      42.403  28.523  32.586  1.00  0.00     0.074 A 
ATOM     61  C   UNL A   1      42.964  27.455  31.783  1.00  0.00     0.031 C 
ATOM     62  C   UNL A   1      42.788  28.807  33.856  1.00  0.00     0.037 A 
BRANCH  49  63
ATOM     63  C   UNL A   1      39.798  33.587  36.405  1.00  0.00     0.057 A 
ATOM     64  C   UNL A   1      38.898  33.328  37.449  1.00  0.00     0.134 A 
ATOM     65  C   UNL A   1      40.559  34.759  36.486  1.00  0.00     0.134 A 
ATOM     66  F   UNL A   1      38.125  32.232  37.426  1.00  0.00    -0.206 F 
ATOM     67  C   UNL A   1      38.738  34.218  38.514  1.00  0.00     0.040 A 
ATOM     68  C   UNL A   1      40.429  35.641  37.560  1.00  0.00     0.040 A 
ATOM     69  F   UNL A   1      41.439  35.069  35.522  1.00  0.00    -0.206 F 
ATOM     70  C   UNL A   1      39.509  35.376  38.574  1.00  0.00     0.006 A 
ENDBRANCH  49  63
BRANCH  50  71
ATOM     71  C   UNL A   1      40.778  27.947  28.204  1.00  0.00     0.057 A 
ATOM     72  C   UNL A   1      40.126  26.717  28.061  1.00  0.00     0.134 A 
ATOM     73  C   UNL A   1      41.574  28.383  27.137  1.00  0.00     0.134 A 
ATOM     74  F   UNL A   1      39.361  26.241  29.055  1.00  0.00    -0.206 F 
ATOM     75  C   UNL A   1      40.269  25.943  26.909  1.00  0.00     0.040 A 
ATOM     76  C   UNL A   1      41.707  27.630  25.970  1.00  0.00     0.040 A 
ATOM     77  F   UNL A   1      42.215  29.558  27.208  1.00  0.00    -0.206 F 
ATOM     78  C   UNL A   1      41.058  26.402  25.857  1.00  0.00     0.006 A 
ENDBRANCH  50  71
BRANCH  62  79
ATOM     79  C   UNL A   1      43.860  27.939  34.446  1.00  0.00     0.057 A 
ATOM     80  C   UNL A   1      43.565  26.717  35.064  1.00  0.00     0.134 A 
ATOM     81  C   UNL A   1      45.205  28.325  34.385  1.00  0.00     0.134 A 
ATOM     82  F   UNL A   1      42.294  26.296  35.166  1.00  0.00    -0.206 F 
ATOM     83  C   UNL A   1      44.565  25.925  35.630  1.00  0.00     0.040 A 
ATOM     84  C   UNL A   1      46.218  27.528  34.921  1.00  0.00     0.040 A 
ATOM     85  F   UNL A   1      45.558  29.478  33.798  1.00  0.00    -0.206 F 
ATOM     86  C   UNL A   1      45.897  26.329  35.555  1.00  0.00     0.006 A 
ENDBRANCH  62  79
ENDBRANCH  36  37
ENDBRANCH  28  31
ENDBRANCH  26  27
ENDBRANCH  25  26
ENDBRANCH  24  25
ENDBRANCH   1  24
TORSDOF 15
ENDMDL
MODEL 2
REMARK VINA RESULT:     -11.6      4.831     10.178
REMARK SMILES CC(C)(CNC(=O)[C@H]1CCC[C@H](C(=O)NCCCCNC(=O)c2ccc(-c3c4nc(c(-c5c(F)cccc5F)c5ccc([nH]5)c(-c5c(F)cccc5F)c5nc(c(-c6c(F)cccc6F)c6ccc3[nH]6)C=C5)C=C4)cc2)C1)S(C)(=O)=O
REMARK SMILES IDX 16 1 15 2 13 3 14 4 12 6 8 7 9 8 77 9 10 10 11 11 6 12 5 13
REMARK SMILES IDX 7 15 4 16 2 17 1 18 3 19 78 20 79 21 80 22 81 23 17 24 18 25
REMARK SMILES IDX 19 26 20 27 21 28 22 30 23 31 24 32 76 33 25 34 75 35 26 36
REMARK SMILES IDX 27 37 28 38 69 39 29 40 74 41 68 42 70 43 30 44 73 45 67 46
REMARK SMILES IDX 66 47 31 49 57 50 40 51 56 52 41 53 44 54 55 55 71 56 42 57
REMARK SMILES IDX 43 58 54 60 72 61 45 62 32 63 33 64 38 65 34 66 35 67 37 68
REMARK SMILES IDX 39 69 36 70 58 71 59 72 64 73 60 74 61 75 63 76 65 77 62 78
REMARK SMILES IDX 46 79 47 80 52 81 48 82 49 83 51 84 53 85 50 86
REMARK H PARENT 15 5 5 14 20 29 70 48 44 59
REMARK Flexibility Score: inf
ROOT
ATOM      1  C   UNL A   1      36.886  22.422  25.714  1.00  0.00     0.116 C 
ENDROOT
BRANCH   1   2
ATOM      2  N   UNL A   1      35.811  21.778  26.422  1.00  0.00    -0.356 N 
ATOM      3  C   UNL A   1      34.489  21.771  26.148  1.00  0.00     0.223 C 
ATOM      4  O   UNL A   1      33.747  21.249  26.989  1.00  0.00    -0.275 OA
ATOM      5  H   UNL A   1      36.079  21.270  27.221  1.00  0.00     0.163 HD
BRANCH   3   6
ATOM      6  C   UNL A   1      33.901  22.274  24.828  1.00  0.00     0.079 C 
ATOM      7  C   UNL A   1      32.447  24.238  23.881  1.00  0.00     0.079 C 
ATOM      8  C   UNL A   1      31.467  23.197  23.345  1.00  0.00     0.013 C 
ATOM      9  C   UNL A   1      33.301  23.674  25.024  1.00  0.00     0.027 C 
ATOM     10  C   UNL A   1      32.140  21.915  22.903  1.00  0.00     0.002 C 
ATOM     11  C   UNL A   1      33.074  21.312  23.952  1.00  0.00     0.013 C 
BRANCH   7  12
ATOM     12  C   UNL A   1      33.094  25.113  22.774  1.00  0.00     0.223 C 
ATOM     13  N   UNL A   1      32.614  26.316  22.335  1.00  0.00    -0.354 N 
ATOM     14  H   UNL A   1      33.207  26.834  21.743  1.00  0.00     0.163 HD
ATOM     15  O   UNL A   1      34.169  24.754  22.277  1.00  0.00    -0.275 OA
BRANCH  13  16
ATOM     16  C   UNL A   1      31.342  26.909  22.639  1.00  0.00     0.138 C 
BRANCH  16  17
ATOM     17  C   UNL A   1      31.135  27.902  23.787  1.00  0.00     0.084 C 
ATOM     18  C   UNL A   1      30.155  29.016  23.434  1.00  0.00     0.030 C 
ATOM     19  C   UNL A   1      30.551  27.070  24.963  1.00  0.00     0.030 C 
BRANCH  17  20
ATOM     20  S   UNL A   1      32.725  28.585  24.387  1.00  0.00     0.154 S 
ATOM     21  C   UNL A   1      32.338  29.913  25.505  1.00  0.00     0.158 C 
ATOM     22  O   UNL A   1      33.383  27.557  25.172  1.00  0.00    -0.229 OA
ATOM     23  O   UNL A   1      33.423  29.171  23.257  1.00  0.00    -0.229 OA
ENDBRANCH  17  20
ENDBRANCH  16  17
ENDBRANCH  13  16
ENDBRANCH   7  12
ENDBRANCH   3   6
ENDBRANCH   1   2
BRANCH   1  24
ATOM     24  C   UNL A   1      37.391  21.524  24.575  1.00  0.00     0.023 C 
BRANCH  24  25
ATOM     25  C   UNL A   1      38.028  20.214  25.030  1.00  0.00     0.023 C 
BRANCH  25  26
ATOM     26  C   UNL A   1      39.268  20.398  25.881  1.00  0.00     0.116 C 
BRANCH  26  27
ATOM     27  N   UNL A   1      40.183  19.267  25.804  1.00  0.00    -0.352 N 
ATOM     28  C   UNL A   1      41.526  19.249  26.068  1.00  0.00     0.251 C 
ATOM     29  H   UNL A   1      39.786  18.409  25.528  1.00  0.00     0.163 HD
ATOM     30  O   UNL A   1      42.190  18.233  25.906  1.00  0.00    -0.269 OA
BRANCH  28  31
ATOM     31  C   UNL A   1      42.158  20.508  26.485  1.00  0.00     0.039 A 
ATOM     32  C   UNL A   1      42.590  21.385  25.494  1.00  0.00     0.014 A 
ATOM     33  C   UNL A   1      42.202  20.859  27.838  1.00  0.00     0.014 A 
ATOM     34  C   UNL A   1      43.019  22.656  25.860  1.00  0.00     0.010 A 
ATOM     35  C   UNL A   1      42.543  22.155  28.191  1.00  0.00     0.010 A 
ATOM     36  C   UNL A   1      42.962  23.059  27.205  1.00  0.00    -0.014 A 
BRANCH  36  37
ATOM     37  C   UNL A   1      43.333  24.440  27.582  1.00  0.00     0.031 A 
ATOM     38  C   UNL A   1      44.765  24.878  27.517  1.00  0.00     0.074 A 
ATOM     39  C   UNL A   1      42.376  25.281  28.013  1.00  0.00     0.049 A 
ATOM     40  N   UNL A   1      45.278  26.056  27.759  1.00  0.00    -0.248 NA
ATOM     41  C   UNL A   1      45.760  23.851  27.164  1.00  0.00     0.031 C 
ATOM     42  C   UNL A   1      40.963  24.935  28.196  1.00  0.00     0.029 A 
ATOM     43  N   UNL A   1      42.443  26.603  28.370  1.00  0.00    -0.354 N 
ATOM     44  C   UNL A   1      46.648  25.911  27.596  1.00  0.00     0.074 A 
ATOM     45  C   UNL A   1      46.896  24.517  27.300  1.00  0.00     0.031 C 
ATOM     46  C   UNL A   1      40.292  26.027  28.592  1.00  0.00     0.029 A 
ATOM     47  C   UNL A   1      41.227  27.140  28.714  1.00  0.00     0.049 A 
ATOM     48  H   UNL A   1      43.282  27.117  28.379  1.00  0.00     0.167 HD
ATOM     49  C   UNL A   1      47.610  26.860  27.658  1.00  0.00     0.037 A 
ATOM     50  C   UNL A   1      40.905  28.396  29.073  1.00  0.00     0.037 A 
ATOM     51  C   UNL A   1      47.347  28.248  27.934  1.00  0.00     0.049 A 
ATOM     52  C   UNL A   1      41.983  29.442  29.096  1.00  0.00     0.074 A 
ATOM     53  C   UNL A   1      48.235  29.308  27.945  1.00  0.00     0.029 A 
ATOM     54  N   UNL A   1      46.101  28.765  28.256  1.00  0.00    -0.354 N 
ATOM     55  N   UNL A   1      43.263  29.315  28.840  1.00  0.00    -0.248 NA
ATOM     56  C   UNL A   1      41.569  30.806  29.443  1.00  0.00     0.031 C 
ATOM     57  C   UNL A   1      47.533  30.459  28.321  1.00  0.00     0.029 A 
ATOM     58  C   UNL A   1      46.199  30.125  28.494  1.00  0.00     0.049 A 
ATOM     59  H   UNL A   1      45.269  28.241  28.308  1.00  0.00     0.167 HD
ATOM     60  C   UNL A   1      43.806  30.585  28.979  1.00  0.00     0.074 A 
ATOM     61  C   UNL A   1      42.709  31.471  29.315  1.00  0.00     0.031 C 
ATOM     62  C   UNL A   1      45.096  30.984  28.843  1.00  0.00     0.037 A 
BRANCH  49  63
ATOM     63  C   UNL A   1      49.026  26.421  27.424  1.00  0.00     0.057 A 
ATOM     64  C   UNL A   1      49.865  26.032  28.478  1.00  0.00     0.134 A 
ATOM     65  C   UNL A   1      49.557  26.382  26.129  1.00  0.00     0.134 A 
ATOM     66  F   UNL A   1      49.426  26.063  29.745  1.00  0.00    -0.206 F 
ATOM     67  C   UNL A   1      51.191  25.653  28.255  1.00  0.00     0.040 A 
ATOM     68  C   UNL A   1      50.871  25.976  25.891  1.00  0.00     0.040 A 
ATOM     69  F   UNL A   1      48.809  26.741  25.075  1.00  0.00    -0.206 F 
ATOM     70  C   UNL A   1      51.695  25.618  26.957  1.00  0.00     0.006 A 
ENDBRANCH  49  63
BRANCH  50  71
ATOM     71  C   UNL A   1      39.496  28.733  29.390  1.00  0.00     0.057 A 
ATOM     72  C   UNL A   1      38.623  29.206  28.403  1.00  0.00     0.134 A 
ATOM     73  C   UNL A   1      38.981  28.571  30.682  1.00  0.00     0.134 A 
ATOM     74  F   UNL A   1      39.063  29.394  27.149  1.00  0.00    -0.206 F 
ATOM     75  C   UNL A   1      37.295  29.520  28.691  1.00  0.00     0.040 A 
ATOM     76  C   UNL A   1      37.648  28.859  30.978  1.00  0.00     0.040 A 
ATOM     77  F   UNL A   1      39.763  28.110  31.669  1.00  0.00    -0.206 F 
ATOM     78  C   UNL A   1      36.803  29.341  29.982  1.00  0.00     0.006 A 
ENDBRANCH  50  71
BRANCH  62  79
ATOM     79  C   UNL A   1      45.376  32.443  29.052  1.00  0.00     0.057 A 
ATOM     80  C   UNL A   1      45.751  32.952  30.302  1.00  0.00     0.134 A 
ATOM     81  C   UNL A   1      45.281  33.348  27.987  1.00  0.00     0.134 A 
ATOM     82  F   UNL A   1      45.848  32.139  31.366  1.00  0.00    -0.206 F 
ATOM     83  C   UNL A   1      45.990  34.313  30.494  1.00  0.00     0.040 A 
ATOM     84  C   UNL A   1      45.546  34.707  28.160  1.00  0.00     0.040 A 
ATOM     85  F   UNL A   1      44.937  32.925  26.762  1.00  0.00    -0.206 F 
ATOM     86  C   UNL A   1      45.891  35.194  29.419  1.00  0.00     0.006 A 
ENDBRANCH  62  79
ENDBRANCH  36  37
ENDBRANCH  28  31
ENDBRANCH  26  27
ENDBRANCH  25  26
ENDBRANCH  24  25
ENDBRANCH   1  24
TORSDOF 15
ENDMDL
MODEL 3
REMARK VINA RESULT:     -11.3      4.958     10.343
REMARK SMILES CC(C)(CNC(=O)[C@H]1CCC[C@H](C(=O)NCCCCNC(=O)c2ccc(-c3c4nc(c(-c5c(F)cccc5F)c5ccc([nH]5)c(-c5c(F)cccc5F)c5nc(c(-c6c(F)cccc6F)c6ccc3[nH]6)C=C5)C=C4)cc2)C1)S(C)(=O)=O
REMARK SMILES IDX 16 1 15 2 13 3 14 4 12 6 8 7 9 8 77 9 10 10 11 11 6 12 5 13
REMARK SMILES IDX 7 15 4 16 2 17 1 18 3 19 78 20 79 21 80 22 81 23 17 24 18 25
REMARK SMILES IDX 19 26 20 27 21 28 22 30 23 31 24 32 76 33 25 34 75 35 26 36
REMARK SMILES IDX 27 37 28 38 69 39 29 40 74 41 68 42 70 43 30 44 73 45 67 46
REMARK SMILES IDX 66 47 31 49 57 50 40 51 56 52 41 53 44 54 55 55 71 56 42 57
REMARK SMILES IDX 43 58 54 60 72 61 45 62 32 63 33 64 38 65 34 66 35 67 37 68
REMARK SMILES IDX 39 69 36 70 58 71 59 72 64 73 60 74 61 75 63 76 65 77 62 78
REMARK SMILES IDX 46 79 47 80 52 81 48 82 49 83 51 84 53 85 50 86
REMARK H PARENT 15 5 5 14 20 29 70 48 44 59
REMARK Flexibility Score: inf
ROOT
ATOM      1  C   UNL A   1      36.775  22.254  25.777  1.00  0.00     0.116 C 
ENDROOT
BRANCH   1   2
ATOM      2  N   UNL A   1      35.707  21.541  26.425  1.00  0.00    -0.356 N 
ATOM      3  C   UNL A   1      34.404  21.451  26.081  1.00  0.00     0.223 C 
ATOM      4  O   UNL A   1      33.653  20.880  26.880  1.00  0.00    -0.275 OA
ATOM      5  H   UNL A   1      35.963  21.049  27.238  1.00  0.00     0.163 HD
BRANCH   3   6
ATOM      6  C   UNL A   1      33.857  21.920  24.730  1.00  0.00     0.079 C 
ATOM      7  C   UNL A   1      32.439  23.861  23.688  1.00  0.00     0.079 C 
ATOM      8  C   UNL A   1      31.472  22.809  23.151  1.00  0.00     0.013 C 
ATOM      9  C   UNL A   1      33.256  23.326  24.871  1.00  0.00     0.027 C 
ATOM     10  C   UNL A   1      32.153  21.514  22.764  1.00  0.00     0.002 C 
ATOM     11  C   UNL A   1      33.054  20.936  23.856  1.00  0.00     0.013 C 
BRANCH   7  12
ATOM     12  C   UNL A   1      33.122  24.704  22.578  1.00  0.00     0.223 C 
ATOM     13  N   UNL A   1      33.652  25.954  22.747  1.00  0.00    -0.354 N 
ATOM     14  H   UNL A   1      34.192  26.305  22.001  1.00  0.00     0.163 HD
ATOM     15  O   UNL A   1      33.276  24.207  21.456  1.00  0.00    -0.275 OA
BRANCH  13  16
ATOM     16  C   UNL A   1      33.511  26.813  23.889  1.00  0.00     0.138 C 
BRANCH  16  17
ATOM     17  C   UNL A   1      32.708  28.117  23.862  1.00  0.00     0.084 C 
ATOM     18  C   UNL A   1      32.808  28.899  25.167  1.00  0.00     0.030 C 
ATOM     19  C   UNL A   1      33.325  28.967  22.716  1.00  0.00     0.030 C 
BRANCH  17  20
ATOM     20  S   UNL A   1      30.961  27.827  23.396  1.00  0.00     0.154 S 
ATOM     21  C   UNL A   1      30.122  29.392  23.500  1.00  0.00     0.158 C 
ATOM     22  O   UNL A   1      30.932  27.430  22.001  1.00  0.00    -0.229 OA
ATOM     23  O   UNL A   1      30.363  26.957  24.393  1.00  0.00    -0.229 OA
ENDBRANCH  17  20
ENDBRANCH  16  17
ENDBRANCH  13  16
ENDBRANCH   7  12
ENDBRANCH   3   6
ENDBRANCH   1   2
BRANCH   1  24
ATOM     24  C   UNL A   1      37.331  21.433  24.602  1.00  0.00     0.023 C 
BRANCH  24  25
ATOM     25  C   UNL A   1      38.020  20.133  25.003  1.00  0.00     0.023 C 
BRANCH  25  26
ATOM     26  C   UNL A   1      39.278  20.333  25.823  1.00  0.00     0.116 C 
BRANCH  26  27
ATOM     27  N   UNL A   1      40.191  19.200  25.751  1.00  0.00    -0.352 N 
ATOM     28  C   UNL A   1      41.537  19.183  25.997  1.00  0.00     0.251 C 
ATOM     29  H   UNL A   1      39.788  18.338  25.494  1.00  0.00     0.163 HD
ATOM     30  O   UNL A   1      42.197  18.163  25.842  1.00  0.00    -0.269 OA
BRANCH  28  31
ATOM     31  C   UNL A   1      42.176  20.447  26.386  1.00  0.00     0.039 A 
ATOM     32  C   UNL A   1      42.595  21.309  25.375  1.00  0.00     0.014 A 
ATOM     33  C   UNL A   1      42.241  20.818  27.732  1.00  0.00     0.014 A 
ATOM     34  C   UNL A   1      43.031  22.584  25.716  1.00  0.00     0.010 A 
ATOM     35  C   UNL A   1      42.589  22.119  28.061  1.00  0.00     0.010 A 
ATOM     36  C   UNL A   1      42.994  23.008  27.055  1.00  0.00    -0.014 A 
BRANCH  36  37
ATOM     37  C   UNL A   1      43.373  24.394  27.406  1.00  0.00     0.031 A 
ATOM     38  C   UNL A   1      44.797  24.841  27.269  1.00  0.00     0.074 A 
ATOM     39  C   UNL A   1      42.431  25.231  27.877  1.00  0.00     0.049 A 
ATOM     40  N   UNL A   1      45.312  26.024  27.479  1.00  0.00    -0.248 NA
ATOM     41  C   UNL A   1      45.781  23.819  26.875  1.00  0.00     0.031 C 
ATOM     42  C   UNL A   1      41.032  24.876  28.129  1.00  0.00     0.029 A 
ATOM     43  N   UNL A   1      42.506  26.555  28.222  1.00  0.00    -0.354 N 
ATOM     44  C   UNL A   1      46.674  25.888  27.252  1.00  0.00     0.074 A 
ATOM     45  C   UNL A   1      46.918  24.494  26.953  1.00  0.00     0.031 C 
ATOM     46  C   UNL A   1      40.372  25.965  28.551  1.00  0.00     0.029 A 
ATOM     47  C   UNL A   1      41.303  27.086  28.621  1.00  0.00     0.049 A 
ATOM     48  H   UNL A   1      43.340  27.074  28.188  1.00  0.00     0.167 HD
ATOM     49  C   UNL A   1      47.631  26.844  27.262  1.00  0.00     0.037 A 
ATOM     50  C   UNL A   1      40.990  28.341  28.987  1.00  0.00     0.037 A 
ATOM     51  C   UNL A   1      47.371  28.232  27.542  1.00  0.00     0.049 A 
ATOM     52  C   UNL A   1      42.059  29.395  28.953  1.00  0.00     0.074 A 
ATOM     53  C   UNL A   1      48.251  29.299  27.504  1.00  0.00     0.029 A 
ATOM     54  N   UNL A   1      46.138  28.742  27.920  1.00  0.00    -0.354 N 
ATOM     55  N   UNL A   1      43.327  29.276  28.637  1.00  0.00    -0.248 NA
ATOM     56  C   UNL A   1      41.653  30.759  29.311  1.00  0.00     0.031 C 
ATOM     57  C   UNL A   1      47.558  30.447  27.907  1.00  0.00     0.029 A 
ATOM     58  C   UNL A   1      46.236  30.105  28.145  1.00  0.00     0.049 A 
ATOM     59  H   UNL A   1      45.313  28.212  28.015  1.00  0.00     0.167 HD
ATOM     60  C   UNL A   1      43.866  30.550  28.742  1.00  0.00     0.074 A 
ATOM     61  C   UNL A   1      42.780  31.430  29.125  1.00  0.00     0.031 C 
ATOM     62  C   UNL A   1      45.145  30.958  28.542  1.00  0.00     0.037 A 
BRANCH  49  63
ATOM     63  C   UNL A   1      49.037  26.414  26.963  1.00  0.00     0.057 A 
ATOM     64  C   UNL A   1      49.541  26.384  25.656  1.00  0.00     0.134 A 
ATOM     65  C   UNL A   1      49.900  26.026  27.996  1.00  0.00     0.134 A 
ATOM     66  F   UNL A   1      48.762  26.724  24.618  1.00  0.00    -0.206 F 
ATOM     67  C   UNL A   1      50.842  25.954  25.383  1.00  0.00     0.040 A 
ATOM     68  C   UNL A   1      51.211  25.623  27.738  1.00  0.00     0.040 A 
ATOM     69  F   UNL A   1      49.483  26.031  29.271  1.00  0.00    -0.206 F 
ATOM     70  C   UNL A   1      51.683  25.578  26.427  1.00  0.00     0.006 A 
ENDBRANCH  49  63
BRANCH  50  71
ATOM     71  C   UNL A   1      39.595  28.670  29.370  1.00  0.00     0.057 A 
ATOM     72  C   UNL A   1      39.151  28.525  30.689  1.00  0.00     0.134 A 
ATOM     73  C   UNL A   1      38.677  29.156  28.431  1.00  0.00     0.134 A 
ATOM     74  F   UNL A   1      39.981  28.050  31.631  1.00  0.00    -0.206 F 
ATOM     75  C   UNL A   1      37.842  28.837  31.059  1.00  0.00     0.040 A 
ATOM     76  C   UNL A   1      37.372  29.494  28.791  1.00  0.00     0.040 A 
ATOM     77  F   UNL A   1      39.045  29.329  27.153  1.00  0.00    -0.206 F 
ATOM     78  C   UNL A   1      36.950  29.328  30.108  1.00  0.00     0.006 A 
ENDBRANCH  50  71
BRANCH  62  79
ATOM     79  C   UNL A   1      45.425  32.420  28.729  1.00  0.00     0.057 A 
ATOM     80  C   UNL A   1      45.258  33.343  27.688  1.00  0.00     0.134 A 
ATOM     81  C   UNL A   1      45.856  32.912  29.967  1.00  0.00     0.134 A 
ATOM     82  F   UNL A   1      44.859  32.933  26.473  1.00  0.00    -0.206 F 
ATOM     83  C   UNL A   1      45.540  34.698  27.862  1.00  0.00     0.040 A 
ATOM     84  C   UNL A   1      46.113  34.270  30.162  1.00  0.00     0.040 A 
ATOM     85  F   UNL A   1      46.026  32.084  31.008  1.00  0.00    -0.206 F 
ATOM     86  C   UNL A   1      45.966  35.165  29.105  1.00  0.00     0.006 A 
ENDBRANCH  62  79
ENDBRANCH  36  37
ENDBRANCH  28  31
ENDBRANCH  26  27
ENDBRANCH  25  26
ENDBRANCH  24  25
ENDBRANCH   1  24
TORSDOF 15
ENDMDL
