MODEL 1
REMARK VINA RESULT:     -13.3      0.000      0.000
REMARK SMILES C[N@@H+]1CCN(C(=O)c2ccc3[nH]c4c(c3c2)CSCC4)C[C@H]1C(=O)NCCCCNC(=O)c1ccc(-c2c3nc(c(-c4c(F)cccc4F)c4ccc([nH]4)c(-c4c(F)cccc4F)c4nc(c(-c5c(F)cccc5F)c5ccc2[nH]5)C=C4)C=C3)cc1
REMARK SMILES IDX 27 1 26 2 25 3 23 4 24 5 22 7 1 8 2 9 3 10 4 12 21 13 5 14
REMARK SMILES IDX 6 15 7 16 8 17 9 18 16 19 10 20 15 21 11 22 14 23 12 24
REMARK SMILES IDX 13 25 17 26 20 28 18 29 19 30 28 31 29 32 30 33 31 34 32 36
REMARK SMILES IDX 33 37 34 38 86 39 35 40 85 41 36 42 37 43 38 44 79 45 39 46
REMARK SMILES IDX 84 47 78 48 80 49 40 50 83 51 77 52 76 53 41 55 67 56 50 57
REMARK SMILES IDX 66 58 51 59 54 60 65 61 81 62 52 63 53 64 64 66 82 67 55 68
REMARK SMILES IDX 42 69 43 70 48 71 44 72 45 73 47 74 49 75 46 76 68 77 69 78
REMARK SMILES IDX 74 79 70 80 71 81 73 82 75 83 72 84 56 85 57 86 62 87 58 88
REMARK SMILES IDX 59 89 61 90 63 91 60 92
REMARK H PARENT 25 6 2 11 12 27 30 35 80 54 54 65
REMARK Flexibility Score: inf
ROOT
ATOM      1  C   UNL A   1      32.528  29.928  27.135  1.00  0.00     0.023 C 
ENDROOT
BRANCH   1   2
ATOM      2  C   UNL A   1      31.977  30.243  25.752  1.00  0.00     0.116 C 
BRANCH   2   3
ATOM      3  N   UNL A   1      32.838  29.751  24.691  1.00  0.00    -0.351 N 
ATOM      4  C   UNL A   1      32.814  28.549  24.045  1.00  0.00     0.280 C 
ATOM      5  O   UNL A   1      33.656  28.350  23.164  1.00  0.00    -0.268 OA
ATOM      6  H   UNL A   1      33.540  30.374  24.395  1.00  0.00     0.163 HD
BRANCH   4   7
ATOM      7  C   UNL A   1      31.748  27.490  24.363  1.00  0.00     0.293 C 
ATOM      8  C   UNL A   1      30.142  28.352  22.734  1.00  0.00     0.333 C 
ATOM      9  N   UNL A   1      30.892  27.174  23.179  1.00  0.00    -0.324 N 
ATOM     10  C   UNL A   1      29.955  26.083  23.532  1.00  0.00     0.284 C 
ATOM     11  H   UNL A   1      31.495  26.880  22.412  1.00  0.00     0.348 HD
ATOM     12  C   UNL A   1      30.668  24.830  24.070  1.00  0.00     0.181 C 
ATOM     13  C   UNL A   1      32.466  26.259  24.958  1.00  0.00     0.195 C 
ATOM     14  N   UNL A   1      31.552  25.137  25.197  1.00  0.00    -0.326 N 
BRANCH  14  15
ATOM     15  C   UNL A   1      31.692  24.199  26.213  1.00  0.00     0.254 C 
ATOM     16  O   UNL A   1      30.959  24.160  27.206  1.00  0.00    -0.269 OA
BRANCH  15  17
ATOM     17  C   UNL A   1      32.739  23.164  26.095  1.00  0.00     0.040 A 
ATOM     18  C   UNL A   1      33.984  23.334  26.706  1.00  0.00     0.016 A 
ATOM     19  C   UNL A   1      32.440  22.004  25.366  1.00  0.00     0.024 A 
ATOM     20  C   UNL A   1      34.995  22.386  26.536  1.00  0.00     0.027 A 
ATOM     21  C   UNL A   1      33.439  21.024  25.207  1.00  0.00     0.004 A 
ATOM     22  C   UNL A   1      34.694  21.246  25.782  1.00  0.00     0.046 A 
ATOM     23  C   UNL A   1      33.479  19.745  24.570  1.00  0.00    -0.009 A 
ATOM     24  N   UNL A   1      35.482  20.162  25.467  1.00  0.00    -0.358 N 
ATOM     25  C   UNL A   1      34.749  19.238  24.778  1.00  0.00     0.021 A 
ATOM     26  C   UNL A   1      32.355  19.048  23.873  1.00  0.00     0.107 C 
ATOM     27  H   UNL A   1      36.433  20.067  25.703  1.00  0.00     0.166 HD
ATOM     28  C   UNL A   1      35.273  17.909  24.354  1.00  0.00     0.065 C 
ATOM     29  S   UNL A   1      32.857  17.506  23.021  1.00  0.00    -0.157 SA
ATOM     30  C   UNL A   1      34.123  16.908  24.202  1.00  0.00     0.076 C 
ENDBRANCH  15  17
ENDBRANCH  14  15
ENDBRANCH   4   7
ENDBRANCH   2   3
ENDBRANCH   1   2
BRANCH   1  31
ATOM     31  C   UNL A   1      34.027  30.181  27.306  1.00  0.00     0.023 C 
BRANCH  31  32
ATOM     32  C   UNL A   1      34.410  31.613  27.690  1.00  0.00     0.116 C 
BRANCH  32  33
ATOM     33  N   UNL A   1      34.214  31.936  29.089  1.00  0.00    -0.352 N 
ATOM     34  C   UNL A   1      35.025  31.963  30.188  1.00  0.00     0.251 C 
ATOM     35  H   UNL A   1      33.285  32.197  29.293  1.00  0.00     0.163 HD
ATOM     36  O   UNL A   1      34.566  32.515  31.191  1.00  0.00    -0.269 OA
BRANCH  34  37
ATOM     37  C   UNL A   1      36.358  31.308  30.282  1.00  0.00     0.039 A 
ATOM     38  C   UNL A   1      37.587  31.958  30.206  1.00  0.00     0.014 A 
ATOM     39  C   UNL A   1      36.345  29.902  30.374  1.00  0.00     0.014 A 
ATOM     40  C   UNL A   1      38.761  31.224  30.089  1.00  0.00     0.010 A 
ATOM     41  C   UNL A   1      37.517  29.161  30.285  1.00  0.00     0.010 A 
ATOM     42  C   UNL A   1      38.720  29.827  30.088  1.00  0.00    -0.014 A 
BRANCH  42  43
ATOM     43  C   UNL A   1      39.992  29.115  30.032  1.00  0.00     0.031 A 
ATOM     44  C   UNL A   1      40.631  28.929  31.363  1.00  0.00     0.074 A 
ATOM     45  C   UNL A   1      40.523  28.595  28.906  1.00  0.00     0.049 A 
ATOM     46  N   UNL A   1      41.745  29.433  31.777  1.00  0.00    -0.248 NA
ATOM     47  C   UNL A   1      39.870  28.225  32.408  1.00  0.00     0.031 C 
ATOM     48  C   UNL A   1      39.910  28.479  27.584  1.00  0.00     0.029 A 
ATOM     49  N   UNL A   1      41.726  27.974  28.738  1.00  0.00    -0.354 N 
ATOM     50  C   UNL A   1      41.927  28.962  33.075  1.00  0.00     0.074 A 
ATOM     51  C   UNL A   1      40.680  28.356  33.459  1.00  0.00     0.031 C 
ATOM     52  C   UNL A   1      40.643  27.628  26.826  1.00  0.00     0.029 A 
ATOM     53  C   UNL A   1      41.835  27.239  27.563  1.00  0.00     0.049 A 
ATOM     54  H   UNL A   1      42.456  28.041  29.394  1.00  0.00     0.167 HD
ATOM     55  C   UNL A   1      43.167  28.918  33.636  1.00  0.00     0.037 A 
ATOM     56  C   UNL A   1      42.802  26.336  27.253  1.00  0.00     0.037 A 
ATOM     57  C   UNL A   1      44.079  29.789  32.936  1.00  0.00     0.049 A 
ATOM     58  C   UNL A   1      43.964  26.596  28.142  1.00  0.00     0.074 A 
ATOM     59  C   UNL A   1      44.108  31.143  32.658  1.00  0.00     0.029 A 
ATOM     60  N   UNL A   1      44.987  29.217  32.080  1.00  0.00    -0.354 N 
ATOM     61  N   UNL A   1      44.745  27.634  28.025  1.00  0.00    -0.248 NA
ATOM     62  C   UNL A   1      43.973  25.955  29.450  1.00  0.00     0.031 C 
ATOM     63  C   UNL A   1      44.634  31.235  31.336  1.00  0.00     0.029 A 
ATOM     64  C   UNL A   1      44.964  29.946  30.921  1.00  0.00     0.049 A 
ATOM     65  H   UNL A   1      45.549  28.430  32.265  1.00  0.00     0.167 HD
ATOM     66  C   UNL A   1      44.964  28.051  29.328  1.00  0.00     0.074 A 
ATOM     67  C   UNL A   1      44.539  26.931  30.166  1.00  0.00     0.031 C 
ATOM     68  C   UNL A   1      45.187  29.366  29.620  1.00  0.00     0.037 A 
BRANCH  55  69
ATOM     69  C   UNL A   1      43.662  27.799  34.526  1.00  0.00     0.057 A 
ATOM     70  C   UNL A   1      43.813  27.898  35.924  1.00  0.00     0.134 A 
ATOM     71  C   UNL A   1      43.656  26.483  34.023  1.00  0.00     0.134 A 
ATOM     72  F   UNL A   1      43.827  29.068  36.571  1.00  0.00    -0.206 F 
ATOM     73  C   UNL A   1      43.858  26.780  36.761  1.00  0.00     0.040 A 
ATOM     74  C   UNL A   1      43.652  25.358  34.856  1.00  0.00     0.040 A 
ATOM     75  F   UNL A   1      43.546  26.249  32.706  1.00  0.00    -0.206 F 
ATOM     76  C   UNL A   1      43.732  25.507  36.233  1.00  0.00     0.006 A 
ENDBRANCH  55  69
BRANCH  56  77
ATOM     77  C   UNL A   1      42.716  25.111  26.420  1.00  0.00     0.057 A 
ATOM     78  C   UNL A   1      41.982  23.987  26.836  1.00  0.00     0.134 A 
ATOM     79  C   UNL A   1      43.567  24.911  25.320  1.00  0.00     0.134 A 
ATOM     80  F   UNL A   1      41.198  24.032  27.921  1.00  0.00    -0.206 F 
ATOM     81  C   UNL A   1      42.093  22.740  26.209  1.00  0.00     0.040 A 
ATOM     82  C   UNL A   1      43.694  23.664  24.689  1.00  0.00     0.040 A 
ATOM     83  F   UNL A   1      44.346  25.904  24.869  1.00  0.00    -0.206 F 
ATOM     84  C   UNL A   1      42.962  22.570  25.140  1.00  0.00     0.006 A 
ENDBRANCH  56  77
BRANCH  68  85
ATOM     85  C   UNL A   1      45.452  30.315  28.487  1.00  0.00     0.057 A 
ATOM     86  C   UNL A   1      46.775  30.688  28.226  1.00  0.00     0.134 A 
ATOM     87  C   UNL A   1      44.452  30.965  27.747  1.00  0.00     0.134 A 
ATOM     88  F   UNL A   1      47.782  30.157  28.937  1.00  0.00    -0.206 F 
ATOM     89  C   UNL A   1      47.096  31.648  27.264  1.00  0.00     0.040 A 
ATOM     90  C   UNL A   1      44.763  31.897  26.752  1.00  0.00     0.040 A 
ATOM     91  F   UNL A   1      43.153  30.761  28.000  1.00  0.00    -0.206 F 
ATOM     92  C   UNL A   1      46.089  32.244  26.511  1.00  0.00     0.006 A 
ENDBRANCH  68  85
ENDBRANCH  42  43
ENDBRANCH  34  37
ENDBRANCH  32  33
ENDBRANCH  31  32
ENDBRANCH   1  31
TORSDOF 13
ENDMDL
MODEL 2
REMARK VINA RESULT:     -12.9      3.015      8.554
REMARK SMILES C[N@@H+]1CCN(C(=O)c2ccc3[nH]c4c(c3c2)CSCC4)C[C@H]1C(=O)NCCCCNC(=O)c1ccc(-c2c3nc(c(-c4c(F)cccc4F)c4ccc([nH]4)c(-c4c(F)cccc4F)c4nc(c(-c5c(F)cccc5F)c5ccc2[nH]5)C=C4)C=C3)cc1
REMARK SMILES IDX 27 1 26 2 25 3 23 4 24 5 22 7 1 8 2 9 3 10 4 12 21 13 5 14
REMARK SMILES IDX 6 15 7 16 8 17 9 18 16 19 10 20 15 21 11 22 14 23 12 24
REMARK SMILES IDX 13 25 17 26 20 28 18 29 19 30 28 31 29 32 30 33 31 34 32 36
REMARK SMILES IDX 33 37 34 38 86 39 35 40 85 41 36 42 37 43 38 44 79 45 39 46
REMARK SMILES IDX 84 47 78 48 80 49 40 50 83 51 77 52 76 53 41 55 67 56 50 57
REMARK SMILES IDX 66 58 51 59 54 60 65 61 81 62 52 63 53 64 64 66 82 67 55 68
REMARK SMILES IDX 42 69 43 70 48 71 44 72 45 73 47 74 49 75 46 76 68 77 69 78
REMARK SMILES IDX 74 79 70 80 71 81 73 82 75 83 72 84 56 85 57 86 62 87 58 88
REMARK SMILES IDX 59 89 61 90 63 91 60 92
REMARK H PARENT 25 6 2 11 12 27 30 35 80 54 54 65
REMARK Flexibility Score: inf
ROOT
ATOM      1  C   UNL A   1      38.711  21.303  25.533  1.00  0.00     0.023 C 
ENDROOT
BRANCH   1   2
ATOM      2  C   UNL A   1      37.382  21.874  25.057  1.00  0.00     0.116 C 
BRANCH   2   3
ATOM      3  N   UNL A   1      36.436  22.048  26.145  1.00  0.00    -0.351 N 
ATOM      4  C   UNL A   1      35.107  22.354  26.095  1.00  0.00     0.280 C 
ATOM      5  O   UNL A   1      34.497  22.452  27.164  1.00  0.00    -0.268 OA
ATOM      6  H   UNL A   1      36.807  21.928  27.049  1.00  0.00     0.163 HD
BRANCH   4   7
ATOM      7  C   UNL A   1      34.374  22.525  24.757  1.00  0.00     0.293 C 
ATOM      8  C   UNL A   1      33.523  20.233  24.720  1.00  0.00     0.333 C 
ATOM      9  N   UNL A   1      33.164  21.653  24.657  1.00  0.00    -0.324 N 
ATOM     10  C   UNL A   1      32.459  21.940  23.387  1.00  0.00     0.284 C 
ATOM     11  H   UNL A   1      32.553  21.855  25.448  1.00  0.00     0.348 HD
ATOM     12  C   UNL A   1      32.104  23.429  23.221  1.00  0.00     0.181 C 
ATOM     13  C   UNL A   1      34.075  24.028  24.569  1.00  0.00     0.195 C 
ATOM     14  N   UNL A   1      33.275  24.296  23.370  1.00  0.00    -0.326 N 
BRANCH  14  15
ATOM     15  C   UNL A   1      33.352  25.453  22.603  1.00  0.00     0.254 C 
ATOM     16  O   UNL A   1      33.706  25.460  21.420  1.00  0.00    -0.269 OA
BRANCH  15  17
ATOM     17  C   UNL A   1      32.955  26.742  23.206  1.00  0.00     0.040 A 
ATOM     18  C   UNL A   1      33.815  27.420  24.074  1.00  0.00     0.016 A 
ATOM     19  C   UNL A   1      31.700  27.267  22.871  1.00  0.00     0.024 A 
ATOM     20  C   UNL A   1      33.410  28.602  24.697  1.00  0.00     0.027 A 
ATOM     21  C   UNL A   1      31.285  28.474  23.467  1.00  0.00     0.004 A 
ATOM     22  C   UNL A   1      32.143  29.102  24.375  1.00  0.00     0.046 A 
ATOM     23  C   UNL A   1      30.119  29.291  23.344  1.00  0.00    -0.009 A 
ATOM     24  N   UNL A   1      31.502  30.235  24.822  1.00  0.00    -0.358 N 
ATOM     25  C   UNL A   1      30.307  30.379  24.176  1.00  0.00     0.021 A 
ATOM     26  C   UNL A   1      28.948  29.062  22.443  1.00  0.00     0.107 C 
ATOM     27  H   UNL A   1      31.853  30.851  25.506  1.00  0.00     0.166 HD
ATOM     28  C   UNL A   1      29.395  31.543  24.363  1.00  0.00     0.065 C 
ATOM     29  S   UNL A   1      27.566  30.233  22.715  1.00  0.00    -0.157 SA
ATOM     30  C   UNL A   1      28.525  31.742  23.118  1.00  0.00     0.076 C 
ENDBRANCH  15  17
ENDBRANCH  14  15
ENDBRANCH   4   7
ENDBRANCH   2   3
ENDBRANCH   1   2
BRANCH   1  31
ATOM     31  C   UNL A   1      39.520  22.227  26.445  1.00  0.00     0.023 C 
BRANCH  31  32
ATOM     32  C   UNL A   1      40.987  21.836  26.637  1.00  0.00     0.116 C 
BRANCH  32  33
ATOM     33  N   UNL A   1      41.868  22.244  25.561  1.00  0.00    -0.352 N 
ATOM     34  C   UNL A   1      42.676  23.324  25.344  1.00  0.00     0.251 C 
ATOM     35  H   UNL A   1      41.888  21.596  24.819  1.00  0.00     0.163 HD
ATOM     36  O   UNL A   1      43.469  23.230  24.404  1.00  0.00    -0.269 OA
BRANCH  34  37
ATOM     37  C   UNL A   1      42.605  24.609  26.090  1.00  0.00     0.039 A 
ATOM     38  C   UNL A   1      43.378  24.946  27.199  1.00  0.00     0.014 A 
ATOM     39  C   UNL A   1      41.606  25.509  25.668  1.00  0.00     0.014 A 
ATOM     40  C   UNL A   1      43.077  26.079  27.944  1.00  0.00     0.010 A 
ATOM     41  C   UNL A   1      41.316  26.658  26.393  1.00  0.00     0.010 A 
ATOM     42  C   UNL A   1      42.020  26.911  27.563  1.00  0.00    -0.014 A 
BRANCH  42  43
ATOM     43  C   UNL A   1      41.799  28.121  28.346  1.00  0.00     0.031 A 
ATOM     44  C   UNL A   1      42.866  29.145  28.178  1.00  0.00     0.074 A 
ATOM     45  C   UNL A   1      40.702  28.351  29.097  1.00  0.00     0.049 A 
ATOM     46  N   UNL A   1      43.693  29.572  29.074  1.00  0.00    -0.248 NA
ATOM     47  C   UNL A   1      43.149  29.640  26.822  1.00  0.00     0.031 C 
ATOM     48  C   UNL A   1      39.471  27.565  29.168  1.00  0.00     0.029 A 
ATOM     49  N   UNL A   1      40.432  29.412  29.910  1.00  0.00    -0.354 N 
ATOM     50  C   UNL A   1      44.484  30.530  28.446  1.00  0.00     0.074 A 
ATOM     51  C   UNL A   1      44.209  30.420  27.039  1.00  0.00     0.031 C 
ATOM     52  C   UNL A   1      38.513  28.294  29.789  1.00  0.00     0.029 A 
ATOM     53  C   UNL A   1      39.093  29.540  30.263  1.00  0.00     0.049 A 
ATOM     54  H   UNL A   1      41.126  30.036  30.222  1.00  0.00     0.167 HD
ATOM     55  C   UNL A   1      45.135  31.484  29.171  1.00  0.00     0.037 A 
ATOM     56  C   UNL A   1      38.503  30.616  30.847  1.00  0.00     0.037 A 
ATOM     57  C   UNL A   1      45.251  31.088  30.553  1.00  0.00     0.049 A 
ATOM     58  C   UNL A   1      39.574  31.435  31.471  1.00  0.00     0.074 A 
ATOM     59  C   UNL A   1      45.819  30.014  31.211  1.00  0.00     0.029 A 
ATOM     60  N   UNL A   1      44.408  31.676  31.464  1.00  0.00    -0.354 N 
ATOM     61  N   UNL A   1      40.226  31.077  32.542  1.00  0.00    -0.248 NA
ATOM     62  C   UNL A   1      40.244  32.424  30.636  1.00  0.00     0.031 C 
ATOM     63  C   UNL A   1      44.919  29.719  32.277  1.00  0.00     0.029 A 
ATOM     64  C   UNL A   1      43.905  30.675  32.251  1.00  0.00     0.049 A 
ATOM     65  H   UNL A   1      44.203  32.636  31.536  1.00  0.00     0.167 HD
ATOM     66  C   UNL A   1      41.543  31.416  32.275  1.00  0.00     0.074 A 
ATOM     67  C   UNL A   1      41.482  32.320  31.127  1.00  0.00     0.031 C 
ATOM     68  C   UNL A   1      42.577  30.705  32.812  1.00  0.00     0.037 A 
BRANCH  55  69
ATOM     69  C   UNL A   1      45.286  32.927  28.741  1.00  0.00     0.057 A 
ATOM     70  C   UNL A   1      46.500  33.517  28.338  1.00  0.00     0.134 A 
ATOM     71  C   UNL A   1      44.129  33.650  28.387  1.00  0.00     0.134 A 
ATOM     72  F   UNL A   1      47.692  32.961  28.579  1.00  0.00    -0.206 F 
ATOM     73  C   UNL A   1      46.556  34.680  27.565  1.00  0.00     0.040 A 
ATOM     74  C   UNL A   1      44.173  34.788  27.573  1.00  0.00     0.040 A 
ATOM     75  F   UNL A   1      42.909  33.212  28.733  1.00  0.00    -0.206 F 
ATOM     76  C   UNL A   1      45.390  35.294  27.141  1.00  0.00     0.006 A 
ENDBRANCH  55  69
BRANCH  56  77
ATOM     77  C   UNL A   1      37.116  31.124  30.702  1.00  0.00     0.057 A 
ATOM     78  C   UNL A   1      36.642  31.637  29.482  1.00  0.00     0.134 A 
ATOM     79  C   UNL A   1      36.304  31.369  31.822  1.00  0.00     0.134 A 
ATOM     80  F   UNL A   1      37.366  31.536  28.359  1.00  0.00    -0.206 F 
ATOM     81  C   UNL A   1      35.445  32.355  29.380  1.00  0.00     0.040 A 
ATOM     82  C   UNL A   1      35.107  32.096  31.735  1.00  0.00     0.040 A 
ATOM     83  F   UNL A   1      36.683  30.964  33.043  1.00  0.00    -0.206 F 
ATOM     84  C   UNL A   1      34.679  32.600  30.511  1.00  0.00     0.006 A 
ENDBRANCH  56  77
BRANCH  68  85
ATOM     85  C   UNL A   1      42.276  29.716  33.902  1.00  0.00     0.057 A 
ATOM     86  C   UNL A   1      42.527  30.089  35.227  1.00  0.00     0.134 A 
ATOM     87  C   UNL A   1      41.881  28.387  33.681  1.00  0.00     0.134 A 
ATOM     88  F   UNL A   1      42.967  31.324  35.512  1.00  0.00    -0.206 F 
ATOM     89  C   UNL A   1      42.377  29.193  36.288  1.00  0.00     0.040 A 
ATOM     90  C   UNL A   1      41.688  27.493  34.738  1.00  0.00     0.040 A 
ATOM     91  F   UNL A   1      41.727  27.903  32.442  1.00  0.00    -0.206 F 
ATOM     92  C   UNL A   1      41.940  27.894  36.046  1.00  0.00     0.006 A 
ENDBRANCH  68  85
ENDBRANCH  42  43
ENDBRANCH  34  37
ENDBRANCH  32  33
ENDBRANCH  31  32
ENDBRANCH   1  31
TORSDOF 13
ENDMDL
MODEL 3
REMARK VINA RESULT:     -12.7      2.969      8.368
REMARK SMILES C[N@@H+]1CCN(C(=O)c2ccc3[nH]c4c(c3c2)CSCC4)C[C@H]1C(=O)NCCCCNC(=O)c1ccc(-c2c3nc(c(-c4c(F)cccc4F)c4ccc([nH]4)c(-c4c(F)cccc4F)c4nc(c(-c5c(F)cccc5F)c5ccc2[nH]5)C=C4)C=C3)cc1
REMARK SMILES IDX 27 1 26 2 25 3 23 4 24 5 22 7 1 8 2 9 3 10 4 12 21 13 5 14
REMARK SMILES IDX 6 15 7 16 8 17 9 18 16 19 10 20 15 21 11 22 14 23 12 24
REMARK SMILES IDX 13 25 17 26 20 28 18 29 19 30 28 31 29 32 30 33 31 34 32 36
REMARK SMILES IDX 33 37 34 38 86 39 35 40 85 41 36 42 37 43 38 44 79 45 39 46
REMARK SMILES IDX 84 47 78 48 80 49 40 50 83 51 77 52 76 53 41 55 67 56 50 57
REMARK SMILES IDX 66 58 51 59 54 60 65 61 81 62 52 63 53 64 64 66 82 67 55 68
REMARK SMILES IDX 42 69 43 70 48 71 44 72 45 73 47 74 49 75 46 76 68 77 69 78
REMARK SMILES IDX 74 79 70 80 71 81 73 82 75 83 72 84 56 85 57 86 62 87 58 88
REMARK SMILES IDX 59 89 61 90 63 91 60 92
REMARK H PARENT 25 6 2 11 12 27 30 35 80 54 54 65
REMARK Flexibility Score: inf
ROOT
ATOM      1  C   UNL A   1      38.922  23.464  26.518  1.00  0.00     0.023 C 
ENDROOT
BRANCH   1   2
ATOM      2  C   UNL A   1      37.484  23.770  26.121  1.00  0.00     0.116 C 
BRANCH   2   3
ATOM      3  N   UNL A   1      37.264  23.618  24.693  1.00  0.00    -0.351 N 
ATOM      4  C   UNL A   1      36.176  23.123  24.034  1.00  0.00     0.280 C 
ATOM      5  O   UNL A   1      36.215  23.091  22.800  1.00  0.00    -0.268 OA
ATOM      6  H   UNL A   1      38.006  23.914  24.119  1.00  0.00     0.163 HD
BRANCH   4   7
ATOM      7  C   UNL A   1      34.921  22.665  24.790  1.00  0.00     0.293 C 
ATOM      8  C   UNL A   1      35.668  20.347  24.997  1.00  0.00     0.333 C 
ATOM      9  N   UNL A   1      35.203  21.532  25.723  1.00  0.00    -0.324 N 
ATOM     10  C   UNL A   1      33.974  21.209  26.484  1.00  0.00     0.284 C 
ATOM     11  H   UNL A   1      35.944  21.816  26.363  1.00  0.00     0.348 HD
ATOM     12  C   UNL A   1      33.388  22.424  27.223  1.00  0.00     0.181 C 
ATOM     13  C   UNL A   1      34.306  23.902  25.481  1.00  0.00     0.195 C 
ATOM     14  N   UNL A   1      33.158  23.559  26.327  1.00  0.00    -0.326 N 
BRANCH  14  15
ATOM     15  C   UNL A   1      32.069  24.389  26.565  1.00  0.00     0.254 C 
ATOM     16  O   UNL A   1      31.120  24.072  27.289  1.00  0.00    -0.269 OA
BRANCH  15  17
ATOM     17  C   UNL A   1      32.048  25.737  25.961  1.00  0.00     0.040 A 
ATOM     18  C   UNL A   1      33.157  26.582  26.062  1.00  0.00     0.016 A 
ATOM     19  C   UNL A   1      30.892  26.135  25.276  1.00  0.00     0.024 A 
ATOM     20  C   UNL A   1      33.110  27.881  25.551  1.00  0.00     0.027 A 
ATOM     21  C   UNL A   1      30.836  27.432  24.730  1.00  0.00     0.004 A 
ATOM     22  C   UNL A   1      31.938  28.277  24.894  1.00  0.00     0.046 A 
ATOM     23  C   UNL A   1      29.860  28.146  23.968  1.00  0.00    -0.009 A 
ATOM     24  N   UNL A   1      31.625  29.475  24.294  1.00  0.00    -0.358 N 
ATOM     25  C   UNL A   1      30.399  29.390  23.698  1.00  0.00     0.021 A 
ATOM     26  C   UNL A   1      28.539  27.635  23.489  1.00  0.00     0.107 C 
ATOM     27  H   UNL A   1      32.200  30.274  24.293  1.00  0.00     0.166 HD
ATOM     28  C   UNL A   1      29.789  30.484  22.890  1.00  0.00     0.065 C 
ATOM     29  S   UNL A   1      27.490  28.916  22.705  1.00  0.00    -0.157 SA
ATOM     30  C   UNL A   1      28.793  29.906  21.880  1.00  0.00     0.076 C 
ENDBRANCH  15  17
ENDBRANCH  14  15
ENDBRANCH   4   7
ENDBRANCH   2   3
ENDBRANCH   1   2
BRANCH   1  31
ATOM     31  C   UNL A   1      39.420  22.074  26.121  1.00  0.00     0.023 C 
BRANCH  31  32
ATOM     32  C   UNL A   1      40.886  21.784  26.452  1.00  0.00     0.116 C 
BRANCH  32  33
ATOM     33  N   UNL A   1      41.841  22.364  25.529  1.00  0.00    -0.352 N 
ATOM     34  C   UNL A   1      42.501  23.559  25.461  1.00  0.00     0.251 C 
ATOM     35  H   UNL A   1      42.065  21.761  24.783  1.00  0.00     0.163 HD
ATOM     36  O   UNL A   1      43.426  23.624  24.647  1.00  0.00    -0.269 OA
BRANCH  34  37
ATOM     37  C   UNL A   1      42.131  24.784  26.219  1.00  0.00     0.039 A 
ATOM     38  C   UNL A   1      41.356  25.835  25.733  1.00  0.00     0.014 A 
ATOM     39  C   UNL A   1      42.694  24.902  27.505  1.00  0.00     0.014 A 
ATOM     40  C   UNL A   1      41.255  27.021  26.450  1.00  0.00     0.010 A 
ATOM     41  C   UNL A   1      42.576  26.076  28.240  1.00  0.00     0.010 A 
ATOM     42  C   UNL A   1      41.900  27.154  27.683  1.00  0.00    -0.014 A 
BRANCH  42  43
ATOM     43  C   UNL A   1      41.699  28.397  28.418  1.00  0.00     0.031 A 
ATOM     44  C   UNL A   1      42.784  29.395  28.211  1.00  0.00     0.074 A 
ATOM     45  C   UNL A   1      40.607  28.675  29.158  1.00  0.00     0.049 A 
ATOM     46  N   UNL A   1      43.618  29.842  29.090  1.00  0.00    -0.248 NA
ATOM     47  C   UNL A   1      43.075  29.832  26.836  1.00  0.00     0.031 C 
ATOM     48  C   UNL A   1      39.362  27.914  29.259  1.00  0.00     0.029 A 
ATOM     49  N   UNL A   1      40.354  29.772  29.929  1.00  0.00    -0.354 N 
ATOM     50  C   UNL A   1      44.426  30.762  28.426  1.00  0.00     0.074 A 
ATOM     51  C   UNL A   1      44.149  30.601  27.024  1.00  0.00     0.031 C 
ATOM     52  C   UNL A   1      38.416  28.683  29.850  1.00  0.00     0.029 A 
ATOM     53  C   UNL A   1      39.018  29.937  30.276  1.00  0.00     0.049 A 
ATOM     54  H   UNL A   1      41.059  30.395  30.216  1.00  0.00     0.167 HD
ATOM     55  C   UNL A   1      45.093  31.731  29.113  1.00  0.00     0.037 A 
ATOM     56  C   UNL A   1      38.446  31.045  30.816  1.00  0.00     0.037 A 
ATOM     57  C   UNL A   1      45.202  31.388  30.510  1.00  0.00     0.049 A 
ATOM     58  C   UNL A   1      39.532  31.869  31.409  1.00  0.00     0.074 A 
ATOM     59  C   UNL A   1      45.751  30.331  31.210  1.00  0.00     0.029 A 
ATOM     60  N   UNL A   1      44.369  32.026  31.396  1.00  0.00    -0.354 N 
ATOM     61  N   UNL A   1      40.177  31.542  32.493  1.00  0.00    -0.248 NA
ATOM     62  C   UNL A   1      40.218  32.812  30.537  1.00  0.00     0.031 C 
ATOM     63  C   UNL A   1      44.846  30.094  32.285  1.00  0.00     0.029 A 
ATOM     64  C   UNL A   1      43.849  31.065  32.222  1.00  0.00     0.049 A 
ATOM     65  H   UNL A   1      44.181  32.992  31.431  1.00  0.00     0.167 HD
ATOM     66  C   UNL A   1      41.500  31.847  32.215  1.00  0.00     0.074 A 
ATOM     67  C   UNL A   1      41.455  32.707  31.032  1.00  0.00     0.031 C 
ATOM     68  C   UNL A   1      42.521  31.140  32.780  1.00  0.00     0.037 A 
BRANCH  55  69
ATOM     69  C   UNL A   1      45.269  33.154  28.627  1.00  0.00     0.057 A 
ATOM     70  C   UNL A   1      46.488  33.698  28.177  1.00  0.00     0.134 A 
ATOM     71  C   UNL A   1      44.122  33.892  28.271  1.00  0.00     0.134 A 
ATOM     72  F   UNL A   1      47.671  33.123  28.414  1.00  0.00    -0.206 F 
ATOM     73  C   UNL A   1      46.555  34.831  27.361  1.00  0.00     0.040 A 
ATOM     74  C   UNL A   1      44.175  34.998  27.414  1.00  0.00     0.040 A 
ATOM     75  F   UNL A   1      42.899  33.497  28.658  1.00  0.00    -0.206 F 
ATOM     76  C   UNL A   1      45.395  35.457  26.939  1.00  0.00     0.006 A 
ENDBRANCH  55  69
BRANCH  56  77
ATOM     77  C   UNL A   1      37.069  31.571  30.651  1.00  0.00     0.057 A 
ATOM     78  C   UNL A   1      36.704  32.345  29.536  1.00  0.00     0.134 A 
ATOM     79  C   UNL A   1      36.145  31.555  31.710  1.00  0.00     0.134 A 
ATOM     80  F   UNL A   1      37.536  32.502  28.497  1.00  0.00    -0.206 F 
ATOM     81  C   UNL A   1      35.506  33.066  29.478  1.00  0.00     0.040 A 
ATOM     82  C   UNL A   1      34.946  32.282  31.668  1.00  0.00     0.040 A 
ATOM     83  F   UNL A   1      36.413  30.886  32.840  1.00  0.00    -0.206 F 
ATOM     84  C   UNL A   1      34.627  33.048  30.552  1.00  0.00     0.006 A 
ENDBRANCH  56  77
BRANCH  68  85
ATOM     85  C   UNL A   1      42.203  30.200  33.907  1.00  0.00     0.057 A 
ATOM     86  C   UNL A   1      42.458  30.621  35.218  1.00  0.00     0.134 A 
ATOM     87  C   UNL A   1      41.787  28.870  33.738  1.00  0.00     0.134 A 
ATOM     88  F   UNL A   1      42.917  31.859  35.454  1.00  0.00    -0.206 F 
ATOM     89  C   UNL A   1      42.293  29.770  36.312  1.00  0.00     0.040 A 
ATOM     90  C   UNL A   1      41.578  28.021  34.829  1.00  0.00     0.040 A 
ATOM     91  F   UNL A   1      41.627  28.339  32.519  1.00  0.00    -0.206 F 
ATOM     92  C   UNL A   1      41.835  28.469  36.121  1.00  0.00     0.006 A 
ENDBRANCH  68  85
ENDBRANCH  42  43
ENDBRANCH  34  37
ENDBRANCH  32  33
ENDBRANCH  31  32
ENDBRANCH   1  31
TORSDOF 13
ENDMDL
