MODEL 1
REMARK VINA RESULT:     -13.2      0.000      0.000
REMARK SMILES COc1ccccc1[C@@H]1C[N@@H+](Cc2cn3cc(C)ccc3n2)C[C@H]1C(=O)NCCCCNC(=O)c1ccc(-c2c3nc(c(-c4c(F)cccc4F)c4ccc([nH]4)c(-c4c(F)cccc4F)c4nc(c(-c5c(F)cccc5F)c5ccc2[nH]5)C=C4)C=C3)cc1
REMARK SMILES IDX 29 1 28 2 27 3 25 4 26 5 24 7 9 8 10 9 11 10 23 11 8 13 3 14
REMARK SMILES IDX 4 15 5 16 7 17 6 18 2 19 1 20 12 21 13 22 14 23 22 24 15 25
REMARK SMILES IDX 21 26 16 27 20 28 17 29 19 30 18 31 30 32 31 33 32 34 33 35
REMARK SMILES IDX 34 37 35 38 36 39 88 40 37 41 87 42 38 43 39 44 40 45 81 46
REMARK SMILES IDX 41 47 86 48 80 49 82 50 42 51 85 52 79 53 78 54 43 56 69 57
REMARK SMILES IDX 52 58 68 59 53 60 56 61 67 62 83 63 54 64 55 65 66 67 84 68
REMARK SMILES IDX 57 69 44 70 45 71 50 72 46 73 47 74 49 75 51 76 48 77 70 78
REMARK SMILES IDX 71 79 76 80 72 81 73 82 75 83 77 84 74 85 58 86 59 87 64 88
REMARK SMILES IDX 60 89 61 90 63 91 65 92 62 93
REMARK H PARENT 27 6 11 12 32 36 82 55 56 66
REMARK Flexibility Score: inf
ROOT
ATOM      1  C   UNL A   1      32.589  30.403  27.252  1.00  0.00     0.023 C 
ENDROOT
BRANCH   1   2
ATOM      2  C   UNL A   1      31.862  29.031  27.238  1.00  0.00     0.116 C 
BRANCH   2   3
ATOM      3  N   UNL A   1      32.595  27.824  26.851  1.00  0.00    -0.356 N 
ATOM      4  C   UNL A   1      32.359  26.607  26.285  1.00  0.00     0.229 C 
ATOM      5  O   UNL A   1      33.401  25.945  26.111  1.00  0.00    -0.275 OA
ATOM      6  H   UNL A   1      33.551  27.921  27.064  1.00  0.00     0.163 HD
BRANCH   4   7
ATOM      7  C   UNL A   1      31.035  25.957  25.807  1.00  0.00     0.146 C 
ATOM      8  C   UNL A   1      30.664  26.214  24.309  1.00  0.00     0.096 C 
ATOM      9  C   UNL A   1      30.016  24.912  23.819  1.00  0.00     0.272 C 
ATOM     10  N   UNL A   1      30.663  23.852  24.604  1.00  0.00    -0.329 N 
ATOM     11  C   UNL A   1      30.839  24.446  25.942  1.00  0.00     0.276 C 
ATOM     12  H   UNL A   1      30.085  23.012  24.652  1.00  0.00     0.348 HD
BRANCH   8  13
ATOM     13  C   UNL A   1      30.152  27.495  23.674  1.00  0.00     0.004 A 
ATOM     14  C   UNL A   1      30.821  28.712  23.522  1.00  0.00     0.122 A 
ATOM     15  C   UNL A   1      30.113  29.854  23.092  1.00  0.00     0.047 A 
ATOM     16  C   UNL A   1      28.740  29.820  22.836  1.00  0.00     0.004 A 
ATOM     17  C   UNL A   1      28.752  27.502  23.399  1.00  0.00     0.008 A 
ATOM     18  C   UNL A   1      28.051  28.637  23.005  1.00  0.00     0.001 A 
BRANCH  14  19
ATOM     19  O   UNL A   1      32.097  28.982  23.932  1.00  0.00    -0.496 OA
ATOM     20  C   UNL A   1      33.079  28.935  22.910  1.00  0.00     0.278 C 
ENDBRANCH  14  19
ENDBRANCH   8  13
BRANCH  10  21
ATOM     21  C   UNL A   1      31.875  23.240  23.988  1.00  0.00     0.321 C 
BRANCH  21  22
ATOM     22  C   UNL A   1      32.094  21.753  24.156  1.00  0.00     0.114 A 
ATOM     23  C   UNL A   1      32.169  20.933  25.274  1.00  0.00     0.122 A 
ATOM     24  N   UNL A   1      32.350  20.987  23.054  1.00  0.00    -0.228 NA
ATOM     25  N   UNL A   1      32.427  19.653  24.803  1.00  0.00    -0.306 N 
ATOM     26  C   UNL A   1      32.369  19.736  23.428  1.00  0.00     0.137 A 
ATOM     27  C   UNL A   1      32.777  18.470  25.454  1.00  0.00     0.096 A 
ATOM     28  C   UNL A   1      32.468  18.544  22.662  1.00  0.00     0.048 A 
ATOM     29  C   UNL A   1      33.014  17.355  24.724  1.00  0.00    -0.034 A 
ATOM     30  C   UNL A   1      32.784  17.395  23.279  1.00  0.00     0.009 A 
ATOM     31  C   UNL A   1      33.565  16.080  25.278  1.00  0.00     0.046 C 
ENDBRANCH  21  22
ENDBRANCH  10  21
ENDBRANCH   4   7
ENDBRANCH   2   3
ENDBRANCH   1   2
BRANCH   1  32
ATOM     32  C   UNL A   1      34.088  30.469  26.922  1.00  0.00     0.023 C 
BRANCH  32  33
ATOM     33  C   UNL A   1      35.043  29.633  27.786  1.00  0.00     0.116 C 
BRANCH  33  34
ATOM     34  N   UNL A   1      35.564  30.302  28.988  1.00  0.00    -0.352 N 
ATOM     35  C   UNL A   1      36.679  29.947  29.736  1.00  0.00     0.251 C 
ATOM     36  H   UNL A   1      35.065  31.091  29.299  1.00  0.00     0.163 HD
ATOM     37  O   UNL A   1      36.867  30.342  30.879  1.00  0.00    -0.269 OA
BRANCH  35  38
ATOM     38  C   UNL A   1      37.671  29.101  29.056  1.00  0.00     0.039 A 
ATOM     39  C   UNL A   1      38.216  29.457  27.825  1.00  0.00     0.014 A 
ATOM     40  C   UNL A   1      38.292  28.183  29.885  1.00  0.00     0.014 A 
ATOM     41  C   UNL A   1      39.499  29.004  27.516  1.00  0.00     0.010 A 
ATOM     42  C   UNL A   1      39.627  27.933  29.672  1.00  0.00     0.010 A 
ATOM     43  C   UNL A   1      40.251  28.312  28.484  1.00  0.00    -0.014 A 
BRANCH  43  44
ATOM     44  C   UNL A   1      41.691  28.078  28.294  1.00  0.00     0.031 A 
ATOM     45  C   UNL A   1      42.096  26.868  27.501  1.00  0.00     0.074 A 
ATOM     46  C   UNL A   1      42.672  28.929  28.672  1.00  0.00     0.049 A 
ATOM     47  N   UNL A   1      42.625  25.776  27.949  1.00  0.00    -0.248 NA
ATOM     48  C   UNL A   1      41.827  26.838  26.055  1.00  0.00     0.031 C 
ATOM     49  C   UNL A   1      42.602  30.286  29.231  1.00  0.00     0.029 A 
ATOM     50  N   UNL A   1      44.017  28.718  28.588  1.00  0.00    -0.354 N 
ATOM     51  C   UNL A   1      42.893  24.965  26.845  1.00  0.00     0.074 A 
ATOM     52  C   UNL A   1      42.285  25.628  25.717  1.00  0.00     0.031 C 
ATOM     53  C   UNL A   1      43.827  30.852  29.230  1.00  0.00     0.029 A 
ATOM     54  C   UNL A   1      44.787  29.824  28.898  1.00  0.00     0.049 A 
ATOM     55  H   UNL A   1      44.407  27.852  28.329  1.00  0.00     0.167 HD
ATOM     56  C   UNL A   1      43.716  23.879  26.927  1.00  0.00     0.037 A 
ATOM     57  C   UNL A   1      46.131  29.898  28.972  1.00  0.00     0.037 A 
ATOM     58  C   UNL A   1      43.971  23.520  28.298  1.00  0.00     0.049 A 
ATOM     59  C   UNL A   1      46.635  28.529  29.211  1.00  0.00     0.074 A 
ATOM     60  C   UNL A   1      43.196  23.076  29.351  1.00  0.00     0.029 A 
ATOM     61  N   UNL A   1      45.149  23.940  28.867  1.00  0.00    -0.354 N 
ATOM     62  N   UNL A   1      46.417  27.860  30.310  1.00  0.00    -0.248 NA
ATOM     63  C   UNL A   1      47.005  27.729  28.055  1.00  0.00     0.031 C 
ATOM     64  C   UNL A   1      43.728  23.738  30.498  1.00  0.00     0.029 A 
ATOM     65  C   UNL A   1      44.824  24.494  30.079  1.00  0.00     0.049 A 
ATOM     66  H   UNL A   1      46.049  23.860  28.479  1.00  0.00     0.167 HD
ATOM     67  C   UNL A   1      46.217  26.550  29.897  1.00  0.00     0.074 A 
ATOM     68  C   UNL A   1      46.688  26.516  28.515  1.00  0.00     0.031 C 
ATOM     69  C   UNL A   1      45.452  25.679  30.622  1.00  0.00     0.037 A 
BRANCH  56  70
ATOM     70  C   UNL A   1      44.524  23.279  25.800  1.00  0.00     0.057 A 
ATOM     71  C   UNL A   1      44.364  21.917  25.469  1.00  0.00     0.134 A 
ATOM     72  C   UNL A   1      45.640  23.904  25.213  1.00  0.00     0.134 A 
ATOM     73  F   UNL A   1      43.346  21.200  25.967  1.00  0.00    -0.206 F 
ATOM     74  C   UNL A   1      45.281  21.218  24.671  1.00  0.00     0.040 A 
ATOM     75  C   UNL A   1      46.537  23.227  24.378  1.00  0.00     0.040 A 
ATOM     76  F   UNL A   1      45.973  25.169  25.496  1.00  0.00    -0.206 F 
ATOM     77  C   UNL A   1      46.378  21.874  24.128  1.00  0.00     0.006 A 
ENDBRANCH  56  70
BRANCH  57  78
ATOM     78  C   UNL A   1      46.972  31.042  28.576  1.00  0.00     0.057 A 
ATOM     79  C   UNL A   1      47.814  31.683  29.488  1.00  0.00     0.134 A 
ATOM     80  C   UNL A   1      47.153  31.365  27.218  1.00  0.00     0.134 A 
ATOM     81  F   UNL A   1      47.727  31.414  30.798  1.00  0.00    -0.206 F 
ATOM     82  C   UNL A   1      48.806  32.579  29.070  1.00  0.00     0.040 A 
ATOM     83  C   UNL A   1      48.137  32.257  26.788  1.00  0.00     0.040 A 
ATOM     84  F   UNL A   1      46.433  30.760  26.261  1.00  0.00    -0.206 F 
ATOM     85  C   UNL A   1      48.979  32.856  27.716  1.00  0.00     0.006 A 
ENDBRANCH  57  78
BRANCH  69  86
ATOM     86  C   UNL A   1      45.007  26.101  31.998  1.00  0.00     0.057 A 
ATOM     87  C   UNL A   1      43.817  26.800  32.256  1.00  0.00     0.134 A 
ATOM     88  C   UNL A   1      45.711  25.634  33.114  1.00  0.00     0.134 A 
ATOM     89  F   UNL A   1      43.023  27.202  31.259  1.00  0.00    -0.206 F 
ATOM     90  C   UNL A   1      43.370  27.052  33.558  1.00  0.00     0.040 A 
ATOM     91  C   UNL A   1      45.261  25.853  34.419  1.00  0.00     0.040 A 
ATOM     92  F   UNL A   1      46.827  24.905  32.951  1.00  0.00    -0.206 F 
ATOM     93  C   UNL A   1      44.089  26.571  34.645  1.00  0.00     0.006 A 
ENDBRANCH  69  86
ENDBRANCH  43  44
ENDBRANCH  35  38
ENDBRANCH  33  34
ENDBRANCH  32  33
ENDBRANCH   1  32
TORSDOF 15
ENDMDL
MODEL 2
REMARK VINA RESULT:     -13.2      2.206      7.773
REMARK SMILES COc1ccccc1[C@@H]1C[N@@H+](Cc2cn3cc(C)ccc3n2)C[C@H]1C(=O)NCCCCNC(=O)c1ccc(-c2c3nc(c(-c4c(F)cccc4F)c4ccc([nH]4)c(-c4c(F)cccc4F)c4nc(c(-c5c(F)cccc5F)c5ccc2[nH]5)C=C4)C=C3)cc1
REMARK SMILES IDX 29 1 28 2 27 3 25 4 26 5 24 7 9 8 10 9 11 10 23 11 8 13 3 14
REMARK SMILES IDX 4 15 5 16 7 17 6 18 2 19 1 20 12 21 13 22 14 23 22 24 15 25
REMARK SMILES IDX 21 26 16 27 20 28 17 29 19 30 18 31 30 32 31 33 32 34 33 35
REMARK SMILES IDX 34 37 35 38 36 39 88 40 37 41 87 42 38 43 39 44 40 45 81 46
REMARK SMILES IDX 41 47 86 48 80 49 82 50 42 51 85 52 79 53 78 54 43 56 69 57
REMARK SMILES IDX 52 58 68 59 53 60 56 61 67 62 83 63 54 64 55 65 66 67 84 68
REMARK SMILES IDX 57 69 44 70 45 71 50 72 46 73 47 74 49 75 51 76 48 77 70 78
REMARK SMILES IDX 71 79 76 80 72 81 73 82 75 83 77 84 74 85 58 86 59 87 64 88
REMARK SMILES IDX 60 89 61 90 63 91 65 92 62 93
REMARK H PARENT 27 6 11 12 32 36 82 55 56 66
REMARK Flexibility Score: inf
ROOT
ATOM      1  C   UNL A   1      33.758  27.361  25.666  1.00  0.00     0.023 C 
ENDROOT
BRANCH   1   2
ATOM      2  C   UNL A   1      33.642  25.818  25.792  1.00  0.00     0.116 C 
BRANCH   2   3
ATOM      3  N   UNL A   1      34.612  24.957  25.112  1.00  0.00    -0.356 N 
ATOM      4  C   UNL A   1      34.665  24.080  24.070  1.00  0.00     0.229 C 
ATOM      5  O   UNL A   1      35.814  23.646  23.862  1.00  0.00    -0.275 OA
ATOM      6  H   UNL A   1      35.496  25.036  25.537  1.00  0.00     0.163 HD
BRANCH   4   7
ATOM      7  C   UNL A   1      33.551  23.585  23.111  1.00  0.00     0.146 C 
ATOM      8  C   UNL A   1      32.587  22.506  23.705  1.00  0.00     0.096 C 
ATOM      9  C   UNL A   1      31.204  22.829  23.122  1.00  0.00     0.272 C 
ATOM     10  N   UNL A   1      31.208  24.286  22.931  1.00  0.00    -0.329 N 
ATOM     11  C   UNL A   1      32.581  24.591  22.490  1.00  0.00     0.276 C 
ATOM     12  H   UNL A   1      30.527  24.576  22.228  1.00  0.00     0.348 HD
BRANCH   8  13
ATOM     13  C   UNL A   1      32.870  21.039  23.977  1.00  0.00     0.004 A 
ATOM     14  C   UNL A   1      33.844  20.488  24.813  1.00  0.00     0.122 A 
ATOM     15  C   UNL A   1      34.094  19.099  24.782  1.00  0.00     0.047 A 
ATOM     16  C   UNL A   1      33.413  18.246  23.912  1.00  0.00     0.004 A 
ATOM     17  C   UNL A   1      32.195  20.132  23.106  1.00  0.00     0.008 A 
ATOM     18  C   UNL A   1      32.466  18.769  23.055  1.00  0.00     0.001 A 
BRANCH  14  19
ATOM     19  O   UNL A   1      34.749  21.189  25.560  1.00  0.00    -0.496 OA
ATOM     20  C   UNL A   1      34.331  21.495  26.880  1.00  0.00     0.278 C 
ENDBRANCH  14  19
ENDBRANCH   8  13
BRANCH  10  21
ATOM     21  C   UNL A   1      30.687  25.087  24.074  1.00  0.00     0.321 C 
BRANCH  21  22
ATOM     22  C   UNL A   1      30.167  26.481  23.797  1.00  0.00     0.114 A 
ATOM     23  C   UNL A   1      30.799  27.706  23.631  1.00  0.00     0.122 A 
ATOM     24  N   UNL A   1      28.818  26.694  23.755  1.00  0.00    -0.228 NA
ATOM     25  N   UNL A   1      29.793  28.642  23.440  1.00  0.00    -0.306 N 
ATOM     26  C   UNL A   1      28.616  27.927  23.373  1.00  0.00     0.137 A 
ATOM     27  C   UNL A   1      29.809  30.037  23.401  1.00  0.00     0.096 A 
ATOM     28  C   UNL A   1      27.413  28.609  23.052  1.00  0.00     0.048 A 
ATOM     29  C   UNL A   1      28.645  30.710  23.237  1.00  0.00    -0.034 A 
ATOM     30  C   UNL A   1      27.419  29.950  22.991  1.00  0.00     0.009 A 
ATOM     31  C   UNL A   1      28.500  32.193  23.354  1.00  0.00     0.046 C 
ENDBRANCH  21  22
ENDBRANCH  10  21
ENDBRANCH   4   7
ENDBRANCH   2   3
ENDBRANCH   1   2
BRANCH   1  32
ATOM     32  C   UNL A   1      33.871  28.218  26.936  1.00  0.00     0.023 C 
BRANCH  32  33
ATOM     33  C   UNL A   1      35.122  29.094  27.093  1.00  0.00     0.116 C 
BRANCH  33  34
ATOM     34  N   UNL A   1      34.886  30.546  27.105  1.00  0.00    -0.352 N 
ATOM     35  C   UNL A   1      35.241  31.450  28.098  1.00  0.00     0.251 C 
ATOM     36  H   UNL A   1      34.424  30.919  26.320  1.00  0.00     0.163 HD
ATOM     37  O   UNL A   1      34.742  32.564  28.190  1.00  0.00    -0.269 OA
BRANCH  35  38
ATOM     38  C   UNL A   1      36.303  31.019  29.017  1.00  0.00     0.039 A 
ATOM     39  C   UNL A   1      36.155  29.901  29.834  1.00  0.00     0.014 A 
ATOM     40  C   UNL A   1      37.550  31.541  28.722  1.00  0.00     0.014 A 
ATOM     41  C   UNL A   1      37.304  29.202  30.208  1.00  0.00     0.010 A 
ATOM     42  C   UNL A   1      38.642  30.726  28.906  1.00  0.00     0.010 A 
ATOM     43  C   UNL A   1      38.552  29.561  29.666  1.00  0.00    -0.014 A 
BRANCH  43  44
ATOM     44  C   UNL A   1      39.719  28.677  29.812  1.00  0.00     0.031 A 
ATOM     45  C   UNL A   1      40.294  28.513  31.190  1.00  0.00     0.074 A 
ATOM     46  C   UNL A   1      40.238  27.908  28.828  1.00  0.00     0.049 A 
ATOM     47  N   UNL A   1      41.405  29.001  31.640  1.00  0.00    -0.248 NA
ATOM     48  C   UNL A   1      39.522  27.781  32.205  1.00  0.00     0.031 C 
ATOM     49  C   UNL A   1      39.763  27.648  27.462  1.00  0.00     0.029 A 
ATOM     50  N   UNL A   1      41.361  27.137  28.896  1.00  0.00    -0.354 N 
ATOM     51  C   UNL A   1      41.560  28.533  32.946  1.00  0.00     0.074 A 
ATOM     52  C   UNL A   1      40.320  27.873  33.274  1.00  0.00     0.031 C 
ATOM     53  C   UNL A   1      40.457  26.629  26.914  1.00  0.00     0.029 A 
ATOM     54  C   UNL A   1      41.566  26.331  27.792  1.00  0.00     0.049 A 
ATOM     55  H   UNL A   1      41.975  27.154  29.666  1.00  0.00     0.167 HD
ATOM     56  C   UNL A   1      42.754  28.606  33.605  1.00  0.00     0.037 A 
ATOM     57  C   UNL A   1      42.617  25.522  27.545  1.00  0.00     0.037 A 
ATOM     58  C   UNL A   1      43.670  29.488  32.928  1.00  0.00     0.049 A 
ATOM     59  C   UNL A   1      43.756  26.027  28.341  1.00  0.00     0.074 A 
ATOM     60  C   UNL A   1      43.689  30.837  32.635  1.00  0.00     0.029 A 
ATOM     61  N   UNL A   1      44.623  28.926  32.113  1.00  0.00    -0.354 N 
ATOM     62  N   UNL A   1      44.338  27.174  28.125  1.00  0.00    -0.248 NA
ATOM     63  C   UNL A   1      43.966  25.459  29.662  1.00  0.00     0.031 C 
ATOM     64  C   UNL A   1      44.251  30.917  31.326  1.00  0.00     0.029 A 
ATOM     65  C   UNL A   1      44.587  29.621  30.930  1.00  0.00     0.049 A 
ATOM     66  H   UNL A   1      45.215  28.172  32.334  1.00  0.00     0.167 HD
ATOM     67  C   UNL A   1      44.637  27.667  29.387  1.00  0.00     0.074 A 
ATOM     68  C   UNL A   1      44.474  26.526  30.284  1.00  0.00     0.031 C 
ATOM     69  C   UNL A   1      44.736  29.010  29.628  1.00  0.00     0.037 A 
BRANCH  56  70
ATOM     70  C   UNL A   1      43.225  27.694  34.713  1.00  0.00     0.057 A 
ATOM     71  C   UNL A   1      43.500  26.338  34.437  1.00  0.00     0.134 A 
ATOM     72  C   UNL A   1      43.157  28.017  36.081  1.00  0.00     0.134 A 
ATOM     73  F   UNL A   1      43.583  25.893  33.174  1.00  0.00    -0.206 F 
ATOM     74  C   UNL A   1      43.629  25.370  35.443  1.00  0.00     0.040 A 
ATOM     75  C   UNL A   1      43.330  27.068  37.095  1.00  0.00     0.040 A 
ATOM     76  F   UNL A   1      42.823  29.242  36.503  1.00  0.00    -0.206 F 
ATOM     77  C   UNL A   1      43.537  25.734  36.779  1.00  0.00     0.006 A 
ENDBRANCH  56  70
BRANCH  57  78
ATOM     78  C   UNL A   1      42.580  24.210  26.876  1.00  0.00     0.057 A 
ATOM     79  C   UNL A   1      43.120  24.021  25.602  1.00  0.00     0.134 A 
ATOM     80  C   UNL A   1      42.234  23.049  27.592  1.00  0.00     0.134 A 
ATOM     81  F   UNL A   1      43.502  25.072  24.863  1.00  0.00    -0.206 F 
ATOM     82  C   UNL A   1      43.335  22.741  25.076  1.00  0.00     0.040 A 
ATOM     83  C   UNL A   1      42.441  21.767  27.079  1.00  0.00     0.040 A 
ATOM     84  F   UNL A   1      41.761  23.123  28.845  1.00  0.00    -0.206 F 
ATOM     85  C   UNL A   1      43.008  21.610  25.820  1.00  0.00     0.006 A 
ENDBRANCH  57  78
BRANCH  69  86
ATOM     86  C   UNL A   1      44.734  29.944  28.445  1.00  0.00     0.057 A 
ATOM     87  C   UNL A   1      43.573  30.511  27.899  1.00  0.00     0.134 A 
ATOM     88  C   UNL A   1      45.954  30.425  27.957  1.00  0.00     0.134 A 
ATOM     89  F   UNL A   1      42.362  30.191  28.366  1.00  0.00    -0.206 F 
ATOM     90  C   UNL A   1      43.622  31.481  26.892  1.00  0.00     0.040 A 
ATOM     91  C   UNL A   1      46.019  31.415  26.973  1.00  0.00     0.040 A 
ATOM     92  F   UNL A   1      47.111  29.977  28.471  1.00  0.00    -0.206 F 
ATOM     93  C   UNL A   1      44.849  31.942  26.431  1.00  0.00     0.006 A 
ENDBRANCH  69  86
ENDBRANCH  43  44
ENDBRANCH  35  38
ENDBRANCH  33  34
ENDBRANCH  32  33
ENDBRANCH   1  32
TORSDOF 15
ENDMDL
MODEL 3
REMARK VINA RESULT:     -13.1      3.060      6.581
REMARK SMILES COc1ccccc1[C@@H]1C[N@@H+](Cc2cn3cc(C)ccc3n2)C[C@H]1C(=O)NCCCCNC(=O)c1ccc(-c2c3nc(c(-c4c(F)cccc4F)c4ccc([nH]4)c(-c4c(F)cccc4F)c4nc(c(-c5c(F)cccc5F)c5ccc2[nH]5)C=C4)C=C3)cc1
REMARK SMILES IDX 29 1 28 2 27 3 25 4 26 5 24 7 9 8 10 9 11 10 23 11 8 13 3 14
REMARK SMILES IDX 4 15 5 16 7 17 6 18 2 19 1 20 12 21 13 22 14 23 22 24 15 25
REMARK SMILES IDX 21 26 16 27 20 28 17 29 19 30 18 31 30 32 31 33 32 34 33 35
REMARK SMILES IDX 34 37 35 38 36 39 88 40 37 41 87 42 38 43 39 44 40 45 81 46
REMARK SMILES IDX 41 47 86 48 80 49 82 50 42 51 85 52 79 53 78 54 43 56 69 57
REMARK SMILES IDX 52 58 68 59 53 60 56 61 67 62 83 63 54 64 55 65 66 67 84 68
REMARK SMILES IDX 57 69 44 70 45 71 50 72 46 73 47 74 49 75 51 76 48 77 70 78
REMARK SMILES IDX 71 79 76 80 72 81 73 82 75 83 77 84 74 85 58 86 59 87 64 88
REMARK SMILES IDX 60 89 61 90 63 91 65 92 62 93
REMARK H PARENT 27 6 11 12 32 36 82 55 56 66
REMARK Flexibility Score: inf
ROOT
ATOM      1  C   UNL A   1      35.240  24.085  25.740  1.00  0.00     0.023 C 
ENDROOT
BRANCH   1   2
ATOM      2  C   UNL A   1      34.448  25.222  25.038  1.00  0.00     0.116 C 
BRANCH   2   3
ATOM      3  N   UNL A   1      33.653  26.155  25.838  1.00  0.00    -0.356 N 
ATOM      4  C   UNL A   1      32.346  26.428  26.115  1.00  0.00     0.229 C 
ATOM      5  O   UNL A   1      32.210  27.337  26.957  1.00  0.00    -0.275 OA
ATOM      6  H   UNL A   1      34.241  26.776  26.325  1.00  0.00     0.163 HD
BRANCH   4   7
ATOM      7  C   UNL A   1      31.045  25.772  25.583  1.00  0.00     0.146 C 
ATOM      8  C   UNL A   1      30.640  26.172  24.126  1.00  0.00     0.096 C 
ATOM      9  C   UNL A   1      30.044  24.902  23.505  1.00  0.00     0.272 C 
ATOM     10  N   UNL A   1      30.750  23.794  24.164  1.00  0.00    -0.329 N 
ATOM     11  C   UNL A   1      30.919  24.248  25.556  1.00  0.00     0.276 C 
ATOM     12  H   UNL A   1      30.211  22.928  24.127  1.00  0.00     0.348 HD
BRANCH   8  13
ATOM     13  C   UNL A   1      30.061  27.489  23.639  1.00  0.00     0.004 A 
ATOM     14  C   UNL A   1      30.673  28.744  23.609  1.00  0.00     0.122 A 
ATOM     15  C   UNL A   1      29.909  29.892  23.314  1.00  0.00     0.047 A 
ATOM     16  C   UNL A   1      28.535  29.824  23.073  1.00  0.00     0.004 A 
ATOM     17  C   UNL A   1      28.657  27.462  23.384  1.00  0.00     0.008 A 
ATOM     18  C   UNL A   1      27.900  28.599  23.124  1.00  0.00     0.001 A 
BRANCH  14  19
ATOM     19  O   UNL A   1      31.944  29.026  24.030  1.00  0.00    -0.496 OA
ATOM     20  C   UNL A   1      32.948  28.895  23.037  1.00  0.00     0.278 C 
ENDBRANCH  14  19
ENDBRANCH   8  13
BRANCH  10  21
ATOM     21  C   UNL A   1      31.978  23.309  23.473  1.00  0.00     0.321 C 
BRANCH  21  22
ATOM     22  C   UNL A   1      32.397  21.870  23.678  1.00  0.00     0.114 A 
ATOM     23  C   UNL A   1      33.119  21.233  24.678  1.00  0.00     0.122 A 
ATOM     24  N   UNL A   1      32.122  20.950  22.707  1.00  0.00    -0.228 NA
ATOM     25  N   UNL A   1      33.222  19.903  24.300  1.00  0.00    -0.306 N 
ATOM     26  C   UNL A   1      32.455  19.771  23.162  1.00  0.00     0.137 A 
ATOM     27  C   UNL A   1      33.973  18.841  24.807  1.00  0.00     0.096 A 
ATOM     28  C   UNL A   1      32.261  18.479  22.607  1.00  0.00     0.048 A 
ATOM     29  C   UNL A   1      33.907  17.632  24.201  1.00  0.00    -0.034 A 
ATOM     30  C   UNL A   1      32.961  17.445  23.100  1.00  0.00     0.009 A 
ATOM     31  C   UNL A   1      34.787  16.470  24.531  1.00  0.00     0.046 C 
ENDBRANCH  21  22
ENDBRANCH  10  21
ENDBRANCH   4   7
ENDBRANCH   2   3
ENDBRANCH   1   2
BRANCH   1  32
ATOM     32  C   UNL A   1      36.694  23.810  25.328  1.00  0.00     0.023 C 
BRANCH  32  33
ATOM     33  C   UNL A   1      37.796  24.160  26.338  1.00  0.00     0.116 C 
BRANCH  33  34
ATOM     34  N   UNL A   1      38.554  23.020  26.876  1.00  0.00    -0.352 N 
ATOM     35  C   UNL A   1      39.931  22.916  27.026  1.00  0.00     0.251 C 
ATOM     36  H   UNL A   1      38.024  22.241  27.162  1.00  0.00     0.163 HD
ATOM     37  O   UNL A   1      40.504  21.845  27.176  1.00  0.00    -0.269 OA
BRANCH  35  38
ATOM     38  C   UNL A   1      40.676  24.183  27.053  1.00  0.00     0.039 A 
ATOM     39  C   UNL A   1      40.452  25.184  26.111  1.00  0.00     0.014 A 
ATOM     40  C   UNL A   1      41.287  24.451  28.265  1.00  0.00     0.014 A 
ATOM     41  C   UNL A   1      40.695  26.506  26.485  1.00  0.00     0.010 A 
ATOM     42  C   UNL A   1      41.308  25.758  28.693  1.00  0.00     0.010 A 
ATOM     43  C   UNL A   1      41.038  26.808  27.816  1.00  0.00    -0.014 A 
BRANCH  43  44
ATOM     44  C   UNL A   1      41.017  28.196  28.304  1.00  0.00     0.031 A 
ATOM     45  C   UNL A   1      42.175  29.077  27.931  1.00  0.00     0.074 A 
ATOM     46  C   UNL A   1      39.982  28.774  28.956  1.00  0.00     0.049 A 
ATOM     47  N   UNL A   1      43.127  29.491  28.704  1.00  0.00    -0.248 NA
ATOM     48  C   UNL A   1      42.335  29.495  26.531  1.00  0.00     0.031 C 
ATOM     49  C   UNL A   1      38.631  28.274  29.245  1.00  0.00     0.029 A 
ATOM     50  N   UNL A   1      39.950  30.027  29.493  1.00  0.00    -0.354 N 
ATOM     51  C   UNL A   1      43.936  30.336  27.943  1.00  0.00     0.074 A 
ATOM     52  C   UNL A   1      43.459  30.217  26.587  1.00  0.00     0.031 C 
ATOM     53  C   UNL A   1      37.853  29.277  29.702  1.00  0.00     0.029 A 
ATOM     54  C   UNL A   1      38.707  30.415  29.959  1.00  0.00     0.049 A 
ATOM     55  H   UNL A   1      40.744  30.607  29.545  1.00  0.00     0.167 HD
ATOM     56  C   UNL A   1      44.849  31.175  28.516  1.00  0.00     0.037 A 
ATOM     57  C   UNL A   1      38.386  31.557  30.600  1.00  0.00     0.037 A 
ATOM     58  C   UNL A   1      45.078  30.831  29.896  1.00  0.00     0.049 A 
ATOM     59  C   UNL A   1      39.626  32.081  31.211  1.00  0.00     0.074 A 
ATOM     60  C   UNL A   1      45.596  29.734  30.555  1.00  0.00     0.029 A 
ATOM     61  N   UNL A   1      44.420  31.556  30.860  1.00  0.00    -0.354 N 
ATOM     62  N   UNL A   1      40.261  31.486  32.183  1.00  0.00    -0.248 NA
ATOM     63  C   UNL A   1      40.408  33.039  30.447  1.00  0.00     0.031 C 
ATOM     64  C   UNL A   1      44.785  29.595  31.722  1.00  0.00     0.029 A 
ATOM     65  C   UNL A   1      43.867  30.647  31.725  1.00  0.00     0.049 A 
ATOM     66  H   UNL A   1      44.357  32.536  30.917  1.00  0.00     0.167 HD
ATOM     67  C   UNL A   1      41.606  31.675  31.900  1.00  0.00     0.074 A 
ATOM     68  C   UNL A   1      41.631  32.719  30.878  1.00  0.00     0.031 C 
ATOM     69  C   UNL A   1      42.560  30.793  32.327  1.00  0.00     0.037 A 
BRANCH  56  70
ATOM     70  C   UNL A   1      45.354  32.478  27.942  1.00  0.00     0.057 A 
ATOM     71  C   UNL A   1      44.468  33.563  27.777  1.00  0.00     0.134 A 
ATOM     72  C   UNL A   1      46.595  32.623  27.295  1.00  0.00     0.134 A 
ATOM     73  F   UNL A   1      43.248  33.549  28.335  1.00  0.00    -0.206 F 
ATOM     74  C   UNL A   1      44.770  34.673  26.977  1.00  0.00     0.040 A 
ATOM     75  C   UNL A   1      46.926  33.748  26.530  1.00  0.00     0.040 A 
ATOM     76  F   UNL A   1      47.509  31.645  27.289  1.00  0.00    -0.206 F 
ATOM     77  C   UNL A   1      46.002  34.765  26.343  1.00  0.00     0.006 A 
ENDBRANCH  56  70
BRANCH  57  78
ATOM     78  C   UNL A   1      37.133  32.320  30.463  1.00  0.00     0.057 A 
ATOM     79  C   UNL A   1      36.875  33.112  29.343  1.00  0.00     0.134 A 
ATOM     80  C   UNL A   1      36.048  32.079  31.327  1.00  0.00     0.134 A 
ATOM     81  F   UNL A   1      37.845  33.370  28.454  1.00  0.00    -0.206 F 
ATOM     82  C   UNL A   1      35.596  33.616  29.075  1.00  0.00     0.040 A 
ATOM     83  C   UNL A   1      34.768  32.576  31.073  1.00  0.00     0.040 A 
ATOM     84  F   UNL A   1      36.180  31.283  32.400  1.00  0.00    -0.206 F 
ATOM     85  C   UNL A   1      34.536  33.336  29.934  1.00  0.00     0.006 A 
ENDBRANCH  57  78
BRANCH  69  86
ATOM     86  C   UNL A   1      42.149  29.723  33.305  1.00  0.00     0.057 A 
ATOM     87  C   UNL A   1      41.716  28.443  32.926  1.00  0.00     0.134 A 
ATOM     88  C   UNL A   1      42.366  29.930  34.672  1.00  0.00     0.134 A 
ATOM     89  F   UNL A   1      41.573  28.114  31.639  1.00  0.00    -0.206 F 
ATOM     90  C   UNL A   1      41.476  27.431  33.863  1.00  0.00     0.040 A 
ATOM     91  C   UNL A   1      42.160  28.920  35.616  1.00  0.00     0.040 A 
ATOM     92  F   UNL A   1      42.839  31.109  35.109  1.00  0.00    -0.206 F 
ATOM     93  C   UNL A   1      41.706  27.667  35.213  1.00  0.00     0.006 A 
ENDBRANCH  69  86
ENDBRANCH  43  44
ENDBRANCH  35  38
ENDBRANCH  33  34
ENDBRANCH  32  33
ENDBRANCH   1  32
TORSDOF 15
ENDMDL
