MODEL 1
REMARK VINA RESULT:     -12.0      0.000      0.000
REMARK SMILES O=C(C[NH+]1CCN(c2nccc(N3CCCCC3)n2)CC1)NCCCCNC(=O)c1ccc(-c2c3nc(c(-c4c(F)cccc4F)c4ccc([nH]4)c(-c4c(F)cccc4F)c4nc(c(-c5c(F)cccc5F)c5ccc2[nH]5)C=C4)C=C3)cc1
REMARK SMILES IDX 24 1 23 2 22 3 1 4 2 5 3 7 4 8 5 9 21 10 6 12 20 13 7 14
REMARK SMILES IDX 8 15 9 16 19 17 10 18 12 19 11 20 13 21 14 22 18 23 15 24
REMARK SMILES IDX 17 25 16 26 25 27 26 28 27 29 28 30 29 32 30 33 31 34 83 35
REMARK SMILES IDX 32 36 82 37 33 38 34 39 35 40 76 41 36 42 81 43 75 44 77 45
REMARK SMILES IDX 37 46 80 47 74 48 73 49 38 51 64 52 47 53 63 54 48 55 51 56
REMARK SMILES IDX 62 57 78 58 49 59 50 60 61 62 79 63 52 64 39 65 40 66 45 67
REMARK SMILES IDX 41 68 42 69 44 70 46 71 43 72 65 73 66 74 71 75 67 76 68 77
REMARK SMILES IDX 70 78 72 79 69 80 53 81 54 82 59 83 55 84 56 85 58 86 60 87
REMARK SMILES IDX 57 88
REMARK H PARENT 22 6 4 11 27 31 77 50 51 61
REMARK Flexibility Score: inf
ROOT
ATOM      1  C   UNL A   1      36.663  20.343  25.003  1.00  0.00     0.023 C 
ENDROOT
BRANCH   1   2
ATOM      2  C   UNL A   1      36.812  21.825  25.339  1.00  0.00     0.116 C 
BRANCH   2   3
ATOM      3  N   UNL A   1      35.727  22.636  24.828  1.00  0.00    -0.351 N 
ATOM      4  O   UNL A   1      36.652  22.924  22.743  1.00  0.00    -0.269 OA
ATOM      5  C   UNL A   1      35.716  23.085  23.520  1.00  0.00     0.275 C 
ATOM      6  H   UNL A   1      34.982  22.873  25.424  1.00  0.00     0.163 HD
BRANCH   5   7
ATOM      7  C   UNL A   1      34.418  23.785  23.117  1.00  0.00     0.363 C 
BRANCH   7   8
ATOM      8  N   UNL A   1      33.676  24.395  24.228  1.00  0.00    -0.324 N 
ATOM      9  C   UNL A   1      33.734  25.873  24.270  1.00  0.00     0.284 C 
ATOM     10  C   UNL A   1      32.305  23.900  24.442  1.00  0.00     0.284 C 
ATOM     11  H   UNL A   1      34.206  24.054  25.029  1.00  0.00     0.348 HD
ATOM     12  C   UNL A   1      32.615  26.652  23.533  1.00  0.00     0.181 C 
ATOM     13  C   UNL A   1      31.168  24.662  23.728  1.00  0.00     0.181 C 
ATOM     14  N   UNL A   1      31.325  26.096  23.915  1.00  0.00    -0.329 N 
BRANCH  14  15
ATOM     15  C   UNL A   1      30.178  26.826  23.713  1.00  0.00     0.227 A 
ATOM     16  N   UNL A   1      28.979  26.252  23.875  1.00  0.00    -0.221 NA
ATOM     17  N   UNL A   1      30.340  28.115  23.372  1.00  0.00    -0.196 NA
ATOM     18  C   UNL A   1      27.909  27.053  23.741  1.00  0.00     0.119 A 
ATOM     19  C   UNL A   1      29.257  28.884  23.202  1.00  0.00     0.134 A 
ATOM     20  C   UNL A   1      27.993  28.386  23.423  1.00  0.00     0.067 A 
BRANCH  19  21
ATOM     21  N   UNL A   1      29.431  30.172  22.734  1.00  0.00    -0.356 N 
ATOM     22  C   UNL A   1      29.164  31.275  23.650  1.00  0.00     0.118 C 
ATOM     23  C   UNL A   1      29.468  30.435  21.305  1.00  0.00     0.118 C 
ATOM     24  C   UNL A   1      27.934  32.069  23.219  1.00  0.00     0.022 C 
ATOM     25  C   UNL A   1      28.227  31.224  20.878  1.00  0.00     0.022 C 
ATOM     26  C   UNL A   1      28.027  32.463  21.748  1.00  0.00     0.004 C 
ENDBRANCH  19  21
ENDBRANCH  14  15
ENDBRANCH   7   8
ENDBRANCH   5   7
ENDBRANCH   2   3
ENDBRANCH   1   2
BRANCH   1  27
ATOM     27  C   UNL A   1      37.974  19.563  24.844  1.00  0.00     0.023 C 
BRANCH  27  28
ATOM     28  C   UNL A   1      39.128  20.020  25.732  1.00  0.00     0.116 C 
BRANCH  28  29
ATOM     29  N   UNL A   1      40.172  19.015  25.857  1.00  0.00    -0.352 N 
ATOM     30  C   UNL A   1      41.517  19.158  26.088  1.00  0.00     0.251 C 
ATOM     31  H   UNL A   1      39.865  18.085  25.759  1.00  0.00     0.163 HD
ATOM     32  O   UNL A   1      42.257  18.175  25.986  1.00  0.00    -0.269 OA
BRANCH  30  33
ATOM     33  C   UNL A   1      42.106  20.472  26.432  1.00  0.00     0.039 A 
ATOM     34  C   UNL A   1      42.626  21.265  25.403  1.00  0.00     0.014 A 
ATOM     35  C   UNL A   1      42.189  20.915  27.754  1.00  0.00     0.014 A 
ATOM     36  C   UNL A   1      43.158  22.526  25.691  1.00  0.00     0.010 A 
ATOM     37  C   UNL A   1      42.655  22.202  28.032  1.00  0.00     0.010 A 
ATOM     38  C   UNL A   1      43.141  23.023  27.003  1.00  0.00    -0.014 A 
BRANCH  38  39
ATOM     39  C   UNL A   1      43.610  24.402  27.313  1.00  0.00     0.031 A 
ATOM     40  C   UNL A   1      42.637  25.462  27.751  1.00  0.00     0.074 A 
ATOM     41  C   UNL A   1      44.908  24.720  27.138  1.00  0.00     0.049 A 
ATOM     42  N   UNL A   1      42.850  26.732  27.995  1.00  0.00    -0.248 NA
ATOM     43  C   UNL A   1      41.236  25.047  27.917  1.00  0.00     0.031 C 
ATOM     44  C   UNL A   1      45.952  23.799  26.682  1.00  0.00     0.029 A 
ATOM     45  N   UNL A   1      45.572  25.910  27.314  1.00  0.00    -0.354 N 
ATOM     46  C   UNL A   1      41.612  27.268  28.325  1.00  0.00     0.074 A 
ATOM     47  C   UNL A   1      40.645  26.197  28.207  1.00  0.00     0.031 C 
ATOM     48  C   UNL A   1      47.124  24.452  26.634  1.00  0.00     0.029 A 
ATOM     49  C   UNL A   1      46.912  25.844  27.014  1.00  0.00     0.049 A 
ATOM     50  H   UNL A   1      45.129  26.732  27.623  1.00  0.00     0.167 HD
ATOM     51  C   UNL A   1      41.310  28.532  28.710  1.00  0.00     0.037 A 
ATOM     52  C   UNL A   1      47.861  26.799  27.034  1.00  0.00     0.037 A 
ATOM     53  C   UNL A   1      42.274  29.593  28.852  1.00  0.00     0.049 A 
ATOM     54  C   UNL A   1      47.496  28.198  27.447  1.00  0.00     0.074 A 
ATOM     55  C   UNL A   1      42.071  30.887  29.298  1.00  0.00     0.029 A 
ATOM     56  N   UNL A   1      43.622  29.483  28.545  1.00  0.00    -0.354 N 
ATOM     57  N   UNL A   1      46.333  28.673  27.821  1.00  0.00    -0.248 NA
ATOM     58  C   UNL A   1      48.578  29.193  27.445  1.00  0.00     0.031 C 
ATOM     59  C   UNL A   1      43.285  31.575  29.216  1.00  0.00     0.029 A 
ATOM     60  C   UNL A   1      44.256  30.695  28.768  1.00  0.00     0.049 A 
ATOM     61  H   UNL A   1      44.063  28.666  28.219  1.00  0.00     0.167 HD
ATOM     62  C   UNL A   1      46.549  30.011  28.127  1.00  0.00     0.074 A 
ATOM     63  C   UNL A   1      47.956  30.269  27.907  1.00  0.00     0.031 C 
ATOM     64  C   UNL A   1      45.660  30.940  28.554  1.00  0.00     0.037 A 
BRANCH  51  65
ATOM     65  C   UNL A   1      39.870  28.842  29.005  1.00  0.00     0.057 A 
ATOM     66  C   UNL A   1      38.976  29.233  27.999  1.00  0.00     0.134 A 
ATOM     67  C   UNL A   1      39.361  28.706  30.303  1.00  0.00     0.134 A 
ATOM     68  F   UNL A   1      39.401  29.392  26.737  1.00  0.00    -0.206 F 
ATOM     69  C   UNL A   1      37.636  29.503  28.278  1.00  0.00     0.040 A 
ATOM     70  C   UNL A   1      38.016  28.946  30.589  1.00  0.00     0.040 A 
ATOM     71  F   UNL A   1      40.159  28.327  31.312  1.00  0.00    -0.206 F 
ATOM     72  C   UNL A   1      37.150  29.352  29.576  1.00  0.00     0.006 A 
ENDBRANCH  51  65
BRANCH  52  73
ATOM     73  C   UNL A   1      49.261  26.464  26.667  1.00  0.00     0.057 A 
ATOM     74  C   UNL A   1      49.735  26.671  25.367  1.00  0.00     0.134 A 
ATOM     75  C   UNL A   1      50.152  25.919  27.599  1.00  0.00     0.134 A 
ATOM     76  F   UNL A   1      48.921  27.172  24.425  1.00  0.00    -0.206 F 
ATOM     77  C   UNL A   1      51.037  26.329  24.999  1.00  0.00     0.040 A 
ATOM     78  C   UNL A   1      51.465  25.596  27.252  1.00  0.00     0.040 A 
ATOM     79  F   UNL A   1      49.762  25.702  28.864  1.00  0.00    -0.206 F 
ATOM     80  C   UNL A   1      51.907  25.794  25.945  1.00  0.00     0.006 A 
ENDBRANCH  52  73
BRANCH  64  81
ATOM     81  C   UNL A   1      46.188  32.314  28.850  1.00  0.00     0.057 A 
ATOM     82  C   UNL A   1      46.201  33.328  27.884  1.00  0.00     0.134 A 
ATOM     83  C   UNL A   1      46.657  32.635  30.130  1.00  0.00     0.134 A 
ATOM     84  F   UNL A   1      45.778  33.081  26.635  1.00  0.00    -0.206 F 
ATOM     85  C   UNL A   1      46.683  34.606  28.174  1.00  0.00     0.040 A 
ATOM     86  C   UNL A   1      47.116  33.916  30.440  1.00  0.00     0.040 A 
ATOM     87  F   UNL A   1      46.666  31.713  31.104  1.00  0.00    -0.206 F 
ATOM     88  C   UNL A   1      47.135  34.905  29.457  1.00  0.00     0.006 A 
ENDBRANCH  64  81
ENDBRANCH  38  39
ENDBRANCH  30  33
ENDBRANCH  28  29
ENDBRANCH  27  28
ENDBRANCH   1  27
TORSDOF 14
ENDMDL
MODEL 2
REMARK VINA RESULT:     -12.0      5.579     11.175
REMARK SMILES O=C(C[NH+]1CCN(c2nccc(N3CCCCC3)n2)CC1)NCCCCNC(=O)c1ccc(-c2c3nc(c(-c4c(F)cccc4F)c4ccc([nH]4)c(-c4c(F)cccc4F)c4nc(c(-c5c(F)cccc5F)c5ccc2[nH]5)C=C4)C=C3)cc1
REMARK SMILES IDX 24 1 23 2 22 3 1 4 2 5 3 7 4 8 5 9 21 10 6 12 20 13 7 14
REMARK SMILES IDX 8 15 9 16 19 17 10 18 12 19 11 20 13 21 14 22 18 23 15 24
REMARK SMILES IDX 17 25 16 26 25 27 26 28 27 29 28 30 29 32 30 33 31 34 83 35
REMARK SMILES IDX 32 36 82 37 33 38 34 39 35 40 76 41 36 42 81 43 75 44 77 45
REMARK SMILES IDX 37 46 80 47 74 48 73 49 38 51 64 52 47 53 63 54 48 55 51 56
REMARK SMILES IDX 62 57 78 58 49 59 50 60 61 62 79 63 52 64 39 65 40 66 45 67
REMARK SMILES IDX 41 68 42 69 44 70 46 71 43 72 65 73 66 74 71 75 67 76 68 77
REMARK SMILES IDX 70 78 72 79 69 80 53 81 54 82 59 83 55 84 56 85 58 86 60 87
REMARK SMILES IDX 57 88
REMARK H PARENT 22 6 4 11 27 31 77 50 51 61
REMARK Flexibility Score: inf
ROOT
ATOM      1  C   UNL A   1      31.256  30.738  26.649  1.00  0.00     0.023 C 
ENDROOT
BRANCH   1   2
ATOM      2  C   UNL A   1      32.042  29.853  25.684  1.00  0.00     0.116 C 
BRANCH   2   3
ATOM      3  N   UNL A   1      31.515  28.507  25.589  1.00  0.00    -0.351 N 
ATOM      4  O   UNL A   1      30.512  28.824  23.545  1.00  0.00    -0.269 OA
ATOM      5  C   UNL A   1      30.819  28.081  24.472  1.00  0.00     0.275 C 
ATOM      6  H   UNL A   1      31.654  27.882  26.336  1.00  0.00     0.163 HD
BRANCH   5   7
ATOM      7  C   UNL A   1      30.485  26.590  24.482  1.00  0.00     0.363 C 
BRANCH   7   8
ATOM      8  N   UNL A   1      31.150  25.802  23.435  1.00  0.00    -0.324 N 
ATOM      9  C   UNL A   1      32.628  25.870  23.457  1.00  0.00     0.284 C 
ATOM     10  C   UNL A   1      30.673  24.419  23.262  1.00  0.00     0.284 C 
ATOM     11  H   UNL A   1      30.843  26.292  22.595  1.00  0.00     0.348 HD
ATOM     12  C   UNL A   1      33.379  24.791  24.280  1.00  0.00     0.181 C 
ATOM     13  C   UNL A   1      31.408  23.321  24.062  1.00  0.00     0.181 C 
ATOM     14  N   UNL A   1      32.848  23.481  23.933  1.00  0.00    -0.329 N 
BRANCH  14  15
ATOM     15  C   UNL A   1      33.575  22.350  24.221  1.00  0.00     0.227 A 
ATOM     16  N   UNL A   1      34.886  22.443  24.478  1.00  0.00    -0.221 NA
ATOM     17  N   UNL A   1      32.897  21.191  24.243  1.00  0.00    -0.196 NA
ATOM     18  C   UNL A   1      35.508  21.306  24.832  1.00  0.00     0.119 A 
ATOM     19  C   UNL A   1      33.548  20.064  24.557  1.00  0.00     0.134 A 
ATOM     20  C   UNL A   1      34.879  20.088  24.906  1.00  0.00     0.067 A 
BRANCH  19  21
ATOM     21  N   UNL A   1      32.871  18.863  24.459  1.00  0.00    -0.356 N 
ATOM     22  C   UNL A   1      32.642  18.104  25.683  1.00  0.00     0.118 C 
ATOM     23  C   UNL A   1      32.761  18.186  23.177  1.00  0.00     0.118 C 
ATOM     24  C   UNL A   1      33.447  16.808  25.691  1.00  0.00     0.022 C 
ATOM     25  C   UNL A   1      33.578  16.891  23.190  1.00  0.00     0.022 C 
ATOM     26  C   UNL A   1      33.232  16.024  24.399  1.00  0.00     0.004 C 
ENDBRANCH  19  21
ENDBRANCH  14  15
ENDBRANCH   7   8
ENDBRANCH   5   7
ENDBRANCH   2   3
ENDBRANCH   1   2
BRANCH   1  27
ATOM     27  C   UNL A   1      31.447  32.249  26.469  1.00  0.00     0.023 C 
BRANCH  27  28
ATOM     28  C   UNL A   1      32.641  32.856  27.200  1.00  0.00     0.116 C 
BRANCH  28  29
ATOM     29  N   UNL A   1      32.407  34.231  27.613  1.00  0.00    -0.352 N 
ATOM     30  C   UNL A   1      33.008  34.976  28.595  1.00  0.00     0.251 C 
ATOM     31  H   UNL A   1      31.703  34.700  27.109  1.00  0.00     0.163 HD
ATOM     32  O   UNL A   1      32.536  36.076  28.897  1.00  0.00    -0.269 OA
BRANCH  30  33
ATOM     33  C   UNL A   1      34.199  34.479  29.322  1.00  0.00     0.039 A 
ATOM     34  C   UNL A   1      34.026  33.928  30.597  1.00  0.00     0.014 A 
ATOM     35  C   UNL A   1      35.484  34.584  28.783  1.00  0.00     0.014 A 
ATOM     36  C   UNL A   1      35.126  33.418  31.294  1.00  0.00     0.010 A 
ATOM     37  C   UNL A   1      36.569  34.011  29.449  1.00  0.00     0.010 A 
ATOM     38  C   UNL A   1      36.402  33.419  30.710  1.00  0.00    -0.014 A 
BRANCH  38  39
ATOM     39  C   UNL A   1      37.565  32.791  31.396  1.00  0.00     0.031 A 
ATOM     40  C   UNL A   1      38.243  31.585  30.804  1.00  0.00     0.074 A 
ATOM     41  C   UNL A   1      37.975  33.268  32.588  1.00  0.00     0.049 A 
ATOM     42  N   UNL A   1      39.221  30.862  31.292  1.00  0.00    -0.248 NA
ATOM     43  C   UNL A   1      37.742  31.115  29.504  1.00  0.00     0.031 C 
ATOM     44  C   UNL A   1      37.383  34.407  33.293  1.00  0.00     0.029 A 
ATOM     45  N   UNL A   1      38.979  32.847  33.425  1.00  0.00    -0.354 N 
ATOM     46  C   UNL A   1      39.440  29.847  30.370  1.00  0.00     0.074 A 
ATOM     47  C   UNL A   1      38.463  30.019  29.315  1.00  0.00     0.031 C 
ATOM     48  C   UNL A   1      38.048  34.607  34.442  1.00  0.00     0.029 A 
ATOM     49  C   UNL A   1      39.084  33.588  34.578  1.00  0.00     0.049 A 
ATOM     50  H   UNL A   1      39.569  32.087  33.219  1.00  0.00     0.167 HD
ATOM     51  C   UNL A   1      40.381  28.871  30.389  1.00  0.00     0.037 A 
ATOM     52  C   UNL A   1      39.913  33.457  35.631  1.00  0.00     0.037 A 
ATOM     53  C   UNL A   1      41.369  28.713  31.424  1.00  0.00     0.049 A 
ATOM     54  C   UNL A   1      40.936  32.355  35.636  1.00  0.00     0.074 A 
ATOM     55  C   UNL A   1      42.402  27.794  31.497  1.00  0.00     0.029 A 
ATOM     56  N   UNL A   1      41.444  29.489  32.572  1.00  0.00    -0.354 N 
ATOM     57  N   UNL A   1      41.173  31.444  34.724  1.00  0.00    -0.248 NA
ATOM     58  C   UNL A   1      41.808  32.267  36.816  1.00  0.00     0.031 C 
ATOM     59  C   UNL A   1      43.072  27.981  32.709  1.00  0.00     0.029 A 
ATOM     60  C   UNL A   1      42.490  29.051  33.369  1.00  0.00     0.049 A 
ATOM     61  H   UNL A   1      40.845  30.238  32.787  1.00  0.00     0.167 HD
ATOM     62  C   UNL A   1      42.240  30.695  35.205  1.00  0.00     0.074 A 
ATOM     63  C   UNL A   1      42.610  31.265  36.483  1.00  0.00     0.031 C 
ATOM     64  C   UNL A   1      42.857  29.631  34.636  1.00  0.00     0.037 A 
BRANCH  51  65
ATOM     65  C   UNL A   1      40.386  27.891  29.251  1.00  0.00     0.057 A 
ATOM     66  C   UNL A   1      41.232  28.046  28.145  1.00  0.00     0.134 A 
ATOM     67  C   UNL A   1      39.566  26.756  29.282  1.00  0.00     0.134 A 
ATOM     68  F   UNL A   1      42.036  29.116  28.048  1.00  0.00    -0.206 F 
ATOM     69  C   UNL A   1      41.244  27.122  27.099  1.00  0.00     0.040 A 
ATOM     70  C   UNL A   1      39.589  25.810  28.255  1.00  0.00     0.040 A 
ATOM     71  F   UNL A   1      38.738  26.541  30.314  1.00  0.00    -0.206 F 
ATOM     72  C   UNL A   1      40.425  25.995  27.156  1.00  0.00     0.006 A 
ENDBRANCH  51  65
BRANCH  52  73
ATOM     73  C   UNL A   1      39.827  34.409  36.768  1.00  0.00     0.057 A 
ATOM     74  C   UNL A   1      40.512  35.628  36.741  1.00  0.00     0.134 A 
ATOM     75  C   UNL A   1      39.072  34.118  37.912  1.00  0.00     0.134 A 
ATOM     76  F   UNL A   1      41.268  35.953  35.682  1.00  0.00    -0.206 F 
ATOM     77  C   UNL A   1      40.469  36.516  37.817  1.00  0.00     0.040 A 
ATOM     78  C   UNL A   1      38.998  35.009  38.984  1.00  0.00     0.040 A 
ATOM     79  F   UNL A   1      38.386  32.968  37.997  1.00  0.00    -0.206 F 
ATOM     80  C   UNL A   1      39.706  36.209  38.941  1.00  0.00     0.006 A 
ENDBRANCH  52  73
BRANCH  64  81
ATOM     81  C   UNL A   1      44.023  29.036  35.371  1.00  0.00     0.057 A 
ATOM     82  C   UNL A   1      45.336  29.476  35.160  1.00  0.00     0.134 A 
ATOM     83  C   UNL A   1      43.824  28.033  36.329  1.00  0.00     0.134 A 
ATOM     84  F   UNL A   1      45.596  30.424  34.247  1.00  0.00    -0.206 F 
ATOM     85  C   UNL A   1      46.412  28.925  35.859  1.00  0.00     0.040 A 
ATOM     86  C   UNL A   1      44.888  27.493  37.053  1.00  0.00     0.040 A 
ATOM     87  F   UNL A   1      42.591  27.571  36.585  1.00  0.00    -0.206 F 
ATOM     88  C   UNL A   1      46.188  27.935  36.814  1.00  0.00     0.006 A 
ENDBRANCH  64  81
ENDBRANCH  38  39
ENDBRANCH  30  33
ENDBRANCH  28  29
ENDBRANCH  27  28
ENDBRANCH   1  27
TORSDOF 14
ENDMDL
MODEL 3
REMARK VINA RESULT:     -11.9      5.054     10.818
REMARK SMILES O=C(C[NH+]1CCN(c2nccc(N3CCCCC3)n2)CC1)NCCCCNC(=O)c1ccc(-c2c3nc(c(-c4c(F)cccc4F)c4ccc([nH]4)c(-c4c(F)cccc4F)c4nc(c(-c5c(F)cccc5F)c5ccc2[nH]5)C=C4)C=C3)cc1
REMARK SMILES IDX 24 1 23 2 22 3 1 4 2 5 3 7 4 8 5 9 21 10 6 12 20 13 7 14
REMARK SMILES IDX 8 15 9 16 19 17 10 18 12 19 11 20 13 21 14 22 18 23 15 24
REMARK SMILES IDX 17 25 16 26 25 27 26 28 27 29 28 30 29 32 30 33 31 34 83 35
REMARK SMILES IDX 32 36 82 37 33 38 34 39 35 40 76 41 36 42 81 43 75 44 77 45
REMARK SMILES IDX 37 46 80 47 74 48 73 49 38 51 64 52 47 53 63 54 48 55 51 56
REMARK SMILES IDX 62 57 78 58 49 59 50 60 61 62 79 63 52 64 39 65 40 66 45 67
REMARK SMILES IDX 41 68 42 69 44 70 46 71 43 72 65 73 66 74 71 75 67 76 68 77
REMARK SMILES IDX 70 78 72 79 69 80 53 81 54 82 59 83 55 84 56 85 58 86 60 87
REMARK SMILES IDX 57 88
REMARK H PARENT 22 6 4 11 27 31 77 50 51 61
REMARK Flexibility Score: inf
ROOT
ATOM      1  C   UNL A   1      31.019  31.225  25.621  1.00  0.00     0.023 C 
ENDROOT
BRANCH   1   2
ATOM      2  C   UNL A   1      31.787  30.020  26.161  1.00  0.00     0.116 C 
BRANCH   2   3
ATOM      3  N   UNL A   1      32.238  29.120  25.120  1.00  0.00    -0.351 N 
ATOM      4  O   UNL A   1      34.376  28.918  25.939  1.00  0.00    -0.269 OA
ATOM      5  C   UNL A   1      33.516  28.590  25.128  1.00  0.00     0.275 C 
ATOM      6  H   UNL A   1      31.622  28.880  24.392  1.00  0.00     0.163 HD
BRANCH   5   7
ATOM      7  C   UNL A   1      33.755  27.538  24.047  1.00  0.00     0.363 C 
BRANCH   7   8
ATOM      8  N   UNL A   1      33.027  26.276  24.241  1.00  0.00    -0.324 N 
ATOM      9  C   UNL A   1      33.105  25.338  23.100  1.00  0.00     0.284 C 
ATOM     10  C   UNL A   1      33.249  25.589  25.525  1.00  0.00     0.284 C 
ATOM     11  H   UNL A   1      32.064  26.610  24.285  1.00  0.00     0.348 HD
ATOM     12  C   UNL A   1      34.249  24.292  23.114  1.00  0.00     0.181 C 
ATOM     13  C   UNL A   1      34.377  24.535  25.567  1.00  0.00     0.181 C 
ATOM     14  N   UNL A   1      34.282  23.647  24.419  1.00  0.00    -0.329 N 
BRANCH  14  15
ATOM     15  C   UNL A   1      34.931  22.445  24.571  1.00  0.00     0.227 A 
ATOM     16  N   UNL A   1      36.265  22.413  24.690  1.00  0.00    -0.221 NA
ATOM     17  N   UNL A   1      34.158  21.347  24.610  1.00  0.00    -0.196 NA
ATOM     18  C   UNL A   1      36.815  21.210  24.920  1.00  0.00     0.119 A 
ATOM     19  C   UNL A   1      34.735  20.153  24.797  1.00  0.00     0.134 A 
ATOM     20  C   UNL A   1      36.092  20.046  25.002  1.00  0.00     0.067 A 
BRANCH  19  21
ATOM     21  N   UNL A   1      33.947  19.022  24.715  1.00  0.00    -0.356 N 
ATOM     22  C   UNL A   1      34.614  17.727  24.625  1.00  0.00     0.118 C 
ATOM     23  C   UNL A   1      32.552  19.125  24.317  1.00  0.00     0.118 C 
ATOM     24  C   UNL A   1      34.397  17.085  23.258  1.00  0.00     0.022 C 
ATOM     25  C   UNL A   1      32.344  18.487  22.941  1.00  0.00     0.022 C 
ATOM     26  C   UNL A   1      32.916  17.072  22.890  1.00  0.00     0.004 C 
ENDBRANCH  19  21
ENDBRANCH  14  15
ENDBRANCH   7   8
ENDBRANCH   5   7
ENDBRANCH   2   3
ENDBRANCH   1   2
BRANCH   1  27
ATOM     27  C   UNL A   1      31.087  32.495  26.478  1.00  0.00     0.023 C 
BRANCH  27  28
ATOM     28  C   UNL A   1      32.462  32.837  27.045  1.00  0.00     0.116 C 
BRANCH  28  29
ATOM     29  N   UNL A   1      32.510  34.163  27.640  1.00  0.00    -0.352 N 
ATOM     30  C   UNL A   1      33.312  34.660  28.636  1.00  0.00     0.251 C 
ATOM     31  H   UNL A   1      31.863  34.806  27.270  1.00  0.00     0.163 HD
ATOM     32  O   UNL A   1      33.069  35.772  29.112  1.00  0.00    -0.269 OA
BRANCH  30  33
ATOM     33  C   UNL A   1      34.450  33.879  29.172  1.00  0.00     0.039 A 
ATOM     34  C   UNL A   1      35.745  34.204  28.751  1.00  0.00     0.014 A 
ATOM     35  C   UNL A   1      34.257  32.809  30.049  1.00  0.00     0.014 A 
ATOM     36  C   UNL A   1      36.844  33.508  29.265  1.00  0.00     0.010 A 
ATOM     37  C   UNL A   1      35.358  32.163  30.615  1.00  0.00     0.010 A 
ATOM     38  C   UNL A   1      36.663  32.507  30.233  1.00  0.00    -0.014 A 
BRANCH  38  39
ATOM     39  C   UNL A   1      37.827  31.825  30.864  1.00  0.00     0.031 A 
ATOM     40  C   UNL A   1      38.586  30.760  30.122  1.00  0.00     0.074 A 
ATOM     41  C   UNL A   1      38.164  32.121  32.135  1.00  0.00     0.049 A 
ATOM     42  N   UNL A   1      39.579  30.010  30.535  1.00  0.00    -0.248 NA
ATOM     43  C   UNL A   1      38.163  30.485  28.740  1.00  0.00     0.031 C 
ATOM     44  C   UNL A   1      37.489  33.106  32.983  1.00  0.00     0.029 A 
ATOM     45  N   UNL A   1      39.153  31.614  32.942  1.00  0.00    -0.354 N 
ATOM     46  C   UNL A   1      39.884  29.167  29.474  1.00  0.00     0.074 A 
ATOM     47  C   UNL A   1      38.944  29.466  28.414  1.00  0.00     0.031 C 
ATOM     48  C   UNL A   1      38.095  33.145  34.181  1.00  0.00     0.029 A 
ATOM     49  C   UNL A   1      39.174  32.163  34.202  1.00  0.00     0.049 A 
ATOM     50  H   UNL A   1      39.787  30.921  32.646  1.00  0.00     0.167 HD
ATOM     51  C   UNL A   1      40.870  28.241  29.383  1.00  0.00     0.037 A 
ATOM     52  C   UNL A   1      39.965  31.898  35.259  1.00  0.00     0.037 A 
ATOM     53  C   UNL A   1      41.822  27.960  30.426  1.00  0.00     0.049 A 
ATOM     54  C   UNL A   1      41.040  30.854  35.138  1.00  0.00     0.074 A 
ATOM     55  C   UNL A   1      42.895  27.085  30.401  1.00  0.00     0.029 A 
ATOM     56  N   UNL A   1      41.812  28.543  31.685  1.00  0.00    -0.354 N 
ATOM     57  N   UNL A   1      41.358  30.113  34.106  1.00  0.00    -0.248 NA
ATOM     58  C   UNL A   1      41.866  30.613  36.329  1.00  0.00     0.031 C 
ATOM     59  C   UNL A   1      43.506  27.103  31.658  1.00  0.00     0.029 A 
ATOM     60  C   UNL A   1      42.845  28.026  32.451  1.00  0.00     0.049 A 
ATOM     61  H   UNL A   1      41.169  29.222  31.988  1.00  0.00     0.167 HD
ATOM     62  C   UNL A   1      42.440  29.341  34.511  1.00  0.00     0.074 A 
ATOM     63  C   UNL A   1      42.730  29.713  35.880  1.00  0.00     0.031 C 
ATOM     64  C   UNL A   1      43.131  28.409  33.811  1.00  0.00     0.037 A 
BRANCH  51  65
ATOM     65  C   UNL A   1      40.970  27.458  28.105  1.00  0.00     0.057 A 
ATOM     66  C   UNL A   1      41.754  27.895  27.029  1.00  0.00     0.134 A 
ATOM     67  C   UNL A   1      40.309  26.231  27.965  1.00  0.00     0.134 A 
ATOM     68  F   UNL A   1      42.406  29.066  27.094  1.00  0.00    -0.206 F 
ATOM     69  C   UNL A   1      41.856  27.154  25.851  1.00  0.00     0.040 A 
ATOM     70  C   UNL A   1      40.425  25.468  26.802  1.00  0.00     0.040 A 
ATOM     71  F   UNL A   1      39.548  25.749  28.959  1.00  0.00    -0.206 F 
ATOM     72  C   UNL A   1      41.195  25.932  25.738  1.00  0.00     0.006 A 
ENDBRANCH  51  65
BRANCH  52  73
ATOM     73  C   UNL A   1      39.786  32.649  36.528  1.00  0.00     0.057 A 
ATOM     74  C   UNL A   1      38.767  32.315  37.426  1.00  0.00     0.134 A 
ATOM     75  C   UNL A   1      40.617  33.725  36.868  1.00  0.00     0.134 A 
ATOM     76  F   UNL A   1      37.926  31.308  37.147  1.00  0.00    -0.206 F 
ATOM     77  C   UNL A   1      38.564  33.033  38.606  1.00  0.00     0.040 A 
ATOM     78  C   UNL A   1      40.443  34.436  38.056  1.00  0.00     0.040 A 
ATOM     79  F   UNL A   1      41.617  34.092  36.052  1.00  0.00    -0.206 F 
ATOM     80  C   UNL A   1      39.408  34.095  38.925  1.00  0.00     0.006 A 
ENDBRANCH  52  73
BRANCH  64  81
ATOM     81  C   UNL A   1      44.294  27.753  34.497  1.00  0.00     0.057 A 
ATOM     82  C   UNL A   1      44.150  26.571  35.235  1.00  0.00     0.134 A 
ATOM     83  C   UNL A   1      45.582  28.294  34.390  1.00  0.00     0.134 A 
ATOM     84  F   UNL A   1      42.941  26.009  35.388  1.00  0.00    -0.206 F 
ATOM     85  C   UNL A   1      45.241  25.962  35.858  1.00  0.00     0.040 A 
ATOM     86  C   UNL A   1      46.684  27.681  34.986  1.00  0.00     0.040 A 
ATOM     87  F   UNL A   1      45.791  29.421  33.693  1.00  0.00    -0.206 F 
ATOM     88  C   UNL A   1      46.514  26.514  35.728  1.00  0.00     0.006 A 
ENDBRANCH  64  81
ENDBRANCH  38  39
ENDBRANCH  30  33
ENDBRANCH  28  29
ENDBRANCH  27  28
ENDBRANCH   1  27
TORSDOF 14
ENDMDL
