MODEL 1
REMARK VINA RESULT:     -11.7      0.000      0.000
REMARK SMILES Cc1ccc(C)c(NC(=O)/C=C/C(=O)NCCCCNC(=O)c2ccc(-c3c4nc(c(-c5c(F)cccc5F)c5ccc([nH]5)c(-c5c(F)cccc5F)c5nc(c(-c6c(F)cccc6F)c6ccc3[nH]6)C=C5)C=C4)cc2)c1
REMARK SMILES IDX 17 1 16 2 15 3 13 4 14 5 12 7 11 8 9 9 8 10 10 12 7 13 1 14
REMARK SMILES IDX 2 15 3 16 77 17 4 18 5 19 6 20 18 21 19 22 20 23 21 24 22 26
REMARK SMILES IDX 23 27 24 28 76 29 25 30 75 31 26 32 27 33 28 34 69 35 29 36
REMARK SMILES IDX 74 37 68 38 70 39 30 40 73 41 67 42 66 43 31 45 57 46 40 47
REMARK SMILES IDX 56 48 41 49 44 50 55 51 71 52 42 53 43 54 54 56 72 57 45 58
REMARK SMILES IDX 32 59 33 60 38 61 34 62 35 63 37 64 39 65 36 66 58 67 59 68
REMARK SMILES IDX 64 69 60 70 61 71 63 72 65 73 62 74 46 75 47 76 52 77 48 78
REMARK SMILES IDX 49 79 51 80 53 81 50 82
REMARK H PARENT 15 6 8 11 20 25 70 44 44 55
REMARK Flexibility Score: inf
ROOT
ATOM      1  C   UNL A   1      40.397  21.690  26.308  1.00  0.00     0.023 C 
ENDROOT
BRANCH   1   2
ATOM      2  C   UNL A   1      38.931  22.073  26.491  1.00  0.00     0.116 C 
BRANCH   2   3
ATOM      3  N   UNL A   1      38.451  22.796  25.333  1.00  0.00    -0.353 N 
ATOM      4  C   UNL A   1      37.194  22.736  24.848  1.00  0.00     0.244 C 
ATOM      5  O   UNL A   1      37.001  22.913  23.632  1.00  0.00    -0.270 OA
ATOM      6  H   UNL A   1      39.091  23.376  24.863  1.00  0.00     0.163 HD
BRANCH   4   7
ATOM      7  C   UNL A   1      36.098  22.533  25.806  1.00  0.00     0.077 C 
ATOM      8  C   UNL A   1      35.501  21.338  25.932  1.00  0.00     0.077 C 
BRANCH   8   9
ATOM      9  C   UNL A   1      34.263  21.293  26.719  1.00  0.00     0.248 C 
ATOM     10  N   UNL A   1      33.281  20.390  26.443  1.00  0.00    -0.322 N 
ATOM     11  H   UNL A   1      32.599  20.370  27.154  1.00  0.00     0.170 HD
ATOM     12  O   UNL A   1      34.134  22.054  27.681  1.00  0.00    -0.270 OA
BRANCH  10  13
ATOM     13  C   UNL A   1      32.978  19.471  25.408  1.00  0.00     0.044 A 
ATOM     14  C   UNL A   1      32.506  15.656  25.416  1.00  0.00     0.044 C 
ATOM     15  C   UNL A   1      32.674  17.066  24.941  1.00  0.00    -0.049 A 
ATOM     16  C   UNL A   1      32.520  17.343  23.588  1.00  0.00     0.004 A 
ATOM     17  C   UNL A   1      32.932  18.123  25.830  1.00  0.00     0.029 A 
ATOM     18  C   UNL A   1      32.517  18.660  23.159  1.00  0.00     0.006 A 
ATOM     19  C   UNL A   1      32.661  19.731  24.065  1.00  0.00    -0.027 A 
ATOM     20  C   UNL A   1      32.368  21.065  23.467  1.00  0.00     0.046 C 
ENDBRANCH  10  13
ENDBRANCH   8   9
ENDBRANCH   4   7
ENDBRANCH   2   3
ENDBRANCH   1   2
BRANCH   1  21
ATOM     21  C   UNL A   1      40.698  20.228  25.945  1.00  0.00     0.023 C 
BRANCH  21  22
ATOM     22  C   UNL A   1      42.064  19.628  26.294  1.00  0.00     0.116 C 
BRANCH  22  23
ATOM     23  N   UNL A   1      43.110  19.841  25.308  1.00  0.00    -0.352 N 
ATOM     24  C   UNL A   1      43.846  20.911  24.855  1.00  0.00     0.251 C 
ATOM     25  H   UNL A   1      43.355  19.007  24.845  1.00  0.00     0.163 HD
ATOM     26  O   UNL A   1      44.545  20.715  23.856  1.00  0.00    -0.269 OA
BRANCH  24  27
ATOM     27  C   UNL A   1      43.927  22.238  25.525  1.00  0.00     0.039 A 
ATOM     28  C   UNL A   1      44.563  22.332  26.782  1.00  0.00     0.014 A 
ATOM     29  C   UNL A   1      43.290  23.366  25.036  1.00  0.00     0.014 A 
ATOM     30  C   UNL A   1      44.463  23.497  27.555  1.00  0.00     0.010 A 
ATOM     31  C   UNL A   1      43.175  24.506  25.792  1.00  0.00     0.010 A 
ATOM     32  C   UNL A   1      43.721  24.567  27.066  1.00  0.00    -0.014 A 
BRANCH  32  33
ATOM     33  C   UNL A   1      43.491  25.812  27.786  1.00  0.00     0.031 A 
ATOM     34  C   UNL A   1      44.390  26.933  27.399  1.00  0.00     0.074 A 
ATOM     35  C   UNL A   1      42.296  26.103  28.339  1.00  0.00     0.049 A 
ATOM     36  N   UNL A   1      45.448  27.363  28.007  1.00  0.00    -0.248 NA
ATOM     37  C   UNL A   1      44.208  27.512  26.053  1.00  0.00     0.031 C 
ATOM     38  C   UNL A   1      41.067  25.307  28.328  1.00  0.00     0.029 A 
ATOM     39  N   UNL A   1      41.906  27.268  28.922  1.00  0.00    -0.354 N 
ATOM     40  C   UNL A   1      45.932  28.389  27.196  1.00  0.00     0.074 A 
ATOM     41  C   UNL A   1      45.371  28.140  25.903  1.00  0.00     0.031 C 
ATOM     42  C   UNL A   1      40.032  26.087  28.723  1.00  0.00     0.029 A 
ATOM     43  C   UNL A   1      40.537  27.398  29.108  1.00  0.00     0.049 A 
ATOM     44  H   UNL A   1      42.545  27.966  29.190  1.00  0.00     0.167 HD
ATOM     45  C   UNL A   1      46.439  29.553  27.701  1.00  0.00     0.037 A 
ATOM     46  C   UNL A   1      39.891  28.528  29.492  1.00  0.00     0.037 A 
ATOM     47  C   UNL A   1      46.598  29.443  29.136  1.00  0.00     0.049 A 
ATOM     48  C   UNL A   1      40.918  29.483  29.994  1.00  0.00     0.074 A 
ATOM     49  C   UNL A   1      47.239  28.566  29.990  1.00  0.00     0.029 A 
ATOM     50  N   UNL A   1      45.701  30.129  29.924  1.00  0.00    -0.354 N 
ATOM     51  N   UNL A   1      41.577  29.346  31.109  1.00  0.00    -0.248 NA
ATOM     52  C   UNL A   1      41.510  30.406  29.035  1.00  0.00     0.031 C 
ATOM     53  C   UNL A   1      46.366  28.432  31.112  1.00  0.00     0.029 A 
ATOM     54  C   UNL A   1      45.278  29.280  30.911  1.00  0.00     0.049 A 
ATOM     55  H   UNL A   1      45.415  31.063  29.800  1.00  0.00     0.167 HD
ATOM     56  C   UNL A   1      42.853  29.810  30.827  1.00  0.00     0.074 A 
ATOM     57  C   UNL A   1      42.720  30.554  29.578  1.00  0.00     0.031 C 
ATOM     58  C   UNL A   1      43.945  29.298  31.469  1.00  0.00     0.037 A 
BRANCH  45  59
ATOM     59  C   UNL A   1      46.407  30.916  27.006  1.00  0.00     0.057 A 
ATOM     60  C   UNL A   1      47.608  31.653  26.938  1.00  0.00     0.134 A 
ATOM     61  C   UNL A   1      45.265  31.651  26.619  1.00  0.00     0.134 A 
ATOM     62  F   UNL A   1      48.787  31.080  27.225  1.00  0.00    -0.206 F 
ATOM     63  C   UNL A   1      47.648  33.024  26.652  1.00  0.00     0.040 A 
ATOM     64  C   UNL A   1      45.301  33.010  26.285  1.00  0.00     0.040 A 
ATOM     65  F   UNL A   1      44.029  31.149  26.597  1.00  0.00    -0.206 F 
ATOM     66  C   UNL A   1      46.486  33.713  26.344  1.00  0.00     0.006 A 
ENDBRANCH  45  59
BRANCH  46  67
ATOM     67  C   UNL A   1      38.490  28.962  29.276  1.00  0.00     0.057 A 
ATOM     68  C   UNL A   1      37.591  29.043  30.353  1.00  0.00     0.134 A 
ATOM     69  C   UNL A   1      38.066  29.555  28.076  1.00  0.00     0.134 A 
ATOM     70  F   UNL A   1      37.914  28.534  31.550  1.00  0.00    -0.206 F 
ATOM     71  C   UNL A   1      36.361  29.704  30.252  1.00  0.00     0.040 A 
ATOM     72  C   UNL A   1      36.833  30.208  27.959  1.00  0.00     0.040 A 
ATOM     73  F   UNL A   1      38.868  29.595  27.002  1.00  0.00    -0.206 F 
ATOM     74  C   UNL A   1      35.984  30.301  29.055  1.00  0.00     0.006 A 
ENDBRANCH  46  67
BRANCH  58  75
ATOM     75  C   UNL A   1      43.714  28.472  32.702  1.00  0.00     0.057 A 
ATOM     76  C   UNL A   1      43.579  27.075  32.707  1.00  0.00     0.134 A 
ATOM     77  C   UNL A   1      43.762  29.106  33.950  1.00  0.00     0.134 A 
ATOM     78  F   UNL A   1      43.628  26.368  31.571  1.00  0.00    -0.206 F 
ATOM     79  C   UNL A   1      43.448  26.351  33.895  1.00  0.00     0.040 A 
ATOM     80  C   UNL A   1      43.671  28.390  35.145  1.00  0.00     0.040 A 
ATOM     81  F   UNL A   1      43.942  30.434  34.027  1.00  0.00    -0.206 F 
ATOM     82  C   UNL A   1      43.499  27.008  35.120  1.00  0.00     0.006 A 
ENDBRANCH  58  75
ENDBRANCH  32  33
ENDBRANCH  24  27
ENDBRANCH  22  23
ENDBRANCH  21  22
ENDBRANCH   1  21
TORSDOF 13
ENDMDL
MODEL 2
REMARK VINA RESULT:     -11.5      1.600      2.207
REMARK SMILES Cc1ccc(C)c(NC(=O)/C=C/C(=O)NCCCCNC(=O)c2ccc(-c3c4nc(c(-c5c(F)cccc5F)c5ccc([nH]5)c(-c5c(F)cccc5F)c5nc(c(-c6c(F)cccc6F)c6ccc3[nH]6)C=C5)C=C4)cc2)c1
REMARK SMILES IDX 17 1 16 2 15 3 13 4 14 5 12 7 11 8 9 9 8 10 10 12 7 13 1 14
REMARK SMILES IDX 2 15 3 16 77 17 4 18 5 19 6 20 18 21 19 22 20 23 21 24 22 26
REMARK SMILES IDX 23 27 24 28 76 29 25 30 75 31 26 32 27 33 28 34 69 35 29 36
REMARK SMILES IDX 74 37 68 38 70 39 30 40 73 41 67 42 66 43 31 45 57 46 40 47
REMARK SMILES IDX 56 48 41 49 44 50 55 51 71 52 42 53 43 54 54 56 72 57 45 58
REMARK SMILES IDX 32 59 33 60 38 61 34 62 35 63 37 64 39 65 36 66 58 67 59 68
REMARK SMILES IDX 64 69 60 70 61 71 63 72 65 73 62 74 46 75 47 76 52 77 48 78
REMARK SMILES IDX 49 79 51 80 53 81 50 82
REMARK H PARENT 15 6 8 11 20 25 70 44 44 55
REMARK Flexibility Score: inf
ROOT
ATOM      1  C   UNL A   1      41.148  21.069  27.596  1.00  0.00     0.023 C 
ENDROOT
BRANCH   1   2
ATOM      2  C   UNL A   1      40.111  21.348  26.511  1.00  0.00     0.116 C 
BRANCH   2   3
ATOM      3  N   UNL A   1      39.393  22.570  26.803  1.00  0.00    -0.353 N 
ATOM      4  C   UNL A   1      38.288  22.993  26.156  1.00  0.00     0.244 C 
ATOM      5  O   UNL A   1      38.061  24.214  26.072  1.00  0.00    -0.270 OA
ATOM      6  H   UNL A   1      39.737  23.136  27.531  1.00  0.00     0.163 HD
BRANCH   4   7
ATOM      7  C   UNL A   1      37.362  21.976  25.641  1.00  0.00     0.077 C 
ATOM      8  C   UNL A   1      36.086  22.280  25.357  1.00  0.00     0.077 C 
BRANCH   8   9
ATOM      9  C   UNL A   1      35.178  21.159  25.092  1.00  0.00     0.248 C 
ATOM     10  N   UNL A   1      33.827  21.334  25.060  1.00  0.00    -0.322 N 
ATOM     11  H   UNL A   1      33.368  20.537  24.707  1.00  0.00     0.170 HD
ATOM     12  O   UNL A   1      35.650  20.047  24.843  1.00  0.00    -0.270 OA
BRANCH  10  13
ATOM     13  C   UNL A   1      32.906  22.356  25.398  1.00  0.00     0.044 A 
ATOM     14  C   UNL A   1      30.356  24.316  23.292  1.00  0.00     0.044 C 
ATOM     15  C   UNL A   1      31.223  23.883  24.434  1.00  0.00    -0.049 A 
ATOM     16  C   UNL A   1      31.055  24.489  25.674  1.00  0.00     0.004 A 
ATOM     17  C   UNL A   1      32.165  22.849  24.300  1.00  0.00     0.029 A 
ATOM     18  C   UNL A   1      31.737  23.992  26.772  1.00  0.00     0.006 A 
ATOM     19  C   UNL A   1      32.597  22.880  26.664  1.00  0.00    -0.027 A 
ATOM     20  C   UNL A   1      33.030  22.328  27.980  1.00  0.00     0.046 C 
ENDBRANCH  10  13
ENDBRANCH   8   9
ENDBRANCH   4   7
ENDBRANCH   2   3
ENDBRANCH   1   2
BRANCH   1  21
ATOM     21  C   UNL A   1      42.313  20.139  27.226  1.00  0.00     0.023 C 
BRANCH  21  22
ATOM     22  C   UNL A   1      42.248  19.323  25.931  1.00  0.00     0.116 C 
BRANCH  22  23
ATOM     23  N   UNL A   1      43.372  19.498  25.026  1.00  0.00    -0.352 N 
ATOM     24  C   UNL A   1      44.148  20.550  24.597  1.00  0.00     0.251 C 
ATOM     25  H   UNL A   1      43.649  18.648  24.615  1.00  0.00     0.163 HD
ATOM     26  O   UNL A   1      44.925  20.318  23.667  1.00  0.00    -0.269 OA
BRANCH  24  27
ATOM     27  C   UNL A   1      44.181  21.900  25.225  1.00  0.00     0.039 A 
ATOM     28  C   UNL A   1      45.173  22.181  26.189  1.00  0.00     0.014 A 
ATOM     29  C   UNL A   1      43.201  22.853  25.006  1.00  0.00     0.014 A 
ATOM     30  C   UNL A   1      45.108  23.342  26.973  1.00  0.00     0.010 A 
ATOM     31  C   UNL A   1      43.121  23.986  25.778  1.00  0.00     0.010 A 
ATOM     32  C   UNL A   1      44.043  24.218  26.788  1.00  0.00    -0.014 A 
BRANCH  32  33
ATOM     33  C   UNL A   1      43.824  25.429  27.568  1.00  0.00     0.031 A 
ATOM     34  C   UNL A   1      44.737  26.557  27.241  1.00  0.00     0.074 A 
ATOM     35  C   UNL A   1      42.630  25.706  28.130  1.00  0.00     0.049 A 
ATOM     36  N   UNL A   1      45.797  26.944  27.875  1.00  0.00    -0.248 NA
ATOM     37  C   UNL A   1      44.569  27.204  25.925  1.00  0.00     0.031 C 
ATOM     38  C   UNL A   1      41.391  24.927  28.074  1.00  0.00     0.029 A 
ATOM     39  N   UNL A   1      42.250  26.846  28.768  1.00  0.00    -0.354 N 
ATOM     40  C   UNL A   1      46.297  28.003  27.116  1.00  0.00     0.074 A 
ATOM     41  C   UNL A   1      45.740  27.825  25.810  1.00  0.00     0.031 C 
ATOM     42  C   UNL A   1      40.363  25.699  28.503  1.00  0.00     0.029 A 
ATOM     43  C   UNL A   1      40.882  26.982  28.954  1.00  0.00     0.049 A 
ATOM     44  H   UNL A   1      42.896  27.523  29.073  1.00  0.00     0.167 HD
ATOM     45  C   UNL A   1      46.815  29.135  27.681  1.00  0.00     0.037 A 
ATOM     46  C   UNL A   1      40.247  28.100  29.391  1.00  0.00     0.037 A 
ATOM     47  C   UNL A   1      46.966  28.952  29.109  1.00  0.00     0.049 A 
ATOM     48  C   UNL A   1      41.282  29.017  29.944  1.00  0.00     0.074 A 
ATOM     49  C   UNL A   1      47.593  28.026  29.922  1.00  0.00     0.029 A 
ATOM     50  N   UNL A   1      46.073  29.609  29.926  1.00  0.00    -0.354 N 
ATOM     51  N   UNL A   1      41.934  28.817  31.054  1.00  0.00    -0.248 NA
ATOM     52  C   UNL A   1      41.890  29.979  29.034  1.00  0.00     0.031 C 
ATOM     53  C   UNL A   1      46.713  27.847  31.032  1.00  0.00     0.029 A 
ATOM     54  C   UNL A   1      45.635  28.717  30.868  1.00  0.00     0.049 A 
ATOM     55  H   UNL A   1      45.799  30.551  29.847  1.00  0.00     0.167 HD
ATOM     56  C   UNL A   1      43.218  29.279  30.801  1.00  0.00     0.074 A 
ATOM     57  C   UNL A   1      43.100  30.085  29.589  1.00  0.00     0.031 C 
ATOM     58  C   UNL A   1      44.300  28.723  31.421  1.00  0.00     0.037 A 
BRANCH  45  59
ATOM     59  C   UNL A   1      46.802  30.530  27.054  1.00  0.00     0.057 A 
ATOM     60  C   UNL A   1      48.010  31.259  27.035  1.00  0.00     0.134 A 
ATOM     61  C   UNL A   1      45.671  31.293  26.692  1.00  0.00     0.134 A 
ATOM     62  F   UNL A   1      49.181  30.662  27.307  1.00  0.00    -0.206 F 
ATOM     63  C   UNL A   1      48.065  32.642  26.819  1.00  0.00     0.040 A 
ATOM     64  C   UNL A   1      45.722  32.667  26.426  1.00  0.00     0.040 A 
ATOM     65  F   UNL A   1      44.432  30.805  26.631  1.00  0.00    -0.206 F 
ATOM     66  C   UNL A   1      46.913  33.356  26.532  1.00  0.00     0.006 A 
ENDBRANCH  45  59
BRANCH  46  67
ATOM     67  C   UNL A   1      38.853  28.561  29.190  1.00  0.00     0.057 A 
ATOM     68  C   UNL A   1      37.955  28.616  30.270  1.00  0.00     0.134 A 
ATOM     69  C   UNL A   1      38.437  29.201  28.012  1.00  0.00     0.134 A 
ATOM     70  F   UNL A   1      38.269  28.061  31.449  1.00  0.00    -0.206 F 
ATOM     71  C   UNL A   1      36.733  29.297  30.192  1.00  0.00     0.040 A 
ATOM     72  C   UNL A   1      37.214  29.875  27.918  1.00  0.00     0.040 A 
ATOM     73  F   UNL A   1      39.240  29.268  26.940  1.00  0.00    -0.206 F 
ATOM     74  C   UNL A   1      36.366  29.941  29.017  1.00  0.00     0.006 A 
ENDBRANCH  46  67
BRANCH  58  75
ATOM     75  C   UNL A   1      44.053  27.840  32.611  1.00  0.00     0.057 A 
ATOM     76  C   UNL A   1      43.944  26.443  32.551  1.00  0.00     0.134 A 
ATOM     77  C   UNL A   1      44.059  28.420  33.885  1.00  0.00     0.134 A 
ATOM     78  F   UNL A   1      44.035  25.787  31.388  1.00  0.00    -0.206 F 
ATOM     79  C   UNL A   1      43.797  25.665  33.703  1.00  0.00     0.040 A 
ATOM     80  C   UNL A   1      43.951  27.651  35.046  1.00  0.00     0.040 A 
ATOM     81  F   UNL A   1      44.212  29.746  34.025  1.00  0.00    -0.206 F 
ATOM     82  C   UNL A   1      43.805  26.269  34.957  1.00  0.00     0.006 A 
ENDBRANCH  58  75
ENDBRANCH  32  33
ENDBRANCH  24  27
ENDBRANCH  22  23
ENDBRANCH  21  22
ENDBRANCH   1  21
TORSDOF 13
ENDMDL
MODEL 3
REMARK VINA RESULT:     -11.4      3.912      7.076
REMARK SMILES Cc1ccc(C)c(NC(=O)/C=C/C(=O)NCCCCNC(=O)c2ccc(-c3c4nc(c(-c5c(F)cccc5F)c5ccc([nH]5)c(-c5c(F)cccc5F)c5nc(c(-c6c(F)cccc6F)c6ccc3[nH]6)C=C5)C=C4)cc2)c1
REMARK SMILES IDX 17 1 16 2 15 3 13 4 14 5 12 7 11 8 9 9 8 10 10 12 7 13 1 14
REMARK SMILES IDX 2 15 3 16 77 17 4 18 5 19 6 20 18 21 19 22 20 23 21 24 22 26
REMARK SMILES IDX 23 27 24 28 76 29 25 30 75 31 26 32 27 33 28 34 69 35 29 36
REMARK SMILES IDX 74 37 68 38 70 39 30 40 73 41 67 42 66 43 31 45 57 46 40 47
REMARK SMILES IDX 56 48 41 49 44 50 55 51 71 52 42 53 43 54 54 56 72 57 45 58
REMARK SMILES IDX 32 59 33 60 38 61 34 62 35 63 37 64 39 65 36 66 58 67 59 68
REMARK SMILES IDX 64 69 60 70 61 71 63 72 65 73 62 74 46 75 47 76 52 77 48 78
REMARK SMILES IDX 49 79 51 80 53 81 50 82
REMARK H PARENT 15 6 8 11 20 25 70 44 44 55
REMARK Flexibility Score: inf
ROOT
ATOM      1  C   UNL A   1      42.941  25.100  24.997  1.00  0.00     0.023 C 
ENDROOT
BRANCH   1   2
ATOM      2  C   UNL A   1      43.836  26.067  25.766  1.00  0.00     0.116 C 
BRANCH   2   3
ATOM      3  N   UNL A   1      44.645  26.842  24.850  1.00  0.00    -0.353 N 
ATOM      4  C   UNL A   1      45.788  27.479  25.173  1.00  0.00     0.244 C 
ATOM      5  O   UNL A   1      46.112  28.505  24.549  1.00  0.00    -0.270 OA
ATOM      6  H   UNL A   1      44.337  26.909  23.918  1.00  0.00     0.163 HD
BRANCH   4   7
ATOM      7  C   UNL A   1      46.638  26.880  26.211  1.00  0.00     0.077 C 
ATOM      8  C   UNL A   1      46.720  27.421  27.437  1.00  0.00     0.077 C 
BRANCH   8   9
ATOM      9  C   UNL A   1      47.774  26.910  28.320  1.00  0.00     0.248 C 
ATOM     10  N   UNL A   1      47.532  25.898  29.200  1.00  0.00    -0.322 N 
ATOM     11  H   UNL A   1      48.367  25.556  29.595  1.00  0.00     0.170 HD
ATOM     12  O   UNL A   1      48.913  27.372  28.229  1.00  0.00    -0.270 OA
BRANCH  10  13
ATOM     13  C   UNL A   1      46.400  25.205  29.697  1.00  0.00     0.044 A 
ATOM     14  C   UNL A   1      44.273  25.690  32.862  1.00  0.00     0.044 C 
ATOM     15  C   UNL A   1      44.838  25.103  31.605  1.00  0.00    -0.049 A 
ATOM     16  C   UNL A   1      44.228  23.983  31.053  1.00  0.00     0.004 A 
ATOM     17  C   UNL A   1      45.932  25.682  30.942  1.00  0.00     0.029 A 
ATOM     18  C   UNL A   1      44.641  23.525  29.813  1.00  0.00     0.006 A 
ATOM     19  C   UNL A   1      45.664  24.174  29.091  1.00  0.00    -0.027 A 
ATOM     20  C   UNL A   1      45.787  23.710  27.679  1.00  0.00     0.046 C 
ENDBRANCH  10  13
ENDBRANCH   8   9
ENDBRANCH   4   7
ENDBRANCH   2   3
ENDBRANCH   1   2
BRANCH   1  21
ATOM     21  C   UNL A   1      43.538  23.731  24.635  1.00  0.00     0.023 C 
BRANCH  21  22
ATOM     22  C   UNL A   1      43.173  22.502  25.474  1.00  0.00     0.116 C 
BRANCH  22  23
ATOM     23  N   UNL A   1      41.759  22.168  25.510  1.00  0.00    -0.352 N 
ATOM     24  C   UNL A   1      40.663  22.564  26.239  1.00  0.00     0.251 C 
ATOM     25  H   UNL A   1      41.526  21.483  24.842  1.00  0.00     0.163 HD
ATOM     26  O   UNL A   1      39.630  21.907  26.082  1.00  0.00    -0.269 OA
BRANCH  24  27
ATOM     27  C   UNL A   1      40.609  23.764  27.119  1.00  0.00     0.039 A 
ATOM     28  C   UNL A   1      39.713  24.807  26.799  1.00  0.00     0.014 A 
ATOM     29  C   UNL A   1      41.493  23.967  28.165  1.00  0.00     0.014 A 
ATOM     30  C   UNL A   1      39.787  26.046  27.451  1.00  0.00     0.010 A 
ATOM     31  C   UNL A   1      41.582  25.181  28.800  1.00  0.00     0.010 A 
ATOM     32  C   UNL A   1      40.764  26.237  28.423  1.00  0.00    -0.014 A 
BRANCH  32  33
ATOM     33  C   UNL A   1      40.987  27.487  29.138  1.00  0.00     0.031 A 
ATOM     34  C   UNL A   1      42.036  28.364  28.550  1.00  0.00     0.074 A 
ATOM     35  C   UNL A   1      40.030  28.047  29.904  1.00  0.00     0.049 A 
ATOM     36  N   UNL A   1      43.265  28.514  28.928  1.00  0.00    -0.248 NA
ATOM     37  C   UNL A   1      41.738  28.995  27.249  1.00  0.00     0.031 C 
ATOM     38  C   UNL A   1      38.668  27.573  30.156  1.00  0.00     0.029 A 
ATOM     39  N   UNL A   1      40.054  29.261  30.517  1.00  0.00    -0.354 N 
ATOM     40  C   UNL A   1      43.813  29.407  28.008  1.00  0.00     0.074 A 
ATOM     41  C   UNL A   1      42.966  29.326  26.857  1.00  0.00     0.031 C 
ATOM     42  C   UNL A   1      37.949  28.573  30.722  1.00  0.00     0.029 A 
ATOM     43  C   UNL A   1      38.821  29.714  30.963  1.00  0.00     0.049 A 
ATOM     44  H   UNL A   1      40.883  29.778  30.635  1.00  0.00     0.167 HD
ATOM     45  C   UNL A   1      44.674  30.404  28.370  1.00  0.00     0.037 A 
ATOM     46  C   UNL A   1      38.554  30.960  31.433  1.00  0.00     0.037 A 
ATOM     47  C   UNL A   1      45.080  30.231  29.750  1.00  0.00     0.049 A 
ATOM     48  C   UNL A   1      39.859  31.628  31.697  1.00  0.00     0.074 A 
ATOM     49  C   UNL A   1      45.646  29.208  30.488  1.00  0.00     0.029 A 
ATOM     50  N   UNL A   1      44.547  31.099  30.677  1.00  0.00    -0.354 N 
ATOM     51  N   UNL A   1      40.672  31.314  32.666  1.00  0.00    -0.248 NA
ATOM     52  C   UNL A   1      40.457  32.398  30.614  1.00  0.00     0.031 C 
ATOM     53  C   UNL A   1      45.004  29.268  31.762  1.00  0.00     0.029 A 
ATOM     54  C   UNL A   1      44.134  30.358  31.751  1.00  0.00     0.049 A 
ATOM     55  H   UNL A   1      44.477  32.076  30.584  1.00  0.00     0.167 HD
ATOM     56  C   UNL A   1      41.941  31.461  32.127  1.00  0.00     0.074 A 
ATOM     57  C   UNL A   1      41.749  32.238  30.907  1.00  0.00     0.031 C 
ATOM     58  C   UNL A   1      42.981  30.687  32.558  1.00  0.00     0.037 A 
BRANCH  45  59
ATOM     59  C   UNL A   1      44.836  31.747  27.656  1.00  0.00     0.057 A 
ATOM     60  C   UNL A   1      45.966  31.926  26.831  1.00  0.00     0.134 A 
ATOM     61  C   UNL A   1      44.112  32.935  27.896  1.00  0.00     0.134 A 
ATOM     62  F   UNL A   1      46.729  30.884  26.469  1.00  0.00    -0.206 F 
ATOM     63  C   UNL A   1      46.412  33.185  26.408  1.00  0.00     0.040 A 
ATOM     64  C   UNL A   1      44.522  34.193  27.437  1.00  0.00     0.040 A 
ATOM     65  F   UNL A   1      43.005  32.995  28.638  1.00  0.00    -0.206 F 
ATOM     66  C   UNL A   1      45.699  34.329  26.729  1.00  0.00     0.006 A 
ENDBRANCH  45  59
BRANCH  46  67
ATOM     67  C   UNL A   1      37.286  31.724  31.481  1.00  0.00     0.057 A 
ATOM     68  C   UNL A   1      36.531  31.933  30.314  1.00  0.00     0.134 A 
ATOM     69  C   UNL A   1      36.647  32.042  32.690  1.00  0.00     0.134 A 
ATOM     70  F   UNL A   1      37.039  31.634  29.110  1.00  0.00    -0.206 F 
ATOM     71  C   UNL A   1      35.210  32.396  30.350  1.00  0.00     0.040 A 
ATOM     72  C   UNL A   1      35.331  32.516  32.739  1.00  0.00     0.040 A 
ATOM     73  F   UNL A   1      37.247  31.821  33.869  1.00  0.00    -0.206 F 
ATOM     74  C   UNL A   1      34.601  32.677  31.567  1.00  0.00     0.006 A 
ENDBRANCH  46  67
BRANCH  58  75
ATOM     75  C   UNL A   1      42.804  29.918  33.836  1.00  0.00     0.057 A 
ATOM     76  C   UNL A   1      42.263  28.626  33.915  1.00  0.00     0.134 A 
ATOM     77  C   UNL A   1      43.326  30.458  35.018  1.00  0.00     0.134 A 
ATOM     78  F   UNL A   1      41.836  27.983  32.821  1.00  0.00    -0.206 F 
ATOM     79  C   UNL A   1      42.199  27.926  35.123  1.00  0.00     0.040 A 
ATOM     80  C   UNL A   1      43.303  29.754  36.224  1.00  0.00     0.040 A 
ATOM     81  F   UNL A   1      43.907  31.668  35.011  1.00  0.00    -0.206 F 
ATOM     82  C   UNL A   1      42.725  28.488  36.282  1.00  0.00     0.006 A 
ENDBRANCH  58  75
ENDBRANCH  32  33
ENDBRANCH  24  27
ENDBRANCH  22  23
ENDBRANCH  21  22
ENDBRANCH   1  21
TORSDOF 13
ENDMDL
