MODEL 1
REMARK VINA RESULT:     -11.4      0.000      0.000
REMARK SMILES COc1ccc(CCn2cc(C(=O)NCCCCNC(=O)c3ccc(-c4c5nc(c(-c6c(F)cccc6F)c6ccc([nH]6)c(-c6c(F)cccc6F)c6nc(c(-c7c(F)cccc7F)c7ccc4[nH]7)C=C6)C=C5)cc3)ccc2=O)cc1OC
REMARK SMILES IDX 15 1 14 2 12 3 13 4 11 6 9 7 10 8 78 9 77 10 79 11 76 12
REMARK SMILES IDX 8 13 7 14 6 15 3 16 4 17 81 18 5 19 80 20 2 21 1 22 82 23
REMARK SMILES IDX 83 24 16 25 17 26 18 27 19 28 20 29 21 31 22 32 23 33 75 34
REMARK SMILES IDX 24 35 74 36 25 37 26 38 27 39 68 40 28 41 73 42 67 43 69 44
REMARK SMILES IDX 29 45 72 46 66 47 65 48 30 50 56 51 39 52 55 53 40 54 43 55
REMARK SMILES IDX 54 56 70 57 41 58 42 59 53 61 71 62 44 63 31 64 32 65 37 66
REMARK SMILES IDX 33 67 34 68 36 69 38 70 35 71 57 72 58 73 63 74 59 75 60 76
REMARK SMILES IDX 62 77 64 78 61 79 45 80 46 81 51 82 47 83 48 84 50 85 52 86
REMARK SMILES IDX 49 87
REMARK H PARENT 14 5 19 30 69 49 43 60
REMARK Flexibility Score: inf
ROOT
ATOM      1  C   UNL A   1      32.031  29.770  25.356  1.00  0.00     0.116 C 
ENDROOT
BRANCH   1   2
ATOM      2  N   UNL A   1      30.930  30.206  24.517  1.00  0.00    -0.352 N 
ATOM      3  C   UNL A   1      30.146  29.568  23.603  1.00  0.00     0.252 C 
ATOM      4  O   UNL A   1      29.283  30.241  23.034  1.00  0.00    -0.269 OA
ATOM      5  H   UNL A   1      30.702  31.156  24.633  1.00  0.00     0.163 HD
BRANCH   3   6
ATOM      6  C   UNL A   1      30.209  28.086  23.373  1.00  0.00     0.056 A 
ATOM      7  N   UNL A   1      31.187  26.123  22.434  1.00  0.00    -0.314 N 
ATOM      8  C   UNL A   1      30.955  27.495  22.426  1.00  0.00     0.103 A 
ATOM      9  C   UNL A   1      30.415  25.252  23.208  1.00  0.00     0.250 A 
ATOM     10  C   UNL A   1      29.457  25.895  24.141  1.00  0.00     0.072 A 
ATOM     11  O   UNL A   1      30.501  24.028  23.188  1.00  0.00    -0.269 OA
ATOM     12  C   UNL A   1      29.406  27.230  24.235  1.00  0.00     0.021 A 
BRANCH   7  13
ATOM     13  C   UNL A   1      32.317  25.545  21.698  1.00  0.00     0.130 C 
BRANCH  13  14
ATOM     14  C   UNL A   1      33.691  25.470  22.407  1.00  0.00     0.057 C 
BRANCH  14  15
ATOM     15  C   UNL A   1      33.938  24.559  23.600  1.00  0.00    -0.042 A 
ATOM     16  C   UNL A   1      34.665  22.667  25.582  1.00  0.00     0.160 A 
ATOM     17  C   UNL A   1      34.848  24.035  25.798  1.00  0.00     0.051 A 
ATOM     18  C   UNL A   1      34.045  22.230  24.410  1.00  0.00     0.160 A 
ATOM     19  C   UNL A   1      34.468  24.971  24.827  1.00  0.00     0.008 A 
ATOM     20  C   UNL A   1      33.726  23.176  23.422  1.00  0.00     0.054 A 
BRANCH  16  21
ATOM     21  O   UNL A   1      35.066  21.821  26.580  1.00  0.00    -0.493 OA
ATOM     22  C   UNL A   1      34.142  21.819  27.669  1.00  0.00     0.278 C 
ENDBRANCH  16  21
BRANCH  18  23
ATOM     23  O   UNL A   1      33.735  20.945  24.061  1.00  0.00    -0.493 OA
ATOM     24  C   UNL A   1      32.528  20.396  24.578  1.00  0.00     0.278 C 
ENDBRANCH  18  23
ENDBRANCH  14  15
ENDBRANCH  13  14
ENDBRANCH   7  13
ENDBRANCH   3   6
ENDBRANCH   1   2
BRANCH   1  25
ATOM     25  C   UNL A   1      31.823  30.248  26.792  1.00  0.00     0.023 C 
BRANCH  25  26
ATOM     26  C   UNL A   1      31.566  31.751  26.885  1.00  0.00     0.023 C 
BRANCH  26  27
ATOM     27  C   UNL A   1      32.794  32.574  27.261  1.00  0.00     0.116 C 
BRANCH  27  28
ATOM     28  N   UNL A   1      32.474  33.936  27.665  1.00  0.00    -0.352 N 
ATOM     29  C   UNL A   1      33.106  34.710  28.607  1.00  0.00     0.251 C 
ATOM     30  H   UNL A   1      31.709  34.353  27.205  1.00  0.00     0.163 HD
ATOM     31  O   UNL A   1      32.652  35.798  28.943  1.00  0.00    -0.269 OA
BRANCH  29  32
ATOM     32  C   UNL A   1      34.332  34.186  29.238  1.00  0.00     0.039 A 
ATOM     33  C   UNL A   1      34.226  33.440  30.412  1.00  0.00     0.014 A 
ATOM     34  C   UNL A   1      35.569  34.370  28.616  1.00  0.00     0.014 A 
ATOM     35  C   UNL A   1      35.360  32.814  30.930  1.00  0.00     0.010 A 
ATOM     36  C   UNL A   1      36.680  33.687  29.091  1.00  0.00     0.010 A 
ATOM     37  C   UNL A   1      36.587  32.901  30.251  1.00  0.00    -0.014 A 
BRANCH  37  38
ATOM     38  C   UNL A   1      37.795  32.192  30.737  1.00  0.00     0.031 A 
ATOM     39  C   UNL A   1      38.607  32.789  31.852  1.00  0.00     0.074 A 
ATOM     40  C   UNL A   1      38.209  31.066  30.123  1.00  0.00     0.049 A 
ATOM     41  N   UNL A   1      39.758  32.399  32.338  1.00  0.00    -0.248 NA
ATOM     42  C   UNL A   1      38.068  34.005  32.482  1.00  0.00     0.031 C 
ATOM     43  C   UNL A   1      37.532  30.412  29.002  1.00  0.00     0.029 A 
ATOM     44  N   UNL A   1      39.312  30.282  30.348  1.00  0.00    -0.354 N 
ATOM     45  C   UNL A   1      40.090  33.335  33.310  1.00  0.00     0.074 A 
ATOM     46  C   UNL A   1      39.047  34.337  33.309  1.00  0.00     0.031 C 
ATOM     47  C   UNL A   1      38.225  29.318  28.648  1.00  0.00     0.029 A 
ATOM     48  C   UNL A   1      39.413  29.213  29.491  1.00  0.00     0.049 A 
ATOM     49  H   UNL A   1      39.969  30.467  31.058  1.00  0.00     0.167 HD
ATOM     50  C   UNL A   1      41.156  33.345  34.143  1.00  0.00     0.037 A 
ATOM     51  C   UNL A   1      40.362  28.264  29.389  1.00  0.00     0.037 A 
ATOM     52  C   UNL A   1      42.172  32.328  34.166  1.00  0.00     0.049 A 
ATOM     53  C   UNL A   1      41.534  28.292  30.333  1.00  0.00     0.074 A 
ATOM     54  C   UNL A   1      43.260  32.216  35.012  1.00  0.00     0.029 A 
ATOM     55  N   UNL A   1      42.217  31.240  33.308  1.00  0.00    -0.354 N 
ATOM     56  N   UNL A   1      41.808  29.153  31.284  1.00  0.00    -0.248 NA
ATOM     57  C   UNL A   1      42.526  27.217  30.192  1.00  0.00     0.031 C 
ATOM     58  C   UNL A   1      43.985  31.078  34.642  1.00  0.00     0.029 A 
ATOM     59  C   UNL A   1      43.323  30.458  33.595  1.00  0.00     0.049 A 
ATOM     60  H   UNL A   1      41.560  31.051  32.598  1.00  0.00     0.167 HD
ATOM     61  C   UNL A   1      42.980  28.702  31.877  1.00  0.00     0.074 A 
ATOM     62  C   UNL A   1      43.363  27.492  31.182  1.00  0.00     0.031 C 
ATOM     63  C   UNL A   1      43.675  29.243  32.908  1.00  0.00     0.037 A 
BRANCH  50  64
ATOM     64  C   UNL A   1      41.271  34.493  35.103  1.00  0.00     0.057 A 
ATOM     65  C   UNL A   1      41.977  35.659  34.776  1.00  0.00     0.134 A 
ATOM     66  C   UNL A   1      40.649  34.443  36.355  1.00  0.00     0.134 A 
ATOM     67  F   UNL A   1      42.609  35.763  33.597  1.00  0.00    -0.206 F 
ATOM     68  C   UNL A   1      42.083  36.723  35.672  1.00  0.00     0.040 A 
ATOM     69  C   UNL A   1      40.724  35.513  37.249  1.00  0.00     0.040 A 
ATOM     70  F   UNL A   1      39.954  33.359  36.730  1.00  0.00    -0.206 F 
ATOM     71  C   UNL A   1      41.448  36.654  36.912  1.00  0.00     0.006 A 
ENDBRANCH  50  64
BRANCH  51  72
ATOM     72  C   UNL A   1      40.236  27.188  28.374  1.00  0.00     0.057 A 
ATOM     73  C   UNL A   1      40.860  27.301  27.125  1.00  0.00     0.134 A 
ATOM     74  C   UNL A   1      39.483  26.034  28.617  1.00  0.00     0.134 A 
ATOM     75  F   UNL A   1      41.580  28.392  26.827  1.00  0.00    -0.206 F 
ATOM     76  C   UNL A   1      40.723  26.315  26.147  1.00  0.00     0.040 A 
ATOM     77  C   UNL A   1      39.357  25.029  27.657  1.00  0.00     0.040 A 
ATOM     78  F   UNL A   1      38.867  25.863  29.796  1.00  0.00    -0.206 F 
ATOM     79  C   UNL A   1      39.972  25.172  26.414  1.00  0.00     0.006 A 
ENDBRANCH  51  72
BRANCH  63  80
ATOM     80  C   UNL A   1      44.890  28.504  33.384  1.00  0.00     0.057 A 
ATOM     81  C   UNL A   1      44.808  27.481  34.337  1.00  0.00     0.134 A 
ATOM     82  C   UNL A   1      46.149  28.783  32.837  1.00  0.00     0.134 A 
ATOM     83  F   UNL A   1      43.633  27.175  34.906  1.00  0.00    -0.206 F 
ATOM     84  C   UNL A   1      45.940  26.771  34.739  1.00  0.00     0.040 A 
ATOM     85  C   UNL A   1      47.283  28.064  33.213  1.00  0.00     0.040 A 
ATOM     86  F   UNL A   1      46.291  29.746  31.913  1.00  0.00    -0.206 F 
ATOM     87  C   UNL A   1      47.180  27.057  34.171  1.00  0.00     0.006 A 
ENDBRANCH  63  80
ENDBRANCH  37  38
ENDBRANCH  29  32
ENDBRANCH  27  28
ENDBRANCH  26  27
ENDBRANCH  25  26
ENDBRANCH   1  25
TORSDOF 16
ENDMDL
MODEL 2
REMARK VINA RESULT:     -11.3      1.010      2.000
REMARK SMILES COc1ccc(CCn2cc(C(=O)NCCCCNC(=O)c3ccc(-c4c5nc(c(-c6c(F)cccc6F)c6ccc([nH]6)c(-c6c(F)cccc6F)c6nc(c(-c7c(F)cccc7F)c7ccc4[nH]7)C=C6)C=C5)cc3)ccc2=O)cc1OC
REMARK SMILES IDX 15 1 14 2 12 3 13 4 11 6 9 7 10 8 78 9 77 10 79 11 76 12
REMARK SMILES IDX 8 13 7 14 6 15 3 16 4 17 81 18 5 19 80 20 2 21 1 22 82 23
REMARK SMILES IDX 83 24 16 25 17 26 18 27 19 28 20 29 21 31 22 32 23 33 75 34
REMARK SMILES IDX 24 35 74 36 25 37 26 38 27 39 68 40 28 41 73 42 67 43 69 44
REMARK SMILES IDX 29 45 72 46 66 47 65 48 30 50 56 51 39 52 55 53 40 54 43 55
REMARK SMILES IDX 54 56 70 57 41 58 42 59 53 61 71 62 44 63 31 64 32 65 37 66
REMARK SMILES IDX 33 67 34 68 36 69 38 70 35 71 57 72 58 73 63 74 59 75 60 76
REMARK SMILES IDX 62 77 64 78 61 79 45 80 46 81 51 82 47 83 48 84 50 85 52 86
REMARK SMILES IDX 49 87
REMARK H PARENT 14 5 19 30 69 49 43 60
REMARK Flexibility Score: inf
ROOT
ATOM      1  C   UNL A   1      31.789  30.061  25.077  1.00  0.00     0.116 C 
ENDROOT
BRANCH   1   2
ATOM      2  N   UNL A   1      30.615  30.388  24.288  1.00  0.00    -0.352 N 
ATOM      3  C   UNL A   1      29.841  29.668  23.429  1.00  0.00     0.252 C 
ATOM      4  O   UNL A   1      28.899  30.256  22.892  1.00  0.00    -0.269 OA
ATOM      5  H   UNL A   1      30.318  31.319  24.397  1.00  0.00     0.163 HD
BRANCH   3   6
ATOM      6  C   UNL A   1      30.012  28.190  23.226  1.00  0.00     0.056 A 
ATOM      7  N   UNL A   1      31.203  26.280  22.437  1.00  0.00    -0.314 N 
ATOM      8  C   UNL A   1      30.899  27.636  22.384  1.00  0.00     0.103 A 
ATOM      9  C   UNL A   1      30.390  25.371  23.121  1.00  0.00     0.250 A 
ATOM     10  C   UNL A   1      29.292  25.965  23.922  1.00  0.00     0.072 A 
ATOM     11  O   UNL A   1      30.544  24.153  23.126  1.00  0.00    -0.269 OA
ATOM     12  C   UNL A   1      29.157  27.295  23.994  1.00  0.00     0.021 A 
BRANCH   7  13
ATOM     13  C   UNL A   1      32.444  25.761  21.851  1.00  0.00     0.130 C 
BRANCH  13  14
ATOM     14  C   UNL A   1      33.721  25.756  22.727  1.00  0.00     0.057 C 
BRANCH  14  15
ATOM     15  C   UNL A   1      34.113  24.559  23.580  1.00  0.00    -0.042 A 
ATOM     16  C   UNL A   1      34.443  22.240  25.176  1.00  0.00     0.160 A 
ATOM     17  C   UNL A   1      35.078  22.351  23.937  1.00  0.00     0.051 A 
ATOM     18  C   UNL A   1      33.701  23.313  25.671  1.00  0.00     0.160 A 
ATOM     19  C   UNL A   1      34.932  23.507  23.159  1.00  0.00     0.008 A 
ATOM     20  C   UNL A   1      33.516  24.440  24.853  1.00  0.00     0.054 A 
BRANCH  16  21
ATOM     21  O   UNL A   1      34.637  21.077  25.871  1.00  0.00    -0.493 OA
ATOM     22  C   UNL A   1      34.696  19.947  24.999  1.00  0.00     0.278 C 
ENDBRANCH  16  21
BRANCH  18  23
ATOM     23  O   UNL A   1      33.067  23.401  26.880  1.00  0.00    -0.493 OA
ATOM     24  C   UNL A   1      31.644  23.395  26.878  1.00  0.00     0.278 C 
ENDBRANCH  18  23
ENDBRANCH  14  15
ENDBRANCH  13  14
ENDBRANCH   7  13
ENDBRANCH   3   6
ENDBRANCH   1   2
BRANCH   1  25
ATOM     25  C   UNL A   1      31.624  30.573  26.507  1.00  0.00     0.023 C 
BRANCH  25  26
ATOM     26  C   UNL A   1      31.480  32.092  26.580  1.00  0.00     0.023 C 
BRANCH  26  27
ATOM     27  C   UNL A   1      32.634  32.797  27.286  1.00  0.00     0.116 C 
BRANCH  27  28
ATOM     28  N   UNL A   1      32.349  34.188  27.610  1.00  0.00    -0.352 N 
ATOM     29  C   UNL A   1      32.954  34.978  28.558  1.00  0.00     0.251 C 
ATOM     30  H   UNL A   1      31.633  34.614  27.085  1.00  0.00     0.163 HD
ATOM     31  O   UNL A   1      32.527  36.097  28.817  1.00  0.00    -0.269 OA
BRANCH  29  32
ATOM     32  C   UNL A   1      34.114  34.433  29.288  1.00  0.00     0.039 A 
ATOM     33  C   UNL A   1      33.900  33.716  30.465  1.00  0.00     0.014 A 
ATOM     34  C   UNL A   1      35.399  34.570  28.756  1.00  0.00     0.014 A 
ATOM     35  C   UNL A   1      34.974  33.070  31.078  1.00  0.00     0.010 A 
ATOM     36  C   UNL A   1      36.451  33.866  29.326  1.00  0.00     0.010 A 
ATOM     37  C   UNL A   1      36.249  33.108  30.491  1.00  0.00    -0.014 A 
BRANCH  37  38
ATOM     38  C   UNL A   1      37.397  32.376  31.079  1.00  0.00     0.031 A 
ATOM     39  C   UNL A   1      38.015  32.870  32.357  1.00  0.00     0.074 A 
ATOM     40  C   UNL A   1      37.935  31.328  30.425  1.00  0.00     0.049 A 
ATOM     41  N   UNL A   1      39.095  32.455  32.968  1.00  0.00    -0.248 NA
ATOM     42  C   UNL A   1      37.348  34.004  33.016  1.00  0.00     0.031 C 
ATOM     43  C   UNL A   1      37.453  30.781  29.156  1.00  0.00     0.029 A 
ATOM     44  N   UNL A   1      39.019  30.547  30.733  1.00  0.00    -0.354 N 
ATOM     45  C   UNL A   1      39.248  33.291  34.067  1.00  0.00     0.074 A 
ATOM     46  C   UNL A   1      38.182  34.268  34.010  1.00  0.00     0.031 C 
ATOM     47  C   UNL A   1      38.228  29.743  28.802  1.00  0.00     0.029 A 
ATOM     48  C   UNL A   1      39.282  29.575  29.798  1.00  0.00     0.049 A 
ATOM     49  H   UNL A   1      39.559  30.670  31.548  1.00  0.00     0.167 HD
ATOM     50  C   UNL A   1      40.179  33.236  35.047  1.00  0.00     0.037 A 
ATOM     51  C   UNL A   1      40.269  28.660  29.746  1.00  0.00     0.037 A 
ATOM     52  C   UNL A   1      41.215  32.241  35.121  1.00  0.00     0.049 A 
ATOM     53  C   UNL A   1      41.287  28.613  30.852  1.00  0.00     0.074 A 
ATOM     54  C   UNL A   1      42.171  32.064  36.104  1.00  0.00     0.029 A 
ATOM     55  N   UNL A   1      41.423  31.249  34.174  1.00  0.00    -0.354 N 
ATOM     56  N   UNL A   1      41.388  29.376  31.915  1.00  0.00    -0.248 NA
ATOM     57  C   UNL A   1      42.326  27.578  30.756  1.00  0.00     0.031 C 
ATOM     58  C   UNL A   1      42.981  30.985  35.735  1.00  0.00     0.029 A 
ATOM     59  C   UNL A   1      42.501  30.463  34.545  1.00  0.00     0.049 A 
ATOM     60  H   UNL A   1      40.885  31.122  33.359  1.00  0.00     0.167 HD
ATOM     61  C   UNL A   1      42.476  28.889  32.629  1.00  0.00     0.074 A 
ATOM     62  C   UNL A   1      42.999  27.764  31.882  1.00  0.00     0.031 C 
ATOM     63  C   UNL A   1      42.993  29.333  33.800  1.00  0.00     0.037 A 
BRANCH  50  64
ATOM     64  C   UNL A   1      40.112  34.280  36.122  1.00  0.00     0.057 A 
ATOM     65  C   UNL A   1      39.370  34.084  37.295  1.00  0.00     0.134 A 
ATOM     66  C   UNL A   1      40.817  35.482  35.998  1.00  0.00     0.134 A 
ATOM     67  F   UNL A   1      38.659  32.959  37.469  1.00  0.00    -0.206 F 
ATOM     68  C   UNL A   1      39.309  35.058  38.292  1.00  0.00     0.040 A 
ATOM     69  C   UNL A   1      40.787  36.453  37.000  1.00  0.00     0.040 A 
ATOM     70  F   UNL A   1      41.551  35.732  34.903  1.00  0.00    -0.206 F 
ATOM     71  C   UNL A   1      40.026  36.245  38.149  1.00  0.00     0.006 A 
ENDBRANCH  50  64
BRANCH  51  72
ATOM     72  C   UNL A   1      40.330  27.693  28.621  1.00  0.00     0.057 A 
ATOM     73  C   UNL A   1      39.643  26.474  28.682  1.00  0.00     0.134 A 
ATOM     74  C   UNL A   1      41.083  27.953  27.471  1.00  0.00     0.134 A 
ATOM     75  F   UNL A   1      38.920  26.161  29.767  1.00  0.00    -0.206 F 
ATOM     76  C   UNL A   1      39.718  25.539  27.648  1.00  0.00     0.040 A 
ATOM     77  C   UNL A   1      41.147  27.037  26.418  1.00  0.00     0.040 A 
ATOM     78  F   UNL A   1      41.757  29.105  27.348  1.00  0.00    -0.206 F 
ATOM     79  C   UNL A   1      40.469  25.822  26.510  1.00  0.00     0.006 A 
ENDBRANCH  51  72
BRANCH  63  80
ATOM     80  C   UNL A   1      44.149  28.573  34.377  1.00  0.00     0.057 A 
ATOM     81  C   UNL A   1      45.476  28.891  34.063  1.00  0.00     0.134 A 
ATOM     82  C   UNL A   1      43.930  27.545  35.304  1.00  0.00     0.134 A 
ATOM     83  F   UNL A   1      45.751  29.857  33.174  1.00  0.00    -0.206 F 
ATOM     84  C   UNL A   1      46.544  28.204  34.641  1.00  0.00     0.040 A 
ATOM     85  C   UNL A   1      44.989  26.867  35.906  1.00  0.00     0.040 A 
ATOM     86  F   UNL A   1      42.681  27.198  35.652  1.00  0.00    -0.206 F 
ATOM     87  C   UNL A   1      46.302  27.195  35.571  1.00  0.00     0.006 A 
ENDBRANCH  63  80
ENDBRANCH  37  38
ENDBRANCH  29  32
ENDBRANCH  27  28
ENDBRANCH  26  27
ENDBRANCH  25  26
ENDBRANCH   1  25
TORSDOF 16
ENDMDL
MODEL 3
REMARK VINA RESULT:     -11.3      1.269      6.211
REMARK SMILES COc1ccc(CCn2cc(C(=O)NCCCCNC(=O)c3ccc(-c4c5nc(c(-c6c(F)cccc6F)c6ccc([nH]6)c(-c6c(F)cccc6F)c6nc(c(-c7c(F)cccc7F)c7ccc4[nH]7)C=C6)C=C5)cc3)ccc2=O)cc1OC
REMARK SMILES IDX 15 1 14 2 12 3 13 4 11 6 9 7 10 8 78 9 77 10 79 11 76 12
REMARK SMILES IDX 8 13 7 14 6 15 3 16 4 17 81 18 5 19 80 20 2 21 1 22 82 23
REMARK SMILES IDX 83 24 16 25 17 26 18 27 19 28 20 29 21 31 22 32 23 33 75 34
REMARK SMILES IDX 24 35 74 36 25 37 26 38 27 39 68 40 28 41 73 42 67 43 69 44
REMARK SMILES IDX 29 45 72 46 66 47 65 48 30 50 56 51 39 52 55 53 40 54 43 55
REMARK SMILES IDX 54 56 70 57 41 58 42 59 53 61 71 62 44 63 31 64 32 65 37 66
REMARK SMILES IDX 33 67 34 68 36 69 38 70 35 71 57 72 58 73 63 74 59 75 60 76
REMARK SMILES IDX 62 77 64 78 61 79 45 80 46 81 51 82 47 83 48 84 50 85 52 86
REMARK SMILES IDX 49 87
REMARK H PARENT 14 5 19 30 69 49 43 60
REMARK Flexibility Score: inf
ROOT
ATOM      1  C   UNL A   1      32.051  29.528  25.531  1.00  0.00     0.116 C 
ENDROOT
BRANCH   1   2
ATOM      2  N   UNL A   1      31.123  29.954  24.499  1.00  0.00    -0.352 N 
ATOM      3  C   UNL A   1      30.479  29.294  23.496  1.00  0.00     0.252 C 
ATOM      4  O   UNL A   1      29.752  29.963  22.759  1.00  0.00    -0.269 OA
ATOM      5  H   UNL A   1      30.917  30.915  24.532  1.00  0.00     0.163 HD
BRANCH   3   6
ATOM      6  C   UNL A   1      30.521  27.801  23.348  1.00  0.00     0.056 A 
ATOM      7  N   UNL A   1      31.615  25.752  22.802  1.00  0.00    -0.314 N 
ATOM      8  C   UNL A   1      31.473  27.130  22.677  1.00  0.00     0.103 A 
ATOM      9  C   UNL A   1      30.606  24.956  23.353  1.00  0.00     0.250 A 
ATOM     10  C   UNL A   1      29.460  25.687  23.947  1.00  0.00     0.072 A 
ATOM     11  O   UNL A   1      30.625  23.730  23.403  1.00  0.00    -0.269 OA
ATOM     12  C   UNL A   1      29.460  27.026  23.974  1.00  0.00     0.021 A 
BRANCH   7  13
ATOM     13  C   UNL A   1      32.874  25.088  22.445  1.00  0.00     0.130 C 
BRANCH  13  14
ATOM     14  C   UNL A   1      34.032  25.110  23.471  1.00  0.00     0.057 C 
BRANCH  14  15
ATOM     15  C   UNL A   1      34.667  23.834  24.003  1.00  0.00    -0.042 A 
ATOM     16  C   UNL A   1      35.653  21.267  24.689  1.00  0.00     0.160 A 
ATOM     17  C   UNL A   1      36.529  22.302  24.355  1.00  0.00     0.051 A 
ATOM     18  C   UNL A   1      34.282  21.518  24.763  1.00  0.00     0.160 A 
ATOM     19  C   UNL A   1      36.041  23.577  24.037  1.00  0.00     0.008 A 
ATOM     20  C   UNL A   1      33.806  22.784  24.384  1.00  0.00     0.054 A 
BRANCH  16  21
ATOM     21  O   UNL A   1      36.211  20.052  24.984  1.00  0.00    -0.493 OA
ATOM     22  C   UNL A   1      37.634  20.088  24.876  1.00  0.00     0.278 C 
ENDBRANCH  16  21
BRANCH  18  23
ATOM     23  O   UNL A   1      33.294  20.647  25.130  1.00  0.00    -0.493 OA
ATOM     24  C   UNL A   1      32.449  20.140  24.102  1.00  0.00     0.278 C 
ENDBRANCH  18  23
ENDBRANCH  14  15
ENDBRANCH  13  14
ENDBRANCH   7  13
ENDBRANCH   3   6
ENDBRANCH   1   2
BRANCH   1  25
ATOM     25  C   UNL A   1      31.820  30.328  26.812  1.00  0.00     0.023 C 
BRANCH  25  26
ATOM     26  C   UNL A   1      31.795  31.837  26.571  1.00  0.00     0.023 C 
BRANCH  26  27
ATOM     27  C   UNL A   1      32.801  32.622  27.408  1.00  0.00     0.116 C 
BRANCH  27  28
ATOM     28  N   UNL A   1      32.406  34.004  27.638  1.00  0.00    -0.352 N 
ATOM     29  C   UNL A   1      32.947  34.903  28.525  1.00  0.00     0.251 C 
ATOM     30  H   UNL A   1      31.657  34.335  27.090  1.00  0.00     0.163 HD
ATOM     31  O   UNL A   1      32.432  36.000  28.710  1.00  0.00    -0.269 OA
BRANCH  29  32
ATOM     32  C   UNL A   1      34.147  34.504  29.284  1.00  0.00     0.039 A 
ATOM     33  C   UNL A   1      33.993  33.910  30.536  1.00  0.00     0.014 A 
ATOM     34  C   UNL A   1      35.413  34.649  28.710  1.00  0.00     0.014 A 
ATOM     35  C   UNL A   1      35.112  33.393  31.190  1.00  0.00     0.010 A 
ATOM     36  C   UNL A   1      36.512  34.068  29.328  1.00  0.00     0.010 A 
ATOM     37  C   UNL A   1      36.372  33.434  30.573  1.00  0.00    -0.014 A 
BRANCH  37  38
ATOM     38  C   UNL A   1      37.569  32.832  31.210  1.00  0.00     0.031 A 
ATOM     39  C   UNL A   1      38.223  31.635  30.579  1.00  0.00     0.074 A 
ATOM     40  C   UNL A   1      38.013  33.304  32.391  1.00  0.00     0.049 A 
ATOM     41  N   UNL A   1      39.194  30.886  31.035  1.00  0.00    -0.248 NA
ATOM     42  C   UNL A   1      37.689  31.203  29.277  1.00  0.00     0.031 C 
ATOM     43  C   UNL A   1      37.438  34.433  33.125  1.00  0.00     0.029 A 
ATOM     44  N   UNL A   1      39.043  32.879  33.191  1.00  0.00    -0.354 N 
ATOM     45  C   UNL A   1      39.369  29.883  30.090  1.00  0.00     0.074 A 
ATOM     46  C   UNL A   1      38.372  30.089  29.062  1.00  0.00     0.031 C 
ATOM     47  C   UNL A   1      38.133  34.620  34.259  1.00  0.00     0.029 A 
ATOM     48  C   UNL A   1      39.178  33.604  34.350  1.00  0.00     0.049 A 
ATOM     49  H   UNL A   1      39.633  32.125  32.956  1.00  0.00     0.167 HD
ATOM     50  C   UNL A   1      40.292  28.894  30.068  1.00  0.00     0.037 A 
ATOM     51  C   UNL A   1      40.040  33.459  35.374  1.00  0.00     0.037 A 
ATOM     52  C   UNL A   1      41.306  28.715  31.073  1.00  0.00     0.049 A 
ATOM     53  C   UNL A   1      41.062  32.357  35.323  1.00  0.00     0.074 A 
ATOM     54  C   UNL A   1      42.324  27.780  31.112  1.00  0.00     0.029 A 
ATOM     55  N   UNL A   1      41.433  29.496  32.212  1.00  0.00    -0.354 N 
ATOM     56  N   UNL A   1      41.252  31.449  34.396  1.00  0.00    -0.248 NA
ATOM     57  C   UNL A   1      41.993  32.261  36.457  1.00  0.00     0.031 C 
ATOM     58  C   UNL A   1      43.047  27.972  32.294  1.00  0.00     0.029 A 
ATOM     59  C   UNL A   1      42.506  29.056  32.968  1.00  0.00     0.049 A 
ATOM     60  H   UNL A   1      40.847  30.251  32.448  1.00  0.00     0.167 HD
ATOM     61  C   UNL A   1      42.344  30.699  34.817  1.00  0.00     0.074 A 
ATOM     62  C   UNL A   1      42.777  31.261  36.079  1.00  0.00     0.031 C 
ATOM     63  C   UNL A   1      42.936  29.643  34.210  1.00  0.00     0.037 A 
BRANCH  50  64
ATOM     64  C   UNL A   1      40.250  27.935  28.916  1.00  0.00     0.057 A 
ATOM     65  C   UNL A   1      40.943  28.183  27.724  1.00  0.00     0.134 A 
ATOM     66  C   UNL A   1      39.531  26.738  29.008  1.00  0.00     0.134 A 
ATOM     67  F   UNL A   1      41.639  29.320  27.566  1.00  0.00    -0.206 F 
ATOM     68  C   UNL A   1      40.899  27.289  26.654  1.00  0.00     0.040 A 
ATOM     69  C   UNL A   1      39.502  25.822  27.955  1.00  0.00     0.040 A 
ATOM     70  F   UNL A   1      38.848  26.436  30.122  1.00  0.00    -0.206 F 
ATOM     71  C   UNL A   1      40.183  26.099  26.771  1.00  0.00     0.006 A 
ENDBRANCH  50  64
BRANCH  51  72
ATOM     72  C   UNL A   1      39.994  34.394  36.526  1.00  0.00     0.057 A 
ATOM     73  C   UNL A   1      39.235  34.097  37.665  1.00  0.00     0.134 A 
ATOM     74  C   UNL A   1      40.692  35.607  36.514  1.00  0.00     0.134 A 
ATOM     75  F   UNL A   1      38.530  32.958  37.726  1.00  0.00    -0.206 F 
ATOM     76  C   UNL A   1      39.154  34.982  38.741  1.00  0.00     0.040 A 
ATOM     77  C   UNL A   1      40.639  36.491  37.594  1.00  0.00     0.040 A 
ATOM     78  F   UNL A   1      41.443  35.947  35.456  1.00  0.00    -0.206 F 
ATOM     79  C   UNL A   1      39.861  36.182  38.709  1.00  0.00     0.006 A 
ENDBRANCH  51  72
BRANCH  63  80
ATOM     80  C   UNL A   1      44.148  29.057  34.871  1.00  0.00     0.057 A 
ATOM     81  C   UNL A   1      44.056  27.995  35.779  1.00  0.00     0.134 A 
ATOM     82  C   UNL A   1      45.428  29.526  34.548  1.00  0.00     0.134 A 
ATOM     83  F   UNL A   1      42.858  27.510  36.139  1.00  0.00    -0.206 F 
ATOM     84  C   UNL A   1      45.195  27.430  36.354  1.00  0.00     0.040 A 
ATOM     85  C   UNL A   1      46.575  28.953  35.097  1.00  0.00     0.040 A 
ATOM     86  F   UNL A   1      45.583  30.535  33.677  1.00  0.00    -0.206 F 
ATOM     87  C   UNL A   1      46.459  27.904  36.006  1.00  0.00     0.006 A 
ENDBRANCH  63  80
ENDBRANCH  37  38
ENDBRANCH  29  32
ENDBRANCH  27  28
ENDBRANCH  26  27
ENDBRANCH  25  26
ENDBRANCH   1  25
TORSDOF 16
ENDMDL
