MODEL 1
REMARK VINA RESULT:     -12.0      0.000      0.000
REMARK SMILES CCCOC(=O)c1c(NC(=O)[C@@H]2CC=CC[C@H]2C(=O)NCCCCNC(=O)c2ccc(-c3c4nc(c(-c5c(F)cccc5F)c5ccc([nH]5)c(-c5c(F)cccc5F)c5nc(c(-c6c(F)cccc6F)c6ccc3[nH]6)C=C5)C=C4)cc2)sc2c1CCCC2
REMARK SMILES IDX 18 1 19 2 20 3 17 5 12 6 13 7 14 8 16 9 15 10 10 11 9 12
REMARK SMILES IDX 11 14 8 15 7 16 84 17 82 18 83 19 85 20 88 21 86 22 87 23
REMARK SMILES IDX 5 24 6 25 4 26 3 27 2 28 1 29 21 30 22 31 23 32 24 33 25 34
REMARK SMILES IDX 26 35 27 37 28 38 29 39 81 40 30 41 80 42 31 43 32 44 33 45
REMARK SMILES IDX 74 46 34 47 79 48 73 49 75 50 35 51 78 52 72 53 71 54 36 56
REMARK SMILES IDX 62 57 45 58 61 59 46 60 49 61 60 62 76 63 47 64 48 65 59 67
REMARK SMILES IDX 77 68 50 69 37 70 38 71 43 72 39 73 40 74 42 75 44 76 41 77
REMARK SMILES IDX 63 78 64 79 69 80 65 81 66 82 68 83 70 84 67 85 51 86 52 87
REMARK SMILES IDX 57 88 53 89 54 90 56 91 58 92 55 93
REMARK H PARENT 20 4 9 13 25 36 75 55 49 66
REMARK Flexibility Score: inf
ROOT
ATOM      1  C   UNL A   1      31.693  26.595  26.418  1.00  0.00     0.224 C 
ATOM      2  O   UNL A   1      30.562  26.790  26.885  1.00  0.00    -0.275 OA
ATOM      3  N   UNL A   1      32.636  27.296  27.070  1.00  0.00    -0.356 N 
ATOM      4  H   UNL A   1      32.805  27.068  28.013  1.00  0.00     0.163 HD
ENDROOT
BRANCH   1   5
ATOM      5  C   UNL A   1      31.875  25.648  25.200  1.00  0.00     0.095 C 
ATOM      6  C   UNL A   1      30.802  24.599  25.221  1.00  0.00     0.095 C 
ATOM      7  C   UNL A   1      30.771  23.675  23.990  1.00  0.00     0.041 C 
ATOM      8  C   UNL A   1      31.011  24.392  22.693  1.00  0.00    -0.030 C 
ATOM      9  C   UNL A   1      32.551  25.905  23.845  1.00  0.00     0.041 C 
ATOM     10  C   UNL A   1      31.818  25.455  22.632  1.00  0.00    -0.030 C 
BRANCH   6  11
ATOM     11  C   UNL A   1      30.906  23.758  26.487  1.00  0.00     0.229 C 
ATOM     12  N   UNL A   1      31.778  22.740  26.728  1.00  0.00    -0.317 N 
ATOM     13  H   UNL A   1      31.495  22.262  27.540  1.00  0.00     0.170 HD
ATOM     14  O   UNL A   1      30.005  23.905  27.329  1.00  0.00    -0.274 OA
BRANCH  12  15
ATOM     15  C   UNL A   1      32.933  22.137  26.228  1.00  0.00     0.110 A 
ATOM     16  C   UNL A   1      33.479  21.010  25.562  1.00  0.00     0.098 A 
ATOM     17  C   UNL A   1      34.937  21.161  25.479  1.00  0.00    -0.017 A 
ATOM     18  S   UNL A   1      34.129  23.360  26.477  1.00  0.00    -0.122 S 
ATOM     19  C   UNL A   1      35.370  22.402  25.891  1.00  0.00     0.011 A 
ATOM     20  C   UNL A   1      35.895  20.182  24.851  1.00  0.00     0.038 C 
ATOM     21  C   UNL A   1      36.768  22.926  25.804  1.00  0.00     0.047 C 
ATOM     22  C   UNL A   1      37.363  20.578  25.091  1.00  0.00     0.005 C 
ATOM     23  C   UNL A   1      37.593  22.073  24.838  1.00  0.00     0.006 C 
BRANCH  16  24
ATOM     24  C   UNL A   1      32.844  19.949  24.702  1.00  0.00     0.341 C 
ATOM     25  O   UNL A   1      32.421  20.231  23.583  1.00  0.00    -0.246 OA
BRANCH  24  26
ATOM     26  O   UNL A   1      32.915  18.613  25.134  1.00  0.00    -0.462 OA
BRANCH  26  27
ATOM     27  C   UNL A   1      32.884  17.645  24.043  1.00  0.00     0.233 C 
BRANCH  27  28
ATOM     28  C   UNL A   1      34.046  16.615  23.878  1.00  0.00     0.038 C 
ATOM     29  C   UNL A   1      34.785  15.965  25.053  1.00  0.00     0.007 C 
ENDBRANCH  27  28
ENDBRANCH  26  27
ENDBRANCH  24  26
ENDBRANCH  16  24
ENDBRANCH  12  15
ENDBRANCH   6  11
ENDBRANCH   1   5
BRANCH   3  30
ATOM     30  C   UNL A   1      33.418  28.355  26.490  1.00  0.00     0.116 C 
BRANCH  30  31
ATOM     31  C   UNL A   1      32.521  29.346  25.740  1.00  0.00     0.023 C 
BRANCH  31  32
ATOM     32  C   UNL A   1      31.976  30.529  26.557  1.00  0.00     0.023 C 
BRANCH  32  33
ATOM     33  C   UNL A   1      33.005  31.474  27.170  1.00  0.00     0.116 C 
BRANCH  33  34
ATOM     34  N   UNL A   1      32.483  32.791  27.503  1.00  0.00    -0.352 N 
ATOM     35  C   UNL A   1      33.081  33.787  28.233  1.00  0.00     0.251 C 
ATOM     36  H   UNL A   1      31.581  32.993  27.162  1.00  0.00     0.163 HD
ATOM     37  O   UNL A   1      32.508  34.855  28.435  1.00  0.00    -0.269 OA
BRANCH  35  38
ATOM     38  C   UNL A   1      34.406  33.532  28.816  1.00  0.00     0.039 A 
ATOM     39  C   UNL A   1      34.486  32.787  29.996  1.00  0.00     0.014 A 
ATOM     40  C   UNL A   1      35.559  33.944  28.143  1.00  0.00     0.014 A 
ATOM     41  C   UNL A   1      35.734  32.382  30.464  1.00  0.00     0.010 A 
ATOM     42  C   UNL A   1      36.796  33.490  28.580  1.00  0.00     0.010 A 
ATOM     43  C   UNL A   1      36.891  32.696  29.735  1.00  0.00    -0.014 A 
BRANCH  43  44
ATOM     44  C   UNL A   1      38.223  32.200  30.153  1.00  0.00     0.031 A 
ATOM     45  C   UNL A   1      38.738  30.907  29.599  1.00  0.00     0.074 A 
ATOM     46  C   UNL A   1      38.910  32.857  31.107  1.00  0.00     0.049 A 
ATOM     47  N   UNL A   1      39.804  30.227  29.933  1.00  0.00    -0.248 NA
ATOM     48  C   UNL A   1      37.920  30.272  28.554  1.00  0.00     0.031 C 
ATOM     49  C   UNL A   1      38.479  34.094  31.760  1.00  0.00     0.029 A 
ATOM     50  N   UNL A   1      40.105  32.559  31.710  1.00  0.00    -0.354 N 
ATOM     51  C   UNL A   1      39.767  29.073  29.163  1.00  0.00     0.074 A 
ATOM     52  C   UNL A   1      38.551  29.122  28.382  1.00  0.00     0.031 C 
ATOM     53  C   UNL A   1      39.398  34.451  32.673  1.00  0.00     0.029 A 
ATOM     54  C   UNL A   1      40.463  33.453  32.689  1.00  0.00     0.049 A 
ATOM     55  H   UNL A   1      40.652  31.779  31.465  1.00  0.00     0.167 HD
ATOM     56  C   UNL A   1      40.676  28.071  29.102  1.00  0.00     0.037 A 
ATOM     57  C   UNL A   1      41.526  33.459  33.514  1.00  0.00     0.037 A 
ATOM     58  C   UNL A   1      41.897  28.046  29.862  1.00  0.00     0.049 A 
ATOM     59  C   UNL A   1      42.541  32.356  33.406  1.00  0.00     0.074 A 
ATOM     60  C   UNL A   1      42.921  27.117  29.824  1.00  0.00     0.029 A 
ATOM     61  N   UNL A   1      42.258  29.003  30.801  1.00  0.00    -0.354 N 
ATOM     62  N   UNL A   1      42.533  31.302  32.626  1.00  0.00    -0.248 NA
ATOM     63  C   UNL A   1      43.716  32.448  34.282  1.00  0.00     0.031 C 
ATOM     64  C   UNL A   1      43.887  27.495  30.764  1.00  0.00     0.029 A 
ATOM     65  C   UNL A   1      43.482  28.680  31.359  1.00  0.00     0.049 A 
ATOM     66  H   UNL A   1      41.721  29.794  31.035  1.00  0.00     0.167 HD
ATOM     67  C   UNL A   1      43.709  30.615  32.901  1.00  0.00     0.074 A 
ATOM     68  C   UNL A   1      44.410  31.379  33.913  1.00  0.00     0.031 C 
ATOM     69  C   UNL A   1      44.166  29.458  32.361  1.00  0.00     0.037 A 
BRANCH  56  70
ATOM     70  C   UNL A   1      40.365  26.926  28.185  1.00  0.00     0.057 A 
ATOM     71  C   UNL A   1      39.532  25.869  28.576  1.00  0.00     0.134 A 
ATOM     72  C   UNL A   1      40.923  26.865  26.902  1.00  0.00     0.134 A 
ATOM     73  F   UNL A   1      38.979  25.856  29.799  1.00  0.00    -0.206 F 
ATOM     74  C   UNL A   1      39.300  24.773  27.743  1.00  0.00     0.040 A 
ATOM     75  C   UNL A   1      40.676  25.789  26.048  1.00  0.00     0.040 A 
ATOM     76  F   UNL A   1      41.727  27.845  26.461  1.00  0.00    -0.206 F 
ATOM     77  C   UNL A   1      39.871  24.733  26.473  1.00  0.00     0.006 A 
ENDBRANCH  56  70
BRANCH  57  78
ATOM     78  C   UNL A   1      41.690  34.562  34.491  1.00  0.00     0.057 A 
ATOM     79  C   UNL A   1      42.300  35.766  34.121  1.00  0.00     0.134 A 
ATOM     80  C   UNL A   1      41.213  34.455  35.803  1.00  0.00     0.134 A 
ATOM     81  F   UNL A   1      42.789  35.921  32.881  1.00  0.00    -0.206 F 
ATOM     82  C   UNL A   1      42.436  36.823  35.021  1.00  0.00     0.040 A 
ATOM     83  C   UNL A   1      41.326  35.512  36.708  1.00  0.00     0.040 A 
ATOM     84  F   UNL A   1      40.612  33.329  36.214  1.00  0.00    -0.206 F 
ATOM     85  C   UNL A   1      41.941  36.699  36.319  1.00  0.00     0.006 A 
ENDBRANCH  57  78
BRANCH  69  86
ATOM     86  C   UNL A   1      45.500  28.964  32.833  1.00  0.00     0.057 A 
ATOM     87  C   UNL A   1      46.694  29.370  32.225  1.00  0.00     0.134 A 
ATOM     88  C   UNL A   1      45.591  28.113  33.942  1.00  0.00     0.134 A 
ATOM     89  F   UNL A   1      46.672  30.174  31.151  1.00  0.00    -0.206 F 
ATOM     90  C   UNL A   1      47.934  28.937  32.698  1.00  0.00     0.040 A 
ATOM     91  C   UNL A   1      46.825  27.692  34.437  1.00  0.00     0.040 A 
ATOM     92  F   UNL A   1      44.484  27.695  34.572  1.00  0.00    -0.206 F 
ATOM     93  C   UNL A   1      48.002  28.102  33.811  1.00  0.00     0.006 A 
ENDBRANCH  69  86
ENDBRANCH  43  44
ENDBRANCH  35  38
ENDBRANCH  33  34
ENDBRANCH  32  33
ENDBRANCH  31  32
ENDBRANCH  30  31
ENDBRANCH   3  30
TORSDOF 17
ENDMDL
MODEL 2
REMARK VINA RESULT:     -11.5      2.224      3.114
REMARK SMILES CCCOC(=O)c1c(NC(=O)[C@@H]2CC=CC[C@H]2C(=O)NCCCCNC(=O)c2ccc(-c3c4nc(c(-c5c(F)cccc5F)c5ccc([nH]5)c(-c5c(F)cccc5F)c5nc(c(-c6c(F)cccc6F)c6ccc3[nH]6)C=C5)C=C4)cc2)sc2c1CCCC2
REMARK SMILES IDX 18 1 19 2 20 3 17 5 12 6 13 7 14 8 16 9 15 10 10 11 9 12
REMARK SMILES IDX 11 14 8 15 7 16 84 17 82 18 83 19 85 20 88 21 86 22 87 23
REMARK SMILES IDX 5 24 6 25 4 26 3 27 2 28 1 29 21 30 22 31 23 32 24 33 25 34
REMARK SMILES IDX 26 35 27 37 28 38 29 39 81 40 30 41 80 42 31 43 32 44 33 45
REMARK SMILES IDX 74 46 34 47 79 48 73 49 75 50 35 51 78 52 72 53 71 54 36 56
REMARK SMILES IDX 62 57 45 58 61 59 46 60 49 61 60 62 76 63 47 64 48 65 59 67
REMARK SMILES IDX 77 68 50 69 37 70 38 71 43 72 39 73 40 74 42 75 44 76 41 77
REMARK SMILES IDX 63 78 64 79 69 80 65 81 66 82 68 83 70 84 67 85 51 86 52 87
REMARK SMILES IDX 57 88 53 89 54 90 56 91 58 92 55 93
REMARK H PARENT 20 4 9 13 25 36 75 55 49 66
REMARK Flexibility Score: inf
ROOT
ATOM      1  C   UNL A   1      32.635  28.436  22.822  1.00  0.00     0.224 C 
ATOM      2  O   UNL A   1      33.544  27.940  22.141  1.00  0.00    -0.275 OA
ATOM      3  N   UNL A   1      33.066  29.465  23.569  1.00  0.00    -0.356 N 
ATOM      4  H   UNL A   1      33.378  30.272  23.099  1.00  0.00     0.163 HD
ENDROOT
BRANCH   1   5
ATOM      5  C   UNL A   1      31.203  27.833  22.758  1.00  0.00     0.095 C 
ATOM      6  C   UNL A   1      31.266  26.369  23.083  1.00  0.00     0.095 C 
ATOM      7  C   UNL A   1      29.899  25.670  23.200  1.00  0.00     0.041 C 
ATOM      8  C   UNL A   1      28.861  26.492  23.908  1.00  0.00    -0.030 C 
ATOM      9  C   UNL A   1      29.839  28.515  22.938  1.00  0.00     0.041 C 
ATOM     10  C   UNL A   1      28.853  27.825  23.812  1.00  0.00    -0.030 C 
BRANCH   6  11
ATOM     11  C   UNL A   1      32.128  25.635  22.065  1.00  0.00     0.229 C 
ATOM     12  N   UNL A   1      33.326  25.026  22.289  1.00  0.00    -0.317 N 
ATOM     13  H   UNL A   1      33.737  24.803  21.423  1.00  0.00     0.170 HD
ATOM     14  O   UNL A   1      31.788  25.732  20.874  1.00  0.00    -0.274 OA
BRANCH  12  15
ATOM     15  C   UNL A   1      34.174  24.607  23.314  1.00  0.00     0.110 A 
ATOM     16  C   UNL A   1      34.524  24.743  24.682  1.00  0.00     0.098 A 
ATOM     17  C   UNL A   1      35.692  23.899  24.965  1.00  0.00    -0.017 A 
ATOM     18  S   UNL A   1      35.080  23.345  22.556  1.00  0.00    -0.122 S 
ATOM     19  C   UNL A   1      36.026  23.078  23.910  1.00  0.00     0.011 A 
ATOM     20  C   UNL A   1      36.381  23.758  26.297  1.00  0.00     0.038 C 
ATOM     21  C   UNL A   1      37.070  22.008  23.917  1.00  0.00     0.047 C 
ATOM     22  C   UNL A   1      37.670  22.923  26.193  1.00  0.00     0.005 C 
ATOM     23  C   UNL A   1      37.456  21.655  25.356  1.00  0.00     0.006 C 
BRANCH  16  24
ATOM     24  C   UNL A   1      33.763  25.287  25.862  1.00  0.00     0.341 C 
ATOM     25  O   UNL A   1      33.715  26.500  26.061  1.00  0.00    -0.246 OA
BRANCH  24  26
ATOM     26  O   UNL A   1      32.971  24.398  26.609  1.00  0.00    -0.462 OA
BRANCH  26  27
ATOM     27  C   UNL A   1      31.637  24.196  26.052  1.00  0.00     0.233 C 
BRANCH  27  28
ATOM     28  C   UNL A   1      31.227  22.799  25.490  1.00  0.00     0.038 C 
ATOM     29  C   UNL A   1      32.204  21.830  24.815  1.00  0.00     0.007 C 
ENDBRANCH  27  28
ENDBRANCH  26  27
ENDBRANCH  24  26
ENDBRANCH  16  24
ENDBRANCH  12  15
ENDBRANCH   6  11
ENDBRANCH   1   5
BRANCH   3  30
ATOM     30  C   UNL A   1      33.105  29.475  25.007  1.00  0.00     0.116 C 
BRANCH  30  31
ATOM     31  C   UNL A   1      31.861  30.163  25.581  1.00  0.00     0.023 C 
BRANCH  31  32
ATOM     32  C   UNL A   1      32.016  30.812  26.965  1.00  0.00     0.023 C 
BRANCH  32  33
ATOM     33  C   UNL A   1      33.105  31.871  27.111  1.00  0.00     0.116 C 
BRANCH  33  34
ATOM     34  N   UNL A   1      32.607  33.200  27.434  1.00  0.00    -0.352 N 
ATOM     35  C   UNL A   1      33.128  34.117  28.312  1.00  0.00     0.251 C 
ATOM     36  H   UNL A   1      31.788  33.477  26.963  1.00  0.00     0.163 HD
ATOM     37  O   UNL A   1      32.589  35.207  28.482  1.00  0.00    -0.269 OA
BRANCH  35  38
ATOM     38  C   UNL A   1      34.322  33.748  29.088  1.00  0.00     0.039 A 
ATOM     39  C   UNL A   1      34.167  32.908  30.193  1.00  0.00     0.014 A 
ATOM     40  C   UNL A   1      35.588  34.152  28.660  1.00  0.00     0.014 A 
ATOM     41  C   UNL A   1      35.298  32.402  30.830  1.00  0.00     0.010 A 
ATOM     42  C   UNL A   1      36.712  33.601  29.260  1.00  0.00     0.010 A 
ATOM     43  C   UNL A   1      36.575  32.713  30.340  1.00  0.00    -0.014 A 
BRANCH  43  44
ATOM     44  C   UNL A   1      37.795  32.117  30.933  1.00  0.00     0.031 A 
ATOM     45  C   UNL A   1      38.515  31.025  30.203  1.00  0.00     0.074 A 
ATOM     46  C   UNL A   1      38.182  32.484  32.170  1.00  0.00     0.049 A 
ATOM     47  N   UNL A   1      39.510  30.277  30.603  1.00  0.00    -0.248 NA
ATOM     48  C   UNL A   1      38.022  30.706  28.854  1.00  0.00     0.031 C 
ATOM     49  C   UNL A   1      37.522  33.494  32.999  1.00  0.00     0.029 A 
ATOM     50  N   UNL A   1      39.210  32.027  32.954  1.00  0.00    -0.354 N 
ATOM     51  C   UNL A   1      39.740  29.380  29.568  1.00  0.00     0.074 A 
ATOM     52  C   UNL A   1      38.752  29.646  28.547  1.00  0.00     0.031 C 
ATOM     53  C   UNL A   1      38.164  33.583  34.176  1.00  0.00     0.029 A 
ATOM     54  C   UNL A   1      39.257  32.615  34.194  1.00  0.00     0.049 A 
ATOM     55  H   UNL A   1      39.852  31.343  32.656  1.00  0.00     0.167 HD
ATOM     56  C   UNL A   1      40.701  28.430  29.474  1.00  0.00     0.037 A 
ATOM     57  C   UNL A   1      40.084  32.390  35.233  1.00  0.00     0.037 A 
ATOM     58  C   UNL A   1      41.698  28.194  30.484  1.00  0.00     0.049 A 
ATOM     59  C   UNL A   1      41.166  31.357  35.095  1.00  0.00     0.074 A 
ATOM     60  C   UNL A   1      42.760  27.308  30.459  1.00  0.00     0.029 A 
ATOM     61  N   UNL A   1      41.753  28.853  31.704  1.00  0.00    -0.354 N 
ATOM     62  N   UNL A   1      41.419  30.559  34.086  1.00  0.00    -0.248 NA
ATOM     63  C   UNL A   1      42.082  31.200  36.232  1.00  0.00     0.031 C 
ATOM     64  C   UNL A   1      43.440  27.409  31.679  1.00  0.00     0.029 A 
ATOM     65  C   UNL A   1      42.823  28.385  32.447  1.00  0.00     0.049 A 
ATOM     66  H   UNL A   1      41.124  29.551  31.998  1.00  0.00     0.167 HD
ATOM     67  C   UNL A   1      42.535  29.819  34.455  1.00  0.00     0.074 A 
ATOM     68  C   UNL A   1      42.915  30.273  35.778  1.00  0.00     0.031 C 
ATOM     69  C   UNL A   1      43.187  28.855  33.761  1.00  0.00     0.037 A 
BRANCH  56  70
ATOM     70  C   UNL A   1      40.702  27.584  28.237  1.00  0.00     0.057 A 
ATOM     71  C   UNL A   1      40.014  26.365  28.173  1.00  0.00     0.134 A 
ATOM     72  C   UNL A   1      41.418  27.979  27.100  1.00  0.00     0.134 A 
ATOM     73  F   UNL A   1      39.323  25.919  29.233  1.00  0.00    -0.206 F 
ATOM     74  C   UNL A   1      40.073  25.549  27.042  1.00  0.00     0.040 A 
ATOM     75  C   UNL A   1      41.461  27.187  25.952  1.00  0.00     0.040 A 
ATOM     76  F   UNL A   1      42.097  29.137  27.090  1.00  0.00    -0.206 F 
ATOM     77  C   UNL A   1      40.797  25.961  25.926  1.00  0.00     0.006 A 
ENDBRANCH  56  70
BRANCH  57  78
ATOM     78  C   UNL A   1      39.929  33.181  36.477  1.00  0.00     0.057 A 
ATOM     79  C   UNL A   1      40.629  34.379  36.660  1.00  0.00     0.134 A 
ATOM     80  C   UNL A   1      39.057  32.779  37.496  1.00  0.00     0.134 A 
ATOM     81  F   UNL A   1      41.489  34.807  35.724  1.00  0.00    -0.206 F 
ATOM     82  C   UNL A   1      40.472  35.148  37.814  1.00  0.00     0.040 A 
ATOM     83  C   UNL A   1      38.877  33.548  38.647  1.00  0.00     0.040 A 
ATOM     84  F   UNL A   1      38.352  31.644  37.375  1.00  0.00    -0.206 F 
ATOM     85  C   UNL A   1      39.587  34.735  38.809  1.00  0.00     0.006 A 
ENDBRANCH  57  78
BRANCH  69  86
ATOM     86  C   UNL A   1      44.395  28.246  34.405  1.00  0.00     0.057 A 
ATOM     87  C   UNL A   1      44.313  27.077  35.171  1.00  0.00     0.134 A 
ATOM     88  C   UNL A   1      45.664  28.808  34.210  1.00  0.00     0.134 A 
ATOM     89  F   UNL A   1      43.125  26.499  35.405  1.00  0.00    -0.206 F 
ATOM     90  C   UNL A   1      45.450  26.495  35.733  1.00  0.00     0.040 A 
ATOM     91  C   UNL A   1      46.810  28.223  34.748  1.00  0.00     0.040 A 
ATOM     92  F   UNL A   1      45.809  29.923  33.480  1.00  0.00    -0.206 F 
ATOM     93  C   UNL A   1      46.704  27.064  35.515  1.00  0.00     0.006 A 
ENDBRANCH  69  86
ENDBRANCH  43  44
ENDBRANCH  35  38
ENDBRANCH  33  34
ENDBRANCH  32  33
ENDBRANCH  31  32
ENDBRANCH  30  31
ENDBRANCH   3  30
TORSDOF 17
ENDMDL
MODEL 3
REMARK VINA RESULT:     -11.5      3.911      9.012
REMARK SMILES CCCOC(=O)c1c(NC(=O)[C@@H]2CC=CC[C@H]2C(=O)NCCCCNC(=O)c2ccc(-c3c4nc(c(-c5c(F)cccc5F)c5ccc([nH]5)c(-c5c(F)cccc5F)c5nc(c(-c6c(F)cccc6F)c6ccc3[nH]6)C=C5)C=C4)cc2)sc2c1CCCC2
REMARK SMILES IDX 18 1 19 2 20 3 17 5 12 6 13 7 14 8 16 9 15 10 10 11 9 12
REMARK SMILES IDX 11 14 8 15 7 16 84 17 82 18 83 19 85 20 88 21 86 22 87 23
REMARK SMILES IDX 5 24 6 25 4 26 3 27 2 28 1 29 21 30 22 31 23 32 24 33 25 34
REMARK SMILES IDX 26 35 27 37 28 38 29 39 81 40 30 41 80 42 31 43 32 44 33 45
REMARK SMILES IDX 74 46 34 47 79 48 73 49 75 50 35 51 78 52 72 53 71 54 36 56
REMARK SMILES IDX 62 57 45 58 61 59 46 60 49 61 60 62 76 63 47 64 48 65 59 67
REMARK SMILES IDX 77 68 50 69 37 70 38 71 43 72 39 73 40 74 42 75 44 76 41 77
REMARK SMILES IDX 63 78 64 79 69 80 65 81 66 82 68 83 70 84 67 85 51 86 52 87
REMARK SMILES IDX 57 88 53 89 54 90 56 91 58 92 55 93
REMARK H PARENT 20 4 9 13 25 36 75 55 49 66
REMARK Flexibility Score: inf
ROOT
ATOM      1  C   UNL A   1      33.438  21.611  26.884  1.00  0.00     0.224 C 
ATOM      2  O   UNL A   1      32.856  22.248  27.773  1.00  0.00    -0.275 OA
ATOM      3  N   UNL A   1      34.739  21.424  27.166  1.00  0.00    -0.356 N 
ATOM      4  H   UNL A   1      34.961  20.862  27.943  1.00  0.00     0.163 HD
ENDROOT
BRANCH   1   5
ATOM      5  C   UNL A   1      32.658  21.156  25.619  1.00  0.00     0.095 C 
ATOM      6  C   UNL A   1      32.082  22.360  24.932  1.00  0.00     0.095 C 
ATOM      7  C   UNL A   1      31.402  22.074  23.580  1.00  0.00     0.041 C 
ATOM      8  C   UNL A   1      32.144  21.083  22.731  1.00  0.00    -0.030 C 
ATOM      9  C   UNL A   1      32.824  19.894  24.759  1.00  0.00     0.041 C 
ATOM     10  C   UNL A   1      32.837  20.084  23.284  1.00  0.00    -0.030 C 
BRANCH   6  11
ATOM     11  C   UNL A   1      31.103  23.079  25.852  1.00  0.00     0.229 C 
ATOM     12  N   UNL A   1      31.252  24.315  26.406  1.00  0.00    -0.317 N 
ATOM     13  H   UNL A   1      30.562  24.440  27.096  1.00  0.00     0.170 HD
ATOM     14  O   UNL A   1      30.141  22.414  26.271  1.00  0.00    -0.274 OA
BRANCH  12  15
ATOM     15  C   UNL A   1      32.037  25.465  26.337  1.00  0.00     0.110 A 
ATOM     16  C   UNL A   1      33.281  26.020  25.938  1.00  0.00     0.098 A 
ATOM     17  C   UNL A   1      33.322  27.435  26.327  1.00  0.00    -0.017 A 
ATOM     18  S   UNL A   1      30.957  26.689  26.905  1.00  0.00    -0.122 S 
ATOM     19  C   UNL A   1      32.113  27.895  26.800  1.00  0.00     0.011 A 
ATOM     20  C   UNL A   1      34.466  28.386  26.090  1.00  0.00     0.038 C 
ATOM     21  C   UNL A   1      31.778  29.310  27.148  1.00  0.00     0.047 C 
ATOM     22  C   UNL A   1      34.237  29.745  26.777  1.00  0.00     0.005 C 
ATOM     23  C   UNL A   1      32.812  30.262  26.544  1.00  0.00     0.006 C 
BRANCH  16  24
ATOM     24  C   UNL A   1      34.328  25.539  24.969  1.00  0.00     0.341 C 
ATOM     25  O   UNL A   1      35.437  25.197  25.375  1.00  0.00    -0.246 OA
BRANCH  24  26
ATOM     26  O   UNL A   1      33.947  25.323  23.633  1.00  0.00    -0.462 OA
BRANCH  26  27
ATOM     27  C   UNL A   1      33.589  26.546  22.923  1.00  0.00     0.233 C 
BRANCH  27  28
ATOM     28  C   UNL A   1      32.142  26.733  22.368  1.00  0.00     0.038 C 
ATOM     29  C   UNL A   1      31.012  27.419  23.144  1.00  0.00     0.007 C 
ENDBRANCH  27  28
ENDBRANCH  26  27
ENDBRANCH  24  26
ENDBRANCH  16  24
ENDBRANCH  12  15
ENDBRANCH   6  11
ENDBRANCH   1   5
BRANCH   3  30
ATOM     30  C   UNL A   1      35.830  21.983  26.413  1.00  0.00     0.116 C 
BRANCH  30  31
ATOM     31  C   UNL A   1      36.301  21.007  25.329  1.00  0.00     0.023 C 
BRANCH  31  32
ATOM     32  C   UNL A   1      37.777  21.109  24.912  1.00  0.00     0.023 C 
BRANCH  32  33
ATOM     33  C   UNL A   1      38.817  20.897  26.009  1.00  0.00     0.116 C 
BRANCH  33  34
ATOM     34  N   UNL A   1      39.653  19.720  25.820  1.00  0.00    -0.352 N 
ATOM     35  C   UNL A   1      41.008  19.599  25.993  1.00  0.00     0.251 C 
ATOM     36  H   UNL A   1      39.184  18.904  25.530  1.00  0.00     0.163 HD
ATOM     37  O   UNL A   1      41.579  18.531  25.791  1.00  0.00    -0.269 OA
BRANCH  35  38
ATOM     38  C   UNL A   1      41.778  20.793  26.376  1.00  0.00     0.039 A 
ATOM     39  C   UNL A   1      42.155  21.694  25.377  1.00  0.00     0.014 A 
ATOM     40  C   UNL A   1      42.032  21.060  27.723  1.00  0.00     0.014 A 
ATOM     41  C   UNL A   1      42.722  22.914  25.738  1.00  0.00     0.010 A 
ATOM     42  C   UNL A   1      42.544  22.299  28.082  1.00  0.00     0.010 A 
ATOM     43  C   UNL A   1      42.881  23.239  27.093  1.00  0.00    -0.014 A 
BRANCH  43  44
ATOM     44  C   UNL A   1      43.391  24.565  27.513  1.00  0.00     0.031 A 
ATOM     45  C   UNL A   1      42.428  25.621  27.962  1.00  0.00     0.074 A 
ATOM     46  C   UNL A   1      44.702  24.845  27.384  1.00  0.00     0.049 A 
ATOM     47  N   UNL A   1      42.647  26.881  28.235  1.00  0.00    -0.248 NA
ATOM     48  C   UNL A   1      41.020  25.212  28.082  1.00  0.00     0.031 C 
ATOM     49  C   UNL A   1      45.724  23.914  26.902  1.00  0.00     0.029 A 
ATOM     50  N   UNL A   1      45.393  26.006  27.623  1.00  0.00    -0.354 N 
ATOM     51  C   UNL A   1      41.401  27.420  28.528  1.00  0.00     0.074 A 
ATOM     52  C   UNL A   1      40.429  26.364  28.352  1.00  0.00     0.031 C 
ATOM     53  C   UNL A   1      46.913  24.540  26.883  1.00  0.00     0.029 A 
ATOM     54  C   UNL A   1      46.730  25.920  27.321  1.00  0.00     0.049 A 
ATOM     55  H   UNL A   1      44.971  26.821  27.978  1.00  0.00     0.167 HD
ATOM     56  C   UNL A   1      41.100  28.680  28.924  1.00  0.00     0.037 A 
ATOM     57  C   UNL A   1      47.696  26.855  27.380  1.00  0.00     0.037 A 
ATOM     58  C   UNL A   1      42.080  29.714  29.124  1.00  0.00     0.049 A 
ATOM     59  C   UNL A   1      47.348  28.237  27.856  1.00  0.00     0.074 A 
ATOM     60  C   UNL A   1      41.892  31.002  29.592  1.00  0.00     0.029 A 
ATOM     61  N   UNL A   1      43.436  29.574  28.867  1.00  0.00    -0.354 N 
ATOM     62  N   UNL A   1      46.177  28.721  28.195  1.00  0.00    -0.248 NA
ATOM     63  C   UNL A   1      48.452  29.199  27.967  1.00  0.00     0.031 C 
ATOM     64  C   UNL A   1      43.133  31.652  29.587  1.00  0.00     0.029 A 
ATOM     65  C   UNL A   1      44.097  30.755  29.153  1.00  0.00     0.049 A 
ATOM     66  H   UNL A   1      43.865  28.754  28.530  1.00  0.00     0.167 HD
ATOM     67  C   UNL A   1      46.405  30.036  28.581  1.00  0.00     0.074 A 
ATOM     68  C   UNL A   1      47.829  30.269  28.442  1.00  0.00     0.031 C 
ATOM     69  C   UNL A   1      45.517  30.964  29.013  1.00  0.00     0.037 A 
BRANCH  56  70
ATOM     70  C   UNL A   1      39.652  28.992  29.154  1.00  0.00     0.057 A 
ATOM     71  C   UNL A   1      39.059  28.862  30.417  1.00  0.00     0.134 A 
ATOM     72  C   UNL A   1      38.832  29.405  28.097  1.00  0.00     0.134 A 
ATOM     73  F   UNL A   1      39.784  28.453  31.470  1.00  0.00    -0.206 F 
ATOM     74  C   UNL A   1      37.695  29.089  30.612  1.00  0.00     0.040 A 
ATOM     75  C   UNL A   1      37.473  29.665  28.284  1.00  0.00     0.040 A 
ATOM     76  F   UNL A   1      39.335  29.555  26.862  1.00  0.00    -0.206 F 
ATOM     77  C   UNL A   1      36.899  29.494  29.544  1.00  0.00     0.006 A 
ENDBRANCH  56  70
BRANCH  57  78
ATOM     78  C   UNL A   1      49.086  26.499  27.003  1.00  0.00     0.057 A 
ATOM     79  C   UNL A   1      49.966  25.949  27.941  1.00  0.00     0.134 A 
ATOM     80  C   UNL A   1      49.554  26.667  25.695  1.00  0.00     0.134 A 
ATOM     81  F   UNL A   1      49.577  25.777  29.213  1.00  0.00    -0.206 F 
ATOM     82  C   UNL A   1      51.267  25.582  27.593  1.00  0.00     0.040 A 
ATOM     83  C   UNL A   1      50.847  26.287  25.330  1.00  0.00     0.040 A 
ATOM     84  F   UNL A   1      48.754  27.181  24.750  1.00  0.00    -0.206 F 
ATOM     85  C   UNL A   1      51.709  25.746  26.281  1.00  0.00     0.006 A 
ENDBRANCH  57  78
BRANCH  69  86
ATOM     86  C   UNL A   1      46.061  32.307  29.395  1.00  0.00     0.057 A 
ATOM     87  C   UNL A   1      46.134  33.362  28.478  1.00  0.00     0.134 A 
ATOM     88  C   UNL A   1      46.468  32.561  30.711  1.00  0.00     0.134 A 
ATOM     89  F   UNL A   1      45.771  33.178  27.199  1.00  0.00    -0.206 F 
ATOM     90  C   UNL A   1      46.604  34.621  28.854  1.00  0.00     0.040 A 
ATOM     91  C   UNL A   1      46.919  33.820  31.104  1.00  0.00     0.040 A 
ATOM     92  F   UNL A   1      46.416  31.593  31.638  1.00  0.00    -0.206 F 
ATOM     93  C   UNL A   1      46.991  34.855  30.172  1.00  0.00     0.006 A 
ENDBRANCH  69  86
ENDBRANCH  43  44
ENDBRANCH  35  38
ENDBRANCH  33  34
ENDBRANCH  32  33
ENDBRANCH  31  32
ENDBRANCH  30  31
ENDBRANCH   3  30
TORSDOF 17
ENDMDL
