MODEL 1
REMARK VINA RESULT:     -11.8      0.000      0.000
REMARK SMILES Cc1ccccc1O[C@H](C)C(=O)Oc1cccc(C(=O)NCCCCNC(=O)c2ccc(-c3c4nc(c(-c5c(F)cccc5F)c5ccc([nH]5)c(-c5c(F)cccc5F)c5nc(c(-c6c(F)cccc6F)c6ccc3[nH]6)C=C5)C=C4)cc2)c1
REMARK SMILES IDX 22 1 21 2 19 3 20 4 18 6 14 7 15 8 83 9 16 10 17 11 13 12
REMARK SMILES IDX 11 13 12 14 9 15 10 16 8 17 7 18 1 19 2 20 3 21 4 22 6 23
REMARK SMILES IDX 5 24 23 25 24 26 25 27 26 28 27 29 28 31 29 32 30 33 82 34
REMARK SMILES IDX 31 35 81 36 32 37 33 38 34 39 75 40 35 41 80 42 74 43 76 44
REMARK SMILES IDX 36 45 79 46 73 47 72 48 37 50 63 51 46 52 62 53 47 54 50 55
REMARK SMILES IDX 61 56 77 57 48 58 49 59 60 61 78 62 51 63 38 64 39 65 44 66
REMARK SMILES IDX 40 67 41 68 43 69 45 70 42 71 64 72 65 73 70 74 66 75 67 76
REMARK SMILES IDX 69 77 71 78 68 79 52 80 53 81 58 82 54 83 55 84 57 85 59 86
REMARK SMILES IDX 56 87
REMARK H PARENT 21 5 26 30 76 49 50 60
REMARK Flexibility Score: inf
ROOT
ATOM      1  C   UNL A   1      32.092  30.543  26.008  1.00  0.00     0.116 C 
ENDROOT
BRANCH   1   2
ATOM      2  N   UNL A   1      32.769  29.978  24.853  1.00  0.00    -0.352 N 
ATOM      3  C   UNL A   1      32.580  28.850  24.098  1.00  0.00     0.251 C 
ATOM      4  O   UNL A   1      33.318  28.717  23.118  1.00  0.00    -0.269 OA
ATOM      5  H   UNL A   1      33.529  30.524  24.547  1.00  0.00     0.163 HD
BRANCH   3   6
ATOM      6  C   UNL A   1      31.554  27.798  24.365  1.00  0.00     0.043 A 
ATOM      7  C   UNL A   1      30.875  25.952  25.808  1.00  0.00     0.131 A 
ATOM      8  C   UNL A   1      29.681  25.822  25.111  1.00  0.00     0.047 A 
ATOM      9  C   UNL A   1      31.805  26.929  25.444  1.00  0.00     0.061 A 
ATOM     10  C   UNL A   1      29.421  26.677  24.042  1.00  0.00     0.005 A 
ATOM     11  C   UNL A   1      30.341  27.670  23.685  1.00  0.00     0.014 A 
BRANCH   7  12
ATOM     12  O   UNL A   1      31.182  25.224  26.983  1.00  0.00    -0.424 OA
BRANCH  12  13
ATOM     13  C   UNL A   1      31.184  23.832  27.066  1.00  0.00     0.352 C 
ATOM     14  O   UNL A   1      30.214  23.132  27.334  1.00  0.00    -0.247 OA
BRANCH  13  15
ATOM     15  C   UNL A   1      32.583  23.263  26.752  1.00  0.00     0.280 C 
ATOM     16  C   UNL A   1      33.129  22.326  27.826  1.00  0.00     0.066 C 
BRANCH  15  17
ATOM     17  O   UNL A   1      32.904  22.818  25.439  1.00  0.00    -0.479 OA
BRANCH  17  18
ATOM     18  C   UNL A   1      33.175  23.673  24.412  1.00  0.00     0.123 A 
ATOM     19  C   UNL A   1      30.960  22.896  23.411  1.00  0.00     0.048 C 
ATOM     20  C   UNL A   1      32.218  23.721  23.381  1.00  0.00    -0.009 A 
ATOM     21  C   UNL A   1      32.397  24.612  22.306  1.00  0.00     0.007 A 
ATOM     22  C   UNL A   1      33.514  25.440  22.249  1.00  0.00     0.001 A 
ATOM     23  C   UNL A   1      34.269  24.536  24.358  1.00  0.00     0.047 A 
ATOM     24  C   UNL A   1      34.448  25.403  23.276  1.00  0.00     0.004 A 
ENDBRANCH  17  18
ENDBRANCH  15  17
ENDBRANCH  13  15
ENDBRANCH  12  13
ENDBRANCH   7  12
ENDBRANCH   3   6
ENDBRANCH   1   2
BRANCH   1  25
ATOM     25  C   UNL A   1      32.490  29.838  27.315  1.00  0.00     0.023 C 
BRANCH  25  26
ATOM     26  C   UNL A   1      33.995  29.845  27.619  1.00  0.00     0.023 C 
BRANCH  26  27
ATOM     27  C   UNL A   1      34.652  31.213  27.476  1.00  0.00     0.116 C 
BRANCH  27  28
ATOM     28  N   UNL A   1      35.153  31.786  28.721  1.00  0.00    -0.352 N 
ATOM     29  C   UNL A   1      36.134  31.294  29.570  1.00  0.00     0.251 C 
ATOM     30  H   UNL A   1      34.740  32.637  28.995  1.00  0.00     0.163 HD
ATOM     31  O   UNL A   1      36.419  31.881  30.602  1.00  0.00    -0.269 OA
BRANCH  29  32
ATOM     32  C   UNL A   1      36.927  30.118  29.138  1.00  0.00     0.039 A 
ATOM     33  C   UNL A   1      37.086  29.075  30.056  1.00  0.00     0.014 A 
ATOM     34  C   UNL A   1      37.701  30.167  27.980  1.00  0.00     0.014 A 
ATOM     35  C   UNL A   1      38.203  28.252  29.956  1.00  0.00     0.010 A 
ATOM     36  C   UNL A   1      38.855  29.407  27.924  1.00  0.00     0.010 A 
ATOM     37  C   UNL A   1      39.147  28.517  28.964  1.00  0.00    -0.014 A 
BRANCH  37  38
ATOM     38  C   UNL A   1      40.526  28.047  29.061  1.00  0.00     0.031 A 
ATOM     39  C   UNL A   1      40.912  26.706  28.581  1.00  0.00     0.074 A 
ATOM     40  C   UNL A   1      41.466  28.865  29.589  1.00  0.00     0.049 A 
ATOM     41  N   UNL A   1      41.964  26.076  28.988  1.00  0.00    -0.248 NA
ATOM     42  C   UNL A   1      40.087  25.918  27.673  1.00  0.00     0.031 C 
ATOM     43  C   UNL A   1      42.917  28.699  29.551  1.00  0.00     0.029 A 
ATOM     44  N   UNL A   1      41.261  29.916  30.497  1.00  0.00    -0.354 N 
ATOM     45  C   UNL A   1      42.122  24.976  28.181  1.00  0.00     0.074 A 
ATOM     46  C   UNL A   1      40.857  24.837  27.509  1.00  0.00     0.031 C 
ATOM     47  C   UNL A   1      43.456  29.376  30.576  1.00  0.00     0.029 A 
ATOM     48  C   UNL A   1      42.358  29.878  31.383  1.00  0.00     0.049 A 
ATOM     49  H   UNL A   1      40.506  30.549  30.512  1.00  0.00     0.167 HD
ATOM     50  C   UNL A   1      43.364  24.424  28.065  1.00  0.00     0.037 A 
ATOM     51  C   UNL A   1      42.203  29.654  32.719  1.00  0.00     0.037 A 
ATOM     52  C   UNL A   1      44.256  24.913  29.122  1.00  0.00     0.049 A 
ATOM     53  C   UNL A   1      42.983  28.472  33.243  1.00  0.00     0.074 A 
ATOM     54  C   UNL A   1      45.343  25.769  29.131  1.00  0.00     0.029 A 
ATOM     55  N   UNL A   1      43.925  24.685  30.457  1.00  0.00    -0.354 N 
ATOM     56  N   UNL A   1      43.458  27.522  32.489  1.00  0.00    -0.248 NA
ATOM     57  C   UNL A   1      43.249  28.246  34.661  1.00  0.00     0.031 C 
ATOM     58  C   UNL A   1      45.617  26.114  30.481  1.00  0.00     0.029 A 
ATOM     59  C   UNL A   1      44.720  25.441  31.293  1.00  0.00     0.049 A 
ATOM     60  H   UNL A   1      43.221  24.068  30.760  1.00  0.00     0.167 HD
ATOM     61  C   UNL A   1      44.030  26.556  33.276  1.00  0.00     0.074 A 
ATOM     62  C   UNL A   1      43.904  27.072  34.626  1.00  0.00     0.031 C 
ATOM     63  C   UNL A   1      44.534  25.404  32.740  1.00  0.00     0.037 A 
BRANCH  50  64
ATOM     64  C   UNL A   1      43.864  23.627  26.865  1.00  0.00     0.057 A 
ATOM     65  C   UNL A   1      44.574  24.276  25.831  1.00  0.00     0.134 A 
ATOM     66  C   UNL A   1      43.573  22.275  26.582  1.00  0.00     0.134 A 
ATOM     67  F   UNL A   1      44.957  25.556  25.938  1.00  0.00    -0.206 F 
ATOM     68  C   UNL A   1      44.912  23.655  24.618  1.00  0.00     0.040 A 
ATOM     69  C   UNL A   1      43.941  21.632  25.391  1.00  0.00     0.040 A 
ATOM     70  F   UNL A   1      42.876  21.494  27.408  1.00  0.00    -0.206 F 
ATOM     71  C   UNL A   1      44.595  22.326  24.391  1.00  0.00     0.006 A 
ENDBRANCH  50  64
BRANCH  51  72
ATOM     72  C   UNL A   1      40.894  30.104  33.258  1.00  0.00     0.057 A 
ATOM     73  C   UNL A   1      40.707  31.467  33.550  1.00  0.00     0.134 A 
ATOM     74  C   UNL A   1      39.748  29.309  33.175  1.00  0.00     0.134 A 
ATOM     75  F   UNL A   1      41.765  32.290  33.637  1.00  0.00    -0.206 F 
ATOM     76  C   UNL A   1      39.435  32.034  33.655  1.00  0.00     0.040 A 
ATOM     77  C   UNL A   1      38.467  29.864  33.289  1.00  0.00     0.040 A 
ATOM     78  F   UNL A   1      39.841  28.006  32.876  1.00  0.00    -0.206 F 
ATOM     79  C   UNL A   1      38.309  31.234  33.495  1.00  0.00     0.006 A 
ENDBRANCH  51  72
BRANCH  63  80
ATOM     80  C   UNL A   1      44.970  24.177  33.512  1.00  0.00     0.057 A 
ATOM     81  C   UNL A   1      44.201  23.012  33.663  1.00  0.00     0.134 A 
ATOM     82  C   UNL A   1      46.284  24.087  34.027  1.00  0.00     0.134 A 
ATOM     83  F   UNL A   1      42.983  22.896  33.118  1.00  0.00    -0.206 F 
ATOM     84  C   UNL A   1      44.673  21.875  34.336  1.00  0.00     0.040 A 
ATOM     85  C   UNL A   1      46.784  22.938  34.652  1.00  0.00     0.040 A 
ATOM     86  F   UNL A   1      47.152  25.104  33.925  1.00  0.00    -0.206 F 
ATOM     87  C   UNL A   1      45.972  21.831  34.826  1.00  0.00     0.006 A 
ENDBRANCH  63  80
ENDBRANCH  37  38
ENDBRANCH  29  32
ENDBRANCH  27  28
ENDBRANCH  26  27
ENDBRANCH  25  26
ENDBRANCH   1  25
TORSDOF 16
ENDMDL
MODEL 2
REMARK VINA RESULT:     -11.8      1.298      2.520
REMARK SMILES Cc1ccccc1O[C@H](C)C(=O)Oc1cccc(C(=O)NCCCCNC(=O)c2ccc(-c3c4nc(c(-c5c(F)cccc5F)c5ccc([nH]5)c(-c5c(F)cccc5F)c5nc(c(-c6c(F)cccc6F)c6ccc3[nH]6)C=C5)C=C4)cc2)c1
REMARK SMILES IDX 22 1 21 2 19 3 20 4 18 6 14 7 15 8 83 9 16 10 17 11 13 12
REMARK SMILES IDX 11 13 12 14 9 15 10 16 8 17 7 18 1 19 2 20 3 21 4 22 6 23
REMARK SMILES IDX 5 24 23 25 24 26 25 27 26 28 27 29 28 31 29 32 30 33 82 34
REMARK SMILES IDX 31 35 81 36 32 37 33 38 34 39 75 40 35 41 80 42 74 43 76 44
REMARK SMILES IDX 36 45 79 46 73 47 72 48 37 50 63 51 46 52 62 53 47 54 50 55
REMARK SMILES IDX 61 56 77 57 48 58 49 59 60 61 78 62 51 63 38 64 39 65 44 66
REMARK SMILES IDX 40 67 41 68 43 69 45 70 42 71 64 72 65 73 70 74 66 75 67 76
REMARK SMILES IDX 69 77 71 78 68 79 52 80 53 81 58 82 54 83 55 84 57 85 59 86
REMARK SMILES IDX 56 87
REMARK H PARENT 21 5 26 30 76 49 50 60
REMARK Flexibility Score: inf
ROOT
ATOM      1  C   UNL A   1      32.755  28.744  26.213  1.00  0.00     0.116 C 
ENDROOT
BRANCH   1   2
ATOM      2  N   UNL A   1      31.931  27.628  26.644  1.00  0.00    -0.352 N 
ATOM      3  C   UNL A   1      31.781  26.335  26.213  1.00  0.00     0.251 C 
ATOM      4  O   UNL A   1      31.023  25.622  26.876  1.00  0.00    -0.269 OA
ATOM      5  H   UNL A   1      31.354  27.849  27.410  1.00  0.00     0.163 HD
BRANCH   3   6
ATOM      6  C   UNL A   1      32.469  25.738  25.030  1.00  0.00     0.043 A 
ATOM      7  C   UNL A   1      34.515  24.717  24.179  1.00  0.00     0.131 A 
ATOM      8  C   UNL A   1      33.906  24.476  22.954  1.00  0.00     0.047 A 
ATOM      9  C   UNL A   1      33.807  25.340  25.210  1.00  0.00     0.061 A 
ATOM     10  C   UNL A   1      32.582  24.864  22.764  1.00  0.00     0.005 A 
ATOM     11  C   UNL A   1      31.863  25.472  23.800  1.00  0.00     0.014 A 
BRANCH   7  12
ATOM     12  O   UNL A   1      35.808  24.251  24.518  1.00  0.00    -0.424 OA
BRANCH  12  13
ATOM     13  C   UNL A   1      36.413  23.131  23.951  1.00  0.00     0.352 C 
ATOM     14  O   UNL A   1      36.603  22.954  22.753  1.00  0.00    -0.247 OA
BRANCH  13  15
ATOM     15  C   UNL A   1      36.845  22.126  25.039  1.00  0.00     0.280 C 
ATOM     16  C   UNL A   1      37.909  22.663  25.993  1.00  0.00     0.066 C 
BRANCH  15  17
ATOM     17  O   UNL A   1      35.879  21.326  25.709  1.00  0.00    -0.479 OA
BRANCH  17  18
ATOM     18  C   UNL A   1      34.544  21.390  25.435  1.00  0.00     0.123 A 
ATOM     19  C   UNL A   1      34.318  22.583  27.680  1.00  0.00     0.048 C 
ATOM     20  C   UNL A   1      33.742  22.009  26.413  1.00  0.00    -0.009 A 
ATOM     21  C   UNL A   1      32.362  22.159  26.189  1.00  0.00     0.007 A 
ATOM     22  C   UNL A   1      31.779  21.696  25.013  1.00  0.00     0.001 A 
ATOM     23  C   UNL A   1      33.951  20.966  24.246  1.00  0.00     0.047 A 
ATOM     24  C   UNL A   1      32.575  21.101  24.041  1.00  0.00     0.004 A 
ENDBRANCH  17  18
ENDBRANCH  15  17
ENDBRANCH  13  15
ENDBRANCH  12  13
ENDBRANCH   7  12
ENDBRANCH   3   6
ENDBRANCH   1   2
BRANCH   1  25
ATOM     25  C   UNL A   1      32.102  30.101  26.522  1.00  0.00     0.023 C 
BRANCH  25  26
ATOM     26  C   UNL A   1      33.012  31.105  27.243  1.00  0.00     0.023 C 
BRANCH  26  27
ATOM     27  C   UNL A   1      34.266  30.485  27.849  1.00  0.00     0.116 C 
BRANCH  27  28
ATOM     28  N   UNL A   1      34.999  31.353  28.764  1.00  0.00    -0.352 N 
ATOM     29  C   UNL A   1      36.196  31.108  29.421  1.00  0.00     0.251 C 
ATOM     30  H   UNL A   1      34.589  32.231  28.938  1.00  0.00     0.163 HD
ATOM     31  O   UNL A   1      36.668  31.933  30.188  1.00  0.00    -0.269 OA
BRANCH  29  32
ATOM     32  C   UNL A   1      36.964  29.889  29.073  1.00  0.00     0.039 A 
ATOM     33  C   UNL A   1      37.178  28.950  30.087  1.00  0.00     0.014 A 
ATOM     34  C   UNL A   1      37.670  29.810  27.873  1.00  0.00     0.014 A 
ATOM     35  C   UNL A   1      38.288  28.115  30.012  1.00  0.00     0.010 A 
ATOM     36  C   UNL A   1      38.819  29.042  27.834  1.00  0.00     0.010 A 
ATOM     37  C   UNL A   1      39.173  28.267  28.944  1.00  0.00    -0.014 A 
BRANCH  37  38
ATOM     38  C   UNL A   1      40.555  27.803  29.012  1.00  0.00     0.031 A 
ATOM     39  C   UNL A   1      40.933  26.455  28.548  1.00  0.00     0.074 A 
ATOM     40  C   UNL A   1      41.506  28.635  29.496  1.00  0.00     0.049 A 
ATOM     41  N   UNL A   1      41.998  25.836  28.937  1.00  0.00    -0.248 NA
ATOM     42  C   UNL A   1      40.085  25.646  27.679  1.00  0.00     0.031 C 
ATOM     43  C   UNL A   1      42.957  28.473  29.420  1.00  0.00     0.029 A 
ATOM     44  N   UNL A   1      41.323  29.703  30.388  1.00  0.00    -0.354 N 
ATOM     45  C   UNL A   1      42.138  24.721  28.148  1.00  0.00     0.074 A 
ATOM     46  C   UNL A   1      40.854  24.564  27.515  1.00  0.00     0.031 C 
ATOM     47  C   UNL A   1      43.522  29.172  30.416  1.00  0.00     0.029 A 
ATOM     48  C   UNL A   1      42.446  29.686  31.244  1.00  0.00     0.049 A 
ATOM     49  H   UNL A   1      40.568  30.334  30.413  1.00  0.00     0.167 HD
ATOM     50  C   UNL A   1      43.377  24.171  28.008  1.00  0.00     0.037 A 
ATOM     51  C   UNL A   1      42.329  29.489  32.588  1.00  0.00     0.037 A 
ATOM     52  C   UNL A   1      44.297  24.683  29.029  1.00  0.00     0.049 A 
ATOM     53  C   UNL A   1      43.128  28.321  33.113  1.00  0.00     0.074 A 
ATOM     54  C   UNL A   1      45.381  25.543  28.991  1.00  0.00     0.029 A 
ATOM     55  N   UNL A   1      44.005  24.481  30.377  1.00  0.00    -0.354 N 
ATOM     56  N   UNL A   1      43.585  27.357  32.365  1.00  0.00    -0.248 NA
ATOM     57  C   UNL A   1      43.434  28.123  34.527  1.00  0.00     0.031 C 
ATOM     58  C   UNL A   1      45.691  25.916  30.326  1.00  0.00     0.029 A 
ATOM     59  C   UNL A   1      44.820  25.256  31.176  1.00  0.00     0.049 A 
ATOM     60  H   UNL A   1      43.312  23.868  30.713  1.00  0.00     0.167 HD
ATOM     61  C   UNL A   1      44.182  26.408  33.155  1.00  0.00     0.074 A 
ATOM     62  C   UNL A   1      44.093  26.951  34.497  1.00  0.00     0.031 C 
ATOM     63  C   UNL A   1      44.676  25.247  32.628  1.00  0.00     0.037 A 
BRANCH  50  64
ATOM     64  C   UNL A   1      43.846  23.351  26.810  1.00  0.00     0.057 A 
ATOM     65  C   UNL A   1      44.563  23.974  25.765  1.00  0.00     0.134 A 
ATOM     66  C   UNL A   1      43.519  22.005  26.542  1.00  0.00     0.134 A 
ATOM     67  F   UNL A   1      44.979  25.244  25.858  1.00  0.00    -0.206 F 
ATOM     68  C   UNL A   1      44.875  23.334  24.554  1.00  0.00     0.040 A 
ATOM     69  C   UNL A   1      43.860  21.343  25.353  1.00  0.00     0.040 A 
ATOM     70  F   UNL A   1      42.810  21.248  27.380  1.00  0.00    -0.206 F 
ATOM     71  C   UNL A   1      44.523  22.012  24.341  1.00  0.00     0.006 A 
ENDBRANCH  50  64
BRANCH  51  72
ATOM     72  C   UNL A   1      41.034  29.946  33.155  1.00  0.00     0.057 A 
ATOM     73  C   UNL A   1      40.847  31.314  33.417  1.00  0.00     0.134 A 
ATOM     74  C   UNL A   1      39.892  29.142  33.128  1.00  0.00     0.134 A 
ATOM     75  F   UNL A   1      41.902  32.146  33.449  1.00  0.00    -0.206 F 
ATOM     76  C   UNL A   1      39.575  31.877  33.545  1.00  0.00     0.040 A 
ATOM     77  C   UNL A   1      38.611  29.693  33.266  1.00  0.00     0.040 A 
ATOM     78  F   UNL A   1      39.983  27.832  32.861  1.00  0.00    -0.206 F 
ATOM     79  C   UNL A   1      38.450  31.067  33.441  1.00  0.00     0.006 A 
ENDBRANCH  51  72
BRANCH  63  80
ATOM     80  C   UNL A   1      45.137  24.037  33.411  1.00  0.00     0.057 A 
ATOM     81  C   UNL A   1      46.391  23.915  34.030  1.00  0.00     0.134 A 
ATOM     82  C   UNL A   1      44.239  22.978  33.683  1.00  0.00     0.134 A 
ATOM     83  F   UNL A   1      47.304  24.893  33.972  1.00  0.00    -0.206 F 
ATOM     84  C   UNL A   1      46.750  22.797  34.798  1.00  0.00     0.040 A 
ATOM     85  C   UNL A   1      44.568  21.885  34.493  1.00  0.00     0.040 A 
ATOM     86  F   UNL A   1      42.991  22.970  33.195  1.00  0.00    -0.206 F 
ATOM     87  C   UNL A   1      45.836  21.781  35.041  1.00  0.00     0.006 A 
ENDBRANCH  63  80
ENDBRANCH  37  38
ENDBRANCH  29  32
ENDBRANCH  27  28
ENDBRANCH  26  27
ENDBRANCH  25  26
ENDBRANCH   1  25
TORSDOF 16
ENDMDL
MODEL 3
REMARK VINA RESULT:     -11.6      3.940      9.305
REMARK SMILES Cc1ccccc1O[C@H](C)C(=O)Oc1cccc(C(=O)NCCCCNC(=O)c2ccc(-c3c4nc(c(-c5c(F)cccc5F)c5ccc([nH]5)c(-c5c(F)cccc5F)c5nc(c(-c6c(F)cccc6F)c6ccc3[nH]6)C=C5)C=C4)cc2)c1
REMARK SMILES IDX 22 1 21 2 19 3 20 4 18 6 14 7 15 8 83 9 16 10 17 11 13 12
REMARK SMILES IDX 11 13 12 14 9 15 10 16 8 17 7 18 1 19 2 20 3 21 4 22 6 23
REMARK SMILES IDX 5 24 23 25 24 26 25 27 26 28 27 29 28 31 29 32 30 33 82 34
REMARK SMILES IDX 31 35 81 36 32 37 33 38 34 39 75 40 35 41 80 42 74 43 76 44
REMARK SMILES IDX 36 45 79 46 73 47 72 48 37 50 63 51 46 52 62 53 47 54 50 55
REMARK SMILES IDX 61 56 77 57 48 58 49 59 60 61 78 62 51 63 38 64 39 65 44 66
REMARK SMILES IDX 40 67 41 68 43 69 45 70 42 71 64 72 65 73 70 74 66 75 67 76
REMARK SMILES IDX 69 77 71 78 68 79 52 80 53 81 58 82 54 83 55 84 57 85 59 86
REMARK SMILES IDX 56 87
REMARK H PARENT 21 5 26 30 76 49 50 60
REMARK Flexibility Score: inf
ROOT
ATOM      1  C   UNL A   1      36.504  20.612  25.034  1.00  0.00     0.116 C 
ENDROOT
BRANCH   1   2
ATOM      2  N   UNL A   1      35.667  21.073  26.127  1.00  0.00    -0.352 N 
ATOM      3  C   UNL A   1      34.385  21.553  26.206  1.00  0.00     0.251 C 
ATOM      4  O   UNL A   1      33.958  21.790  27.339  1.00  0.00    -0.269 OA
ATOM      5  H   UNL A   1      36.118  21.034  27.001  1.00  0.00     0.163 HD
BRANCH   3   6
ATOM      6  C   UNL A   1      33.483  21.792  25.040  1.00  0.00     0.043 A 
ATOM      7  C   UNL A   1      32.379  23.458  23.640  1.00  0.00     0.131 A 
ATOM      8  C   UNL A   1      31.895  22.461  22.804  1.00  0.00     0.047 A 
ATOM      9  C   UNL A   1      33.167  23.132  24.748  1.00  0.00     0.061 A 
ATOM     10  C   UNL A   1      32.201  21.131  23.082  1.00  0.00     0.005 A 
ATOM     11  C   UNL A   1      33.005  20.801  24.180  1.00  0.00     0.014 A 
BRANCH   7  12
ATOM     12  O   UNL A   1      32.235  24.841  23.379  1.00  0.00    -0.424 OA
BRANCH  12  13
ATOM     13  C   UNL A   1      33.179  25.617  22.708  1.00  0.00     0.352 C 
ATOM     14  O   UNL A   1      33.730  25.315  21.654  1.00  0.00    -0.247 OA
BRANCH  13  15
ATOM     15  C   UNL A   1      33.439  26.940  23.455  1.00  0.00     0.280 C 
ATOM     16  C   UNL A   1      33.924  28.076  22.558  1.00  0.00     0.066 C 
BRANCH  15  17
ATOM     17  O   UNL A   1      32.534  27.396  24.455  1.00  0.00    -0.479 OA
BRANCH  17  18
ATOM     18  C   UNL A   1      32.865  28.345  25.377  1.00  0.00     0.123 A 
ATOM     19  C   UNL A   1      30.855  29.649  24.497  1.00  0.00     0.048 C 
ATOM     20  C   UNL A   1      32.041  29.486  25.409  1.00  0.00    -0.009 A 
ATOM     21  C   UNL A   1      32.283  30.492  26.362  1.00  0.00     0.007 A 
ATOM     22  C   UNL A   1      33.333  30.374  27.268  1.00  0.00     0.001 A 
ATOM     23  C   UNL A   1      33.889  28.224  26.316  1.00  0.00     0.047 A 
ATOM     24  C   UNL A   1      34.134  29.239  27.246  1.00  0.00     0.004 A 
ENDBRANCH  17  18
ENDBRANCH  15  17
ENDBRANCH  13  15
ENDBRANCH  12  13
ENDBRANCH   7  12
ENDBRANCH   3   6
ENDBRANCH   1   2
BRANCH   1  25
ATOM     25  C   UNL A   1      37.711  21.534  24.798  1.00  0.00     0.023 C 
BRANCH  25  26
ATOM     26  C   UNL A   1      38.826  21.419  25.848  1.00  0.00     0.023 C 
BRANCH  26  27
ATOM     27  C   UNL A   1      39.208  22.744  26.497  1.00  0.00     0.116 C 
BRANCH  27  28
ATOM     28  N   UNL A   1      40.639  23.027  26.515  1.00  0.00    -0.352 N 
ATOM     29  C   UNL A   1      41.280  24.252  26.634  1.00  0.00     0.251 C 
ATOM     30  H   UNL A   1      41.230  22.244  26.431  1.00  0.00     0.163 HD
ATOM     31  O   UNL A   1      42.499  24.326  26.598  1.00  0.00    -0.269 OA
BRANCH  29  32
ATOM     32  C   UNL A   1      40.469  25.454  26.944  1.00  0.00     0.039 A 
ATOM     33  C   UNL A   1      40.757  26.626  26.238  1.00  0.00     0.014 A 
ATOM     34  C   UNL A   1      39.649  25.488  28.070  1.00  0.00     0.014 A 
ATOM     35  C   UNL A   1      40.461  27.855  26.819  1.00  0.00     0.010 A 
ATOM     36  C   UNL A   1      39.428  26.705  28.690  1.00  0.00     0.010 A 
ATOM     37  C   UNL A   1      39.919  27.878  28.104  1.00  0.00    -0.014 A 
BRANCH  37  38
ATOM     38  C   UNL A   1      40.013  29.054  28.963  1.00  0.00     0.031 A 
ATOM     39  C   UNL A   1      38.973  30.100  28.944  1.00  0.00     0.074 A 
ATOM     40  C   UNL A   1      41.069  29.175  29.802  1.00  0.00     0.049 A 
ATOM     41  N   UNL A   1      39.172  31.314  29.339  1.00  0.00    -0.248 NA
ATOM     42  C   UNL A   1      37.644  29.890  28.381  1.00  0.00     0.031 C 
ATOM     43  C   UNL A   1      41.229  30.122  30.904  1.00  0.00     0.029 A 
ATOM     44  N   UNL A   1      42.339  28.597  29.654  1.00  0.00    -0.354 N 
ATOM     45  C   UNL A   1      37.949  31.937  29.384  1.00  0.00     0.074 A 
ATOM     46  C   UNL A   1      37.077  31.076  28.628  1.00  0.00     0.031 C 
ATOM     47  C   UNL A   1      42.539  30.290  31.141  1.00  0.00     0.029 A 
ATOM     48  C   UNL A   1      43.258  29.567  30.108  1.00  0.00     0.049 A 
ATOM     49  H   UNL A   1      42.546  27.699  29.305  1.00  0.00     0.167 HD
ATOM     50  C   UNL A   1      37.797  33.021  30.197  1.00  0.00     0.037 A 
ATOM     51  C   UNL A   1      44.204  30.108  29.288  1.00  0.00     0.037 A 
ATOM     52  C   UNL A   1      39.100  33.542  30.625  1.00  0.00     0.049 A 
ATOM     53  C   UNL A   1      44.149  31.614  29.190  1.00  0.00     0.074 A 
ATOM     54  C   UNL A   1      39.779  33.540  31.831  1.00  0.00     0.029 A 
ATOM     55  N   UNL A   1      40.008  33.985  29.664  1.00  0.00    -0.354 N 
ATOM     56  N   UNL A   1      43.111  32.327  29.523  1.00  0.00    -0.248 NA
ATOM     57  C   UNL A   1      45.242  32.428  28.666  1.00  0.00     0.031 C 
ATOM     58  C   UNL A   1      41.125  33.913  31.576  1.00  0.00     0.029 A 
ATOM     59  C   UNL A   1      41.255  34.176  30.223  1.00  0.00     0.049 A 
ATOM     60  H   UNL A   1      39.789  34.141  28.718  1.00  0.00     0.167 HD
ATOM     61  C   UNL A   1      43.348  33.645  29.228  1.00  0.00     0.074 A 
ATOM     62  C   UNL A   1      44.709  33.661  28.726  1.00  0.00     0.031 C 
ATOM     63  C   UNL A   1      42.386  34.601  29.404  1.00  0.00     0.037 A 
BRANCH  50  64
ATOM     64  C   UNL A   1      36.480  33.480  30.816  1.00  0.00     0.057 A 
ATOM     65  C   UNL A   1      35.489  34.077  30.006  1.00  0.00     0.134 A 
ATOM     66  C   UNL A   1      36.170  33.504  32.192  1.00  0.00     0.134 A 
ATOM     67  F   UNL A   1      35.606  34.122  28.672  1.00  0.00    -0.206 F 
ATOM     68  C   UNL A   1      34.332  34.683  30.522  1.00  0.00     0.040 A 
ATOM     69  C   UNL A   1      34.998  34.070  32.716  1.00  0.00     0.040 A 
ATOM     70  F   UNL A   1      36.990  33.029  33.131  1.00  0.00    -0.206 F 
ATOM     71  C   UNL A   1      34.080  34.683  31.884  1.00  0.00     0.006 A 
ENDBRANCH  50  64
BRANCH  51  72
ATOM     72  C   UNL A   1      44.634  29.208  28.187  1.00  0.00     0.057 A 
ATOM     73  C   UNL A   1      45.547  28.175  28.466  1.00  0.00     0.134 A 
ATOM     74  C   UNL A   1      43.933  29.129  26.982  1.00  0.00     0.134 A 
ATOM     75  F   UNL A   1      46.249  28.186  29.612  1.00  0.00    -0.206 F 
ATOM     76  C   UNL A   1      45.684  27.063  27.633  1.00  0.00     0.040 A 
ATOM     77  C   UNL A   1      44.070  28.022  26.132  1.00  0.00     0.040 A 
ATOM     78  F   UNL A   1      43.027  30.060  26.654  1.00  0.00    -0.206 F 
ATOM     79  C   UNL A   1      44.920  26.972  26.474  1.00  0.00     0.006 A 
ENDBRANCH  51  72
BRANCH  63  80
ATOM     80  C   UNL A   1      42.444  36.027  28.902  1.00  0.00     0.057 A 
ATOM     81  C   UNL A   1      43.090  37.083  29.563  1.00  0.00     0.134 A 
ATOM     82  C   UNL A   1      41.942  36.353  27.620  1.00  0.00     0.134 A 
ATOM     83  F   UNL A   1      43.726  36.901  30.728  1.00  0.00    -0.206 F 
ATOM     84  C   UNL A   1      43.169  38.377  29.027  1.00  0.00     0.040 A 
ATOM     85  C   UNL A   1      42.064  37.627  27.052  1.00  0.00     0.040 A 
ATOM     86  F   UNL A   1      41.332  35.441  26.849  1.00  0.00    -0.206 F 
ATOM     87  C   UNL A   1      42.663  38.652  27.763  1.00  0.00     0.006 A 
ENDBRANCH  63  80
ENDBRANCH  37  38
ENDBRANCH  29  32
ENDBRANCH  27  28
ENDBRANCH  26  27
ENDBRANCH  25  26
ENDBRANCH   1  25
TORSDOF 16
ENDMDL
