MODEL 1
REMARK VINA RESULT:     -11.7      0.000      0.000
REMARK SMILES O=C(CCC(=O)/[NH+]=C1\S[C@H]2CS(=O)(=O)C[C@@H]2N1c1ccc2c(c1)OCO2)NCCCCNC(=O)c1ccc(-c2c3nc(c(-c4c(F)cccc4F)c4ccc([nH]4)c(-c4c(F)cccc4F)c4nc(c(-c5c(F)cccc5F)c5ccc2[nH]5)C=C4)C=C3)cc1
REMARK SMILES IDX 29 1 28 2 27 3 2 4 1 5 3 7 4 8 5 9 6 10 7 11 8 12 9 14 17 15
REMARK SMILES IDX 10 16 16 17 11 18 15 19 12 20 13 21 14 22 18 23 19 24 23 25
REMARK SMILES IDX 20 26 22 27 21 28 24 29 26 30 25 31 30 32 31 33 32 34 33 35
REMARK SMILES IDX 34 37 35 38 36 39 88 40 37 41 87 42 38 43 39 44 40 45 81 46
REMARK SMILES IDX 41 47 86 48 80 49 82 50 42 51 85 52 79 53 78 54 43 56 69 57
REMARK SMILES IDX 52 58 68 59 53 60 56 61 67 62 83 63 54 64 55 65 66 67 84 68
REMARK SMILES IDX 57 69 44 70 45 71 50 72 46 73 47 74 49 75 51 76 48 77 70 78
REMARK SMILES IDX 71 79 76 80 72 81 73 82 75 83 77 84 74 85 58 86 59 87 64 88
REMARK SMILES IDX 60 89 61 90 63 91 65 92 62 93
REMARK H PARENT 27 6 7 13 32 36 82 55 56 66
REMARK Flexibility Score: inf
ROOT
ATOM      1  C   UNL A   1      41.912  20.823  26.731  1.00  0.00     0.023 C 
ENDROOT
BRANCH   1   2
ATOM      2  C   UNL A   1      41.033  21.938  26.162  1.00  0.00     0.116 C 
BRANCH   2   3
ATOM      3  N   UNL A   1      40.348  22.727  27.170  1.00  0.00    -0.356 N 
ATOM      4  C   UNL A   1      39.412  23.703  27.037  1.00  0.00     0.220 C 
ATOM      5  O   UNL A   1      38.918  24.189  28.057  1.00  0.00    -0.275 OA
ATOM      6  H   UNL A   1      40.603  22.522  28.099  1.00  0.00     0.163 HD
BRANCH   4   7
ATOM      7  C   UNL A   1      38.989  24.173  25.671  1.00  0.00     0.112 C 
BRANCH   7   8
ATOM      8  C   UNL A   1      37.709  23.610  25.067  1.00  0.00     0.138 C 
BRANCH   8   9
ATOM      9  C   UNL A   1      37.195  22.199  25.339  1.00  0.00     0.308 C 
ATOM     10  O   UNL A   1      37.932  21.408  25.926  1.00  0.00    -0.247 OA
ATOM     11  N   UNL A   1      35.964  21.813  24.897  1.00  0.00    -0.204 N 
ATOM     12  C   UNL A   1      34.870  22.293  25.384  1.00  0.00     0.319 C 
ATOM     13  H   UNL A   1      35.908  21.142  24.179  1.00  0.00     0.316 HD
ATOM     14  S   UNL A   1      34.771  23.552  26.647  1.00  0.00    -0.029 SA
ATOM     15  N   UNL A   1      33.586  21.972  24.947  1.00  0.00    -0.216 N 
ATOM     16  C   UNL A   1      32.966  23.462  26.635  1.00  0.00     0.120 C 
ATOM     17  C   UNL A   1      32.630  23.035  25.201  1.00  0.00     0.212 C 
ATOM     18  C   UNL A   1      32.126  24.685  26.876  1.00  0.00     0.156 C 
ATOM     19  C   UNL A   1      31.143  22.765  25.228  1.00  0.00     0.188 C 
ATOM     20  S   UNL A   1      30.538  24.142  26.219  1.00  0.00     0.155 S 
ATOM     21  O   UNL A   1      29.757  23.597  27.314  1.00  0.00    -0.229 OA
ATOM     22  O   UNL A   1      30.029  25.164  25.337  1.00  0.00    -0.229 OA
BRANCH  15  23
ATOM     23  C   UNL A   1      33.227  20.746  24.392  1.00  0.00     0.132 A 
ATOM     24  C   UNL A   1      32.541  20.654  23.159  1.00  0.00     0.056 A 
ATOM     25  C   UNL A   1      33.587  19.562  25.058  1.00  0.00     0.102 A 
ATOM     26  C   UNL A   1      32.258  19.411  22.578  1.00  0.00     0.055 A 
ATOM     27  C   UNL A   1      33.307  18.355  24.463  1.00  0.00     0.170 A 
ATOM     28  C   UNL A   1      32.680  18.284  23.246  1.00  0.00     0.166 A 
ATOM     29  O   UNL A   1      33.634  17.131  24.956  1.00  0.00    -0.453 OA
ATOM     30  O   UNL A   1      32.580  17.007  22.803  1.00  0.00    -0.454 OA
ATOM     31  C   UNL A   1      33.323  16.304  23.820  1.00  0.00     0.468 C 
ENDBRANCH  15  23
ENDBRANCH   8   9
ENDBRANCH   7   8
ENDBRANCH   4   7
ENDBRANCH   2   3
ENDBRANCH   1   2
BRANCH   1  32
ATOM     32  C   UNL A   1      42.115  19.620  25.811  1.00  0.00     0.023 C 
BRANCH  32  33
ATOM     33  C   UNL A   1      43.338  18.772  26.119  1.00  0.00     0.116 C 
BRANCH  33  34
ATOM     34  N   UNL A   1      44.158  18.566  24.940  1.00  0.00    -0.352 N 
ATOM     35  C   UNL A   1      44.758  19.492  24.125  1.00  0.00     0.251 C 
ATOM     36  H   UNL A   1      44.307  17.626  24.690  1.00  0.00     0.163 HD
ATOM     37  O   UNL A   1      45.176  19.148  23.023  1.00  0.00    -0.269 OA
BRANCH  35  38
ATOM     38  C   UNL A   1      44.906  20.901  24.558  1.00  0.00     0.039 A 
ATOM     39  C   UNL A   1      45.541  21.168  25.775  1.00  0.00     0.014 A 
ATOM     40  C   UNL A   1      44.371  21.954  23.811  1.00  0.00     0.014 A 
ATOM     41  C   UNL A   1      45.669  22.485  26.224  1.00  0.00     0.010 A 
ATOM     42  C   UNL A   1      44.575  23.272  24.216  1.00  0.00     0.010 A 
ATOM     43  C   UNL A   1      45.213  23.553  25.435  1.00  0.00    -0.014 A 
BRANCH  43  44
ATOM     44  C   UNL A   1      45.372  24.968  25.870  1.00  0.00     0.031 A 
ATOM     45  C   UNL A   1      46.734  25.604  25.890  1.00  0.00     0.074 A 
ATOM     46  C   UNL A   1      44.309  25.658  26.327  1.00  0.00     0.049 A 
ATOM     47  N   UNL A   1      47.087  26.788  26.322  1.00  0.00    -0.248 NA
ATOM     48  C   UNL A   1      47.849  24.797  25.371  1.00  0.00     0.031 C 
ATOM     49  C   UNL A   1      42.941  25.153  26.374  1.00  0.00     0.029 A 
ATOM     50  N   UNL A   1      44.211  26.916  26.868  1.00  0.00    -0.354 N 
ATOM     51  C   UNL A   1      48.458  26.868  26.125  1.00  0.00     0.074 A 
ATOM     52  C   UNL A   1      48.887  25.586  25.608  1.00  0.00     0.031 C 
ATOM     53  C   UNL A   1      42.146  26.063  26.955  1.00  0.00     0.029 A 
ATOM     54  C   UNL A   1      42.949  27.222  27.319  1.00  0.00     0.049 A 
ATOM     55  H   UNL A   1      44.972  27.538  26.928  1.00  0.00     0.167 HD
ATOM     56  C   UNL A   1      49.281  27.926  26.319  1.00  0.00     0.037 A 
ATOM     57  C   UNL A   1      42.486  28.312  27.959  1.00  0.00     0.037 A 
ATOM     58  C   UNL A   1      48.845  29.202  26.824  1.00  0.00     0.049 A 
ATOM     59  C   UNL A   1      43.419  29.460  28.204  1.00  0.00     0.074 A 
ATOM     60  C   UNL A   1      49.584  30.360  26.996  1.00  0.00     0.029 A 
ATOM     61  N   UNL A   1      47.554  29.486  27.247  1.00  0.00    -0.354 N 
ATOM     62  N   UNL A   1      44.696  29.554  27.928  1.00  0.00    -0.248 NA
ATOM     63  C   UNL A   1      42.844  30.664  28.819  1.00  0.00     0.031 C 
ATOM     64  C   UNL A   1      48.754  31.326  27.574  1.00  0.00     0.029 A 
ATOM     65  C   UNL A   1      47.483  30.790  27.713  1.00  0.00     0.049 A 
ATOM     66  H   UNL A   1      46.800  28.854  27.220  1.00  0.00     0.167 HD
ATOM     67  C   UNL A   1      45.075  30.834  28.309  1.00  0.00     0.074 A 
ATOM     68  C   UNL A   1      43.885  31.483  28.824  1.00  0.00     0.031 C 
ATOM     69  C   UNL A   1      46.295  31.419  28.232  1.00  0.00     0.037 A 
BRANCH  56  70
ATOM     70  C   UNL A   1      50.732  27.738  25.980  1.00  0.00     0.057 A 
ATOM     71  C   UNL A   1      51.214  27.904  24.674  1.00  0.00     0.134 A 
ATOM     72  C   UNL A   1      51.662  27.394  26.969  1.00  0.00     0.134 A 
ATOM     73  F   UNL A   1      50.376  28.224  23.675  1.00  0.00    -0.206 F 
ATOM     74  C   UNL A   1      52.558  27.696  24.356  1.00  0.00     0.040 A 
ATOM     75  C   UNL A   1      53.014  27.214  26.669  1.00  0.00     0.040 A 
ATOM     76  F   UNL A   1      51.274  27.227  28.242  1.00  0.00    -0.206 F 
ATOM     77  C   UNL A   1      53.463  27.353  25.358  1.00  0.00     0.006 A 
ENDBRANCH  56  70
BRANCH  57  78
ATOM     78  C   UNL A   1      41.062  28.369  28.376  1.00  0.00     0.057 A 
ATOM     79  C   UNL A   1      40.659  27.944  29.646  1.00  0.00     0.134 A 
ATOM     80  C   UNL A   1      40.075  28.881  27.524  1.00  0.00     0.134 A 
ATOM     81  F   UNL A   1      41.557  27.435  30.503  1.00  0.00    -0.206 F 
ATOM     82  C   UNL A   1      39.325  28.009  30.050  1.00  0.00     0.040 A 
ATOM     83  C   UNL A   1      38.741  28.974  27.923  1.00  0.00     0.040 A 
ATOM     84  F   UNL A   1      40.399  29.319  26.298  1.00  0.00    -0.206 F 
ATOM     85  C   UNL A   1      38.362  28.532  29.189  1.00  0.00     0.006 A 
ENDBRANCH  57  78
BRANCH  69  86
ATOM     86  C   UNL A   1      46.402  32.839  28.705  1.00  0.00     0.057 A 
ATOM     87  C   UNL A   1      46.167  33.922  27.848  1.00  0.00     0.134 A 
ATOM     88  C   UNL A   1      46.706  33.124  30.043  1.00  0.00     0.134 A 
ATOM     89  F   UNL A   1      45.888  33.715  26.553  1.00  0.00    -0.206 F 
ATOM     90  C   UNL A   1      46.249  35.239  28.301  1.00  0.00     0.040 A 
ATOM     91  C   UNL A   1      46.762  34.436  30.513  1.00  0.00     0.040 A 
ATOM     92  F   UNL A   1      46.935  32.133  30.916  1.00  0.00    -0.206 F 
ATOM     93  C   UNL A   1      46.539  35.499  29.639  1.00  0.00     0.006 A 
ENDBRANCH  69  86
ENDBRANCH  43  44
ENDBRANCH  35  38
ENDBRANCH  33  34
ENDBRANCH  32  33
ENDBRANCH   1  32
TORSDOF 14
ENDMDL
MODEL 2
REMARK VINA RESULT:     -11.6      5.728     11.753
REMARK SMILES O=C(CCC(=O)/[NH+]=C1\S[C@H]2CS(=O)(=O)C[C@@H]2N1c1ccc2c(c1)OCO2)NCCCCNC(=O)c1ccc(-c2c3nc(c(-c4c(F)cccc4F)c4ccc([nH]4)c(-c4c(F)cccc4F)c4nc(c(-c5c(F)cccc5F)c5ccc2[nH]5)C=C4)C=C3)cc1
REMARK SMILES IDX 29 1 28 2 27 3 2 4 1 5 3 7 4 8 5 9 6 10 7 11 8 12 9 14 17 15
REMARK SMILES IDX 10 16 16 17 11 18 15 19 12 20 13 21 14 22 18 23 19 24 23 25
REMARK SMILES IDX 20 26 22 27 21 28 24 29 26 30 25 31 30 32 31 33 32 34 33 35
REMARK SMILES IDX 34 37 35 38 36 39 88 40 37 41 87 42 38 43 39 44 40 45 81 46
REMARK SMILES IDX 41 47 86 48 80 49 82 50 42 51 85 52 79 53 78 54 43 56 69 57
REMARK SMILES IDX 52 58 68 59 53 60 56 61 67 62 83 63 54 64 55 65 66 67 84 68
REMARK SMILES IDX 57 69 44 70 45 71 50 72 46 73 47 74 49 75 51 76 48 77 70 78
REMARK SMILES IDX 71 79 76 80 72 81 73 82 75 83 77 84 74 85 58 86 59 87 64 88
REMARK SMILES IDX 60 89 61 90 63 91 65 92 62 93
REMARK H PARENT 27 6 7 13 32 36 82 55 56 66
REMARK Flexibility Score: inf
ROOT
ATOM      1  C   UNL A   1      34.397  35.110  28.402  1.00  0.00     0.023 C 
ENDROOT
BRANCH   1   2
ATOM      2  C   UNL A   1      32.973  35.286  28.931  1.00  0.00     0.116 C 
BRANCH   2   3
ATOM      3  N   UNL A   1      32.807  36.416  29.827  1.00  0.00    -0.356 N 
ATOM      4  C   UNL A   1      32.706  36.458  31.181  1.00  0.00     0.220 C 
ATOM      5  O   UNL A   1      32.638  37.559  31.734  1.00  0.00    -0.275 OA
ATOM      6  H   UNL A   1      32.760  37.293  29.381  1.00  0.00     0.163 HD
BRANCH   4   7
ATOM      7  C   UNL A   1      32.681  35.185  31.983  1.00  0.00     0.112 C 
BRANCH   7   8
ATOM      8  C   UNL A   1      34.005  34.549  32.388  1.00  0.00     0.138 C 
BRANCH   8   9
ATOM      9  C   UNL A   1      35.295  35.338  32.586  1.00  0.00     0.308 C 
ATOM     10  O   UNL A   1      35.231  36.454  33.100  1.00  0.00    -0.247 OA
ATOM     11  N   UNL A   1      36.488  34.834  32.156  1.00  0.00    -0.204 N 
ATOM     12  C   UNL A   1      37.045  33.808  32.703  1.00  0.00     0.319 C 
ATOM     13  H   UNL A   1      36.940  35.271  31.398  1.00  0.00     0.316 HD
ATOM     14  S   UNL A   1      36.353  32.855  34.045  1.00  0.00    -0.029 SA
ATOM     15  N   UNL A   1      38.238  33.220  32.284  1.00  0.00    -0.216 N 
ATOM     16  C   UNL A   1      37.813  31.789  34.080  1.00  0.00     0.120 C 
ATOM     17  C   UNL A   1      38.317  31.813  32.632  1.00  0.00     0.212 C 
ATOM     18  C   UNL A   1      37.701  30.330  34.422  1.00  0.00     0.156 C 
ATOM     19  C   UNL A   1      39.643  31.090  32.684  1.00  0.00     0.188 C 
ATOM     20  S   UNL A   1      39.266  29.709  33.778  1.00  0.00     0.155 S 
ATOM     21  O   UNL A   1      40.235  29.714  34.858  1.00  0.00    -0.229 OA
ATOM     22  O   UNL A   1      39.004  28.538  32.977  1.00  0.00    -0.229 OA
BRANCH  15  23
ATOM     23  C   UNL A   1      39.278  33.908  31.663  1.00  0.00     0.132 A 
ATOM     24  C   UNL A   1      40.454  34.275  32.358  1.00  0.00     0.056 A 
ATOM     25  C   UNL A   1      39.173  34.217  30.295  1.00  0.00     0.102 A 
ATOM     26  C   UNL A   1      41.522  34.896  31.698  1.00  0.00     0.055 A 
ATOM     27  C   UNL A   1      40.239  34.818  29.669  1.00  0.00     0.170 A 
ATOM     28  C   UNL A   1      41.389  35.128  30.348  1.00  0.00     0.166 A 
ATOM     29  O   UNL A   1      40.309  35.133  28.349  1.00  0.00    -0.453 OA
ATOM     30  O   UNL A   1      42.341  35.632  29.525  1.00  0.00    -0.454 OA
ATOM     31  C   UNL A   1      41.701  35.487  28.242  1.00  0.00     0.468 C 
ENDBRANCH  15  23
ENDBRANCH   8   9
ENDBRANCH   7   8
ENDBRANCH   4   7
ENDBRANCH   2   3
ENDBRANCH   1   2
BRANCH   1  32
ATOM     32  C   UNL A   1      35.174  33.936  28.996  1.00  0.00     0.023 C 
BRANCH  32  33
ATOM     33  C   UNL A   1      35.619  32.884  27.994  1.00  0.00     0.116 C 
BRANCH  33  34
ATOM     34  N   UNL A   1      34.761  31.714  28.030  1.00  0.00    -0.352 N 
ATOM     35  C   UNL A   1      35.100  30.385  27.989  1.00  0.00     0.251 C 
ATOM     36  H   UNL A   1      33.797  31.901  28.093  1.00  0.00     0.163 HD
ATOM     37  O   UNL A   1      34.236  29.547  27.748  1.00  0.00    -0.269 OA
BRANCH  35  38
ATOM     38  C   UNL A   1      36.495  29.950  28.233  1.00  0.00     0.039 A 
ATOM     39  C   UNL A   1      37.396  29.947  27.163  1.00  0.00     0.014 A 
ATOM     40  C   UNL A   1      36.906  29.486  29.485  1.00  0.00     0.014 A 
ATOM     41  C   UNL A   1      38.711  29.514  27.357  1.00  0.00     0.010 A 
ATOM     42  C   UNL A   1      38.238  29.136  29.698  1.00  0.00     0.010 A 
ATOM     43  C   UNL A   1      39.153  29.130  28.633  1.00  0.00    -0.014 A 
BRANCH  43  44
ATOM     44  C   UNL A   1      40.558  28.703  28.875  1.00  0.00     0.031 A 
ATOM     45  C   UNL A   1      41.572  29.689  29.383  1.00  0.00     0.074 A 
ATOM     46  C   UNL A   1      40.946  27.452  28.562  1.00  0.00     0.049 A 
ATOM     47  N   UNL A   1      42.859  29.533  29.567  1.00  0.00    -0.248 NA
ATOM     48  C   UNL A   1      41.079  31.036  29.712  1.00  0.00     0.031 C 
ATOM     49  C   UNL A   1      40.068  26.405  28.049  1.00  0.00     0.029 A 
ATOM     50  N   UNL A   1      42.182  26.852  28.595  1.00  0.00    -0.354 N 
ATOM     51  C   UNL A   1      43.324  30.753  30.034  1.00  0.00     0.074 A 
ATOM     52  C   UNL A   1      42.200  31.664  30.031  1.00  0.00     0.031 C 
ATOM     53  C   UNL A   1      40.788  25.310  27.769  1.00  0.00     0.029 A 
ATOM     54  C   UNL A   1      42.185  25.575  28.088  1.00  0.00     0.049 A 
ATOM     55  H   UNL A   1      42.987  27.296  28.949  1.00  0.00     0.167 HD
ATOM     56  C   UNL A   1      44.568  31.076  30.463  1.00  0.00     0.037 A 
ATOM     57  C   UNL A   1      43.198  24.710  27.894  1.00  0.00     0.037 A 
ATOM     58  C   UNL A   1      45.679  30.161  30.474  1.00  0.00     0.049 A 
ATOM     59  C   UNL A   1      44.577  25.097  28.338  1.00  0.00     0.074 A 
ATOM     60  C   UNL A   1      46.962  30.367  30.949  1.00  0.00     0.029 A 
ATOM     61  N   UNL A   1      45.641  28.865  29.975  1.00  0.00    -0.354 N 
ATOM     62  N   UNL A   1      44.985  26.227  28.862  1.00  0.00    -0.248 NA
ATOM     63  C   UNL A   1      45.631  24.084  28.192  1.00  0.00     0.031 C 
ATOM     64  C   UNL A   1      47.715  29.216  30.688  1.00  0.00     0.029 A 
ATOM     65  C   UNL A   1      46.887  28.273  30.100  1.00  0.00     0.049 A 
ATOM     66  H   UNL A   1      44.846  28.433  29.590  1.00  0.00     0.167 HD
ATOM     67  C   UNL A   1      46.334  26.054  29.137  1.00  0.00     0.074 A 
ATOM     68  C   UNL A   1      46.671  24.703  28.730  1.00  0.00     0.031 C 
ATOM     69  C   UNL A   1      47.211  26.932  29.681  1.00  0.00     0.037 A 
BRANCH  56  70
ATOM     70  C   UNL A   1      44.780  32.479  30.958  1.00  0.00     0.057 A 
ATOM     71  C   UNL A   1      45.213  33.505  30.106  1.00  0.00     0.134 A 
ATOM     72  C   UNL A   1      44.545  32.812  32.297  1.00  0.00     0.134 A 
ATOM     73  F   UNL A   1      45.468  33.254  28.812  1.00  0.00    -0.206 F 
ATOM     74  C   UNL A   1      45.442  34.800  30.576  1.00  0.00     0.040 A 
ATOM     75  C   UNL A   1      44.740  34.111  32.772  1.00  0.00     0.040 A 
ATOM     76  F   UNL A   1      44.121  31.882  33.167  1.00  0.00    -0.206 F 
ATOM     77  C   UNL A   1      45.201  35.106  31.914  1.00  0.00     0.006 A 
ENDBRANCH  56  70
BRANCH  57  78
ATOM     78  C   UNL A   1      42.926  23.386  27.280  1.00  0.00     0.057 A 
ATOM     79  C   UNL A   1      43.173  23.148  25.924  1.00  0.00     0.134 A 
ATOM     80  C   UNL A   1      42.442  22.316  28.044  1.00  0.00     0.134 A 
ATOM     81  F   UNL A   1      43.627  24.136  25.139  1.00  0.00    -0.206 F 
ATOM     82  C   UNL A   1      42.934  21.902  25.344  1.00  0.00     0.040 A 
ATOM     83  C   UNL A   1      42.221  21.058  27.483  1.00  0.00     0.040 A 
ATOM     84  F   UNL A   1      42.198  22.474  29.354  1.00  0.00    -0.206 F 
ATOM     85  C   UNL A   1      42.462  20.849  26.126  1.00  0.00     0.006 A 
ENDBRANCH  57  78
BRANCH  69  86
ATOM     86  C   UNL A   1      48.619  26.454  29.883  1.00  0.00     0.057 A 
ATOM     87  C   UNL A   1      49.606  26.634  28.906  1.00  0.00     0.134 A 
ATOM     88  C   UNL A   1      49.000  25.844  31.086  1.00  0.00     0.134 A 
ATOM     89  F   UNL A   1      49.302  27.198  27.728  1.00  0.00    -0.206 F 
ATOM     90  C   UNL A   1      50.919  26.206  29.110  1.00  0.00     0.040 A 
ATOM     91  C   UNL A   1      50.315  25.438  31.311  1.00  0.00     0.040 A 
ATOM     92  F   UNL A   1      48.104  25.648  32.064  1.00  0.00    -0.206 F 
ATOM     93  C   UNL A   1      51.278  25.613  30.320  1.00  0.00     0.006 A 
ENDBRANCH  69  86
ENDBRANCH  43  44
ENDBRANCH  35  38
ENDBRANCH  33  34
ENDBRANCH  32  33
ENDBRANCH   1  32
TORSDOF 14
ENDMDL
MODEL 3
REMARK VINA RESULT:     -11.5      0.332      6.010
REMARK SMILES O=C(CCC(=O)/[NH+]=C1\S[C@H]2CS(=O)(=O)C[C@@H]2N1c1ccc2c(c1)OCO2)NCCCCNC(=O)c1ccc(-c2c3nc(c(-c4c(F)cccc4F)c4ccc([nH]4)c(-c4c(F)cccc4F)c4nc(c(-c5c(F)cccc5F)c5ccc2[nH]5)C=C4)C=C3)cc1
REMARK SMILES IDX 29 1 28 2 27 3 2 4 1 5 3 7 4 8 5 9 6 10 7 11 8 12 9 14 17 15
REMARK SMILES IDX 10 16 16 17 11 18 15 19 12 20 13 21 14 22 18 23 19 24 23 25
REMARK SMILES IDX 20 26 22 27 21 28 24 29 26 30 25 31 30 32 31 33 32 34 33 35
REMARK SMILES IDX 34 37 35 38 36 39 88 40 37 41 87 42 38 43 39 44 40 45 81 46
REMARK SMILES IDX 41 47 86 48 80 49 82 50 42 51 85 52 79 53 78 54 43 56 69 57
REMARK SMILES IDX 52 58 68 59 53 60 56 61 67 62 83 63 54 64 55 65 66 67 84 68
REMARK SMILES IDX 57 69 44 70 45 71 50 72 46 73 47 74 49 75 51 76 48 77 70 78
REMARK SMILES IDX 71 79 76 80 72 81 73 82 75 83 77 84 74 85 58 86 59 87 64 88
REMARK SMILES IDX 60 89 61 90 63 91 65 92 62 93
REMARK H PARENT 27 6 7 13 32 36 82 55 56 66
REMARK Flexibility Score: inf
ROOT
ATOM      1  C   UNL A   1      41.838  20.861  26.966  1.00  0.00     0.023 C 
ENDROOT
BRANCH   1   2
ATOM      2  C   UNL A   1      41.063  22.023  26.343  1.00  0.00     0.116 C 
BRANCH   2   3
ATOM      3  N   UNL A   1      40.383  22.869  27.306  1.00  0.00    -0.356 N 
ATOM      4  C   UNL A   1      39.435  23.825  27.124  1.00  0.00     0.220 C 
ATOM      5  O   UNL A   1      38.949  24.372  28.117  1.00  0.00    -0.275 OA
ATOM      6  H   UNL A   1      40.651  22.726  28.243  1.00  0.00     0.163 HD
BRANCH   4   7
ATOM      7  C   UNL A   1      38.992  24.203  25.736  1.00  0.00     0.112 C 
BRANCH   7   8
ATOM      8  C   UNL A   1      37.653  23.682  25.228  1.00  0.00     0.138 C 
BRANCH   8   9
ATOM      9  C   UNL A   1      37.168  22.251  25.442  1.00  0.00     0.308 C 
ATOM     10  O   UNL A   1      37.917  21.453  26.004  1.00  0.00    -0.247 OA
ATOM     11  N   UNL A   1      35.948  21.857  24.977  1.00  0.00    -0.204 N 
ATOM     12  C   UNL A   1      34.841  22.295  25.474  1.00  0.00     0.319 C 
ATOM     13  H   UNL A   1      35.911  21.213  24.233  1.00  0.00     0.316 HD
ATOM     14  S   UNL A   1      34.708  23.502  26.783  1.00  0.00    -0.029 SA
ATOM     15  N   UNL A   1      33.566  21.964  25.016  1.00  0.00    -0.216 N 
ATOM     16  C   UNL A   1      32.905  23.376  26.755  1.00  0.00     0.120 C 
ATOM     17  C   UNL A   1      32.587  22.997  25.303  1.00  0.00     0.212 C 
ATOM     18  C   UNL A   1      32.038  24.571  27.036  1.00  0.00     0.156 C 
ATOM     19  C   UNL A   1      31.106  22.695  25.309  1.00  0.00     0.188 C 
ATOM     20  S   UNL A   1      30.466  24.021  26.348  1.00  0.00     0.155 S 
ATOM     21  O   UNL A   1      29.689  23.418  27.415  1.00  0.00    -0.229 OA
ATOM     22  O   UNL A   1      29.941  25.065  25.501  1.00  0.00    -0.229 OA
BRANCH  15  23
ATOM     23  C   UNL A   1      33.237  20.754  24.412  1.00  0.00     0.132 A 
ATOM     24  C   UNL A   1      32.542  20.694  23.181  1.00  0.00     0.056 A 
ATOM     25  C   UNL A   1      33.636  19.553  25.024  1.00  0.00     0.102 A 
ATOM     26  C   UNL A   1      32.289  19.470  22.550  1.00  0.00     0.055 A 
ATOM     27  C   UNL A   1      33.385  18.365  24.380  1.00  0.00     0.170 A 
ATOM     28  C   UNL A   1      32.749  18.327  23.166  1.00  0.00     0.166 A 
ATOM     29  O   UNL A   1      33.750  17.131  24.818  1.00  0.00    -0.453 OA
ATOM     30  O   UNL A   1      32.681  17.068  22.671  1.00  0.00    -0.454 OA
ATOM     31  C   UNL A   1      33.452  16.344  23.650  1.00  0.00     0.468 C 
ENDBRANCH  15  23
ENDBRANCH   8   9
ENDBRANCH   7   8
ENDBRANCH   4   7
ENDBRANCH   2   3
ENDBRANCH   1   2
BRANCH   1  32
ATOM     32  C   UNL A   1      41.951  19.610  26.095  1.00  0.00     0.023 C 
BRANCH  32  33
ATOM     33  C   UNL A   1      43.270  18.865  26.206  1.00  0.00     0.116 C 
BRANCH  33  34
ATOM     34  N   UNL A   1      43.930  18.750  24.919  1.00  0.00    -0.352 N 
ATOM     35  C   UNL A   1      44.468  19.732  24.126  1.00  0.00     0.251 C 
ATOM     36  H   UNL A   1      44.003  17.835  24.563  1.00  0.00     0.163 HD
ATOM     37  O   UNL A   1      44.733  19.486  22.953  1.00  0.00    -0.269 OA
BRANCH  35  38
ATOM     38  C   UNL A   1      44.734  21.084  24.669  1.00  0.00     0.039 A 
ATOM     39  C   UNL A   1      44.324  22.199  23.931  1.00  0.00     0.014 A 
ATOM     40  C   UNL A   1      45.438  21.265  25.863  1.00  0.00     0.014 A 
ATOM     41  C   UNL A   1      44.589  23.487  24.405  1.00  0.00     0.010 A 
ATOM     42  C   UNL A   1      45.625  22.547  26.377  1.00  0.00     0.010 A 
ATOM     43  C   UNL A   1      45.217  23.675  25.646  1.00  0.00    -0.014 A 
BRANCH  43  44
ATOM     44  C   UNL A   1      45.474  25.035  26.193  1.00  0.00     0.031 A 
ATOM     45  C   UNL A   1      44.339  25.862  26.730  1.00  0.00     0.074 A 
ATOM     46  C   UNL A   1      46.711  25.563  26.133  1.00  0.00     0.049 A 
ATOM     47  N   UNL A   1      44.348  27.098  27.160  1.00  0.00    -0.248 NA
ATOM     48  C   UNL A   1      43.016  25.221  26.773  1.00  0.00     0.031 C 
ATOM     49  C   UNL A   1      47.893  24.874  25.624  1.00  0.00     0.029 A 
ATOM     50  N   UNL A   1      47.181  26.810  26.470  1.00  0.00    -0.354 N 
ATOM     51  C   UNL A   1      43.039  27.379  27.526  1.00  0.00     0.074 A 
ATOM     52  C   UNL A   1      42.248  26.214  27.195  1.00  0.00     0.031 C 
ATOM     53  C   UNL A   1      48.940  25.711  25.634  1.00  0.00     0.029 A 
ATOM     54  C   UNL A   1      48.506  27.000  26.156  1.00  0.00     0.049 A 
ATOM     55  H   UNL A   1      46.622  27.500  26.895  1.00  0.00     0.167 HD
ATOM     56  C   UNL A   1      42.548  28.492  28.121  1.00  0.00     0.037 A 
ATOM     57  C   UNL A   1      49.287  28.090  26.269  1.00  0.00     0.037 A 
ATOM     58  C   UNL A   1      43.344  29.644  28.457  1.00  0.00     0.049 A 
ATOM     59  C   UNL A   1      48.717  29.329  26.893  1.00  0.00     0.074 A 
ATOM     60  C   UNL A   1      42.958  30.795  29.120  1.00  0.00     0.029 A 
ATOM     61  N   UNL A   1      44.689  29.793  28.148  1.00  0.00    -0.354 N 
ATOM     62  N   UNL A   1      47.497  29.548  27.317  1.00  0.00    -0.248 NA
ATOM     63  C   UNL A   1      49.635  30.460  27.082  1.00  0.00     0.031 C 
ATOM     64  C   UNL A   1      44.055  31.663  29.162  1.00  0.00     0.029 A 
ATOM     65  C   UNL A   1      45.139  31.032  28.574  1.00  0.00     0.049 A 
ATOM     66  H   UNL A   1      45.240  29.118  27.691  1.00  0.00     0.167 HD
ATOM     67  C   UNL A   1      47.504  30.829  27.850  1.00  0.00     0.074 A 
ATOM     68  C   UNL A   1      48.856  31.333  27.704  1.00  0.00     0.031 C 
ATOM     69  C   UNL A   1      46.485  31.523  28.413  1.00  0.00     0.037 A 
BRANCH  56  70
ATOM     70  C   UNL A   1      41.080  28.507  28.443  1.00  0.00     0.057 A 
ATOM     71  C   UNL A   1      40.595  28.122  29.701  1.00  0.00     0.134 A 
ATOM     72  C   UNL A   1      40.139  28.916  27.490  1.00  0.00     0.134 A 
ATOM     73  F   UNL A   1      41.441  27.708  30.659  1.00  0.00    -0.206 F 
ATOM     74  C   UNL A   1      39.228  28.104  29.986  1.00  0.00     0.040 A 
ATOM     75  C   UNL A   1      38.772  28.933  27.773  1.00  0.00     0.040 A 
ATOM     76  F   UNL A   1      40.532  29.305  26.268  1.00  0.00    -0.206 F 
ATOM     77  C   UNL A   1      38.312  28.515  29.020  1.00  0.00     0.006 A 
ENDBRANCH  56  70
BRANCH  57  78
ATOM     78  C   UNL A   1      50.697  28.034  25.809  1.00  0.00     0.057 A 
ATOM     79  C   UNL A   1      51.750  27.857  26.714  1.00  0.00     0.134 A 
ATOM     80  C   UNL A   1      51.023  28.124  24.450  1.00  0.00     0.134 A 
ATOM     81  F   UNL A   1      51.501  27.773  28.029  1.00  0.00    -0.206 F 
ATOM     82  C   UNL A   1      53.077  27.788  26.287  1.00  0.00     0.040 A 
ATOM     83  C   UNL A   1      52.343  28.033  24.007  1.00  0.00     0.040 A 
ATOM     84  F   UNL A   1      50.059  28.280  23.531  1.00  0.00    -0.206 F 
ATOM     85  C   UNL A   1      53.376  27.870  24.928  1.00  0.00     0.006 A 
ENDBRANCH  57  78
BRANCH  69  86
ATOM     86  C   UNL A   1      46.796  32.898  28.928  1.00  0.00     0.057 A 
ATOM     87  C   UNL A   1      47.257  33.111  30.233  1.00  0.00     0.134 A 
ATOM     88  C   UNL A   1      46.670  34.017  28.093  1.00  0.00     0.134 A 
ATOM     89  F   UNL A   1      47.384  32.083  31.085  1.00  0.00    -0.206 F 
ATOM     90  C   UNL A   1      47.564  34.390  30.697  1.00  0.00     0.040 A 
ATOM     91  C   UNL A   1      47.001  35.297  28.538  1.00  0.00     0.040 A 
ATOM     92  F   UNL A   1      46.240  33.881  26.831  1.00  0.00    -0.206 F 
ATOM     93  C   UNL A   1      47.444  35.488  29.845  1.00  0.00     0.006 A 
ENDBRANCH  69  86
ENDBRANCH  43  44
ENDBRANCH  35  38
ENDBRANCH  33  34
ENDBRANCH  32  33
ENDBRANCH   1  32
TORSDOF 14
ENDMDL
