MODEL 1
REMARK VINA RESULT:     -13.0      0.000      0.000
REMARK SMILES O=C(NCCCCNC(=O)[C@@H]1CCCN(c2ccc3cc(S(=O)(=O)N4CCCCC4)ccc3n2)C1)c1ccc(-c2c3nc(c(-c4c(F)cccc4F)c4ccc([nH]4)c(-c4c(F)cccc4F)c4nc(c(-c5c(F)cccc5F)c5ccc2[nH]5)C=C4)C=C3)cc1
REMARK SMILES IDX 6 1 5 2 4 3 3 4 1 5 2 6 36 8 37 9 89 10 38 11 88 12 39 13
REMARK SMILES IDX 40 14 41 15 82 16 42 17 87 18 81 19 83 20 43 21 86 22 80 23
REMARK SMILES IDX 79 24 44 26 70 27 53 28 69 29 54 30 57 31 68 32 84 33 55 34
REMARK SMILES IDX 56 35 67 37 85 38 58 39 45 40 46 41 51 42 47 43 48 44 50 45
REMARK SMILES IDX 52 46 49 47 71 48 72 49 77 50 73 51 74 52 76 53 78 54 75 55
REMARK SMILES IDX 59 56 60 57 65 58 61 59 62 60 64 61 66 62 63 63 7 64 8 65
REMARK SMILES IDX 9 66 10 68 11 69 12 70 35 71 13 72 15 73 14 74 16 75 17 76
REMARK SMILES IDX 34 77 18 78 33 79 19 80 32 81 20 82 31 83 21 84 22 85 23 86
REMARK SMILES IDX 24 87 25 88 26 89 30 90 27 91 29 92 28 93
REMARK H PARENT 3 7 83 25 57 36 8 67
REMARK Flexibility Score: inf
ROOT
ATOM      1  C   UNL A   1      32.780  29.320  24.661  1.00  0.00     0.023 C 
ENDROOT
BRANCH   1   2
ATOM      2  C   UNL A   1      31.591  30.023  25.303  1.00  0.00     0.023 C 
BRANCH   2   3
ATOM      3  C   UNL A   1      31.863  30.586  26.688  1.00  0.00     0.116 C 
BRANCH   3   4
ATOM      4  N   UNL A   1      31.712  32.034  26.756  1.00  0.00    -0.352 N 
ATOM      5  O   UNL A   1      32.162  34.123  27.498  1.00  0.00    -0.269 OA
ATOM      6  C   UNL A   1      32.497  32.947  27.419  1.00  0.00     0.251 C 
ATOM      7  H   UNL A   1      30.946  32.407  26.262  1.00  0.00     0.163 HD
BRANCH   6   8
ATOM      8  C   UNL A   1      33.741  32.479  28.060  1.00  0.00     0.039 A 
ATOM      9  C   UNL A   1      34.067  31.122  28.030  1.00  0.00     0.014 A 
ATOM     10  C   UNL A   1      34.554  33.390  28.737  1.00  0.00     0.014 A 
ATOM     11  C   UNL A   1      35.108  30.651  28.814  1.00  0.00     0.010 A 
ATOM     12  C   UNL A   1      35.673  32.925  29.432  1.00  0.00     0.010 A 
ATOM     13  C   UNL A   1      35.944  31.550  29.497  1.00  0.00    -0.014 A 
BRANCH  13  14
ATOM     14  C   UNL A   1      37.151  31.021  30.178  1.00  0.00     0.031 A 
ATOM     15  C   UNL A   1      37.449  31.340  31.615  1.00  0.00     0.074 A 
ATOM     16  C   UNL A   1      37.972  30.220  29.471  1.00  0.00     0.049 A 
ATOM     17  N   UNL A   1      38.465  30.951  32.346  1.00  0.00    -0.248 NA
ATOM     18  C   UNL A   1      36.497  32.206  32.327  1.00  0.00     0.031 C 
ATOM     19  C   UNL A   1      37.783  29.854  28.063  1.00  0.00     0.029 A 
ATOM     20  N   UNL A   1      39.113  29.556  29.833  1.00  0.00    -0.354 N 
ATOM     21  C   UNL A   1      38.286  31.537  33.593  1.00  0.00     0.074 A 
ATOM     22  C   UNL A   1      37.075  32.326  33.516  1.00  0.00     0.031 C 
ATOM     23  C   UNL A   1      38.745  28.997  27.697  1.00  0.00     0.029 A 
ATOM     24  C   UNL A   1      39.664  28.820  28.812  1.00  0.00     0.049 A 
ATOM     25  H   UNL A   1      39.502  29.603  30.737  1.00  0.00     0.167 HD
ATOM     26  C   UNL A   1      39.063  31.420  34.695  1.00  0.00     0.037 A 
ATOM     27  C   UNL A   1      40.802  28.106  28.765  1.00  0.00     0.037 A 
ATOM     28  C   UNL A   1      40.263  30.621  34.761  1.00  0.00     0.049 A 
ATOM     29  C   UNL A   1      41.661  28.034  29.992  1.00  0.00     0.074 A 
ATOM     30  C   UNL A   1      41.095  30.405  35.847  1.00  0.00     0.029 A 
ATOM     31  N   UNL A   1      40.806  29.915  33.697  1.00  0.00    -0.354 N 
ATOM     32  N   UNL A   1      41.453  28.556  31.177  1.00  0.00    -0.248 NA
ATOM     33  C   UNL A   1      42.913  27.277  29.877  1.00  0.00     0.031 C 
ATOM     34  C   UNL A   1      42.173  29.621  35.425  1.00  0.00     0.029 A 
ATOM     35  C   UNL A   1      41.979  29.292  34.094  1.00  0.00     0.049 A 
ATOM     36  H   UNL A   1      40.416  29.864  32.795  1.00  0.00     0.167 HD
ATOM     37  C   UNL A   1      42.536  28.170  31.954  1.00  0.00     0.074 A 
ATOM     38  C   UNL A   1      43.383  27.350  31.113  1.00  0.00     0.031 C 
ATOM     39  C   UNL A   1      42.808  28.473  33.247  1.00  0.00     0.037 A 
BRANCH  26  40
ATOM     40  C   UNL A   1      38.667  32.183  35.928  1.00  0.00     0.057 A 
ATOM     41  C   UNL A   1      38.004  31.571  36.999  1.00  0.00     0.134 A 
ATOM     42  C   UNL A   1      39.036  33.527  36.080  1.00  0.00     0.134 A 
ATOM     43  F   UNL A   1      37.616  30.290  36.917  1.00  0.00    -0.206 F 
ATOM     44  C   UNL A   1      37.716  32.271  38.173  1.00  0.00     0.040 A 
ATOM     45  C   UNL A   1      38.775  34.229  37.259  1.00  0.00     0.040 A 
ATOM     46  F   UNL A   1      39.681  34.171  35.096  1.00  0.00    -0.206 F 
ATOM     47  C   UNL A   1      38.112  33.601  38.310  1.00  0.00     0.006 A 
ENDBRANCH  26  40
BRANCH  27  48
ATOM     48  C   UNL A   1      41.211  27.437  27.504  1.00  0.00     0.057 A 
ATOM     49  C   UNL A   1      42.103  28.044  26.614  1.00  0.00     0.134 A 
ATOM     50  C   UNL A   1      40.698  26.183  27.148  1.00  0.00     0.134 A 
ATOM     51  F   UNL A   1      42.619  29.250  26.892  1.00  0.00    -0.206 F 
ATOM     52  C   UNL A   1      42.446  27.444  25.401  1.00  0.00     0.040 A 
ATOM     53  C   UNL A   1      41.060  25.554  25.957  1.00  0.00     0.040 A 
ATOM     54  F   UNL A   1      39.848  25.540  27.964  1.00  0.00    -0.206 F 
ATOM     55  C   UNL A   1      41.925  26.193  25.072  1.00  0.00     0.006 A 
ENDBRANCH  27  48
BRANCH  39  56
ATOM     56  C   UNL A   1      44.053  27.878  33.838  1.00  0.00     0.057 A 
ATOM     57  C   UNL A   1      44.060  26.610  34.433  1.00  0.00     0.134 A 
ATOM     58  C   UNL A   1      45.265  28.578  33.794  1.00  0.00     0.134 A 
ATOM     59  F   UNL A   1      42.929  25.894  34.523  1.00  0.00    -0.206 F 
ATOM     60  C   UNL A   1      45.221  26.073  34.991  1.00  0.00     0.040 A 
ATOM     61  C   UNL A   1      46.440  28.038  34.318  1.00  0.00     0.040 A 
ATOM     62  F   UNL A   1      45.331  29.794  33.231  1.00  0.00    -0.206 F 
ATOM     63  C   UNL A   1      46.417  26.785  34.927  1.00  0.00     0.006 A 
ENDBRANCH  39  56
ENDBRANCH  13  14
ENDBRANCH   6   8
ENDBRANCH   3   4
ENDBRANCH   2   3
ENDBRANCH   1   2
BRANCH   1  64
ATOM     64  C   UNL A   1      32.501  27.887  24.231  1.00  0.00     0.116 C 
BRANCH  64  65
ATOM     65  N   UNL A   1      32.397  26.991  25.365  1.00  0.00    -0.356 N 
ATOM     66  C   UNL A   1      32.522  25.629  25.389  1.00  0.00     0.224 C 
ATOM     67  H   UNL A   1      32.211  27.417  26.232  1.00  0.00     0.163 HD
ATOM     68  O   UNL A   1      32.464  25.064  26.479  1.00  0.00    -0.275 OA
BRANCH  66  69
ATOM     69  C   UNL A   1      32.722  24.907  24.063  1.00  0.00     0.098 C 
ATOM     70  C   UNL A   1      31.687  23.778  23.882  1.00  0.00     0.017 C 
ATOM     71  C   UNL A   1      34.177  24.487  23.884  1.00  0.00     0.131 C 
ATOM     72  C   UNL A   1      32.152  22.401  24.369  1.00  0.00     0.022 C 
ATOM     73  N   UNL A   1      34.397  23.155  24.410  1.00  0.00    -0.356 N 
ATOM     74  C   UNL A   1      33.567  22.093  23.887  1.00  0.00     0.118 C 
BRANCH  73  75
ATOM     75  C   UNL A   1      35.666  22.870  24.858  1.00  0.00     0.129 A 
ATOM     76  C   UNL A   1      36.419  23.890  25.433  1.00  0.00     0.047 A 
ATOM     77  N   UNL A   1      36.140  21.617  24.728  1.00  0.00    -0.231 NA
ATOM     78  C   UNL A   1      37.694  23.623  25.904  1.00  0.00     0.014 A 
ATOM     79  C   UNL A   1      37.385  21.364  25.152  1.00  0.00     0.073 A 
ATOM     80  C   UNL A   1      38.204  22.337  25.764  1.00  0.00     0.002 A 
ATOM     81  C   UNL A   1      37.897  20.094  24.974  1.00  0.00     0.030 A 
ATOM     82  C   UNL A   1      39.490  22.011  26.213  1.00  0.00     0.032 A 
ATOM     83  C   UNL A   1      39.184  19.760  25.402  1.00  0.00     0.024 A 
ATOM     84  C   UNL A   1      39.979  20.715  26.036  1.00  0.00     0.083 A 
BRANCH  84  85
ATOM     85  S   UNL A   1      41.619  20.395  26.660  1.00  0.00     0.243 S 
ATOM     86  O   UNL A   1      41.440  19.637  27.879  1.00  0.00    -0.207 OA
ATOM     87  O   UNL A   1      42.371  19.861  25.542  1.00  0.00    -0.207 OA
BRANCH  85  88
ATOM     88  N   UNL A   1      42.306  21.902  27.077  1.00  0.00    -0.198 NA
ATOM     89  C   UNL A   1      42.199  22.285  28.507  1.00  0.00     0.102 C 
ATOM     90  C   UNL A   1      43.528  22.277  26.324  1.00  0.00     0.102 C 
ATOM     91  C   UNL A   1      42.732  23.683  28.778  1.00  0.00     0.017 C 
ATOM     92  C   UNL A   1      44.012  23.677  26.662  1.00  0.00     0.017 C 
ATOM     93  C   UNL A   1      44.108  23.881  28.165  1.00  0.00     0.003 C 
ENDBRANCH  85  88
ENDBRANCH  84  85
ENDBRANCH  73  75
ENDBRANCH  66  69
ENDBRANCH  64  65
ENDBRANCH   1  64
TORSDOF 14
ENDMDL
MODEL 2
REMARK VINA RESULT:     -12.9      0.528      5.912
REMARK SMILES O=C(NCCCCNC(=O)[C@@H]1CCCN(c2ccc3cc(S(=O)(=O)N4CCCCC4)ccc3n2)C1)c1ccc(-c2c3nc(c(-c4c(F)cccc4F)c4ccc([nH]4)c(-c4c(F)cccc4F)c4nc(c(-c5c(F)cccc5F)c5ccc2[nH]5)C=C4)C=C3)cc1
REMARK SMILES IDX 6 1 5 2 4 3 3 4 1 5 2 6 36 8 37 9 89 10 38 11 88 12 39 13
REMARK SMILES IDX 40 14 41 15 82 16 42 17 87 18 81 19 83 20 43 21 86 22 80 23
REMARK SMILES IDX 79 24 44 26 70 27 53 28 69 29 54 30 57 31 68 32 84 33 55 34
REMARK SMILES IDX 56 35 67 37 85 38 58 39 45 40 46 41 51 42 47 43 48 44 50 45
REMARK SMILES IDX 52 46 49 47 71 48 72 49 77 50 73 51 74 52 76 53 78 54 75 55
REMARK SMILES IDX 59 56 60 57 65 58 61 59 62 60 64 61 66 62 63 63 7 64 8 65
REMARK SMILES IDX 9 66 10 68 11 69 12 70 35 71 13 72 15 73 14 74 16 75 17 76
REMARK SMILES IDX 34 77 18 78 33 79 19 80 32 81 20 82 31 83 21 84 22 85 23 86
REMARK SMILES IDX 24 87 25 88 26 89 30 90 27 91 29 92 28 93
REMARK H PARENT 3 7 83 25 57 36 8 67
REMARK Flexibility Score: inf
ROOT
ATOM      1  C   UNL A   1      32.087  29.024  24.922  1.00  0.00     0.023 C 
ENDROOT
BRANCH   1   2
ATOM      2  C   UNL A   1      31.451  30.316  25.419  1.00  0.00     0.023 C 
BRANCH   2   3
ATOM      3  C   UNL A   1      32.033  30.848  26.718  1.00  0.00     0.116 C 
BRANCH   3   4
ATOM      4  N   UNL A   1      31.952  32.298  26.829  1.00  0.00    -0.352 N 
ATOM      5  O   UNL A   1      32.507  34.342  27.626  1.00  0.00    -0.269 OA
ATOM      6  C   UNL A   1      32.786  33.154  27.510  1.00  0.00     0.251 C 
ATOM      7  H   UNL A   1      31.200  32.722  26.355  1.00  0.00     0.163 HD
BRANCH   6   8
ATOM      8  C   UNL A   1      34.012  32.609  28.123  1.00  0.00     0.039 A 
ATOM      9  C   UNL A   1      34.041  31.280  28.548  1.00  0.00     0.014 A 
ATOM     10  C   UNL A   1      35.114  33.443  28.321  1.00  0.00     0.014 A 
ATOM     11  C   UNL A   1      35.102  30.832  29.319  1.00  0.00     0.010 A 
ATOM     12  C   UNL A   1      36.233  32.952  28.998  1.00  0.00     0.010 A 
ATOM     13  C   UNL A   1      36.225  31.651  29.524  1.00  0.00    -0.014 A 
BRANCH  13  14
ATOM     14  C   UNL A   1      37.412  31.074  30.201  1.00  0.00     0.031 A 
ATOM     15  C   UNL A   1      38.341  30.127  29.497  1.00  0.00     0.074 A 
ATOM     16  C   UNL A   1      37.651  31.444  31.475  1.00  0.00     0.049 A 
ATOM     17  N   UNL A   1      39.418  29.542  29.959  1.00  0.00    -0.248 NA
ATOM     18  C   UNL A   1      38.025  29.784  28.102  1.00  0.00     0.031 C 
ATOM     19  C   UNL A   1      36.806  32.351  32.261  1.00  0.00     0.029 A 
ATOM     20  N   UNL A   1      38.672  31.125  32.329  1.00  0.00    -0.354 N 
ATOM     21  C   UNL A   1      39.898  28.751  28.922  1.00  0.00     0.074 A 
ATOM     22  C   UNL A   1      38.984  28.913  27.812  1.00  0.00     0.031 C 
ATOM     23  C   UNL A   1      37.368  32.550  33.460  1.00  0.00     0.029 A 
ATOM     24  C   UNL A   1      38.562  31.724  33.561  1.00  0.00     0.049 A 
ATOM     25  H   UNL A   1      39.413  30.524  32.085  1.00  0.00     0.167 HD
ATOM     26  C   UNL A   1      41.002  27.967  28.906  1.00  0.00     0.037 A 
ATOM     27  C   UNL A   1      39.318  31.596  34.665  1.00  0.00     0.037 A 
ATOM     28  C   UNL A   1      41.912  27.824  30.016  1.00  0.00     0.049 A 
ATOM     29  C   UNL A   1      40.509  30.686  34.624  1.00  0.00     0.074 A 
ATOM     30  C   UNL A   1      43.082  27.087  30.081  1.00  0.00     0.029 A 
ATOM     31  N   UNL A   1      41.750  28.422  31.258  1.00  0.00    -0.354 N 
ATOM     32  N   UNL A   1      40.975  29.981  33.621  1.00  0.00    -0.248 NA
ATOM     33  C   UNL A   1      41.277  30.550  35.867  1.00  0.00     0.031 C 
ATOM     34  C   UNL A   1      43.594  27.187  31.378  1.00  0.00     0.029 A 
ATOM     35  C   UNL A   1      42.780  28.041  32.104  1.00  0.00     0.049 A 
ATOM     36  H   UNL A   1      41.012  29.026  31.502  1.00  0.00     0.167 HD
ATOM     37  C   UNL A   1      42.105  29.338  34.107  1.00  0.00     0.074 A 
ATOM     38  C   UNL A   1      42.266  29.757  35.483  1.00  0.00     0.031 C 
ATOM     39  C   UNL A   1      42.931  28.472  33.470  1.00  0.00     0.037 A 
BRANCH  26  40
ATOM     40  C   UNL A   1      41.296  27.180  27.660  1.00  0.00     0.057 A 
ATOM     41  C   UNL A   1      40.612  25.997  27.350  1.00  0.00     0.134 A 
ATOM     42  C   UNL A   1      42.211  27.662  26.714  1.00  0.00     0.134 A 
ATOM     43  F   UNL A   1      39.728  25.476  28.214  1.00  0.00    -0.206 F 
ATOM     44  C   UNL A   1      40.835  25.319  26.149  1.00  0.00     0.040 A 
ATOM     45  C   UNL A   1      42.424  27.007  25.500  1.00  0.00     0.040 A 
ATOM     46  F   UNL A   1      42.894  28.794  26.944  1.00  0.00    -0.206 F 
ATOM     47  C   UNL A   1      41.735  25.830  25.215  1.00  0.00     0.006 A 
ENDBRANCH  26  40
BRANCH  27  48
ATOM     48  C   UNL A   1      38.950  32.320  35.908  1.00  0.00     0.057 A 
ATOM     49  C   UNL A   1      38.179  31.710  36.904  1.00  0.00     0.134 A 
ATOM     50  C   UNL A   1      39.340  33.649  36.118  1.00  0.00     0.134 A 
ATOM     51  F   UNL A   1      37.764  30.444  36.756  1.00  0.00    -0.206 F 
ATOM     52  C   UNL A   1      37.783  32.405  38.048  1.00  0.00     0.040 A 
ATOM     53  C   UNL A   1      38.983  34.344  37.273  1.00  0.00     0.040 A 
ATOM     54  F   UNL A   1      40.092  34.288  35.208  1.00  0.00    -0.206 F 
ATOM     55  C   UNL A   1      38.188  33.725  38.236  1.00  0.00     0.006 A 
ENDBRANCH  27  48
BRANCH  39  56
ATOM     56  C   UNL A   1      44.106  27.956  34.249  1.00  0.00     0.057 A 
ATOM     57  C   UNL A   1      44.050  26.756  34.969  1.00  0.00     0.134 A 
ATOM     58  C   UNL A   1      45.315  28.663  34.263  1.00  0.00     0.134 A 
ATOM     59  F   UNL A   1      42.917  26.039  35.012  1.00  0.00    -0.206 F 
ATOM     60  C   UNL A   1      45.146  26.294  35.700  1.00  0.00     0.040 A 
ATOM     61  C   UNL A   1      46.428  28.194  34.962  1.00  0.00     0.040 A 
ATOM     62  F   UNL A   1      45.440  29.816  33.587  1.00  0.00    -0.206 F 
ATOM     63  C   UNL A   1      46.341  27.010  35.692  1.00  0.00     0.006 A 
ENDBRANCH  39  56
ENDBRANCH  13  14
ENDBRANCH   6   8
ENDBRANCH   3   4
ENDBRANCH   2   3
ENDBRANCH   1   2
BRANCH   1  64
ATOM     64  C   UNL A   1      31.120  27.855  24.809  1.00  0.00     0.116 C 
BRANCH  64  65
ATOM     65  N   UNL A   1      31.445  26.790  25.736  1.00  0.00    -0.356 N 
ATOM     66  C   UNL A   1      32.097  25.614  25.487  1.00  0.00     0.224 C 
ATOM     67  H   UNL A   1      31.158  26.930  26.667  1.00  0.00     0.163 HD
ATOM     68  O   UNL A   1      32.332  24.873  26.439  1.00  0.00    -0.275 OA
BRANCH  66  69
ATOM     69  C   UNL A   1      32.487  25.304  24.048  1.00  0.00     0.098 C 
ATOM     70  C   UNL A   1      31.530  24.268  23.423  1.00  0.00     0.017 C 
ATOM     71  C   UNL A   1      33.969  24.962  23.944  1.00  0.00     0.131 C 
ATOM     72  C   UNL A   1      31.990  22.813  23.554  1.00  0.00     0.022 C 
ATOM     73  N   UNL A   1      34.180  23.536  24.094  1.00  0.00    -0.356 N 
ATOM     74  C   UNL A   1      33.465  22.664  23.189  1.00  0.00     0.118 C 
BRANCH  73  75
ATOM     75  C   UNL A   1      35.396  23.142  24.601  1.00  0.00     0.129 A 
ATOM     76  C   UNL A   1      36.176  24.078  25.276  1.00  0.00     0.047 A 
ATOM     77  N   UNL A   1      35.794  21.868  24.432  1.00  0.00    -0.231 NA
ATOM     78  C   UNL A   1      37.399  23.700  25.808  1.00  0.00     0.014 A 
ATOM     79  C   UNL A   1      36.990  21.509  24.915  1.00  0.00     0.073 A 
ATOM     80  C   UNL A   1      37.831  22.390  25.628  1.00  0.00     0.002 A 
ATOM     81  C   UNL A   1      37.429  20.217  24.699  1.00  0.00     0.030 A 
ATOM     82  C   UNL A   1      39.062  21.954  26.135  1.00  0.00     0.032 A 
ATOM     83  C   UNL A   1      38.662  19.774  25.185  1.00  0.00     0.024 A 
ATOM     84  C   UNL A   1      39.475  20.638  25.917  1.00  0.00     0.083 A 
BRANCH  84  85
ATOM     85  S   UNL A   1      41.047  20.175  26.620  1.00  0.00     0.243 S 
ATOM     86  O   UNL A   1      40.778  19.816  27.995  1.00  0.00    -0.207 OA
ATOM     87  O   UNL A   1      41.632  19.226  25.692  1.00  0.00    -0.207 OA
BRANCH  85  88
ATOM     88  N   UNL A   1      42.032  21.571  26.626  1.00  0.00    -0.198 NA
ATOM     89  C   UNL A   1      42.376  22.110  27.966  1.00  0.00     0.102 C 
ATOM     90  C   UNL A   1      43.041  21.645  25.542  1.00  0.00     0.102 C 
ATOM     91  C   UNL A   1      43.159  23.412  27.886  1.00  0.00     0.017 C 
ATOM     92  C   UNL A   1      43.796  22.964  25.540  1.00  0.00     0.017 C 
ATOM     93  C   UNL A   1      44.328  23.299  26.922  1.00  0.00     0.003 C 
ENDBRANCH  85  88
ENDBRANCH  84  85
ENDBRANCH  73  75
ENDBRANCH  66  69
ENDBRANCH  64  65
ENDBRANCH   1  64
TORSDOF 14
ENDMDL
MODEL 3
REMARK VINA RESULT:     -12.7      4.182      8.335
REMARK SMILES O=C(NCCCCNC(=O)[C@@H]1CCCN(c2ccc3cc(S(=O)(=O)N4CCCCC4)ccc3n2)C1)c1ccc(-c2c3nc(c(-c4c(F)cccc4F)c4ccc([nH]4)c(-c4c(F)cccc4F)c4nc(c(-c5c(F)cccc5F)c5ccc2[nH]5)C=C4)C=C3)cc1
REMARK SMILES IDX 6 1 5 2 4 3 3 4 1 5 2 6 36 8 37 9 89 10 38 11 88 12 39 13
REMARK SMILES IDX 40 14 41 15 82 16 42 17 87 18 81 19 83 20 43 21 86 22 80 23
REMARK SMILES IDX 79 24 44 26 70 27 53 28 69 29 54 30 57 31 68 32 84 33 55 34
REMARK SMILES IDX 56 35 67 37 85 38 58 39 45 40 46 41 51 42 47 43 48 44 50 45
REMARK SMILES IDX 52 46 49 47 71 48 72 49 77 50 73 51 74 52 76 53 78 54 75 55
REMARK SMILES IDX 59 56 60 57 65 58 61 59 62 60 64 61 66 62 63 63 7 64 8 65
REMARK SMILES IDX 9 66 10 68 11 69 12 70 35 71 13 72 15 73 14 74 16 75 17 76
REMARK SMILES IDX 34 77 18 78 33 79 19 80 32 81 20 82 31 83 21 84 22 85 23 86
REMARK SMILES IDX 24 87 25 88 26 89 30 90 27 91 29 92 28 93
REMARK H PARENT 3 7 83 25 57 36 8 67
REMARK Flexibility Score: inf
ROOT
ATOM      1  C   UNL A   1      34.323  34.379  30.631  1.00  0.00     0.023 C 
ENDROOT
BRANCH   1   2
ATOM      2  C   UNL A   1      34.609  32.898  30.418  1.00  0.00     0.023 C 
BRANCH   2   3
ATOM      3  C   UNL A   1      34.993  32.528  28.995  1.00  0.00     0.116 C 
BRANCH   3   4
ATOM      4  N   UNL A   1      34.278  31.361  28.494  1.00  0.00    -0.352 N 
ATOM      5  O   UNL A   1      34.071  29.294  27.599  1.00  0.00    -0.269 OA
ATOM      6  C   UNL A   1      34.783  30.134  28.137  1.00  0.00     0.251 C 
ATOM      7  H   UNL A   1      33.303  31.467  28.398  1.00  0.00     0.163 HD
BRANCH   6   8
ATOM      8  C   UNL A   1      36.211  29.856  28.389  1.00  0.00     0.039 A 
ATOM      9  C   UNL A   1      37.148  30.079  27.379  1.00  0.00     0.014 A 
ATOM     10  C   UNL A   1      36.603  29.320  29.617  1.00  0.00     0.014 A 
ATOM     11  C   UNL A   1      38.444  29.613  27.534  1.00  0.00     0.010 A 
ATOM     12  C   UNL A   1      37.938  28.959  29.813  1.00  0.00     0.010 A 
ATOM     13  C   UNL A   1      38.863  29.079  28.764  1.00  0.00    -0.014 A 
BRANCH  13  14
ATOM     14  C   UNL A   1      40.299  28.757  28.948  1.00  0.00     0.031 A 
ATOM     15  C   UNL A   1      41.255  29.736  29.568  1.00  0.00     0.074 A 
ATOM     16  C   UNL A   1      40.725  27.539  28.560  1.00  0.00     0.049 A 
ATOM     17  N   UNL A   1      42.538  29.597  29.793  1.00  0.00    -0.248 NA
ATOM     18  C   UNL A   1      40.712  31.039  29.984  1.00  0.00     0.031 C 
ATOM     19  C   UNL A   1      39.884  26.513  27.935  1.00  0.00     0.029 A 
ATOM     20  N   UNL A   1      41.957  26.948  28.643  1.00  0.00    -0.354 N 
ATOM     21  C   UNL A   1      42.959  30.794  30.359  1.00  0.00     0.074 A 
ATOM     22  C   UNL A   1      41.801  31.659  30.423  1.00  0.00     0.031 C 
ATOM     23  C   UNL A   1      40.611  25.406  27.736  1.00  0.00     0.029 A 
ATOM     24  C   UNL A   1      41.985  25.670  28.138  1.00  0.00     0.049 A 
ATOM     25  H   UNL A   1      42.747  27.394  29.027  1.00  0.00     0.167 HD
ATOM     26  C   UNL A   1      44.200  31.131  30.784  1.00  0.00     0.037 A 
ATOM     27  C   UNL A   1      43.010  24.814  27.982  1.00  0.00     0.037 A 
ATOM     28  C   UNL A   1      45.344  30.255  30.724  1.00  0.00     0.049 A 
ATOM     29  C   UNL A   1      44.378  25.237  28.425  1.00  0.00     0.074 A 
ATOM     30  C   UNL A   1      46.634  30.491  31.170  1.00  0.00     0.029 A 
ATOM     31  N   UNL A   1      45.340  28.980  30.177  1.00  0.00    -0.354 N 
ATOM     32  N   UNL A   1      44.751  26.356  29.001  1.00  0.00    -0.248 NA
ATOM     33  C   UNL A   1      45.469  24.284  28.196  1.00  0.00     0.031 C 
ATOM     34  C   UNL A   1      47.423  29.386  30.837  1.00  0.00     0.029 A 
ATOM     35  C   UNL A   1      46.612  28.433  30.244  1.00  0.00     0.049 A 
ATOM     36  H   UNL A   1      44.550  28.531  29.797  1.00  0.00     0.167 HD
ATOM     37  C   UNL A   1      46.114  26.229  29.223  1.00  0.00     0.074 A 
ATOM     38  C   UNL A   1      46.496  24.916  28.745  1.00  0.00     0.031 C 
ATOM     39  C   UNL A   1      46.975  27.122  29.770  1.00  0.00     0.037 A 
BRANCH  26  40
ATOM     40  C   UNL A   1      44.409  32.512  31.340  1.00  0.00     0.057 A 
ATOM     41  C   UNL A   1      44.217  32.804  32.696  1.00  0.00     0.134 A 
ATOM     42  C   UNL A   1      44.898  33.540  30.522  1.00  0.00     0.134 A 
ATOM     43  F   UNL A   1      43.745  31.869  33.534  1.00  0.00    -0.206 F 
ATOM     44  C   UNL A   1      44.495  34.071  33.215  1.00  0.00     0.040 A 
ATOM     45  C   UNL A   1      45.203  34.802  31.035  1.00  0.00     0.040 A 
ATOM     46  F   UNL A   1      45.112  33.326  29.215  1.00  0.00    -0.206 F 
ATOM     47  C   UNL A   1      45.000  35.071  32.386  1.00  0.00     0.006 A 
ENDBRANCH  26  40
BRANCH  27  48
ATOM     48  C   UNL A   1      42.786  23.490  27.348  1.00  0.00     0.057 A 
ATOM     49  C   UNL A   1      42.414  22.374  28.106  1.00  0.00     0.134 A 
ATOM     50  C   UNL A   1      42.962  23.305  25.971  1.00  0.00     0.134 A 
ATOM     51  F   UNL A   1      42.241  22.485  29.431  1.00  0.00    -0.206 F 
ATOM     52  C   UNL A   1      42.257  21.116  27.523  1.00  0.00     0.040 A 
ATOM     53  C   UNL A   1      42.774  22.061  25.369  1.00  0.00     0.040 A 
ATOM     54  F   UNL A   1      43.306  24.337  25.185  1.00  0.00    -0.206 F 
ATOM     55  C   UNL A   1      42.434  20.958  26.149  1.00  0.00     0.006 A 
ENDBRANCH  27  48
BRANCH  39  56
ATOM     56  C   UNL A   1      48.405  26.688  29.915  1.00  0.00     0.057 A 
ATOM     57  C   UNL A   1      48.866  26.022  31.057  1.00  0.00     0.134 A 
ATOM     58  C   UNL A   1      49.327  26.926  28.888  1.00  0.00     0.134 A 
ATOM     59  F   UNL A   1      48.039  25.778  32.085  1.00  0.00    -0.206 F 
ATOM     60  C   UNL A   1      50.201  25.635  31.186  1.00  0.00     0.040 A 
ATOM     61  C   UNL A   1      50.656  26.515  28.991  1.00  0.00     0.040 A 
ATOM     62  F   UNL A   1      48.950  27.552  27.763  1.00  0.00    -0.206 F 
ATOM     63  C   UNL A   1      51.099  25.875  30.147  1.00  0.00     0.006 A 
ENDBRANCH  39  56
ENDBRANCH  13  14
ENDBRANCH   6   8
ENDBRANCH   3   4
ENDBRANCH   2   3
ENDBRANCH   1   2
BRANCH   1  64
ATOM     64  C   UNL A   1      34.756  34.909  31.991  1.00  0.00     0.116 C 
BRANCH  64  65
ATOM     65  N   UNL A   1      36.199  34.956  32.120  1.00  0.00    -0.356 N 
ATOM     66  C   UNL A   1      37.006  34.201  32.925  1.00  0.00     0.224 C 
ATOM     67  H   UNL A   1      36.658  35.619  31.556  1.00  0.00     0.163 HD
ATOM     68  O   UNL A   1      38.222  34.358  32.830  1.00  0.00    -0.275 OA
BRANCH  66  69
ATOM     69  C   UNL A   1      36.345  33.220  33.883  1.00  0.00     0.098 C 
ATOM     70  C   UNL A   1      36.194  33.833  35.291  1.00  0.00     0.017 C 
ATOM     71  C   UNL A   1      37.036  31.862  33.838  1.00  0.00     0.131 C 
ATOM     72  C   UNL A   1      37.354  33.533  36.246  1.00  0.00     0.022 C 
ATOM     73  N   UNL A   1      38.098  31.792  34.822  1.00  0.00    -0.356 N 
ATOM     74  C   UNL A   1      37.742  32.057  36.198  1.00  0.00     0.118 C 
BRANCH  73  75
ATOM     75  C   UNL A   1      39.146  30.947  34.541  1.00  0.00     0.129 A 
ATOM     76  C   UNL A   1      39.148  30.263  33.327  1.00  0.00     0.047 A 
ATOM     77  N   UNL A   1      40.135  30.806  35.442  1.00  0.00    -0.231 NA
ATOM     78  C   UNL A   1      40.200  29.417  33.015  1.00  0.00     0.014 A 
ATOM     79  C   UNL A   1      41.136  29.963  35.158  1.00  0.00     0.073 A 
ATOM     80  C   UNL A   1      41.223  29.250  33.943  1.00  0.00     0.002 A 
ATOM     81  C   UNL A   1      42.127  29.774  36.101  1.00  0.00     0.030 A 
ATOM     82  C   UNL A   1      42.307  28.401  33.687  1.00  0.00     0.032 A 
ATOM     83  C   UNL A   1      43.205  28.917  35.865  1.00  0.00     0.024 A 
ATOM     84  C   UNL A   1      43.304  28.239  34.650  1.00  0.00     0.083 A 
BRANCH  84  85
ATOM     85  S   UNL A   1      44.652  27.153  34.220  1.00  0.00     0.243 S 
ATOM     86  O   UNL A   1      45.092  27.564  32.906  1.00  0.00    -0.207 OA
ATOM     87  O   UNL A   1      45.551  27.168  35.357  1.00  0.00    -0.207 OA
BRANCH  85  88
ATOM     88  N   UNL A   1      44.009  25.575  34.088  1.00  0.00    -0.198 NA
ATOM     89  C   UNL A   1      44.757  24.648  33.201  1.00  0.00     0.102 C 
ATOM     90  C   UNL A   1      43.376  25.039  35.316  1.00  0.00     0.102 C 
ATOM     91  C   UNL A   1      44.064  23.303  33.048  1.00  0.00     0.017 C 
ATOM     92  C   UNL A   1      42.723  23.684  35.090  1.00  0.00     0.017 C 
ATOM     93  C   UNL A   1      43.673  22.723  34.396  1.00  0.00     0.003 C 
ENDBRANCH  85  88
ENDBRANCH  84  85
ENDBRANCH  73  75
ENDBRANCH  66  69
ENDBRANCH  64  65
ENDBRANCH   1  64
TORSDOF 14
ENDMDL
