MODEL 1
REMARK VINA RESULT:     -11.6      0.000      0.000
REMARK SMILES NC(=O)[C@@H]1CCCCN1c1cncc(C(=O)NCCCCNC(=O)c2ccc(-c3c4nc(c(-c5c(F)cccc5F)c5ccc([nH]5)c(-c5c(F)cccc5F)c5nc(c(-c6c(F)cccc6F)c6ccc3[nH]6)C=C5)C=C4)cc2)n1
REMARK SMILES IDX 19 1 18 2 17 3 15 4 16 5 14 7 10 8 11 9 79 10 12 11 13 12
REMARK SMILES IDX 9 13 4 14 5 15 6 16 8 17 7 18 2 19 1 20 3 23 20 24 21 25
REMARK SMILES IDX 22 26 23 27 24 29 25 30 26 31 78 32 27 33 77 34 28 35 29 36
REMARK SMILES IDX 30 37 71 38 31 39 76 40 70 41 72 42 32 43 75 44 69 45 68 46
REMARK SMILES IDX 33 48 59 49 42 50 58 51 43 52 46 53 57 54 73 55 44 56 45 57
REMARK SMILES IDX 56 59 74 60 47 61 34 62 35 63 40 64 36 65 37 66 39 67 41 68
REMARK SMILES IDX 38 69 60 70 61 71 66 72 62 73 63 74 65 75 67 76 64 77 48 78
REMARK SMILES IDX 49 79 54 80 50 81 51 82 53 83 55 84 52 85
REMARK H PARENT 17 6 1 21 1 22 22 28 72 47 46 58
REMARK Flexibility Score: inf
ROOT
ATOM      1  C   UNL A   1      31.615  30.749  26.142  1.00  0.00     0.023 C 
ENDROOT
BRANCH   1   2
ATOM      2  C   UNL A   1      31.860  29.715  27.237  1.00  0.00     0.116 C 
BRANCH   2   3
ATOM      3  N   UNL A   1      33.276  29.541  27.506  1.00  0.00    -0.351 N 
ATOM      4  C   UNL A   1      34.217  28.732  26.910  1.00  0.00     0.271 C 
ATOM      5  O   UNL A   1      35.365  28.771  27.362  1.00  0.00    -0.267 OA
ATOM      6  H   UNL A   1      33.623  30.097  28.242  1.00  0.00     0.163 HD
BRANCH   4   7
ATOM      7  C   UNL A   1      33.916  27.815  25.770  1.00  0.00     0.148 A 
ATOM      8  C   UNL A   1      33.409  25.716  24.938  1.00  0.00     0.148 A 
ATOM      9  C   UNL A   1      33.449  26.274  23.652  1.00  0.00     0.157 A 
ATOM     10  N   UNL A   1      33.642  26.503  26.001  1.00  0.00    -0.222 NA
ATOM     11  N   UNL A   1      33.700  27.580  23.388  1.00  0.00    -0.258 NA
ATOM     12  C   UNL A   1      33.932  28.339  24.485  1.00  0.00     0.145 A 
BRANCH   8  13
ATOM     13  N   UNL A   1      33.131  24.372  25.122  1.00  0.00    -0.343 N 
ATOM     14  C   UNL A   1      31.836  23.890  25.673  1.00  0.00     0.172 C 
ATOM     15  C   UNL A   1      31.975  23.424  27.125  1.00  0.00     0.035 C 
ATOM     16  C   UNL A   1      33.121  22.431  27.275  1.00  0.00     0.004 C 
ATOM     17  C   UNL A   1      34.292  23.495  25.314  1.00  0.00     0.119 C 
ATOM     18  C   UNL A   1      34.417  23.060  26.776  1.00  0.00     0.022 C 
BRANCH  14  19
ATOM     19  C   UNL A   1      30.641  24.853  25.509  1.00  0.00     0.240 C 
ATOM     20  N   UNL A   1      30.014  24.804  24.293  1.00  0.00    -0.368 N 
ATOM     21  H   UNL A   1      29.243  25.388  24.113  1.00  0.00     0.159 HD
ATOM     22  H   UNL A   1      30.334  24.183  23.599  1.00  0.00     0.159 HD
ATOM     23  O   UNL A   1      30.191  25.568  26.401  1.00  0.00    -0.273 OA
ENDBRANCH  14  19
ENDBRANCH   8  13
ENDBRANCH   4   7
ENDBRANCH   2   3
ENDBRANCH   1   2
BRANCH   1  24
ATOM     24  C   UNL A   1      31.349  32.162  26.662  1.00  0.00     0.023 C 
BRANCH  24  25
ATOM     25  C   UNL A   1      32.558  32.867  27.272  1.00  0.00     0.116 C 
BRANCH  25  26
ATOM     26  N   UNL A   1      32.297  34.253  27.634  1.00  0.00    -0.352 N 
ATOM     27  C   UNL A   1      32.942  35.038  28.558  1.00  0.00     0.251 C 
ATOM     28  H   UNL A   1      31.557  34.686  27.150  1.00  0.00     0.163 HD
ATOM     29  O   UNL A   1      32.519  36.157  28.831  1.00  0.00    -0.269 OA
BRANCH  27  30
ATOM     30  C   UNL A   1      34.133  34.509  29.254  1.00  0.00     0.039 A 
ATOM     31  C   UNL A   1      33.969  33.885  30.491  1.00  0.00     0.014 A 
ATOM     32  C   UNL A   1      35.400  34.601  28.671  1.00  0.00     0.014 A 
ATOM     33  C   UNL A   1      35.067  33.283  31.111  1.00  0.00     0.010 A 
ATOM     34  C   UNL A   1      36.477  33.939  29.253  1.00  0.00     0.010 A 
ATOM     35  C   UNL A   1      36.320  33.269  30.476  1.00  0.00    -0.014 A 
BRANCH  35  36
ATOM     36  C   UNL A   1      37.475  32.551  31.069  1.00  0.00     0.031 A 
ATOM     37  C   UNL A   1      38.082  33.030  32.359  1.00  0.00     0.074 A 
ATOM     38  C   UNL A   1      38.024  31.512  30.409  1.00  0.00     0.049 A 
ATOM     39  N   UNL A   1      39.137  32.582  32.993  1.00  0.00    -0.248 NA
ATOM     40  C   UNL A   1      37.434  34.179  33.011  1.00  0.00     0.031 C 
ATOM     41  C   UNL A   1      37.561  30.982  29.124  1.00  0.00     0.029 A 
ATOM     42  N   UNL A   1      39.101  30.721  30.722  1.00  0.00    -0.354 N 
ATOM     43  C   UNL A   1      39.288  33.405  34.102  1.00  0.00     0.074 A 
ATOM     44  C   UNL A   1      38.246  34.405  34.033  1.00  0.00     0.031 C 
ATOM     45  C   UNL A   1      38.333  29.942  28.773  1.00  0.00     0.029 A 
ATOM     46  C   UNL A   1      39.369  29.754  29.783  1.00  0.00     0.049 A 
ATOM     47  H   UNL A   1      39.634  30.835  31.543  1.00  0.00     0.167 HD
ATOM     48  C   UNL A   1      40.202  33.320  35.098  1.00  0.00     0.037 A 
ATOM     49  C   UNL A   1      40.344  28.827  29.738  1.00  0.00     0.037 A 
ATOM     50  C   UNL A   1      41.215  32.301  35.183  1.00  0.00     0.049 A 
ATOM     51  C   UNL A   1      41.345  28.758  30.859  1.00  0.00     0.074 A 
ATOM     52  C   UNL A   1      42.136  32.088  36.194  1.00  0.00     0.029 A 
ATOM     53  N   UNL A   1      41.439  31.328  34.223  1.00  0.00    -0.354 N 
ATOM     54  N   UNL A   1      41.427  29.493  31.942  1.00  0.00    -0.248 NA
ATOM     55  C   UNL A   1      42.385  27.725  30.754  1.00  0.00     0.031 C 
ATOM     56  C   UNL A   1      42.947  31.011  35.824  1.00  0.00     0.029 A 
ATOM     57  C   UNL A   1      42.500  30.524  34.608  1.00  0.00     0.049 A 
ATOM     58  H   UNL A   1      40.921  31.222  33.393  1.00  0.00     0.167 HD
ATOM     59  C   UNL A   1      42.504  28.991  32.660  1.00  0.00     0.074 A 
ATOM     60  C   UNL A   1      43.037  27.881  31.898  1.00  0.00     0.031 C 
ATOM     61  C   UNL A   1      43.007  29.412  33.846  1.00  0.00     0.037 A 
BRANCH  48  62
ATOM     62  C   UNL A   1      40.145  34.352  36.185  1.00  0.00     0.057 A 
ATOM     63  C   UNL A   1      39.386  34.162  37.346  1.00  0.00     0.134 A 
ATOM     64  C   UNL A   1      40.905  35.525  36.095  1.00  0.00     0.134 A 
ATOM     65  F   UNL A   1      38.628  33.063  37.489  1.00  0.00    -0.206 F 
ATOM     66  C   UNL A   1      39.370  35.108  38.371  1.00  0.00     0.040 A 
ATOM     67  C   UNL A   1      40.917  36.468  37.124  1.00  0.00     0.040 A 
ATOM     68  F   UNL A   1      41.659  35.768  35.012  1.00  0.00    -0.206 F 
ATOM     69  C   UNL A   1      40.145  36.261  38.266  1.00  0.00     0.006 A 
ENDBRANCH  48  62
BRANCH  49  70
ATOM     70  C   UNL A   1      40.421  27.871  28.604  1.00  0.00     0.057 A 
ATOM     71  C   UNL A   1      41.145  28.181  27.447  1.00  0.00     0.134 A 
ATOM     72  C   UNL A   1      39.744  26.645  28.632  1.00  0.00     0.134 A 
ATOM     73  F   UNL A   1      41.798  29.349  27.353  1.00  0.00    -0.206 F 
ATOM     74  C   UNL A   1      41.174  27.321  26.348  1.00  0.00     0.040 A 
ATOM     75  C   UNL A   1      39.785  25.764  27.549  1.00  0.00     0.040 A 
ATOM     76  F   UNL A   1      39.037  26.286  29.712  1.00  0.00    -0.206 F 
ATOM     77  C   UNL A   1      40.494  26.107  26.399  1.00  0.00     0.006 A 
ENDBRANCH  49  70
BRANCH  61  78
ATOM     78  C   UNL A   1      44.163  28.643  34.416  1.00  0.00     0.057 A 
ATOM     79  C   UNL A   1      45.491  29.013  34.172  1.00  0.00     0.134 A 
ATOM     80  C   UNL A   1      43.940  27.538  35.248  1.00  0.00     0.134 A 
ATOM     81  F   UNL A   1      45.771  30.053  33.373  1.00  0.00    -0.206 F 
ATOM     82  C   UNL A   1      46.557  28.300  34.721  1.00  0.00     0.040 A 
ATOM     83  C   UNL A   1      44.997  26.833  35.823  1.00  0.00     0.040 A 
ATOM     84  F   UNL A   1      42.690  27.136  35.528  1.00  0.00    -0.206 F 
ATOM     85  C   UNL A   1      46.311  27.211  35.555  1.00  0.00     0.006 A 
ENDBRANCH  61  78
ENDBRANCH  35  36
ENDBRANCH  27  30
ENDBRANCH  25  26
ENDBRANCH  24  25
ENDBRANCH   1  24
TORSDOF 13
ENDMDL
MODEL 2
REMARK VINA RESULT:     -11.5      3.756      5.588
REMARK SMILES NC(=O)[C@@H]1CCCCN1c1cncc(C(=O)NCCCCNC(=O)c2ccc(-c3c4nc(c(-c5c(F)cccc5F)c5ccc([nH]5)c(-c5c(F)cccc5F)c5nc(c(-c6c(F)cccc6F)c6ccc3[nH]6)C=C5)C=C4)cc2)n1
REMARK SMILES IDX 19 1 18 2 17 3 15 4 16 5 14 7 10 8 11 9 79 10 12 11 13 12
REMARK SMILES IDX 9 13 4 14 5 15 6 16 8 17 7 18 2 19 1 20 3 23 20 24 21 25
REMARK SMILES IDX 22 26 23 27 24 29 25 30 26 31 78 32 27 33 77 34 28 35 29 36
REMARK SMILES IDX 30 37 71 38 31 39 76 40 70 41 72 42 32 43 75 44 69 45 68 46
REMARK SMILES IDX 33 48 59 49 42 50 58 51 43 52 46 53 57 54 73 55 44 56 45 57
REMARK SMILES IDX 56 59 74 60 47 61 34 62 35 63 40 64 36 65 37 66 39 67 41 68
REMARK SMILES IDX 38 69 60 70 61 71 66 72 62 73 63 74 65 75 67 76 64 77 48 78
REMARK SMILES IDX 49 79 54 80 50 81 51 82 53 83 55 84 52 85
REMARK H PARENT 17 6 1 21 1 22 22 28 72 47 46 58
REMARK Flexibility Score: inf
ROOT
ATOM      1  C   UNL A   1      32.242  27.446  25.733  1.00  0.00     0.023 C 
ENDROOT
BRANCH   1   2
ATOM      2  C   UNL A   1      30.871  26.796  25.567  1.00  0.00     0.116 C 
BRANCH   2   3
ATOM      3  N   UNL A   1      30.683  25.692  26.491  1.00  0.00    -0.351 N 
ATOM      4  C   UNL A   1      30.959  24.350  26.364  1.00  0.00     0.271 C 
ATOM      5  O   UNL A   1      30.672  23.621  27.318  1.00  0.00    -0.267 OA
ATOM      6  H   UNL A   1      30.290  25.948  27.357  1.00  0.00     0.163 HD
BRANCH   4   7
ATOM      7  C   UNL A   1      31.565  23.741  25.142  1.00  0.00     0.148 A 
ATOM      8  C   UNL A   1      33.353  22.781  24.032  1.00  0.00     0.148 A 
ATOM      9  C   UNL A   1      32.545  22.726  22.887  1.00  0.00     0.157 A 
ATOM     10  N   UNL A   1      32.848  23.291  25.166  1.00  0.00    -0.222 NA
ATOM     11  N   UNL A   1      31.257  23.147  22.835  1.00  0.00    -0.258 NA
ATOM     12  C   UNL A   1      30.786  23.657  23.997  1.00  0.00     0.145 A 
BRANCH   8  13
ATOM     13  N   UNL A   1      34.657  22.314  24.005  1.00  0.00    -0.343 N 
ATOM     14  C   UNL A   1      35.102  21.134  24.793  1.00  0.00     0.172 C 
ATOM     15  C   UNL A   1      35.929  21.544  26.014  1.00  0.00     0.035 C 
ATOM     16  C   UNL A   1      37.059  22.487  25.618  1.00  0.00     0.004 C 
ATOM     17  C   UNL A   1      35.688  23.304  23.668  1.00  0.00     0.119 C 
ATOM     18  C   UNL A   1      36.486  23.709  24.910  1.00  0.00     0.022 C 
BRANCH  14  19
ATOM     19  C   UNL A   1      33.991  20.134  25.182  1.00  0.00     0.240 C 
ATOM     20  N   UNL A   1      33.463  20.308  26.434  1.00  0.00    -0.368 N 
ATOM     21  H   UNL A   1      32.750  19.710  26.754  1.00  0.00     0.159 HD
ATOM     22  H   UNL A   1      33.795  21.032  27.013  1.00  0.00     0.159 HD
ATOM     23  O   UNL A   1      33.520  19.284  24.431  1.00  0.00    -0.273 OA
ENDBRANCH  14  19
ENDBRANCH   8  13
ENDBRANCH   4   7
ENDBRANCH   2   3
ENDBRANCH   1   2
BRANCH   1  24
ATOM     24  C   UNL A   1      32.413  28.223  27.039  1.00  0.00     0.023 C 
BRANCH  24  25
ATOM     25  C   UNL A   1      33.806  28.801  27.272  1.00  0.00     0.116 C 
BRANCH  25  26
ATOM     26  N   UNL A   1      33.789  30.149  27.823  1.00  0.00    -0.352 N 
ATOM     27  C   UNL A   1      34.785  30.823  28.485  1.00  0.00     0.251 C 
ATOM     28  H   UNL A   1      32.947  30.644  27.705  1.00  0.00     0.163 HD
ATOM     29  O   UNL A   1      34.568  31.918  28.994  1.00  0.00    -0.269 OA
BRANCH  27  30
ATOM     30  C   UNL A   1      36.119  30.200  28.613  1.00  0.00     0.039 A 
ATOM     31  C   UNL A   1      36.996  30.253  27.528  1.00  0.00     0.014 A 
ATOM     32  C   UNL A   1      36.513  29.596  29.811  1.00  0.00     0.014 A 
ATOM     33  C   UNL A   1      38.297  29.767  27.669  1.00  0.00     0.010 A 
ATOM     34  C   UNL A   1      37.831  29.179  29.973  1.00  0.00     0.010 A 
ATOM     35  C   UNL A   1      38.738  29.265  28.905  1.00  0.00    -0.014 A 
BRANCH  35  36
ATOM     36  C   UNL A   1      40.144  28.835  29.104  1.00  0.00     0.031 A 
ATOM     37  C   UNL A   1      41.145  29.782  29.706  1.00  0.00     0.074 A 
ATOM     38  C   UNL A   1      40.537  27.619  28.677  1.00  0.00     0.049 A 
ATOM     39  N   UNL A   1      42.431  29.618  29.891  1.00  0.00    -0.248 NA
ATOM     40  C   UNL A   1      40.642  31.097  30.135  1.00  0.00     0.031 C 
ATOM     41  C   UNL A   1      39.673  26.627  28.031  1.00  0.00     0.029 A 
ATOM     42  N   UNL A   1      41.767  27.012  28.711  1.00  0.00    -0.354 N 
ATOM     43  C   UNL A   1      42.890  30.810  30.436  1.00  0.00     0.074 A 
ATOM     44  C   UNL A   1      41.756  31.706  30.511  1.00  0.00     0.031 C 
ATOM     45  C   UNL A   1      40.396  25.530  27.752  1.00  0.00     0.029 A 
ATOM     46  C   UNL A   1      41.778  25.753  28.161  1.00  0.00     0.049 A 
ATOM     47  H   UNL A   1      42.568  27.440  29.093  1.00  0.00     0.167 HD
ATOM     48  C   UNL A   1      44.139  31.122  30.853  1.00  0.00     0.037 A 
ATOM     49  C   UNL A   1      42.791  24.881  27.998  1.00  0.00     0.037 A 
ATOM     50  C   UNL A   1      45.257  30.217  30.811  1.00  0.00     0.049 A 
ATOM     51  C   UNL A   1      44.168  25.256  28.472  1.00  0.00     0.074 A 
ATOM     52  C   UNL A   1      46.544  30.417  31.282  1.00  0.00     0.029 A 
ATOM     53  N   UNL A   1      45.223  28.944  30.267  1.00  0.00    -0.354 N 
ATOM     54  N   UNL A   1      44.570  26.358  29.058  1.00  0.00    -0.248 NA
ATOM     55  C   UNL A   1      45.232  24.263  28.267  1.00  0.00     0.031 C 
ATOM     56  C   UNL A   1      47.299  29.280  30.983  1.00  0.00     0.029 A 
ATOM     57  C   UNL A   1      46.472  28.354  30.370  1.00  0.00     0.049 A 
ATOM     58  H   UNL A   1      44.428  28.521  29.867  1.00  0.00     0.167 HD
ATOM     59  C   UNL A   1      45.921  26.177  29.320  1.00  0.00     0.074 A 
ATOM     60  C   UNL A   1      46.269  24.856  28.842  1.00  0.00     0.031 C 
ATOM     61  C   UNL A   1      46.797  27.030  29.905  1.00  0.00     0.037 A 
BRANCH  48  62
ATOM     62  C   UNL A   1      44.366  32.500  31.403  1.00  0.00     0.057 A 
ATOM     63  C   UNL A   1      44.224  32.784  32.766  1.00  0.00     0.134 A 
ATOM     64  C   UNL A   1      44.789  33.541  30.566  1.00  0.00     0.134 A 
ATOM     65  F   UNL A   1      43.813  31.833  33.620  1.00  0.00    -0.206 F 
ATOM     66  C   UNL A   1      44.477  34.058  33.277  1.00  0.00     0.040 A 
ATOM     67  C   UNL A   1      45.069  34.813  31.068  1.00  0.00     0.040 A 
ATOM     68  F   UNL A   1      44.950  33.336  29.250  1.00  0.00    -0.206 F 
ATOM     69  C   UNL A   1      44.910  35.074  32.428  1.00  0.00     0.006 A 
ENDBRANCH  48  62
BRANCH  49  70
ATOM     70  C   UNL A   1      42.547  23.555  27.375  1.00  0.00     0.057 A 
ATOM     71  C   UNL A   1      42.232  22.438  28.158  1.00  0.00     0.134 A 
ATOM     72  C   UNL A   1      42.660  23.362  25.993  1.00  0.00     0.134 A 
ATOM     73  F   UNL A   1      42.130  22.555  29.490  1.00  0.00    -0.206 F 
ATOM     74  C   UNL A   1      42.063  21.172  27.594  1.00  0.00     0.040 A 
ATOM     75  C   UNL A   1      42.469  22.107  25.412  1.00  0.00     0.040 A 
ATOM     76  F   UNL A   1      42.954  24.393  25.187  1.00  0.00    -0.206 F 
ATOM     77  C   UNL A   1      42.179  21.005  26.216  1.00  0.00     0.006 A 
ENDBRANCH  49  70
BRANCH  61  78
ATOM     78  C   UNL A   1      48.203  26.545  30.104  1.00  0.00     0.057 A 
ATOM     79  C   UNL A   1      49.215  26.806  29.172  1.00  0.00     0.134 A 
ATOM     80  C   UNL A   1      48.554  25.838  31.262  1.00  0.00     0.134 A 
ATOM     81  F   UNL A   1      48.941  27.466  28.037  1.00  0.00    -0.206 F 
ATOM     82  C   UNL A   1      50.523  26.363  29.375  1.00  0.00     0.040 A 
ATOM     83  C   UNL A   1      49.863  25.413  31.488  1.00  0.00     0.040 A 
ATOM     84  F   UNL A   1      47.633  25.562  32.197  1.00  0.00    -0.206 F 
ATOM     85  C   UNL A   1      50.850  25.671  30.539  1.00  0.00     0.006 A 
ENDBRANCH  61  78
ENDBRANCH  35  36
ENDBRANCH  27  30
ENDBRANCH  25  26
ENDBRANCH  24  25
ENDBRANCH   1  24
TORSDOF 13
ENDMDL
MODEL 3
REMARK VINA RESULT:     -11.4      3.704      5.412
REMARK SMILES NC(=O)[C@@H]1CCCCN1c1cncc(C(=O)NCCCCNC(=O)c2ccc(-c3c4nc(c(-c5c(F)cccc5F)c5ccc([nH]5)c(-c5c(F)cccc5F)c5nc(c(-c6c(F)cccc6F)c6ccc3[nH]6)C=C5)C=C4)cc2)n1
REMARK SMILES IDX 19 1 18 2 17 3 15 4 16 5 14 7 10 8 11 9 79 10 12 11 13 12
REMARK SMILES IDX 9 13 4 14 5 15 6 16 8 17 7 18 2 19 1 20 3 23 20 24 21 25
REMARK SMILES IDX 22 26 23 27 24 29 25 30 26 31 78 32 27 33 77 34 28 35 29 36
REMARK SMILES IDX 30 37 71 38 31 39 76 40 70 41 72 42 32 43 75 44 69 45 68 46
REMARK SMILES IDX 33 48 59 49 42 50 58 51 43 52 46 53 57 54 73 55 44 56 45 57
REMARK SMILES IDX 56 59 74 60 47 61 34 62 35 63 40 64 36 65 37 66 39 67 41 68
REMARK SMILES IDX 38 69 60 70 61 71 66 72 62 73 63 74 65 75 67 76 64 77 48 78
REMARK SMILES IDX 49 79 54 80 50 81 51 82 53 83 55 84 52 85
REMARK H PARENT 17 6 1 21 1 22 22 28 72 47 46 58
REMARK Flexibility Score: inf
ROOT
ATOM      1  C   UNL A   1      32.917  29.418  24.995  1.00  0.00     0.023 C 
ENDROOT
BRANCH   1   2
ATOM      2  C   UNL A   1      31.436  29.066  25.106  1.00  0.00     0.116 C 
BRANCH   2   3
ATOM      3  N   UNL A   1      30.771  29.121  23.818  1.00  0.00    -0.351 N 
ATOM      4  C   UNL A   1      30.808  28.264  22.743  1.00  0.00     0.271 C 
ATOM      5  O   UNL A   1      30.147  28.574  21.747  1.00  0.00    -0.267 OA
ATOM      6  H   UNL A   1      30.192  29.909  23.691  1.00  0.00     0.163 HD
BRANCH   4   7
ATOM      7  C   UNL A   1      31.610  27.003  22.717  1.00  0.00     0.148 A 
ATOM      8  C   UNL A   1      31.878  24.763  23.227  1.00  0.00     0.148 A 
ATOM      9  C   UNL A   1      33.157  24.840  22.655  1.00  0.00     0.157 A 
ATOM     10  N   UNL A   1      31.104  25.859  23.249  1.00  0.00    -0.222 NA
ATOM     11  N   UNL A   1      33.684  25.959  22.099  1.00  0.00    -0.258 NA
ATOM     12  C   UNL A   1      32.873  27.042  22.144  1.00  0.00     0.145 A 
BRANCH   8  13
ATOM     13  N   UNL A   1      31.409  23.574  23.761  1.00  0.00    -0.343 N 
ATOM     14  C   UNL A   1      31.076  23.421  25.203  1.00  0.00     0.172 C 
ATOM     15  C   UNL A   1      32.144  22.616  25.950  1.00  0.00     0.035 C 
ATOM     16  C   UNL A   1      32.437  21.301  25.238  1.00  0.00     0.004 C 
ATOM     17  C   UNL A   1      31.786  22.352  23.042  1.00  0.00     0.119 C 
ATOM     18  C   UNL A   1      32.866  21.578  23.801  1.00  0.00     0.022 C 
BRANCH  14  19
ATOM     19  C   UNL A   1      30.738  24.728  25.953  1.00  0.00     0.240 C 
ATOM     20  N   UNL A   1      29.447  25.164  25.811  1.00  0.00    -0.368 N 
ATOM     21  H   UNL A   1      29.155  25.989  26.259  1.00  0.00     0.159 HD
ATOM     22  H   UNL A   1      28.811  24.651  25.262  1.00  0.00     0.159 HD
ATOM     23  O   UNL A   1      31.506  25.323  26.703  1.00  0.00    -0.273 OA
ENDBRANCH  14  19
ENDBRANCH   8  13
ENDBRANCH   4   7
ENDBRANCH   2   3
ENDBRANCH   1   2
BRANCH   1  24
ATOM     24  C   UNL A   1      33.844  28.480  25.769  1.00  0.00     0.023 C 
BRANCH  24  25
ATOM     25  C   UNL A   1      33.785  28.617  27.288  1.00  0.00     0.116 C 
BRANCH  25  26
ATOM     26  N   UNL A   1      33.775  30.000  27.743  1.00  0.00    -0.352 N 
ATOM     27  C   UNL A   1      34.783  30.720  28.337  1.00  0.00     0.251 C 
ATOM     28  H   UNL A   1      32.930  30.486  27.606  1.00  0.00     0.163 HD
ATOM     29  O   UNL A   1      34.573  31.847  28.773  1.00  0.00    -0.269 OA
BRANCH  27  30
ATOM     30  C   UNL A   1      36.120  30.109  28.483  1.00  0.00     0.039 A 
ATOM     31  C   UNL A   1      37.017  30.186  27.417  1.00  0.00     0.014 A 
ATOM     32  C   UNL A   1      36.496  29.492  29.680  1.00  0.00     0.014 A 
ATOM     33  C   UNL A   1      38.320  29.711  27.576  1.00  0.00     0.010 A 
ATOM     34  C   UNL A   1      37.815  29.086  29.862  1.00  0.00     0.010 A 
ATOM     35  C   UNL A   1      38.742  29.196  28.813  1.00  0.00    -0.014 A 
BRANCH  35  36
ATOM     36  C   UNL A   1      40.148  28.778  29.035  1.00  0.00     0.031 A 
ATOM     37  C   UNL A   1      41.133  29.733  29.651  1.00  0.00     0.074 A 
ATOM     38  C   UNL A   1      40.557  27.565  28.615  1.00  0.00     0.049 A 
ATOM     39  N   UNL A   1      42.417  29.580  29.856  1.00  0.00    -0.248 NA
ATOM     40  C   UNL A   1      40.612  31.045  30.070  1.00  0.00     0.031 C 
ATOM     41  C   UNL A   1      39.712  26.565  27.957  1.00  0.00     0.029 A 
ATOM     42  N   UNL A   1      41.792  26.968  28.668  1.00  0.00    -0.354 N 
ATOM     43  C   UNL A   1      42.858  30.776  30.406  1.00  0.00     0.074 A 
ATOM     44  C   UNL A   1      41.716  31.662  30.463  1.00  0.00     0.031 C 
ATOM     45  C   UNL A   1      40.447  25.474  27.690  1.00  0.00     0.029 A 
ATOM     46  C   UNL A   1      41.821  25.708  28.119  1.00  0.00     0.049 A 
ATOM     47  H   UNL A   1      42.584  27.402  29.062  1.00  0.00     0.167 HD
ATOM     48  C   UNL A   1      44.098  31.099  30.842  1.00  0.00     0.037 A 
ATOM     49  C   UNL A   1      42.843  24.844  27.973  1.00  0.00     0.037 A 
ATOM     50  C   UNL A   1      45.224  30.203  30.818  1.00  0.00     0.049 A 
ATOM     51  C   UNL A   1      44.210  25.231  28.467  1.00  0.00     0.074 A 
ATOM     52  C   UNL A   1      46.501  30.413  31.308  1.00  0.00     0.029 A 
ATOM     53  N   UNL A   1      45.208  28.929  30.274  1.00  0.00    -0.354 N 
ATOM     54  N   UNL A   1      44.595  26.337  29.058  1.00  0.00    -0.248 NA
ATOM     55  C   UNL A   1      45.285  24.246  28.279  1.00  0.00     0.031 C 
ATOM     56  C   UNL A   1      47.270  29.282  31.022  1.00  0.00     0.029 A 
ATOM     57  C   UNL A   1      46.460  28.349  30.397  1.00  0.00     0.049 A 
ATOM     58  H   UNL A   1      44.423  28.499  29.863  1.00  0.00     0.167 HD
ATOM     59  C   UNL A   1      45.943  26.167  29.341  1.00  0.00     0.074 A 
ATOM     60  C   UNL A   1      46.308  24.847  28.870  1.00  0.00     0.031 C 
ATOM     61  C   UNL A   1      46.802  27.027  29.939  1.00  0.00     0.037 A 
BRANCH  48  62
ATOM     62  C   UNL A   1      44.306  32.478  31.394  1.00  0.00     0.057 A 
ATOM     63  C   UNL A   1      44.141  32.762  32.755  1.00  0.00     0.134 A 
ATOM     64  C   UNL A   1      44.732  33.522  30.563  1.00  0.00     0.134 A 
ATOM     65  F   UNL A   1      43.725  31.808  33.603  1.00  0.00    -0.206 F 
ATOM     66  C   UNL A   1      44.376  34.038  33.268  1.00  0.00     0.040 A 
ATOM     67  C   UNL A   1      44.994  34.797  31.068  1.00  0.00     0.040 A 
ATOM     68  F   UNL A   1      44.914  33.318  29.250  1.00  0.00    -0.206 F 
ATOM     69  C   UNL A   1      44.813  35.058  32.425  1.00  0.00     0.006 A 
ENDBRANCH  48  62
BRANCH  49  70
ATOM     70  C   UNL A   1      42.620  23.515  27.347  1.00  0.00     0.057 A 
ATOM     71  C   UNL A   1      42.262  22.406  28.121  1.00  0.00     0.134 A 
ATOM     72  C   UNL A   1      42.794  23.314  25.973  1.00  0.00     0.134 A 
ATOM     73  F   UNL A   1      42.100  22.532  29.446  1.00  0.00    -0.206 F 
ATOM     74  C   UNL A   1      42.111  21.138  27.558  1.00  0.00     0.040 A 
ATOM     75  C   UNL A   1      42.622  22.056  25.392  1.00  0.00     0.040 A 
ATOM     76  F   UNL A   1      43.132  24.337  25.175  1.00  0.00    -0.206 F 
ATOM     77  C   UNL A   1      42.289  20.961  26.188  1.00  0.00     0.006 A 
ENDBRANCH  49  70
BRANCH  61  78
ATOM     78  C   UNL A   1      48.209  26.553  30.159  1.00  0.00     0.057 A 
ATOM     79  C   UNL A   1      48.586  25.866  31.319  1.00  0.00     0.134 A 
ATOM     80  C   UNL A   1      49.189  26.757  29.179  1.00  0.00     0.134 A 
ATOM     81  F   UNL A   1      47.698  25.651  32.301  1.00  0.00    -0.206 F 
ATOM     82  C   UNL A   1      49.894  25.416  31.506  1.00  0.00     0.040 A 
ATOM     83  C   UNL A   1      50.493  26.288  29.343  1.00  0.00     0.040 A 
ATOM     84  F   UNL A   1      48.891  27.401  28.040  1.00  0.00    -0.206 F 
ATOM     85  C   UNL A   1      50.849  25.621  30.512  1.00  0.00     0.006 A 
ENDBRANCH  61  78
ENDBRANCH  35  36
ENDBRANCH  27  30
ENDBRANCH  25  26
ENDBRANCH  24  25
ENDBRANCH   1  24
TORSDOF 13
ENDMDL
