MODEL 1
REMARK VINA RESULT:     -13.4      0.000      0.000
REMARK SMILES C[C@H](C(=O)Nc1ccc(C(F)(F)F)cc1)n1nc(C(=O)NCCCCNC(=O)c2ccc(-c3c4nc(c(-c5c(F)cccc5F)c5ccc([nH]5)c(-c5c(F)cccc5F)c5nc(c(-c6c(F)cccc6F)c6ccc3[nH]6)C=C5)C=C4)cc2)c2ccccc2c1=O
REMARK SMILES IDX 22 1 21 2 19 3 20 4 18 6 16 7 17 8 89 9 88 10 90 11 83 12
REMARK SMILES IDX 87 13 84 14 86 15 85 16 2 17 1 18 3 19 4 20 5 21 6 23 7 24
REMARK SMILES IDX 15 25 8 26 14 27 9 28 10 29 11 30 12 31 13 32 23 33 24 34
REMARK SMILES IDX 25 35 26 36 27 37 28 39 29 40 30 41 82 42 31 43 81 44 32 45
REMARK SMILES IDX 33 46 34 47 75 48 35 49 80 50 74 51 76 52 36 53 79 54 73 55
REMARK SMILES IDX 72 56 37 58 63 59 46 60 62 61 47 62 50 63 61 64 77 65 48 66
REMARK SMILES IDX 49 67 60 69 78 70 51 71 38 72 39 73 44 74 40 75 41 76 43 77
REMARK SMILES IDX 45 78 42 79 64 80 65 81 70 82 66 83 67 84 69 85 71 86 68 87
REMARK SMILES IDX 52 88 53 89 58 90 54 91 55 92 57 93 59 94 56 95
REMARK H PARENT 21 5 5 22 26 38 76 57 50 68
REMARK Flexibility Score: inf
ROOT
ATOM      1  C   UNL A   1      37.931  23.370  26.018  1.00  0.00     0.116 C 
ENDROOT
BRANCH   1   2
ATOM      2  N   UNL A   1      37.676  23.326  24.598  1.00  0.00    -0.351 N 
ATOM      3  C   UNL A   1      36.532  22.867  23.980  1.00  0.00     0.272 C 
ATOM      4  O   UNL A   1      36.436  22.861  22.760  1.00  0.00    -0.267 OA
ATOM      5  H   UNL A   1      38.392  23.659  24.010  1.00  0.00     0.163 HD
BRANCH   3   6
ATOM      6  C   UNL A   1      35.305  22.584  24.857  1.00  0.00     0.156 A 
ATOM      7  N   UNL A   1      33.284  23.637  25.145  1.00  0.00    -0.216 N 
ATOM      8  N   UNL A   1      34.672  23.565  25.441  1.00  0.00    -0.163 NA
ATOM      9  C   UNL A   1      32.801  22.797  24.102  1.00  0.00     0.275 A 
ATOM     10  C   UNL A   1      33.364  21.423  24.152  1.00  0.00     0.051 A 
ATOM     11  O   UNL A   1      31.980  23.100  23.253  1.00  0.00    -0.267 OA
ATOM     12  C   UNL A   1      34.652  21.308  24.637  1.00  0.00     0.020 A 
ATOM     13  C   UNL A   1      32.654  20.269  23.836  1.00  0.00     0.014 A 
ATOM     14  C   UNL A   1      35.248  20.079  24.906  1.00  0.00     0.011 A 
ATOM     15  C   UNL A   1      33.228  19.019  24.113  1.00  0.00     0.001 A 
ATOM     16  C   UNL A   1      34.513  18.924  24.663  1.00  0.00     0.001 A 
BRANCH   7  17
ATOM     17  C   UNL A   1      32.684  24.988  25.387  1.00  0.00     0.197 C 
ATOM     18  C   UNL A   1      33.741  26.034  25.799  1.00  0.00     0.044 C 
BRANCH  17  19
ATOM     19  C   UNL A   1      31.443  25.153  26.291  1.00  0.00     0.249 C 
ATOM     20  O   UNL A   1      31.298  24.376  27.248  1.00  0.00    -0.272 OA
ATOM     21  N   UNL A   1      30.439  26.046  26.072  1.00  0.00    -0.324 N 
ATOM     22  H   UNL A   1      29.745  26.068  26.772  1.00  0.00     0.170 HD
BRANCH  21  23
ATOM     23  C   UNL A   1      30.233  26.935  25.016  1.00  0.00     0.041 A 
ATOM     24  C   UNL A   1      29.167  26.684  24.154  1.00  0.00     0.027 A 
ATOM     25  C   UNL A   1      30.995  28.085  24.840  1.00  0.00     0.027 A 
ATOM     26  C   UNL A   1      28.793  27.648  23.214  1.00  0.00     0.015 A 
ATOM     27  C   UNL A   1      30.601  29.069  23.941  1.00  0.00     0.015 A 
ATOM     28  C   UNL A   1      29.481  28.869  23.131  1.00  0.00     0.056 A 
BRANCH  28  29
ATOM     29  C   UNL A   1      29.034  29.951  22.185  1.00  0.00     0.416 C 
ATOM     30  F   UNL A   1      28.715  31.103  22.833  1.00  0.00    -0.166 F 
ATOM     31  F   UNL A   1      29.989  30.281  21.271  1.00  0.00    -0.166 F 
ATOM     32  F   UNL A   1      27.931  29.610  21.460  1.00  0.00    -0.166 F 
ENDBRANCH  28  29
ENDBRANCH  21  23
ENDBRANCH  17  19
ENDBRANCH   7  17
ENDBRANCH   3   6
ENDBRANCH   1   2
BRANCH   1  33
ATOM     33  C   UNL A   1      39.220  22.621  26.360  1.00  0.00     0.023 C 
BRANCH  33  34
ATOM     34  C   UNL A   1      39.222  21.245  25.718  1.00  0.00     0.023 C 
BRANCH  34  35
ATOM     35  C   UNL A   1      39.792  20.183  26.641  1.00  0.00     0.116 C 
BRANCH  35  36
ATOM     36  N   UNL A   1      40.858  19.415  26.017  1.00  0.00    -0.352 N 
ATOM     37  C   UNL A   1      42.149  19.819  25.798  1.00  0.00     0.251 C 
ATOM     38  H   UNL A   1      40.626  18.504  25.720  1.00  0.00     0.163 HD
ATOM     39  O   UNL A   1      42.901  19.179  25.074  1.00  0.00    -0.269 OA
BRANCH  37  40
ATOM     40  C   UNL A   1      42.593  21.077  26.423  1.00  0.00     0.039 A 
ATOM     41  C   UNL A   1      42.901  22.155  25.599  1.00  0.00     0.014 A 
ATOM     42  C   UNL A   1      42.611  21.211  27.817  1.00  0.00     0.014 A 
ATOM     43  C   UNL A   1      43.197  23.382  26.181  1.00  0.00     0.010 A 
ATOM     44  C   UNL A   1      42.762  22.467  28.383  1.00  0.00     0.010 A 
ATOM     45  C   UNL A   1      43.086  23.561  27.574  1.00  0.00    -0.014 A 
BRANCH  45  46
ATOM     46  C   UNL A   1      43.306  24.900  28.166  1.00  0.00     0.031 A 
ATOM     47  C   UNL A   1      44.693  25.382  28.481  1.00  0.00     0.074 A 
ATOM     48  C   UNL A   1      42.242  25.690  28.405  1.00  0.00     0.049 A 
ATOM     49  N   UNL A   1      45.077  26.564  28.892  1.00  0.00    -0.248 NA
ATOM     50  C   UNL A   1      45.792  24.414  28.336  1.00  0.00     0.031 C 
ATOM     51  C   UNL A   1      40.844  25.311  28.187  1.00  0.00     0.029 A 
ATOM     52  N   UNL A   1      42.170  26.984  28.849  1.00  0.00    -0.354 N 
ATOM     53  C   UNL A   1      46.454  26.480  29.051  1.00  0.00     0.074 A 
ATOM     54  C   UNL A   1      46.829  25.115  28.762  1.00  0.00     0.031 C 
ATOM     55  C   UNL A   1      40.061  26.375  28.416  1.00  0.00     0.029 A 
ATOM     56  C   UNL A   1      40.892  27.486  28.861  1.00  0.00     0.049 A 
ATOM     57  H   UNL A   1      42.958  27.504  29.130  1.00  0.00     0.167 HD
ATOM     58  C   UNL A   1      47.327  27.458  29.390  1.00  0.00     0.037 A 
ATOM     59  C   UNL A   1      40.440  28.709  29.193  1.00  0.00     0.037 A 
ATOM     60  C   UNL A   1      46.939  28.811  29.693  1.00  0.00     0.049 A 
ATOM     61  C   UNL A   1      41.427  29.759  29.614  1.00  0.00     0.074 A 
ATOM     62  C   UNL A   1      47.750  29.889  30.000  1.00  0.00     0.029 A 
ATOM     63  N   UNL A   1      45.629  29.266  29.760  1.00  0.00    -0.354 N 
ATOM     64  N   UNL A   1      42.735  29.692  29.677  1.00  0.00    -0.248 NA
ATOM     65  C   UNL A   1      40.869  31.060  29.999  1.00  0.00     0.031 C 
ATOM     66  C   UNL A   1      46.931  30.964  30.357  1.00  0.00     0.029 A 
ATOM     67  C   UNL A   1      45.610  30.595  30.159  1.00  0.00     0.049 A 
ATOM     68  H   UNL A   1      44.832  28.726  29.555  1.00  0.00     0.167 HD
ATOM     69  C   UNL A   1      43.160  30.953  30.075  1.00  0.00     0.074 A 
ATOM     70  C   UNL A   1      41.969  31.768  30.204  1.00  0.00     0.031 C 
ATOM     71  C   UNL A   1      44.421  31.397  30.306  1.00  0.00     0.037 A 
BRANCH  58  72
ATOM     72  C   UNL A   1      48.781  27.084  29.496  1.00  0.00     0.057 A 
ATOM     73  C   UNL A   1      49.345  26.581  30.677  1.00  0.00     0.134 A 
ATOM     74  C   UNL A   1      49.627  27.219  28.388  1.00  0.00     0.134 A 
ATOM     75  F   UNL A   1      48.597  26.427  31.780  1.00  0.00    -0.206 F 
ATOM     76  C   UNL A   1      50.706  26.278  30.766  1.00  0.00     0.040 A 
ATOM     77  C   UNL A   1      50.978  26.875  28.451  1.00  0.00     0.040 A 
ATOM     78  F   UNL A   1      49.156  27.681  27.220  1.00  0.00    -0.206 F 
ATOM     79  C   UNL A   1      51.525  26.420  29.649  1.00  0.00     0.006 A 
ENDBRANCH  58  72
BRANCH  59  80
ATOM     80  C   UNL A   1      38.987  29.012  29.119  1.00  0.00     0.057 A 
ATOM     81  C   UNL A   1      38.388  29.402  27.915  1.00  0.00     0.134 A 
ATOM     82  C   UNL A   1      38.168  28.943  30.254  1.00  0.00     0.134 A 
ATOM     83  F   UNL A   1      39.120  29.501  26.797  1.00  0.00    -0.206 F 
ATOM     84  C   UNL A   1      37.036  29.743  27.848  1.00  0.00     0.040 A 
ATOM     85  C   UNL A   1      36.808  29.242  30.192  1.00  0.00     0.040 A 
ATOM     86  F   UNL A   1      38.677  28.566  31.436  1.00  0.00    -0.206 F 
ATOM     87  C   UNL A   1      36.241  29.658  28.990  1.00  0.00     0.006 A 
ENDBRANCH  59  80
BRANCH  71  88
ATOM     88  C   UNL A   1      44.576  32.849  30.675  1.00  0.00     0.057 A 
ATOM     89  C   UNL A   1      44.586  33.291  32.007  1.00  0.00     0.134 A 
ATOM     90  C   UNL A   1      44.688  33.828  29.677  1.00  0.00     0.134 A 
ATOM     91  F   UNL A   1      44.488  32.412  33.016  1.00  0.00    -0.206 F 
ATOM     92  C   UNL A   1      44.616  34.649  32.326  1.00  0.00     0.040 A 
ATOM     93  C   UNL A   1      44.775  35.184  29.987  1.00  0.00     0.040 A 
ATOM     94  F   UNL A   1      44.712  33.483  28.381  1.00  0.00    -0.206 F 
ATOM     95  C   UNL A   1      44.712  35.601  31.314  1.00  0.00     0.006 A 
ENDBRANCH  71  88
ENDBRANCH  45  46
ENDBRANCH  37  40
ENDBRANCH  35  36
ENDBRANCH  34  35
ENDBRANCH  33  34
ENDBRANCH   1  33
TORSDOF 15
ENDMDL
MODEL 2
REMARK VINA RESULT:     -13.0      1.521      6.026
REMARK SMILES C[C@H](C(=O)Nc1ccc(C(F)(F)F)cc1)n1nc(C(=O)NCCCCNC(=O)c2ccc(-c3c4nc(c(-c5c(F)cccc5F)c5ccc([nH]5)c(-c5c(F)cccc5F)c5nc(c(-c6c(F)cccc6F)c6ccc3[nH]6)C=C5)C=C4)cc2)c2ccccc2c1=O
REMARK SMILES IDX 22 1 21 2 19 3 20 4 18 6 16 7 17 8 89 9 88 10 90 11 83 12
REMARK SMILES IDX 87 13 84 14 86 15 85 16 2 17 1 18 3 19 4 20 5 21 6 23 7 24
REMARK SMILES IDX 15 25 8 26 14 27 9 28 10 29 11 30 12 31 13 32 23 33 24 34
REMARK SMILES IDX 25 35 26 36 27 37 28 39 29 40 30 41 82 42 31 43 81 44 32 45
REMARK SMILES IDX 33 46 34 47 75 48 35 49 80 50 74 51 76 52 36 53 79 54 73 55
REMARK SMILES IDX 72 56 37 58 63 59 46 60 62 61 47 62 50 63 61 64 77 65 48 66
REMARK SMILES IDX 49 67 60 69 78 70 51 71 38 72 39 73 44 74 40 75 41 76 43 77
REMARK SMILES IDX 45 78 42 79 64 80 65 81 70 82 66 83 67 84 69 85 71 86 68 87
REMARK SMILES IDX 52 88 53 89 58 90 54 91 55 92 57 93 59 94 56 95
REMARK H PARENT 21 5 5 22 26 38 76 57 50 68
REMARK Flexibility Score: inf
ROOT
ATOM      1  C   UNL A   1      37.923  22.800  25.978  1.00  0.00     0.116 C 
ENDROOT
BRANCH   1   2
ATOM      2  N   UNL A   1      37.645  22.927  24.568  1.00  0.00    -0.351 N 
ATOM      3  C   UNL A   1      36.452  22.647  23.934  1.00  0.00     0.272 C 
ATOM      4  O   UNL A   1      36.339  22.775  22.722  1.00  0.00    -0.267 OA
ATOM      5  H   UNL A   1      38.382  23.246  23.998  1.00  0.00     0.163 HD
BRANCH   3   6
ATOM      6  C   UNL A   1      35.216  22.398  24.807  1.00  0.00     0.156 A 
ATOM      7  N   UNL A   1      33.237  23.524  25.114  1.00  0.00    -0.216 N 
ATOM      8  N   UNL A   1      34.622  23.393  25.408  1.00  0.00    -0.163 NA
ATOM      9  C   UNL A   1      32.722  22.720  24.058  1.00  0.00     0.275 A 
ATOM     10  C   UNL A   1      33.232  21.324  24.086  1.00  0.00     0.051 A 
ATOM     11  O   UNL A   1      31.913  23.068  23.215  1.00  0.00    -0.267 OA
ATOM     12  C   UNL A   1      34.514  21.152  24.567  1.00  0.00     0.020 A 
ATOM     13  C   UNL A   1      32.477  20.204  23.751  1.00  0.00     0.014 A 
ATOM     14  C   UNL A   1      35.062  19.896  24.815  1.00  0.00     0.011 A 
ATOM     15  C   UNL A   1      33.003  18.928  24.007  1.00  0.00     0.001 A 
ATOM     16  C   UNL A   1      34.283  18.775  24.554  1.00  0.00     0.001 A 
BRANCH   7  17
ATOM     17  C   UNL A   1      32.690  24.893  25.379  1.00  0.00     0.197 C 
ATOM     18  C   UNL A   1      33.789  25.895  25.789  1.00  0.00     0.044 C 
BRANCH  17  19
ATOM     19  C   UNL A   1      31.467  25.092  26.302  1.00  0.00     0.249 C 
ATOM     20  O   UNL A   1      31.313  24.317  27.259  1.00  0.00    -0.272 OA
ATOM     21  N   UNL A   1      30.488  26.015  26.099  1.00  0.00    -0.324 N 
ATOM     22  H   UNL A   1      29.806  26.056  26.809  1.00  0.00     0.170 HD
BRANCH  21  23
ATOM     23  C   UNL A   1      30.294  26.914  25.049  1.00  0.00     0.041 A 
ATOM     24  C   UNL A   1      29.252  26.657  24.160  1.00  0.00     0.027 A 
ATOM     25  C   UNL A   1      31.043  28.076  24.904  1.00  0.00     0.027 A 
ATOM     26  C   UNL A   1      28.886  27.626  23.221  1.00  0.00     0.015 A 
ATOM     27  C   UNL A   1      30.656  29.064  24.006  1.00  0.00     0.015 A 
ATOM     28  C   UNL A   1      29.557  28.857  23.168  1.00  0.00     0.056 A 
BRANCH  28  29
ATOM     29  C   UNL A   1      29.117  29.944  22.223  1.00  0.00     0.416 C 
ATOM     30  F   UNL A   1      30.049  30.205  21.269  1.00  0.00    -0.166 F 
ATOM     31  F   UNL A   1      27.969  29.632  21.559  1.00  0.00    -0.166 F 
ATOM     32  F   UNL A   1      28.873  31.131  22.846  1.00  0.00    -0.166 F 
ENDBRANCH  28  29
ENDBRANCH  21  23
ENDBRANCH  17  19
ENDBRANCH   7  17
ENDBRANCH   3   6
ENDBRANCH   1   2
BRANCH   1  33
ATOM     33  C   UNL A   1      39.416  22.570  26.217  1.00  0.00     0.023 C 
BRANCH  33  34
ATOM     34  C   UNL A   1      39.663  21.158  26.720  1.00  0.00     0.023 C 
BRANCH  34  35
ATOM     35  C   UNL A   1      39.818  20.166  25.583  1.00  0.00     0.116 C 
BRANCH  35  36
ATOM     36  N   UNL A   1      40.670  19.041  25.936  1.00  0.00    -0.352 N 
ATOM     37  C   UNL A   1      42.001  19.083  26.262  1.00  0.00     0.251 C 
ATOM     38  H   UNL A   1      40.245  18.153  25.940  1.00  0.00     0.163 HD
ATOM     39  O   UNL A   1      42.670  18.061  26.330  1.00  0.00    -0.269 OA
BRANCH  37  40
ATOM     40  C   UNL A   1      42.615  20.404  26.485  1.00  0.00     0.039 A 
ATOM     41  C   UNL A   1      43.027  21.138  25.378  1.00  0.00     0.014 A 
ATOM     42  C   UNL A   1      42.691  20.944  27.775  1.00  0.00     0.014 A 
ATOM     43  C   UNL A   1      43.489  22.436  25.568  1.00  0.00     0.010 A 
ATOM     44  C   UNL A   1      43.012  22.283  27.939  1.00  0.00     0.010 A 
ATOM     45  C   UNL A   1      43.443  23.035  26.842  1.00  0.00    -0.014 A 
BRANCH  45  46
ATOM     46  C   UNL A   1      43.843  24.451  27.007  1.00  0.00     0.031 A 
ATOM     47  C   UNL A   1      42.844  25.486  27.440  1.00  0.00     0.074 A 
ATOM     48  C   UNL A   1      45.124  24.797  26.782  1.00  0.00     0.049 A 
ATOM     49  N   UNL A   1      43.045  26.742  27.745  1.00  0.00    -0.248 NA
ATOM     50  C   UNL A   1      41.435  25.069  27.522  1.00  0.00     0.031 C 
ATOM     51  C   UNL A   1      46.173  23.889  26.311  1.00  0.00     0.029 A 
ATOM     52  N   UNL A   1      45.772  25.993  26.950  1.00  0.00    -0.354 N 
ATOM     53  C   UNL A   1      41.794  27.261  28.056  1.00  0.00     0.074 A 
ATOM     54  C   UNL A   1      40.833  26.204  27.834  1.00  0.00     0.031 C 
ATOM     55  C   UNL A   1      47.346  24.538  26.310  1.00  0.00     0.029 A 
ATOM     56  C   UNL A   1      47.122  25.921  26.712  1.00  0.00     0.049 A 
ATOM     57  H   UNL A   1      45.313  26.823  27.216  1.00  0.00     0.167 HD
ATOM     58  C   UNL A   1      41.480  28.499  28.504  1.00  0.00     0.037 A 
ATOM     59  C   UNL A   1      48.075  26.864  26.810  1.00  0.00     0.037 A 
ATOM     60  C   UNL A   1      42.445  29.549  28.704  1.00  0.00     0.049 A 
ATOM     61  C   UNL A   1      47.689  28.243  27.261  1.00  0.00     0.074 A 
ATOM     62  C   UNL A   1      42.237  30.824  29.200  1.00  0.00     0.029 A 
ATOM     63  N   UNL A   1      43.794  29.460  28.390  1.00  0.00    -0.354 N 
ATOM     64  N   UNL A   1      46.517  28.698  27.635  1.00  0.00    -0.248 NA
ATOM     65  C   UNL A   1      48.766  29.238  27.312  1.00  0.00     0.031 C 
ATOM     66  C   UNL A   1      43.432  31.538  29.085  1.00  0.00     0.029 A 
ATOM     67  C   UNL A   1      44.417  30.676  28.629  1.00  0.00     0.049 A 
ATOM     68  H   UNL A   1      44.242  28.653  28.048  1.00  0.00     0.167 HD
ATOM     69  C   UNL A   1      46.722  30.021  28.000  1.00  0.00     0.074 A 
ATOM     70  C   UNL A   1      48.138  30.280  27.832  1.00  0.00     0.031 C 
ATOM     71  C   UNL A   1      45.822  30.936  28.441  1.00  0.00     0.037 A 
BRANCH  58  72
ATOM     72  C   UNL A   1      40.028  28.796  28.760  1.00  0.00     0.057 A 
ATOM     73  C   UNL A   1      39.157  29.227  27.749  1.00  0.00     0.134 A 
ATOM     74  C   UNL A   1      39.489  28.634  30.043  1.00  0.00     0.134 A 
ATOM     75  F   UNL A   1      39.601  29.407  26.496  1.00  0.00    -0.206 F 
ATOM     76  C   UNL A   1      37.821  29.536  28.016  1.00  0.00     0.040 A 
ATOM     77  C   UNL A   1      38.145  28.895  30.313  1.00  0.00     0.040 A 
ATOM     78  F   UNL A   1      40.258  28.213  31.059  1.00  0.00    -0.206 F 
ATOM     79  C   UNL A   1      37.311  29.364  29.301  1.00  0.00     0.006 A 
ENDBRANCH  58  72
BRANCH  59  80
ATOM     80  C   UNL A   1      49.489  26.532  26.497  1.00  0.00     0.057 A 
ATOM     81  C   UNL A   1      50.017  26.739  25.216  1.00  0.00     0.134 A 
ATOM     82  C   UNL A   1      50.340  25.980  27.462  1.00  0.00     0.134 A 
ATOM     83  F   UNL A   1      49.249  27.251  24.244  1.00  0.00    -0.206 F 
ATOM     84  C   UNL A   1      51.327  26.378  24.897  1.00  0.00     0.040 A 
ATOM     85  C   UNL A   1      51.664  25.653  27.168  1.00  0.00     0.040 A 
ATOM     86  F   UNL A   1      49.901  25.767  28.711  1.00  0.00    -0.206 F 
ATOM     87  C   UNL A   1      52.156  25.838  25.878  1.00  0.00     0.006 A 
ENDBRANCH  59  80
BRANCH  71  88
ATOM     88  C   UNL A   1      46.358  32.292  28.819  1.00  0.00     0.057 A 
ATOM     89  C   UNL A   1      46.796  32.595  30.117  1.00  0.00     0.134 A 
ATOM     90  C   UNL A   1      46.409  33.325  27.872  1.00  0.00     0.134 A 
ATOM     91  F   UNL A   1      46.781  31.656  31.076  1.00  0.00    -0.206 F 
ATOM     92  C   UNL A   1      47.182  33.886  30.476  1.00  0.00     0.040 A 
ATOM     93  C   UNL A   1      46.847  34.606  28.206  1.00  0.00     0.040 A 
ATOM     94  F   UNL A   1      46.033  33.108  26.602  1.00  0.00    -0.206 F 
ATOM     95  C   UNL A   1      47.209  34.897  29.518  1.00  0.00     0.006 A 
ENDBRANCH  71  88
ENDBRANCH  45  46
ENDBRANCH  37  40
ENDBRANCH  35  36
ENDBRANCH  34  35
ENDBRANCH  33  34
ENDBRANCH   1  33
TORSDOF 15
ENDMDL
MODEL 3
REMARK VINA RESULT:     -12.9      4.152      5.581
REMARK SMILES C[C@H](C(=O)Nc1ccc(C(F)(F)F)cc1)n1nc(C(=O)NCCCCNC(=O)c2ccc(-c3c4nc(c(-c5c(F)cccc5F)c5ccc([nH]5)c(-c5c(F)cccc5F)c5nc(c(-c6c(F)cccc6F)c6ccc3[nH]6)C=C5)C=C4)cc2)c2ccccc2c1=O
REMARK SMILES IDX 22 1 21 2 19 3 20 4 18 6 16 7 17 8 89 9 88 10 90 11 83 12
REMARK SMILES IDX 87 13 84 14 86 15 85 16 2 17 1 18 3 19 4 20 5 21 6 23 7 24
REMARK SMILES IDX 15 25 8 26 14 27 9 28 10 29 11 30 12 31 13 32 23 33 24 34
REMARK SMILES IDX 25 35 26 36 27 37 28 39 29 40 30 41 82 42 31 43 81 44 32 45
REMARK SMILES IDX 33 46 34 47 75 48 35 49 80 50 74 51 76 52 36 53 79 54 73 55
REMARK SMILES IDX 72 56 37 58 63 59 46 60 62 61 47 62 50 63 61 64 77 65 48 66
REMARK SMILES IDX 49 67 60 69 78 70 51 71 38 72 39 73 44 74 40 75 41 76 43 77
REMARK SMILES IDX 45 78 42 79 64 80 65 81 70 82 66 83 67 84 69 85 71 86 68 87
REMARK SMILES IDX 52 88 53 89 58 90 54 91 55 92 57 93 59 94 56 95
REMARK H PARENT 21 5 5 22 26 38 76 57 50 68
REMARK Flexibility Score: inf
ROOT
ATOM      1  C   UNL A   1      38.049  22.260  25.790  1.00  0.00     0.116 C 
ENDROOT
BRANCH   1   2
ATOM      2  N   UNL A   1      37.706  22.671  24.450  1.00  0.00    -0.351 N 
ATOM      3  C   UNL A   1      36.451  22.651  23.879  1.00  0.00     0.272 C 
ATOM      4  O   UNL A   1      36.283  23.009  22.720  1.00  0.00    -0.267 OA
ATOM      5  H   UNL A   1      38.443  23.001  23.886  1.00  0.00     0.163 HD
BRANCH   3   6
ATOM      6  C   UNL A   1      35.248  22.392  24.794  1.00  0.00     0.156 A 
ATOM      7  N   UNL A   1      33.254  23.480  25.139  1.00  0.00    -0.216 N 
ATOM      8  N   UNL A   1      34.650  23.386  25.393  1.00  0.00    -0.163 NA
ATOM      9  C   UNL A   1      32.725  22.644  24.115  1.00  0.00     0.275 A 
ATOM     10  C   UNL A   1      33.267  21.261  24.155  1.00  0.00     0.051 A 
ATOM     11  O   UNL A   1      31.884  22.957  23.291  1.00  0.00    -0.267 OA
ATOM     12  C   UNL A   1      34.567  21.127  24.600  1.00  0.00     0.020 A 
ATOM     13  C   UNL A   1      32.529  20.118  23.866  1.00  0.00     0.014 A 
ATOM     14  C   UNL A   1      35.151  19.888  24.856  1.00  0.00     0.011 A 
ATOM     15  C   UNL A   1      33.091  18.859  24.131  1.00  0.00     0.001 A 
ATOM     16  C   UNL A   1      34.390  18.745  24.641  1.00  0.00     0.001 A 
BRANCH   7  17
ATOM     17  C   UNL A   1      32.685  24.842  25.394  1.00  0.00     0.197 C 
ATOM     18  C   UNL A   1      33.766  25.862  25.808  1.00  0.00     0.044 C 
BRANCH  17  19
ATOM     19  C   UNL A   1      31.452  25.027  26.305  1.00  0.00     0.249 C 
ATOM     20  O   UNL A   1      31.287  24.237  27.249  1.00  0.00    -0.272 OA
ATOM     21  N   UNL A   1      30.474  25.953  26.106  1.00  0.00    -0.324 N 
ATOM     22  H   UNL A   1      29.784  25.982  26.809  1.00  0.00     0.170 HD
BRANCH  21  23
ATOM     23  C   UNL A   1      30.291  26.867  25.067  1.00  0.00     0.041 A 
ATOM     24  C   UNL A   1      29.265  26.618  24.157  1.00  0.00     0.027 A 
ATOM     25  C   UNL A   1      31.036  28.035  24.952  1.00  0.00     0.027 A 
ATOM     26  C   UNL A   1      28.908  27.600  23.229  1.00  0.00     0.015 A 
ATOM     27  C   UNL A   1      30.657  29.035  24.064  1.00  0.00     0.015 A 
ATOM     28  C   UNL A   1      29.573  28.836  23.206  1.00  0.00     0.056 A 
BRANCH  28  29
ATOM     29  C   UNL A   1      29.141  29.935  22.272  1.00  0.00     0.416 C 
ATOM     30  F   UNL A   1      27.974  29.644  21.638  1.00  0.00    -0.166 F 
ATOM     31  F   UNL A   1      28.941  31.122  22.910  1.00  0.00    -0.166 F 
ATOM     32  F   UNL A   1      30.049  30.193  21.289  1.00  0.00    -0.166 F 
ENDBRANCH  28  29
ENDBRANCH  21  23
ENDBRANCH  17  19
ENDBRANCH   7  17
ENDBRANCH   3   6
ENDBRANCH   1   2
BRANCH   1  33
ATOM     33  C   UNL A   1      39.265  21.331  25.777  1.00  0.00     0.023 C 
BRANCH  33  34
ATOM     34  C   UNL A   1      40.315  21.816  26.761  1.00  0.00     0.023 C 
BRANCH  34  35
ATOM     35  C   UNL A   1      40.260  23.318  26.963  1.00  0.00     0.116 C 
BRANCH  35  36
ATOM     36  N   UNL A   1      41.005  24.046  25.947  1.00  0.00    -0.352 N 
ATOM     37  C   UNL A   1      41.401  25.357  25.994  1.00  0.00     0.251 C 
ATOM     38  H   UNL A   1      41.250  23.541  25.138  1.00  0.00     0.163 HD
ATOM     39  O   UNL A   1      41.831  25.926  24.999  1.00  0.00    -0.269 OA
BRANCH  37  40
ATOM     40  C   UNL A   1      41.253  26.078  27.271  1.00  0.00     0.039 A 
ATOM     41  C   UNL A   1      42.107  27.144  27.533  1.00  0.00     0.014 A 
ATOM     42  C   UNL A   1      40.215  25.755  28.153  1.00  0.00     0.014 A 
ATOM     43  C   UNL A   1      41.893  27.910  28.673  1.00  0.00     0.010 A 
ATOM     44  C   UNL A   1      39.919  26.608  29.205  1.00  0.00     0.010 A 
ATOM     45  C   UNL A   1      40.773  27.678  29.494  1.00  0.00    -0.014 A 
BRANCH  45  46
ATOM     46  C   UNL A   1      40.505  28.567  30.647  1.00  0.00     0.031 A 
ATOM     47  C   UNL A   1      41.345  28.488  31.890  1.00  0.00     0.074 A 
ATOM     48  C   UNL A   1      39.505  29.464  30.560  1.00  0.00     0.049 A 
ATOM     49  N   UNL A   1      41.325  29.263  32.944  1.00  0.00    -0.248 NA
ATOM     50  C   UNL A   1      42.319  27.388  31.975  1.00  0.00     0.031 C 
ATOM     51  C   UNL A   1      38.591  29.601  29.424  1.00  0.00     0.029 A 
ATOM     52  N   UNL A   1      39.111  30.453  31.424  1.00  0.00    -0.354 N 
ATOM     53  C   UNL A   1      42.281  28.748  33.810  1.00  0.00     0.074 A 
ATOM     54  C   UNL A   1      42.810  27.554  33.192  1.00  0.00     0.031 C 
ATOM     55  C   UNL A   1      37.800  30.665  29.623  1.00  0.00     0.029 A 
ATOM     56  C   UNL A   1      38.104  31.242  30.926  1.00  0.00     0.049 A 
ATOM     57  H   UNL A   1      39.511  30.584  32.313  1.00  0.00     0.167 HD
ATOM     58  C   UNL A   1      42.691  29.237  35.004  1.00  0.00     0.037 A 
ATOM     59  C   UNL A   1      37.494  32.315  31.460  1.00  0.00     0.037 A 
ATOM     60  C   UNL A   1      42.142  30.419  35.619  1.00  0.00     0.049 A 
ATOM     61  C   UNL A   1      37.936  32.806  32.809  1.00  0.00     0.074 A 
ATOM     62  C   UNL A   1      42.521  31.026  36.803  1.00  0.00     0.029 A 
ATOM     63  N   UNL A   1      41.078  31.156  35.116  1.00  0.00    -0.354 N 
ATOM     64  N   UNL A   1      38.898  32.361  33.580  1.00  0.00    -0.248 NA
ATOM     65  C   UNL A   1      37.207  33.956  33.354  1.00  0.00     0.031 C 
ATOM     66  C   UNL A   1      41.621  32.060  37.071  1.00  0.00     0.029 A 
ATOM     67  C   UNL A   1      40.753  32.176  35.997  1.00  0.00     0.049 A 
ATOM     68  H   UNL A   1      40.623  30.979  34.262  1.00  0.00     0.167 HD
ATOM     69  C   UNL A   1      38.916  33.201  34.686  1.00  0.00     0.074 A 
ATOM     70  C   UNL A   1      37.888  34.197  34.464  1.00  0.00     0.031 C 
ATOM     71  C   UNL A   1      39.715  33.154  35.782  1.00  0.00     0.037 A 
BRANCH  58  72
ATOM     72  C   UNL A   1      43.750  28.467  35.743  1.00  0.00     0.057 A 
ATOM     73  C   UNL A   1      45.119  28.726  35.585  1.00  0.00     0.134 A 
ATOM     74  C   UNL A   1      43.389  27.453  36.641  1.00  0.00     0.134 A 
ATOM     75  F   UNL A   1      45.541  29.679  34.740  1.00  0.00    -0.206 F 
ATOM     76  C   UNL A   1      46.088  27.971  36.251  1.00  0.00     0.040 A 
ATOM     77  C   UNL A   1      44.347  26.725  37.347  1.00  0.00     0.040 A 
ATOM     78  F   UNL A   1      42.098  27.158  36.854  1.00  0.00    -0.206 F 
ATOM     79  C   UNL A   1      45.702  26.972  37.139  1.00  0.00     0.006 A 
ENDBRANCH  58  72
BRANCH  59  80
ATOM     80  C   UNL A   1      36.417  33.012  30.710  1.00  0.00     0.057 A 
ATOM     81  C   UNL A   1      36.715  33.888  29.659  1.00  0.00     0.134 A 
ATOM     82  C   UNL A   1      35.067  32.837  31.040  1.00  0.00     0.134 A 
ATOM     83  F   UNL A   1      37.989  34.109  29.304  1.00  0.00    -0.206 F 
ATOM     84  C   UNL A   1      35.713  34.590  28.986  1.00  0.00     0.040 A 
ATOM     85  C   UNL A   1      34.054  33.501  30.349  1.00  0.00     0.040 A 
ATOM     86  F   UNL A   1      34.713  32.004  32.029  1.00  0.00    -0.206 F 
ATOM     87  C   UNL A   1      34.377  34.392  29.328  1.00  0.00     0.006 A 
ENDBRANCH  59  80
BRANCH  71  88
ATOM     88  C   UNL A   1      39.536  34.247  36.803  1.00  0.00     0.057 A 
ATOM     89  C   UNL A   1      40.142  35.506  36.673  1.00  0.00     0.134 A 
ATOM     90  C   UNL A   1      38.766  34.026  37.954  1.00  0.00     0.134 A 
ATOM     91  F   UNL A   1      40.889  35.794  35.596  1.00  0.00    -0.206 F 
ATOM     92  C   UNL A   1      40.057  36.466  37.682  1.00  0.00     0.040 A 
ATOM     93  C   UNL A   1      38.629  34.998  38.943  1.00  0.00     0.040 A 
ATOM     94  F   UNL A   1      38.133  32.857  38.138  1.00  0.00    -0.206 F 
ATOM     95  C   UNL A   1      39.297  36.213  38.822  1.00  0.00     0.006 A 
ENDBRANCH  71  88
ENDBRANCH  45  46
ENDBRANCH  37  40
ENDBRANCH  35  36
ENDBRANCH  34  35
ENDBRANCH  33  34
ENDBRANCH   1  33
TORSDOF 15
ENDMDL
