MODEL 1
REMARK VINA RESULT:     -11.9      0.000      0.000
REMARK SMILES O=C(NCCCCNC(=O)[C@H]1Cc2[nH]cnc2CN1C(=O)N1CCC[C@H](O)C1)c1ccc(-c2c3nc(c(-c4c(F)cccc4F)c4ccc([nH]4)c(-c4c(F)cccc4F)c4nc(c(-c5c(F)cccc5F)c5ccc2[nH]5)C=C4)C=C3)cc1
REMARK SMILES IDX 6 1 5 2 4 3 3 4 1 5 2 6 29 8 30 9 82 10 31 11 81 12 32 13
REMARK SMILES IDX 33 14 34 15 75 16 35 17 80 18 74 19 76 20 36 21 79 22 73 23
REMARK SMILES IDX 72 24 37 26 63 27 46 28 62 29 47 30 50 31 61 32 77 33 48 34
REMARK SMILES IDX 49 35 60 37 78 38 51 39 38 40 39 41 44 42 40 43 41 44 43 45
REMARK SMILES IDX 45 46 42 47 64 48 65 49 70 50 66 51 67 52 69 53 71 54 68 55
REMARK SMILES IDX 52 56 53 57 58 58 54 59 55 60 57 61 59 62 56 63 7 64 8 65
REMARK SMILES IDX 9 66 10 68 11 69 12 70 19 71 13 72 18 73 14 74 17 75 15 76
REMARK SMILES IDX 16 78 20 79 21 80 22 81 23 82 28 83 24 84 26 85 25 86 27 87
REMARK H PARENT 3 7 76 25 50 36 8 67 14 77 27 88
REMARK Flexibility Score: inf
ROOT
ATOM      1  C   UNL A   1      38.582  22.027  25.970  1.00  0.00     0.023 C 
ENDROOT
BRANCH   1   2
ATOM      2  C   UNL A   1      38.476  20.662  25.237  1.00  0.00     0.023 C 
BRANCH   2   3
ATOM      3  C   UNL A   1      39.075  19.332  25.719  1.00  0.00     0.116 C 
BRANCH   3   4
ATOM      4  N   UNL A   1      40.406  18.918  25.337  1.00  0.00    -0.352 N 
ATOM      5  O   UNL A   1      42.545  18.385  25.853  1.00  0.00    -0.269 OA
ATOM      6  C   UNL A   1      41.593  19.156  25.985  1.00  0.00     0.251 C 
ATOM      7  H   UNL A   1      40.470  18.394  24.506  1.00  0.00     0.163 HD
BRANCH   6   8
ATOM      8  C   UNL A   1      41.796  20.423  26.699  1.00  0.00     0.039 A 
ATOM      9  C   UNL A   1      41.341  20.665  27.995  1.00  0.00     0.014 A 
ATOM     10  C   UNL A   1      42.478  21.412  25.981  1.00  0.00     0.014 A 
ATOM     11  C   UNL A   1      41.422  21.952  28.506  1.00  0.00     0.010 A 
ATOM     12  C   UNL A   1      42.609  22.682  26.513  1.00  0.00     0.010 A 
ATOM     13  C   UNL A   1      42.039  22.965  27.755  1.00  0.00    -0.014 A 
BRANCH  13  14
ATOM     14  C   UNL A   1      42.297  24.242  28.417  1.00  0.00     0.031 A 
ATOM     15  C   UNL A   1      41.215  25.249  28.186  1.00  0.00     0.074 A 
ATOM     16  C   UNL A   1      43.296  24.454  29.299  1.00  0.00     0.049 A 
ATOM     17  N   UNL A   1      41.313  26.427  27.665  1.00  0.00    -0.248 NA
ATOM     18  C   UNL A   1      39.825  24.824  28.443  1.00  0.00     0.031 C 
ATOM     19  C   UNL A   1      44.236  23.472  29.846  1.00  0.00     0.029 A 
ATOM     20  N   UNL A   1      43.611  25.588  29.987  1.00  0.00    -0.354 N 
ATOM     21  C   UNL A   1      40.027  26.967  27.697  1.00  0.00     0.074 A 
ATOM     22  C   UNL A   1      39.138  25.888  28.032  1.00  0.00     0.031 C 
ATOM     23  C   UNL A   1      44.845  23.995  30.935  1.00  0.00     0.029 A 
ATOM     24  C   UNL A   1      44.438  25.382  31.087  1.00  0.00     0.049 A 
ATOM     25  H   UNL A   1      43.283  26.479  29.725  1.00  0.00     0.167 HD
ATOM     26  C   UNL A   1      39.820  28.312  27.670  1.00  0.00     0.037 A 
ATOM     27  C   UNL A   1      44.709  26.268  32.080  1.00  0.00     0.037 A 
ATOM     28  C   UNL A   1      40.963  29.002  27.134  1.00  0.00     0.049 A 
ATOM     29  C   UNL A   1      44.335  27.618  31.596  1.00  0.00     0.074 A 
ATOM     30  C   UNL A   1      41.636  28.979  25.928  1.00  0.00     0.029 A 
ATOM     31  N   UNL A   1      41.803  29.631  28.017  1.00  0.00    -0.354 N 
ATOM     32  N   UNL A   1      44.978  28.266  30.667  1.00  0.00    -0.248 NA
ATOM     33  C   UNL A   1      42.975  28.071  31.848  1.00  0.00     0.031 C 
ATOM     34  C   UNL A   1      43.010  29.141  26.271  1.00  0.00     0.029 A 
ATOM     35  C   UNL A   1      43.085  29.317  27.652  1.00  0.00     0.049 A 
ATOM     36  H   UNL A   1      41.535  30.201  28.773  1.00  0.00     0.167 HD
ATOM     37  C   UNL A   1      43.985  28.883  29.924  1.00  0.00     0.074 A 
ATOM     38  C   UNL A   1      42.783  28.805  30.751  1.00  0.00     0.031 C 
ATOM     39  C   UNL A   1      44.162  29.142  28.596  1.00  0.00     0.037 A 
BRANCH  26  40
ATOM     40  C   UNL A   1      38.763  29.019  28.490  1.00  0.00     0.057 A 
ATOM     41  C   UNL A   1      38.676  28.752  29.870  1.00  0.00     0.134 A 
ATOM     42  C   UNL A   1      37.648  29.689  27.945  1.00  0.00     0.134 A 
ATOM     43  F   UNL A   1      39.668  28.116  30.513  1.00  0.00    -0.206 F 
ATOM     44  C   UNL A   1      37.531  29.040  30.623  1.00  0.00     0.040 A 
ATOM     45  C   UNL A   1      36.521  30.027  28.699  1.00  0.00     0.040 A 
ATOM     46  F   UNL A   1      37.537  29.967  26.642  1.00  0.00    -0.206 F 
ATOM     47  C   UNL A   1      36.442  29.669  30.034  1.00  0.00     0.006 A 
ENDBRANCH  26  40
BRANCH  27  48
ATOM     48  C   UNL A   1      44.992  26.021  33.515  1.00  0.00     0.057 A 
ATOM     49  C   UNL A   1      43.963  25.697  34.414  1.00  0.00     0.134 A 
ATOM     50  C   UNL A   1      46.302  25.811  33.981  1.00  0.00     0.134 A 
ATOM     51  F   UNL A   1      42.678  25.823  34.052  1.00  0.00    -0.206 F 
ATOM     52  C   UNL A   1      44.219  25.167  35.686  1.00  0.00     0.040 A 
ATOM     53  C   UNL A   1      46.571  25.290  35.251  1.00  0.00     0.040 A 
ATOM     54  F   UNL A   1      47.361  26.016  33.185  1.00  0.00    -0.206 F 
ATOM     55  C   UNL A   1      45.528  24.951  36.104  1.00  0.00     0.006 A 
ENDBRANCH  27  48
BRANCH  39  56
ATOM     56  C   UNL A   1      45.545  28.999  28.026  1.00  0.00     0.057 A 
ATOM     57  C   UNL A   1      46.520  30.008  28.049  1.00  0.00     0.134 A 
ATOM     58  C   UNL A   1      45.948  27.738  27.571  1.00  0.00     0.134 A 
ATOM     59  F   UNL A   1      46.261  31.218  28.558  1.00  0.00    -0.206 F 
ATOM     60  C   UNL A   1      47.825  29.779  27.598  1.00  0.00     0.040 A 
ATOM     61  C   UNL A   1      47.256  27.487  27.155  1.00  0.00     0.040 A 
ATOM     62  F   UNL A   1      45.083  26.711  27.573  1.00  0.00    -0.206 F 
ATOM     63  C   UNL A   1      48.197  28.513  27.157  1.00  0.00     0.006 A 
ENDBRANCH  39  56
ENDBRANCH  13  14
ENDBRANCH   6   8
ENDBRANCH   3   4
ENDBRANCH   2   3
ENDBRANCH   1   2
BRANCH   1  64
ATOM     64  C   UNL A   1      37.684  23.279  25.745  1.00  0.00     0.116 C 
BRANCH  64  65
ATOM     65  N   UNL A   1      36.397  23.309  26.429  1.00  0.00    -0.354 N 
ATOM     66  C   UNL A   1      35.187  22.724  26.149  1.00  0.00     0.243 C 
ATOM     67  H   UNL A   1      36.395  23.854  27.248  1.00  0.00     0.163 HD
ATOM     68  O   UNL A   1      34.232  22.985  26.896  1.00  0.00    -0.273 OA
BRANCH  66  69
ATOM     69  C   UNL A   1      34.895  21.953  24.852  1.00  0.00     0.182 C 
ATOM     70  C   UNL A   1      35.011  20.466  25.305  1.00  0.00     0.091 C 
ATOM     71  N   UNL A   1      33.698  22.415  24.099  1.00  0.00    -0.306 N 
ATOM     72  C   UNL A   1      33.874  19.664  24.862  1.00  0.00     0.042 A 
ATOM     73  C   UNL A   1      32.769  21.448  23.458  1.00  0.00     0.180 C 
ATOM     74  N   UNL A   1      33.597  18.375  25.203  1.00  0.00    -0.348 N 
ATOM     75  C   UNL A   1      32.857  20.088  24.055  1.00  0.00     0.081 A 
ATOM     76  C   UNL A   1      32.422  18.054  24.577  1.00  0.00     0.197 A 
ATOM     77  H   UNL A   1      34.134  17.788  25.784  1.00  0.00     0.167 HD
ATOM     78  N   UNL A   1      31.954  19.066  23.874  1.00  0.00    -0.240 NA
BRANCH  71  79
ATOM     79  C   UNL A   1      33.611  23.744  23.649  1.00  0.00     0.321 C 
ATOM     80  O   UNL A   1      33.829  24.070  22.485  1.00  0.00    -0.248 OA
BRANCH  79  81
ATOM     81  N   UNL A   1      33.117  24.663  24.581  1.00  0.00    -0.322 N 
ATOM     82  C   UNL A   1      33.605  26.025  24.568  1.00  0.00     0.121 C 
ATOM     83  C   UNL A   1      31.685  24.632  24.798  1.00  0.00     0.153 C 
ATOM     84  C   UNL A   1      33.286  26.722  25.896  1.00  0.00     0.024 C 
ATOM     85  C   UNL A   1      31.196  25.273  26.118  1.00  0.00     0.134 C 
ATOM     86  C   UNL A   1      31.811  26.647  26.314  1.00  0.00     0.035 C 
BRANCH  85  87
ATOM     87  O   UNL A   1      31.430  24.448  27.255  1.00  0.00    -0.391 OA
ATOM     88  H   UNL A   1      31.836  23.613  26.972  1.00  0.00     0.211 HD
ENDBRANCH  85  87
ENDBRANCH  79  81
ENDBRANCH  71  79
ENDBRANCH  66  69
ENDBRANCH  64  65
ENDBRANCH   1  64
TORSDOF 14
ENDMDL
MODEL 2
REMARK VINA RESULT:     -11.8      2.901      7.480
REMARK SMILES O=C(NCCCCNC(=O)[C@H]1Cc2[nH]cnc2CN1C(=O)N1CCC[C@H](O)C1)c1ccc(-c2c3nc(c(-c4c(F)cccc4F)c4ccc([nH]4)c(-c4c(F)cccc4F)c4nc(c(-c5c(F)cccc5F)c5ccc2[nH]5)C=C4)C=C3)cc1
REMARK SMILES IDX 6 1 5 2 4 3 3 4 1 5 2 6 29 8 30 9 82 10 31 11 81 12 32 13
REMARK SMILES IDX 33 14 34 15 75 16 35 17 80 18 74 19 76 20 36 21 79 22 73 23
REMARK SMILES IDX 72 24 37 26 63 27 46 28 62 29 47 30 50 31 61 32 77 33 48 34
REMARK SMILES IDX 49 35 60 37 78 38 51 39 38 40 39 41 44 42 40 43 41 44 43 45
REMARK SMILES IDX 45 46 42 47 64 48 65 49 70 50 66 51 67 52 69 53 71 54 68 55
REMARK SMILES IDX 52 56 53 57 58 58 54 59 55 60 57 61 59 62 56 63 7 64 8 65
REMARK SMILES IDX 9 66 10 68 11 69 12 70 19 71 13 72 18 73 14 74 17 75 15 76
REMARK SMILES IDX 16 78 20 79 21 80 22 81 23 82 28 83 24 84 26 85 25 86 27 87
REMARK H PARENT 3 7 76 25 50 36 8 67 14 77 27 88
REMARK Flexibility Score: inf
ROOT
ATOM      1  C   UNL A   1      33.138  27.897  26.426  1.00  0.00     0.023 C 
ENDROOT
BRANCH   1   2
ATOM      2  C   UNL A   1      34.027  28.888  27.227  1.00  0.00     0.023 C 
BRANCH   2   3
ATOM      3  C   UNL A   1      33.941  30.420  27.173  1.00  0.00     0.116 C 
BRANCH   3   4
ATOM      4  N   UNL A   1      33.898  31.220  28.376  1.00  0.00    -0.352 N 
ATOM      5  O   UNL A   1      34.800  32.756  29.775  1.00  0.00    -0.269 OA
ATOM      6  C   UNL A   1      34.947  31.739  29.095  1.00  0.00     0.251 C 
ATOM      7  H   UNL A   1      33.000  31.420  28.726  1.00  0.00     0.163 HD
BRANCH   6   8
ATOM      8  C   UNL A   1      36.205  30.988  29.201  1.00  0.00     0.039 A 
ATOM      9  C   UNL A   1      36.277  29.642  29.558  1.00  0.00     0.014 A 
ATOM     10  C   UNL A   1      37.365  31.722  28.932  1.00  0.00     0.014 A 
ATOM     11  C   UNL A   1      37.519  29.079  29.809  1.00  0.00     0.010 A 
ATOM     12  C   UNL A   1      38.607  31.145  29.128  1.00  0.00     0.010 A 
ATOM     13  C   UNL A   1      38.684  29.838  29.613  1.00  0.00    -0.014 A 
BRANCH  13  14
ATOM     14  C   UNL A   1      39.968  29.144  29.676  1.00  0.00     0.031 A 
ATOM     15  C   UNL A   1      40.465  28.960  31.074  1.00  0.00     0.074 A 
ATOM     16  C   UNL A   1      40.568  28.556  28.620  1.00  0.00     0.049 A 
ATOM     17  N   UNL A   1      41.580  29.363  31.590  1.00  0.00    -0.248 NA
ATOM     18  C   UNL A   1      39.531  28.376  32.056  1.00  0.00     0.031 C 
ATOM     19  C   UNL A   1      40.043  28.396  27.261  1.00  0.00     0.029 A 
ATOM     20  N   UNL A   1      41.744  27.868  28.570  1.00  0.00    -0.354 N 
ATOM     21  C   UNL A   1      41.571  28.920  32.912  1.00  0.00     0.074 A 
ATOM     22  C   UNL A   1      40.233  28.467  33.184  1.00  0.00     0.031 C 
ATOM     23  C   UNL A   1      40.778  27.470  26.604  1.00  0.00     0.029 A 
ATOM     24  C   UNL A   1      41.895  27.067  27.443  1.00  0.00     0.049 A 
ATOM     25  H   UNL A   1      42.430  27.934  29.274  1.00  0.00     0.167 HD
ATOM     26  C   UNL A   1      42.725  28.748  33.613  1.00  0.00     0.037 A 
ATOM     27  C   UNL A   1      42.829  26.101  27.248  1.00  0.00     0.037 A 
ATOM     28  C   UNL A   1      43.802  29.505  33.030  1.00  0.00     0.049 A 
ATOM     29  C   UNL A   1      43.917  26.319  28.231  1.00  0.00     0.074 A 
ATOM     30  C   UNL A   1      44.029  30.846  32.788  1.00  0.00     0.029 A 
ATOM     31  N   UNL A   1      44.723  28.828  32.272  1.00  0.00    -0.354 N 
ATOM     32  N   UNL A   1      44.753  27.317  28.188  1.00  0.00    -0.248 NA
ATOM     33  C   UNL A   1      43.802  25.655  29.521  1.00  0.00     0.031 C 
ATOM     34  C   UNL A   1      44.723  30.881  31.543  1.00  0.00     0.029 A 
ATOM     35  C   UNL A   1      44.933  29.564  31.136  1.00  0.00     0.049 A 
ATOM     36  H   UNL A   1      45.152  27.972  32.501  1.00  0.00     0.167 HD
ATOM     37  C   UNL A   1      44.919  27.688  29.512  1.00  0.00     0.074 A 
ATOM     38  C   UNL A   1      44.386  26.573  30.292  1.00  0.00     0.031 C 
ATOM     39  C   UNL A   1      45.209  28.979  29.847  1.00  0.00     0.037 A 
BRANCH  26  40
ATOM     40  C   UNL A   1      42.970  27.599  34.566  1.00  0.00     0.057 A 
ATOM     41  C   UNL A   1      43.156  26.305  34.042  1.00  0.00     0.134 A 
ATOM     42  C   UNL A   1      42.720  27.648  35.952  1.00  0.00     0.134 A 
ATOM     43  F   UNL A   1      43.398  26.117  32.736  1.00  0.00    -0.206 F 
ATOM     44  C   UNL A   1      43.006  25.149  34.819  1.00  0.00     0.040 A 
ATOM     45  C   UNL A   1      42.618  26.502  36.747  1.00  0.00     0.040 A 
ATOM     46  F   UNL A   1      42.461  28.787  36.602  1.00  0.00    -0.206 F 
ATOM     47  C   UNL A   1      42.723  25.245  36.175  1.00  0.00     0.006 A 
ENDBRANCH  26  40
BRANCH  27  48
ATOM     48  C   UNL A   1      42.733  24.834  26.482  1.00  0.00     0.057 A 
ATOM     49  C   UNL A   1      43.583  24.575  25.394  1.00  0.00     0.134 A 
ATOM     50  C   UNL A   1      42.010  23.732  26.972  1.00  0.00     0.134 A 
ATOM     51  F   UNL A   1      44.345  25.550  24.879  1.00  0.00    -0.206 F 
ATOM     52  C   UNL A   1      43.730  23.293  24.848  1.00  0.00     0.040 A 
ATOM     53  C   UNL A   1      42.142  22.449  26.430  1.00  0.00     0.040 A 
ATOM     54  F   UNL A   1      41.224  23.844  28.052  1.00  0.00    -0.206 F 
ATOM     55  C   UNL A   1      43.016  22.221  25.375  1.00  0.00     0.006 A 
ENDBRANCH  27  48
BRANCH  39  56
ATOM     56  C   UNL A   1      45.614  29.920  28.749  1.00  0.00     0.057 A 
ATOM     57  C   UNL A   1      46.924  30.059  28.265  1.00  0.00     0.134 A 
ATOM     58  C   UNL A   1      44.607  30.603  28.055  1.00  0.00     0.134 A 
ATOM     59  F   UNL A   1      47.940  29.369  28.797  1.00  0.00    -0.206 F 
ATOM     60  C   UNL A   1      47.220  30.875  27.168  1.00  0.00     0.040 A 
ATOM     61  C   UNL A   1      44.885  31.389  26.937  1.00  0.00     0.040 A 
ATOM     62  F   UNL A   1      43.324  30.474  28.428  1.00  0.00    -0.206 F 
ATOM     63  C   UNL A   1      46.197  31.536  26.496  1.00  0.00     0.006 A 
ENDBRANCH  39  56
ENDBRANCH  13  14
ENDBRANCH   6   8
ENDBRANCH   3   4
ENDBRANCH   2   3
ENDBRANCH   1   2
BRANCH   1  64
ATOM     64  C   UNL A   1      31.605  27.682  26.584  1.00  0.00     0.116 C 
BRANCH  64  65
ATOM     65  N   UNL A   1      31.147  26.329  26.876  1.00  0.00    -0.354 N 
ATOM     66  C   UNL A   1      30.759  25.289  26.070  1.00  0.00     0.243 C 
ATOM     67  H   UNL A   1      31.109  26.122  27.838  1.00  0.00     0.163 HD
ATOM     68  O   UNL A   1      30.352  24.253  26.617  1.00  0.00    -0.273 OA
BRANCH  66  69
ATOM     69  C   UNL A   1      30.587  25.412  24.547  1.00  0.00     0.182 C 
ATOM     70  C   UNL A   1      29.312  26.298  24.418  1.00  0.00     0.091 C 
ATOM     71  N   UNL A   1      31.824  25.765  23.800  1.00  0.00    -0.306 N 
ATOM     72  C   UNL A   1      29.501  27.406  23.485  1.00  0.00     0.042 A 
ATOM     73  C   UNL A   1      31.792  26.728  22.666  1.00  0.00     0.180 C 
ATOM     74  N   UNL A   1      28.643  28.436  23.249  1.00  0.00    -0.348 N 
ATOM     75  C   UNL A   1      30.605  27.624  22.710  1.00  0.00     0.081 A 
ATOM     76  C   UNL A   1      29.251  29.242  22.325  1.00  0.00     0.197 A 
ATOM     77  H   UNL A   1      27.759  28.575  23.661  1.00  0.00     0.167 HD
ATOM     78  N   UNL A   1      30.435  28.775  21.978  1.00  0.00    -0.240 NA
BRANCH  71  79
ATOM     79  C   UNL A   1      32.961  24.944  23.877  1.00  0.00     0.321 C 
ATOM     80  O   UNL A   1      34.087  25.382  24.099  1.00  0.00    -0.248 OA
BRANCH  79  81
ATOM     81  N   UNL A   1      32.714  23.567  23.828  1.00  0.00    -0.322 N 
ATOM     82  C   UNL A   1      32.880  22.856  22.579  1.00  0.00     0.121 C 
ATOM     83  C   UNL A   1      33.238  22.794  24.934  1.00  0.00     0.153 C 
ATOM     84  C   UNL A   1      32.157  21.505  22.630  1.00  0.00     0.024 C 
ATOM     85  C   UNL A   1      32.589  21.406  25.145  1.00  0.00     0.134 C 
ATOM     86  C   UNL A   1      32.526  20.634  23.838  1.00  0.00     0.035 C 
BRANCH  85  87
ATOM     87  O   UNL A   1      31.302  21.481  25.750  1.00  0.00    -0.391 OA
ATOM     88  H   UNL A   1      31.088  22.407  25.941  1.00  0.00     0.211 HD
ENDBRANCH  85  87
ENDBRANCH  79  81
ENDBRANCH  71  79
ENDBRANCH  66  69
ENDBRANCH  64  65
ENDBRANCH   1  64
TORSDOF 14
ENDMDL
MODEL 3
REMARK VINA RESULT:     -11.5      2.855      7.569
REMARK SMILES O=C(NCCCCNC(=O)[C@H]1Cc2[nH]cnc2CN1C(=O)N1CCC[C@H](O)C1)c1ccc(-c2c3nc(c(-c4c(F)cccc4F)c4ccc([nH]4)c(-c4c(F)cccc4F)c4nc(c(-c5c(F)cccc5F)c5ccc2[nH]5)C=C4)C=C3)cc1
REMARK SMILES IDX 6 1 5 2 4 3 3 4 1 5 2 6 29 8 30 9 82 10 31 11 81 12 32 13
REMARK SMILES IDX 33 14 34 15 75 16 35 17 80 18 74 19 76 20 36 21 79 22 73 23
REMARK SMILES IDX 72 24 37 26 63 27 46 28 62 29 47 30 50 31 61 32 77 33 48 34
REMARK SMILES IDX 49 35 60 37 78 38 51 39 38 40 39 41 44 42 40 43 41 44 43 45
REMARK SMILES IDX 45 46 42 47 64 48 65 49 70 50 66 51 67 52 69 53 71 54 68 55
REMARK SMILES IDX 52 56 53 57 58 58 54 59 55 60 57 61 59 62 56 63 7 64 8 65
REMARK SMILES IDX 9 66 10 68 11 69 12 70 19 71 13 72 18 73 14 74 17 75 15 76
REMARK SMILES IDX 16 78 20 79 21 80 22 81 23 82 28 83 24 84 26 85 25 86 27 87
REMARK H PARENT 3 7 76 25 50 36 8 67 14 77 27 88
REMARK Flexibility Score: inf
ROOT
ATOM      1  C   UNL A   1      32.804  28.084  27.293  1.00  0.00     0.023 C 
ENDROOT
BRANCH   1   2
ATOM      2  C   UNL A   1      34.107  28.612  26.631  1.00  0.00     0.023 C 
BRANCH   2   3
ATOM      3  C   UNL A   1      35.308  29.221  27.368  1.00  0.00     0.116 C 
BRANCH   3   4
ATOM      4  N   UNL A   1      35.265  29.505  28.784  1.00  0.00    -0.352 N 
ATOM      5  O   UNL A   1      36.009  30.615  30.612  1.00  0.00    -0.269 OA
ATOM      6  C   UNL A   1      36.271  29.975  29.592  1.00  0.00     0.251 C 
ATOM      7  H   UNL A   1      34.402  29.341  29.228  1.00  0.00     0.163 HD
BRANCH   6   8
ATOM      8  C   UNL A   1      37.660  29.569  29.343  1.00  0.00     0.039 A 
ATOM      9  C   UNL A   1      38.363  29.879  28.179  1.00  0.00     0.014 A 
ATOM     10  C   UNL A   1      38.256  28.816  30.361  1.00  0.00     0.014 A 
ATOM     11  C   UNL A   1      39.601  29.293  27.965  1.00  0.00     0.010 A 
ATOM     12  C   UNL A   1      39.515  28.276  30.173  1.00  0.00     0.010 A 
ATOM     13  C   UNL A   1      40.168  28.474  28.955  1.00  0.00    -0.014 A 
BRANCH  13  14
ATOM     14  C   UNL A   1      41.559  28.060  28.782  1.00  0.00     0.031 A 
ATOM     15  C   UNL A   1      41.692  26.732  28.108  1.00  0.00     0.074 A 
ATOM     16  C   UNL A   1      42.624  28.852  29.021  1.00  0.00     0.049 A 
ATOM     17  N   UNL A   1      42.281  25.666  28.543  1.00  0.00    -0.248 NA
ATOM     18  C   UNL A   1      40.949  26.531  26.849  1.00  0.00     0.031 C 
ATOM     19  C   UNL A   1      42.626  30.270  29.389  1.00  0.00     0.029 A 
ATOM     20  N   UNL A   1      43.951  28.578  28.873  1.00  0.00    -0.354 N 
ATOM     21  C   UNL A   1      42.144  24.715  27.532  1.00  0.00     0.074 A 
ATOM     22  C   UNL A   1      41.188  25.245  26.596  1.00  0.00     0.031 C 
ATOM     23  C   UNL A   1      43.866  30.778  29.204  1.00  0.00     0.029 A 
ATOM     24  C   UNL A   1      44.770  29.702  28.830  1.00  0.00     0.049 A 
ATOM     25  H   UNL A   1      44.302  27.660  28.804  1.00  0.00     0.167 HD
ATOM     26  C   UNL A   1      43.001  23.662  27.424  1.00  0.00     0.037 A 
ATOM     27  C   UNL A   1      46.072  29.748  28.451  1.00  0.00     0.037 A 
ATOM     28  C   UNL A   1      43.671  23.412  28.673  1.00  0.00     0.049 A 
ATOM     29  C   UNL A   1      46.606  28.366  28.497  1.00  0.00     0.074 A 
ATOM     30  C   UNL A   1      43.260  23.078  29.948  1.00  0.00     0.029 A 
ATOM     31  N   UNL A   1      44.969  23.839  28.799  1.00  0.00    -0.354 N 
ATOM     32  N   UNL A   1      46.817  27.701  29.597  1.00  0.00    -0.248 NA
ATOM     33  C   UNL A   1      46.500  27.562  27.289  1.00  0.00     0.031 C 
ATOM     34  C   UNL A   1      44.146  23.784  30.815  1.00  0.00     0.029 A 
ATOM     35  C   UNL A   1      45.078  24.449  30.020  1.00  0.00     0.049 A 
ATOM     36  H   UNL A   1      45.687  23.729  28.135  1.00  0.00     0.167 HD
ATOM     37  C   UNL A   1      46.422  26.406  29.299  1.00  0.00     0.074 A 
ATOM     38  C   UNL A   1      46.326  26.360  27.842  1.00  0.00     0.031 C 
ATOM     39  C   UNL A   1      45.936  25.581  30.271  1.00  0.00     0.037 A 
BRANCH  26  40
ATOM     40  C   UNL A   1      43.520  23.129  26.108  1.00  0.00     0.057 A 
ATOM     41  C   UNL A   1      43.532  21.738  25.890  1.00  0.00     0.134 A 
ATOM     42  C   UNL A   1      44.287  23.879  25.192  1.00  0.00     0.134 A 
ATOM     43  F   UNL A   1      42.846  20.909  26.692  1.00  0.00    -0.206 F 
ATOM     44  C   UNL A   1      44.323  21.136  24.904  1.00  0.00     0.040 A 
ATOM     45  C   UNL A   1      45.041  23.291  24.172  1.00  0.00     0.040 A 
ATOM     46  F   UNL A   1      44.436  25.204  25.287  1.00  0.00    -0.206 F 
ATOM     47  C   UNL A   1      45.091  21.913  24.047  1.00  0.00     0.006 A 
ENDBRANCH  26  40
BRANCH  27  48
ATOM     48  C   UNL A   1      46.821  30.835  27.772  1.00  0.00     0.057 A 
ATOM     49  C   UNL A   1      46.208  31.645  26.803  1.00  0.00     0.134 A 
ATOM     50  C   UNL A   1      48.058  31.292  28.260  1.00  0.00     0.134 A 
ATOM     51  F   UNL A   1      45.008  31.318  26.302  1.00  0.00    -0.206 F 
ATOM     52  C   UNL A   1      46.775  32.852  26.369  1.00  0.00     0.040 A 
ATOM     53  C   UNL A   1      48.637  32.490  27.830  1.00  0.00     0.040 A 
ATOM     54  F   UNL A   1      48.700  30.639  29.240  1.00  0.00    -0.206 F 
ATOM     55  C   UNL A   1      47.989  33.284  26.892  1.00  0.00     0.006 A 
ENDBRANCH  27  48
BRANCH  39  56
ATOM     56  C   UNL A   1      46.095  26.006  31.703  1.00  0.00     0.057 A 
ATOM     57  C   UNL A   1      47.262  25.821  32.460  1.00  0.00     0.134 A 
ATOM     58  C   UNL A   1      45.074  26.764  32.288  1.00  0.00     0.134 A 
ATOM     59  F   UNL A   1      48.331  25.197  31.953  1.00  0.00    -0.206 F 
ATOM     60  C   UNL A   1      47.386  26.333  33.756  1.00  0.00     0.040 A 
ATOM     61  C   UNL A   1      45.201  27.313  33.564  1.00  0.00     0.040 A 
ATOM     62  F   UNL A   1      43.950  27.027  31.602  1.00  0.00    -0.206 F 
ATOM     63  C   UNL A   1      46.356  27.089  34.308  1.00  0.00     0.006 A 
ENDBRANCH  39  56
ENDBRANCH  13  14
ENDBRANCH   6   8
ENDBRANCH   3   4
ENDBRANCH   2   3
ENDBRANCH   1   2
BRANCH   1  64
ATOM     64  C   UNL A   1      31.490  27.670  26.567  1.00  0.00     0.116 C 
BRANCH  64  65
ATOM     65  N   UNL A   1      30.956  26.346  26.860  1.00  0.00    -0.354 N 
ATOM     66  C   UNL A   1      30.540  25.316  26.053  1.00  0.00     0.243 C 
ATOM     67  H   UNL A   1      30.877  26.154  27.822  1.00  0.00     0.163 HD
ATOM     68  O   UNL A   1      30.064  24.309  26.598  1.00  0.00    -0.273 OA
BRANCH  66  69
ATOM     69  C   UNL A   1      30.423  25.429  24.524  1.00  0.00     0.182 C 
ATOM     70  C   UNL A   1      29.137  26.289  24.343  1.00  0.00     0.091 C 
ATOM     71  N   UNL A   1      31.680  25.802  23.821  1.00  0.00    -0.306 N 
ATOM     72  C   UNL A   1      29.339  27.396  23.411  1.00  0.00     0.042 A 
ATOM     73  C   UNL A   1      31.672  26.758  22.682  1.00  0.00     0.180 C 
ATOM     74  N   UNL A   1      28.471  28.408  23.138  1.00  0.00    -0.348 N 
ATOM     75  C   UNL A   1      30.467  27.631  22.676  1.00  0.00     0.081 A 
ATOM     76  C   UNL A   1      29.098  29.221  22.232  1.00  0.00     0.197 A 
ATOM     77  H   UNL A   1      27.570  28.532  23.516  1.00  0.00     0.167 HD
ATOM     78  N   UNL A   1      30.302  28.775  21.932  1.00  0.00    -0.240 NA
BRANCH  71  79
ATOM     79  C   UNL A   1      32.829  25.003  23.945  1.00  0.00     0.321 C 
ATOM     80  O   UNL A   1      33.936  25.463  24.215  1.00  0.00    -0.248 OA
BRANCH  79  81
ATOM     81  N   UNL A   1      32.611  23.622  23.884  1.00  0.00    -0.322 N 
ATOM     82  C   UNL A   1      32.834  22.918  22.640  1.00  0.00     0.121 C 
ATOM     83  C   UNL A   1      33.113  22.856  25.006  1.00  0.00     0.153 C 
ATOM     84  C   UNL A   1      32.137  21.553  22.663  1.00  0.00     0.024 C 
ATOM     85  C   UNL A   1      32.486  21.454  25.191  1.00  0.00     0.134 C 
ATOM     86  C   UNL A   1      32.482  20.685  23.881  1.00  0.00     0.035 C 
BRANCH  85  87
ATOM     87  O   UNL A   1      31.177  21.502  25.752  1.00  0.00    -0.391 OA
ATOM     88  H   UNL A   1      31.240  21.523  26.720  1.00  0.00     0.211 HD
ENDBRANCH  85  87
ENDBRANCH  79  81
ENDBRANCH  71  79
ENDBRANCH  66  69
ENDBRANCH  64  65
ENDBRANCH   1  64
TORSDOF 14
ENDMDL
