MODEL 1
REMARK VINA RESULT:     -12.1      0.000      0.000
REMARK SMILES O=C(NCCCCNC(=O)[C@H]1C[N@H+](Cc2ccc(Cl)c(Cl)c2)CC12CCCCC2)c1ccc(-c2c3nc(c(-c4c(F)cccc4F)c4ccc([nH]4)c(-c4c(F)cccc4F)c4nc(c(-c5c(F)cccc5F)c5ccc2[nH]5)C=C4)C=C3)cc1
REMARK SMILES IDX 5 1 4 2 3 3 1 4 2 5 30 7 31 8 83 9 32 10 82 11 33 12 34 13
REMARK SMILES IDX 35 14 76 15 36 16 81 17 75 18 77 19 37 20 80 21 74 22 73 23
REMARK SMILES IDX 38 25 64 26 47 27 63 28 48 29 51 30 62 31 78 32 49 33 50 34
REMARK SMILES IDX 61 36 79 37 52 38 39 39 40 40 45 41 41 42 42 43 44 44 46 45
REMARK SMILES IDX 43 46 65 47 66 48 71 49 67 50 68 51 70 52 72 53 69 54 53 55
REMARK SMILES IDX 54 56 59 57 55 58 56 59 58 60 60 61 57 62 6 63 7 64 8 65
REMARK SMILES IDX 9 66 10 68 11 69 12 70 24 71 13 72 23 73 25 74 29 75 26 77
REMARK SMILES IDX 28 78 27 79 14 80 15 81 16 82 22 83 17 84 20 85 18 86 21 87
REMARK SMILES IDX 19 88
REMARK H PARENT 3 6 77 24 51 35 8 67 13 76
REMARK Flexibility Score: inf
ROOT
ATOM      1  C   UNL A   1      31.205  31.774  26.552  1.00  0.00     0.023 C 
ENDROOT
BRANCH   1   2
ATOM      2  C   UNL A   1      32.516  32.470  26.906  1.00  0.00     0.116 C 
BRANCH   2   3
ATOM      3  N   UNL A   1      32.327  33.822  27.404  1.00  0.00    -0.352 N 
ATOM      4  O   UNL A   1      32.711  35.585  28.768  1.00  0.00    -0.269 OA
ATOM      5  C   UNL A   1      33.048  34.483  28.371  1.00  0.00     0.251 C 
ATOM      6  H   UNL A   1      31.588  34.331  26.997  1.00  0.00     0.163 HD
BRANCH   5   7
ATOM      7  C   UNL A   1      34.229  33.807  28.941  1.00  0.00     0.039 A 
ATOM      8  C   UNL A   1      34.062  32.759  29.849  1.00  0.00     0.014 A 
ATOM      9  C   UNL A   1      35.502  34.264  28.598  1.00  0.00     0.014 A 
ATOM     10  C   UNL A   1      35.170  32.242  30.506  1.00  0.00     0.010 A 
ATOM     11  C   UNL A   1      36.621  33.688  29.201  1.00  0.00     0.010 A 
ATOM     12  C   UNL A   1      36.460  32.684  30.169  1.00  0.00    -0.014 A 
BRANCH  12  13
ATOM     13  C   UNL A   1      37.635  31.991  30.746  1.00  0.00     0.031 A 
ATOM     14  C   UNL A   1      38.376  30.931  29.984  1.00  0.00     0.074 A 
ATOM     15  C   UNL A   1      38.013  32.333  31.992  1.00  0.00     0.049 A 
ATOM     16  N   UNL A   1      39.395  30.207  30.372  1.00  0.00    -0.248 NA
ATOM     17  C   UNL A   1      37.916  30.637  28.618  1.00  0.00     0.031 C 
ATOM     18  C   UNL A   1      37.344  33.336  32.826  1.00  0.00     0.029 A 
ATOM     19  N   UNL A   1      39.040  31.880  32.778  1.00  0.00    -0.354 N 
ATOM     20  C   UNL A   1      39.685  29.358  29.313  1.00  0.00     0.074 A 
ATOM     21  C   UNL A   1      38.729  29.648  28.265  1.00  0.00     0.031 C 
ATOM     22  C   UNL A   1      37.989  33.439  33.996  1.00  0.00     0.029 A 
ATOM     23  C   UNL A   1      39.073  32.465  34.019  1.00  0.00     0.049 A 
ATOM     24  H   UNL A   1      39.690  31.204  32.481  1.00  0.00     0.167 HD
ATOM     25  C   UNL A   1      40.664  28.425  29.231  1.00  0.00     0.037 A 
ATOM     26  C   UNL A   1      39.862  32.217  35.079  1.00  0.00     0.037 A 
ATOM     27  C   UNL A   1      41.626  28.167  30.274  1.00  0.00     0.049 A 
ATOM     28  C   UNL A   1      40.915  31.157  34.963  1.00  0.00     0.074 A 
ATOM     29  C   UNL A   1      42.708  27.305  30.251  1.00  0.00     0.029 A 
ATOM     30  N   UNL A   1      41.611  28.760  31.528  1.00  0.00    -0.354 N 
ATOM     31  N   UNL A   1      41.220  30.409  33.932  1.00  0.00    -0.248 NA
ATOM     32  C   UNL A   1      41.725  30.898  36.160  1.00  0.00     0.031 C 
ATOM     33  C   UNL A   1      43.318  27.336  31.509  1.00  0.00     0.029 A 
ATOM     34  C   UNL A   1      42.641  28.249  32.301  1.00  0.00     0.049 A 
ATOM     35  H   UNL A   1      40.966  29.441  31.824  1.00  0.00     0.167 HD
ATOM     36  C   UNL A   1      42.257  29.590  34.353  1.00  0.00     0.074 A 
ATOM     37  C   UNL A   1      42.550  29.956  35.724  1.00  0.00     0.031 C 
ATOM     38  C   UNL A   1      42.904  28.617  33.669  1.00  0.00     0.037 A 
BRANCH  25  39
ATOM     39  C   UNL A   1      40.752  27.594  27.987  1.00  0.00     0.057 A 
ATOM     40  C   UNL A   1      41.527  27.983  26.889  1.00  0.00     0.134 A 
ATOM     41  C   UNL A   1      40.138  26.335  27.931  1.00  0.00     0.134 A 
ATOM     42  F   UNL A   1      42.137  29.178  26.876  1.00  0.00    -0.206 F 
ATOM     43  C   UNL A   1      41.687  27.151  25.777  1.00  0.00     0.040 A 
ATOM     44  C   UNL A   1      40.304  25.487  26.836  1.00  0.00     0.040 A 
ATOM     45  F   UNL A   1      39.387  25.898  28.955  1.00  0.00    -0.206 F 
ATOM     46  C   UNL A   1      41.083  25.894  25.754  1.00  0.00     0.006 A 
ENDBRANCH  25  39
BRANCH  26  47
ATOM     47  C   UNL A   1      39.648  32.953  36.349  1.00  0.00     0.057 A 
ATOM     48  C   UNL A   1      38.722  32.513  37.298  1.00  0.00     0.134 A 
ATOM     49  C   UNL A   1      40.373  34.117  36.642  1.00  0.00     0.134 A 
ATOM     50  F   UNL A   1      37.988  31.414  37.065  1.00  0.00    -0.206 F 
ATOM     51  C   UNL A   1      38.508  33.212  38.486  1.00  0.00     0.040 A 
ATOM     52  C   UNL A   1      40.190  34.809  37.838  1.00  0.00     0.040 A 
ATOM     53  F   UNL A   1      41.283  34.584  35.776  1.00  0.00    -0.206 F 
ATOM     54  C   UNL A   1      39.248  34.361  38.761  1.00  0.00     0.006 A 
ENDBRANCH  26  47
BRANCH  38  55
ATOM     55  C   UNL A   1      43.983  27.881  34.402  1.00  0.00     0.057 A 
ATOM     56  C   UNL A   1      43.726  26.668  35.053  1.00  0.00     0.134 A 
ATOM     57  C   UNL A   1      45.291  28.375  34.439  1.00  0.00     0.134 A 
ATOM     58  F   UNL A   1      42.486  26.154  35.069  1.00  0.00    -0.206 F 
ATOM     59  C   UNL A   1      44.731  25.982  35.735  1.00  0.00     0.040 A 
ATOM     60  C   UNL A   1      46.311  27.685  35.096  1.00  0.00     0.040 A 
ATOM     61  F   UNL A   1      45.602  29.529  33.829  1.00  0.00    -0.206 F 
ATOM     62  C   UNL A   1      46.030  26.488  35.750  1.00  0.00     0.006 A 
ENDBRANCH  38  55
ENDBRANCH  12  13
ENDBRANCH   5   7
ENDBRANCH   2   3
ENDBRANCH   1   2
BRANCH   1  63
ATOM     63  C   UNL A   1      30.542  32.237  25.255  1.00  0.00     0.023 C 
BRANCH  63  64
ATOM     64  C   UNL A   1      29.564  31.235  24.659  1.00  0.00     0.116 C 
BRANCH  64  65
ATOM     65  N   UNL A   1      29.951  30.775  23.335  1.00  0.00    -0.356 N 
ATOM     66  C   UNL A   1      30.187  29.533  22.841  1.00  0.00     0.229 C 
ATOM     67  H   UNL A   1      30.061  31.498  22.674  1.00  0.00     0.163 HD
ATOM     68  O   UNL A   1      30.334  29.442  21.619  1.00  0.00    -0.275 OA
BRANCH  66  69
ATOM     69  C   UNL A   1      30.303  28.289  23.709  1.00  0.00     0.145 C 
ATOM     70  C   UNL A   1      29.995  27.024  22.907  1.00  0.00     0.276 C 
ATOM     71  C   UNL A   1      31.603  28.037  24.533  1.00  0.00     0.037 C 
ATOM     72  N   UNL A   1      30.880  25.987  23.411  1.00  0.00    -0.330 N 
ATOM     73  C   UNL A   1      32.032  26.628  24.047  1.00  0.00     0.270 C 
ATOM     74  C   UNL A   1      32.703  29.111  24.366  1.00  0.00     0.014 C 
ATOM     75  C   UNL A   1      31.278  28.055  26.054  1.00  0.00     0.014 C 
ATOM     76  H   UNL A   1      31.250  25.446  22.628  1.00  0.00     0.348 HD
ATOM     77  C   UNL A   1      33.941  28.894  25.237  1.00  0.00     0.001 C 
ATOM     78  C   UNL A   1      32.487  27.769  26.949  1.00  0.00     0.001 C 
ATOM     79  C   UNL A   1      33.596  28.783  26.713  1.00  0.00     0.000 C 
BRANCH  72  80
ATOM     80  C   UNL A   1      30.244  24.846  24.073  1.00  0.00     0.299 C 
BRANCH  80  81
ATOM     81  C   UNL A   1      31.121  23.980  24.952  1.00  0.00     0.008 A 
ATOM     82  C   UNL A   1      31.059  24.056  26.352  1.00  0.00     0.011 A 
ATOM     83  C   UNL A   1      32.066  23.117  24.372  1.00  0.00     0.031 A 
ATOM     84  C   UNL A   1      31.995  23.392  27.149  1.00  0.00     0.022 A 
ATOM     85  C   UNL A   1      32.993  22.430  25.169  1.00  0.00     0.060 A 
ATOM     86  C   UNL A   1      32.977  22.595  26.558  1.00  0.00     0.059 A 
ATOM     87  Cl  UNL A   1      34.167  21.450  24.367  1.00  0.00    -0.083 Cl
ATOM     88  Cl  UNL A   1      34.159  21.879  27.593  1.00  0.00    -0.083 Cl
ENDBRANCH  80  81
ENDBRANCH  72  80
ENDBRANCH  66  69
ENDBRANCH  64  65
ENDBRANCH  63  64
ENDBRANCH   1  63
TORSDOF 13
ENDMDL
MODEL 2
REMARK VINA RESULT:     -12.0      1.310      2.113
REMARK SMILES O=C(NCCCCNC(=O)[C@H]1C[N@H+](Cc2ccc(Cl)c(Cl)c2)CC12CCCCC2)c1ccc(-c2c3nc(c(-c4c(F)cccc4F)c4ccc([nH]4)c(-c4c(F)cccc4F)c4nc(c(-c5c(F)cccc5F)c5ccc2[nH]5)C=C4)C=C3)cc1
REMARK SMILES IDX 5 1 4 2 3 3 1 4 2 5 30 7 31 8 83 9 32 10 82 11 33 12 34 13
REMARK SMILES IDX 35 14 76 15 36 16 81 17 75 18 77 19 37 20 80 21 74 22 73 23
REMARK SMILES IDX 38 25 64 26 47 27 63 28 48 29 51 30 62 31 78 32 49 33 50 34
REMARK SMILES IDX 61 36 79 37 52 38 39 39 40 40 45 41 41 42 42 43 44 44 46 45
REMARK SMILES IDX 43 46 65 47 66 48 71 49 67 50 68 51 70 52 72 53 69 54 53 55
REMARK SMILES IDX 54 56 59 57 55 58 56 59 58 60 60 61 57 62 6 63 7 64 8 65
REMARK SMILES IDX 9 66 10 68 11 69 12 70 24 71 13 72 23 73 25 74 29 75 26 77
REMARK SMILES IDX 28 78 27 79 14 80 15 81 16 82 22 83 17 84 20 85 18 86 21 87
REMARK SMILES IDX 19 88
REMARK H PARENT 3 6 77 24 51 35 8 67 13 76
REMARK Flexibility Score: inf
ROOT
ATOM      1  C   UNL A   1      31.387  32.401  26.509  1.00  0.00     0.023 C 
ENDROOT
BRANCH   1   2
ATOM      2  C   UNL A   1      32.631  32.976  27.178  1.00  0.00     0.116 C 
BRANCH   2   3
ATOM      3  N   UNL A   1      32.418  34.303  27.732  1.00  0.00    -0.352 N 
ATOM      4  O   UNL A   1      32.742  36.000  29.192  1.00  0.00    -0.269 OA
ATOM      5  C   UNL A   1      33.099  34.919  28.757  1.00  0.00     0.251 C 
ATOM      6  H   UNL A   1      31.694  34.829  27.321  1.00  0.00     0.163 HD
BRANCH   5   7
ATOM      7  C   UNL A   1      34.259  34.218  29.339  1.00  0.00     0.039 A 
ATOM      8  C   UNL A   1      35.555  34.610  28.996  1.00  0.00     0.014 A 
ATOM      9  C   UNL A   1      34.038  33.135  30.191  1.00  0.00     0.014 A 
ATOM     10  C   UNL A   1      36.633  33.842  29.413  1.00  0.00     0.010 A 
ATOM     11  C   UNL A   1      35.130  32.412  30.675  1.00  0.00     0.010 A 
ATOM     12  C   UNL A   1      36.432  32.754  30.277  1.00  0.00    -0.014 A 
BRANCH  12  13
ATOM     13  C   UNL A   1      37.608  32.064  30.857  1.00  0.00     0.031 A 
ATOM     14  C   UNL A   1      38.357  31.010  30.096  1.00  0.00     0.074 A 
ATOM     15  C   UNL A   1      37.978  32.404  32.106  1.00  0.00     0.049 A 
ATOM     16  N   UNL A   1      39.377  30.289  30.487  1.00  0.00    -0.248 NA
ATOM     17  C   UNL A   1      37.905  30.718  28.727  1.00  0.00     0.031 C 
ATOM     18  C   UNL A   1      37.300  33.402  32.940  1.00  0.00     0.029 A 
ATOM     19  N   UNL A   1      39.003  31.954  32.896  1.00  0.00    -0.354 N 
ATOM     20  C   UNL A   1      39.676  29.445  29.426  1.00  0.00     0.074 A 
ATOM     21  C   UNL A   1      38.724  29.734  28.375  1.00  0.00     0.031 C 
ATOM     22  C   UNL A   1      37.939  33.504  34.113  1.00  0.00     0.029 A 
ATOM     23  C   UNL A   1      39.027  32.535  34.139  1.00  0.00     0.049 A 
ATOM     24  H   UNL A   1      39.657  31.281  32.600  1.00  0.00     0.167 HD
ATOM     25  C   UNL A   1      40.660  28.516  29.347  1.00  0.00     0.037 A 
ATOM     26  C   UNL A   1      39.813  32.287  35.202  1.00  0.00     0.037 A 
ATOM     27  C   UNL A   1      41.617  28.260  30.394  1.00  0.00     0.049 A 
ATOM     28  C   UNL A   1      40.871  31.232  35.088  1.00  0.00     0.074 A 
ATOM     29  C   UNL A   1      42.703  27.402  30.374  1.00  0.00     0.029 A 
ATOM     30  N   UNL A   1      41.594  28.848  31.649  1.00  0.00    -0.354 N 
ATOM     31  N   UNL A   1      41.184  30.489  34.056  1.00  0.00    -0.248 NA
ATOM     32  C   UNL A   1      41.676  30.972  36.288  1.00  0.00     0.031 C 
ATOM     33  C   UNL A   1      43.307  27.432  31.635  1.00  0.00     0.029 A 
ATOM     34  C   UNL A   1      42.622  28.340  32.426  1.00  0.00     0.049 A 
ATOM     35  H   UNL A   1      40.944  29.526  31.944  1.00  0.00     0.167 HD
ATOM     36  C   UNL A   1      42.223  29.673  34.479  1.00  0.00     0.074 A 
ATOM     37  C   UNL A   1      42.507  30.036  35.853  1.00  0.00     0.031 C 
ATOM     38  C   UNL A   1      42.877  28.704  33.796  1.00  0.00     0.037 A 
BRANCH  25  39
ATOM     39  C   UNL A   1      40.757  27.689  28.101  1.00  0.00     0.057 A 
ATOM     40  C   UNL A   1      41.529  28.089  27.004  1.00  0.00     0.134 A 
ATOM     41  C   UNL A   1      40.156  26.425  28.041  1.00  0.00     0.134 A 
ATOM     42  F   UNL A   1      42.128  29.290  26.995  1.00  0.00    -0.206 F 
ATOM     43  C   UNL A   1      41.699  27.261  25.891  1.00  0.00     0.040 A 
ATOM     44  C   UNL A   1      40.332  25.581  26.943  1.00  0.00     0.040 A 
ATOM     45  F   UNL A   1      39.409  25.977  29.063  1.00  0.00    -0.206 F 
ATOM     46  C   UNL A   1      41.108  25.999  25.863  1.00  0.00     0.006 A 
ENDBRANCH  25  39
BRANCH  26  47
ATOM     47  C   UNL A   1      39.589  33.018  36.473  1.00  0.00     0.057 A 
ATOM     48  C   UNL A   1      40.299  34.184  36.776  1.00  0.00     0.134 A 
ATOM     49  C   UNL A   1      38.653  32.567  37.414  1.00  0.00     0.134 A 
ATOM     50  F   UNL A   1      41.219  34.655  35.920  1.00  0.00    -0.206 F 
ATOM     51  C   UNL A   1      40.101  34.866  37.976  1.00  0.00     0.040 A 
ATOM     52  C   UNL A   1      38.424  33.254  38.604  1.00  0.00     0.040 A 
ATOM     53  F   UNL A   1      37.934  31.460  37.177  1.00  0.00    -0.206 F 
ATOM     54  C   UNL A   1      39.157  34.405  38.892  1.00  0.00     0.006 A 
ENDBRANCH  26  47
BRANCH  38  55
ATOM     55  C   UNL A   1      43.955  27.971  34.532  1.00  0.00     0.057 A 
ATOM     56  C   UNL A   1      43.698  26.761  35.189  1.00  0.00     0.134 A 
ATOM     57  C   UNL A   1      45.264  28.464  34.566  1.00  0.00     0.134 A 
ATOM     58  F   UNL A   1      42.458  26.248  35.207  1.00  0.00    -0.206 F 
ATOM     59  C   UNL A   1      44.702  26.077  35.873  1.00  0.00     0.040 A 
ATOM     60  C   UNL A   1      46.283  27.777  35.226  1.00  0.00     0.040 A 
ATOM     61  F   UNL A   1      45.576  29.615  33.952  1.00  0.00    -0.206 F 
ATOM     62  C   UNL A   1      46.001  26.583  35.886  1.00  0.00     0.006 A 
ENDBRANCH  38  55
ENDBRANCH  12  13
ENDBRANCH   5   7
ENDBRANCH   2   3
ENDBRANCH   1   2
BRANCH   1  63
ATOM     63  C   UNL A   1      31.467  30.923  26.128  1.00  0.00     0.023 C 
BRANCH  63  64
ATOM     64  C   UNL A   1      31.645  29.979  27.309  1.00  0.00     0.116 C 
BRANCH  64  65
ATOM     65  N   UNL A   1      33.023  29.557  27.502  1.00  0.00    -0.356 N 
ATOM     66  C   UNL A   1      33.711  28.477  27.050  1.00  0.00     0.229 C 
ATOM     67  H   UNL A   1      33.555  30.166  28.064  1.00  0.00     0.163 HD
ATOM     68  O   UNL A   1      34.930  28.478  27.243  1.00  0.00    -0.275 OA
BRANCH  66  69
ATOM     69  C   UNL A   1      33.057  27.289  26.362  1.00  0.00     0.145 C 
ATOM     70  C   UNL A   1      31.727  26.930  27.025  1.00  0.00     0.276 C 
ATOM     71  C   UNL A   1      32.839  27.310  24.818  1.00  0.00     0.037 C 
ATOM     72  N   UNL A   1      30.835  26.496  25.962  1.00  0.00    -0.330 N 
ATOM     73  C   UNL A   1      31.313  27.059  24.697  1.00  0.00     0.270 C 
ATOM     74  C   UNL A   1      33.311  28.600  24.107  1.00  0.00     0.014 C 
ATOM     75  C   UNL A   1      33.670  26.178  24.150  1.00  0.00     0.014 C 
ATOM     76  H   UNL A   1      29.906  26.888  26.116  1.00  0.00     0.348 HD
ATOM     77  C   UNL A   1      33.164  28.578  22.585  1.00  0.00     0.001 C 
ATOM     78  C   UNL A   1      33.486  26.087  22.632  1.00  0.00     0.001 C 
ATOM     79  C   UNL A   1      33.873  27.391  21.953  1.00  0.00     0.000 C 
BRANCH  72  80
ATOM     80  C   UNL A   1      30.399  25.098  26.000  1.00  0.00     0.299 C 
BRANCH  80  81
ATOM     81  C   UNL A   1      31.438  24.041  25.688  1.00  0.00     0.008 A 
ATOM     82  C   UNL A   1      32.431  23.693  26.618  1.00  0.00     0.011 A 
ATOM     83  C   UNL A   1      31.461  23.425  24.426  1.00  0.00     0.031 A 
ATOM     84  C   UNL A   1      33.490  22.856  26.256  1.00  0.00     0.022 A 
ATOM     85  C   UNL A   1      32.508  22.566  24.067  1.00  0.00     0.060 A 
ATOM     86  C   UNL A   1      33.542  22.307  24.974  1.00  0.00     0.059 A 
ATOM     87  Cl  UNL A   1      32.495  21.914  22.467  1.00  0.00    -0.083 Cl
ATOM     88  Cl  UNL A   1      34.924  21.358  24.562  1.00  0.00    -0.083 Cl
ENDBRANCH  80  81
ENDBRANCH  72  80
ENDBRANCH  66  69
ENDBRANCH  64  65
ENDBRANCH  63  64
ENDBRANCH   1  63
TORSDOF 13
ENDMDL
MODEL 3
REMARK VINA RESULT:     -12.0      5.430     10.217
REMARK SMILES O=C(NCCCCNC(=O)[C@H]1C[N@H+](Cc2ccc(Cl)c(Cl)c2)CC12CCCCC2)c1ccc(-c2c3nc(c(-c4c(F)cccc4F)c4ccc([nH]4)c(-c4c(F)cccc4F)c4nc(c(-c5c(F)cccc5F)c5ccc2[nH]5)C=C4)C=C3)cc1
REMARK SMILES IDX 5 1 4 2 3 3 1 4 2 5 30 7 31 8 83 9 32 10 82 11 33 12 34 13
REMARK SMILES IDX 35 14 76 15 36 16 81 17 75 18 77 19 37 20 80 21 74 22 73 23
REMARK SMILES IDX 38 25 64 26 47 27 63 28 48 29 51 30 62 31 78 32 49 33 50 34
REMARK SMILES IDX 61 36 79 37 52 38 39 39 40 40 45 41 41 42 42 43 44 44 46 45
REMARK SMILES IDX 43 46 65 47 66 48 71 49 67 50 68 51 70 52 72 53 69 54 53 55
REMARK SMILES IDX 54 56 59 57 55 58 56 59 58 60 60 61 57 62 6 63 7 64 8 65
REMARK SMILES IDX 9 66 10 68 11 69 12 70 24 71 13 72 23 73 25 74 29 75 26 77
REMARK SMILES IDX 28 78 27 79 14 80 15 81 16 82 22 83 17 84 20 85 18 86 21 87
REMARK SMILES IDX 19 88
REMARK H PARENT 3 6 77 24 51 35 8 67 13 76
REMARK Flexibility Score: inf
ROOT
ATOM      1  C   UNL A   1      38.230  19.195  25.170  1.00  0.00     0.023 C 
ENDROOT
BRANCH   1   2
ATOM      2  C   UNL A   1      39.509  19.755  25.784  1.00  0.00     0.116 C 
BRANCH   2   3
ATOM      3  N   UNL A   1      40.588  18.782  25.840  1.00  0.00    -0.352 N 
ATOM      4  O   UNL A   1      42.739  18.102  26.001  1.00  0.00    -0.269 OA
ATOM      5  C   UNL A   1      41.923  19.003  26.089  1.00  0.00     0.251 C 
ATOM      6  H   UNL A   1      40.331  17.845  25.680  1.00  0.00     0.163 HD
BRANCH   5   7
ATOM      7  C   UNL A   1      42.348  20.372  26.437  1.00  0.00     0.039 A 
ATOM      8  C   UNL A   1      42.324  20.792  27.770  1.00  0.00     0.014 A 
ATOM      9  C   UNL A   1      42.720  21.246  25.416  1.00  0.00     0.014 A 
ATOM     10  C   UNL A   1      42.563  22.126  28.069  1.00  0.00     0.010 A 
ATOM     11  C   UNL A   1      43.038  22.568  25.728  1.00  0.00     0.010 A 
ATOM     12  C   UNL A   1      42.947  23.019  27.055  1.00  0.00    -0.014 A 
BRANCH  12  13
ATOM     13  C   UNL A   1      43.375  24.389  27.422  1.00  0.00     0.031 A 
ATOM     14  C   UNL A   1      42.389  25.431  27.858  1.00  0.00     0.074 A 
ATOM     15  C   UNL A   1      44.688  24.676  27.337  1.00  0.00     0.049 A 
ATOM     16  N   UNL A   1      42.607  26.684  28.169  1.00  0.00    -0.248 NA
ATOM     17  C   UNL A   1      40.977  25.027  27.951  1.00  0.00     0.031 C 
ATOM     18  C   UNL A   1      45.727  23.737  26.902  1.00  0.00     0.029 A 
ATOM     19  N   UNL A   1      45.376  25.830  27.605  1.00  0.00    -0.354 N 
ATOM     20  C   UNL A   1      41.365  27.224  28.472  1.00  0.00     0.074 A 
ATOM     21  C   UNL A   1      40.391  26.167  28.300  1.00  0.00     0.031 C 
ATOM     22  C   UNL A   1      46.920  24.344  26.953  1.00  0.00     0.029 A 
ATOM     23  C   UNL A   1      46.723  25.729  27.360  1.00  0.00     0.049 A 
ATOM     24  H   UNL A   1      44.947  26.649  27.941  1.00  0.00     0.167 HD
ATOM     25  C   UNL A   1      41.073  28.489  28.859  1.00  0.00     0.037 A 
ATOM     26  C   UNL A   1      47.691  26.661  27.415  1.00  0.00     0.037 A 
ATOM     27  C   UNL A   1      42.059  29.524  29.053  1.00  0.00     0.049 A 
ATOM     28  C   UNL A   1      47.328  28.057  27.819  1.00  0.00     0.074 A 
ATOM     29  C   UNL A   1      41.873  30.810  29.528  1.00  0.00     0.029 A 
ATOM     30  N   UNL A   1      43.410  29.393  28.768  1.00  0.00    -0.354 N 
ATOM     31  N   UNL A   1      46.159  28.536  28.167  1.00  0.00    -0.248 NA
ATOM     32  C   UNL A   1      48.413  29.046  27.826  1.00  0.00     0.031 C 
ATOM     33  C   UNL A   1      43.102  31.475  29.481  1.00  0.00     0.029 A 
ATOM     34  C   UNL A   1      44.061  30.590  29.018  1.00  0.00     0.049 A 
ATOM     35  H   UNL A   1      43.841  28.572  28.439  1.00  0.00     0.167 HD
ATOM     36  C   UNL A   1      46.366  29.881  28.436  1.00  0.00     0.074 A 
ATOM     37  C   UNL A   1      47.779  30.133  28.241  1.00  0.00     0.031 C 
ATOM     38  C   UNL A   1      45.466  30.823  28.802  1.00  0.00     0.037 A 
BRANCH  25  39
ATOM     39  C   UNL A   1      39.637  28.849  29.091  1.00  0.00     0.057 A 
ATOM     40  C   UNL A   1      38.802  29.272  28.051  1.00  0.00     0.134 A 
ATOM     41  C   UNL A   1      39.055  28.666  30.353  1.00  0.00     0.134 A 
ATOM     42  F   UNL A   1      39.296  29.472  26.819  1.00  0.00    -0.206 F 
ATOM     43  C   UNL A   1      37.439  29.502  28.257  1.00  0.00     0.040 A 
ATOM     44  C   UNL A   1      37.693  28.875  30.568  1.00  0.00     0.040 A 
ATOM     45  F   UNL A   1      39.800  28.254  31.392  1.00  0.00    -0.206 F 
ATOM     46  C   UNL A   1      36.879  29.293  29.517  1.00  0.00     0.006 A 
ENDBRANCH  25  39
BRANCH  26  47
ATOM     47  C   UNL A   1      49.079  26.307  27.031  1.00  0.00     0.057 A 
ATOM     48  C   UNL A   1      49.533  26.464  25.719  1.00  0.00     0.134 A 
ATOM     49  C   UNL A   1      49.987  25.807  27.975  1.00  0.00     0.134 A 
ATOM     50  F   UNL A   1      48.706  26.925  24.769  1.00  0.00    -0.206 F 
ATOM     51  C   UNL A   1      50.835  26.119  25.352  1.00  0.00     0.040 A 
ATOM     52  C   UNL A   1      51.297  25.484  27.629  1.00  0.00     0.040 A 
ATOM     53  F   UNL A   1      49.614  25.643  29.253  1.00  0.00    -0.206 F 
ATOM     54  C   UNL A   1      51.723  25.633  26.310  1.00  0.00     0.006 A 
ENDBRANCH  26  47
BRANCH  38  55
ATOM     55  C   UNL A   1      45.990  32.211  29.007  1.00  0.00     0.057 A 
ATOM     56  C   UNL A   1      45.996  33.150  27.968  1.00  0.00     0.134 A 
ATOM     57  C   UNL A   1      46.470  32.620  30.256  1.00  0.00     0.134 A 
ATOM     58  F   UNL A   1      45.565  32.811  26.743  1.00  0.00    -0.206 F 
ATOM     59  C   UNL A   1      46.481  34.443  28.159  1.00  0.00     0.040 A 
ATOM     60  C   UNL A   1      46.936  33.919  30.466  1.00  0.00     0.040 A 
ATOM     61  F   UNL A   1      46.486  31.769  31.293  1.00  0.00    -0.206 F 
ATOM     62  C   UNL A   1      46.947  34.832  29.414  1.00  0.00     0.006 A 
ENDBRANCH  38  55
ENDBRANCH  12  13
ENDBRANCH   5   7
ENDBRANCH   2   3
ENDBRANCH   1   2
BRANCH   1  63
ATOM     63  C   UNL A   1      37.089  20.197  24.994  1.00  0.00     0.023 C 
BRANCH  63  64
ATOM     64  C   UNL A   1      37.444  21.408  24.143  1.00  0.00     0.116 C 
BRANCH  64  65
ATOM     65  N   UNL A   1      37.736  22.596  24.930  1.00  0.00    -0.356 N 
ATOM     66  C   UNL A   1      36.955  23.630  25.333  1.00  0.00     0.229 C 
ATOM     67  H   UNL A   1      38.674  22.661  25.225  1.00  0.00     0.163 HD
ATOM     68  O   UNL A   1      37.453  24.415  26.145  1.00  0.00    -0.275 OA
BRANCH  66  69
ATOM     69  C   UNL A   1      35.544  23.870  24.818  1.00  0.00     0.145 C 
ATOM     70  C   UNL A   1      35.451  23.605  23.315  1.00  0.00     0.276 C 
ATOM     71  C   UNL A   1      34.336  23.167  25.510  1.00  0.00     0.037 C 
ATOM     72  N   UNL A   1      34.142  23.021  23.075  1.00  0.00    -0.330 N 
ATOM     73  C   UNL A   1      33.664  22.425  24.324  1.00  0.00     0.270 C 
ATOM     74  C   UNL A   1      34.706  22.238  26.690  1.00  0.00     0.014 C 
ATOM     75  C   UNL A   1      33.393  24.231  26.140  1.00  0.00     0.014 C 
ATOM     76  H   UNL A   1      34.229  22.254  22.408  1.00  0.00     0.348 HD
ATOM     77  C   UNL A   1      33.509  21.616  27.409  1.00  0.00     0.001 C 
ATOM     78  C   UNL A   1      32.147  23.639  26.806  1.00  0.00     0.001 C 
ATOM     79  C   UNL A   1      32.527  22.662  27.908  1.00  0.00     0.000 C 
BRANCH  72  80
ATOM     80  C   UNL A   1      33.213  23.804  22.258  1.00  0.00     0.299 C 
BRANCH  80  81
ATOM     81  C   UNL A   1      32.683  25.091  22.855  1.00  0.00     0.008 A 
ATOM     82  C   UNL A   1      33.489  26.236  22.961  1.00  0.00     0.011 A 
ATOM     83  C   UNL A   1      31.378  25.144  23.372  1.00  0.00     0.031 A 
ATOM     84  C   UNL A   1      33.054  27.354  23.677  1.00  0.00     0.022 A 
ATOM     85  C   UNL A   1      30.929  26.273  24.069  1.00  0.00     0.060 A 
ATOM     86  C   UNL A   1      31.782  27.368  24.250  1.00  0.00     0.059 A 
ATOM     87  Cl  UNL A   1      29.337  26.221  24.737  1.00  0.00    -0.083 Cl
ATOM     88  Cl  UNL A   1      31.343  28.742  25.198  1.00  0.00    -0.083 Cl
ENDBRANCH  80  81
ENDBRANCH  72  80
ENDBRANCH  66  69
ENDBRANCH  64  65
ENDBRANCH  63  64
ENDBRANCH   1  63
TORSDOF 13
ENDMDL
