MODEL 1
REMARK VINA RESULT:     -11.7      0.000      0.000
REMARK SMILES O=C(NCCCCNC(=O)c1ccc(S(=O)(=O)Cc2cccs2)c(F)c1)c1ccc(-c2c3nc(c(-c4c(F)cccc4F)c4ccc([nH]4)c(-c4c(F)cccc4F)c4nc(c(-c5c(F)cccc5F)c5ccc2[nH]5)C=C4)C=C3)cc1
REMARK SMILES IDX 6 1 5 2 4 3 3 4 1 5 2 6 27 8 28 9 80 10 29 11 79 12 30 13
REMARK SMILES IDX 31 14 32 15 73 16 33 17 78 18 72 19 74 20 34 21 77 22 71 23
REMARK SMILES IDX 70 24 35 26 61 27 44 28 60 29 45 30 48 31 59 32 75 33 46 34
REMARK SMILES IDX 47 35 58 37 76 38 49 39 36 40 37 41 42 42 38 43 39 44 41 45
REMARK SMILES IDX 43 46 40 47 62 48 63 49 68 50 64 51 65 52 67 53 69 54 66 55
REMARK SMILES IDX 50 56 51 57 56 58 52 59 53 60 55 61 57 62 54 63 7 64 8 65
REMARK SMILES IDX 9 66 10 68 11 69 12 70 26 71 13 72 24 73 14 74 25 75 15 76
REMARK SMILES IDX 16 77 17 78 18 79 19 80 20 81 23 82 21 83 22 84
REMARK H PARENT 3 7 74 25 48 36 8 67
REMARK Flexibility Score: inf
ROOT
ATOM      1  C   UNL A   1      31.517  30.517  26.109  1.00  0.00     0.023 C 
ENDROOT
BRANCH   1   2
ATOM      2  C   UNL A   1      31.358  31.908  26.727  1.00  0.00     0.023 C 
BRANCH   2   3
ATOM      3  C   UNL A   1      32.653  32.580  27.167  1.00  0.00     0.116 C 
BRANCH   3   4
ATOM      4  N   UNL A   1      32.459  33.956  27.598  1.00  0.00    -0.352 N 
ATOM      5  O   UNL A   1      32.721  35.785  28.887  1.00  0.00    -0.269 OA
ATOM      6  C   UNL A   1      33.115  34.667  28.572  1.00  0.00     0.251 C 
ATOM      7  H   UNL A   1      31.752  34.449  27.122  1.00  0.00     0.163 HD
BRANCH   6   8
ATOM      8  C   UNL A   1      34.276  34.072  29.266  1.00  0.00     0.039 A 
ATOM      9  C   UNL A   1      35.582  34.431  28.922  1.00  0.00     0.014 A 
ATOM     10  C   UNL A   1      34.047  33.142  30.284  1.00  0.00     0.014 A 
ATOM     11  C   UNL A   1      36.658  33.767  29.504  1.00  0.00     0.010 A 
ATOM     12  C   UNL A   1      35.129  32.526  30.915  1.00  0.00     0.010 A 
ATOM     13  C   UNL A   1      36.442  32.809  30.507  1.00  0.00    -0.014 A 
BRANCH  13  14
ATOM     14  C   UNL A   1      37.596  32.136  31.149  1.00  0.00     0.031 A 
ATOM     15  C   UNL A   1      38.350  31.053  30.434  1.00  0.00     0.074 A 
ATOM     16  C   UNL A   1      37.967  32.514  32.386  1.00  0.00     0.049 A 
ATOM     17  N   UNL A   1      39.356  30.331  30.859  1.00  0.00    -0.248 NA
ATOM     18  C   UNL A   1      37.920  30.734  29.064  1.00  0.00     0.031 C 
ATOM     19  C   UNL A   1      37.314  33.559  33.178  1.00  0.00     0.029 A 
ATOM     20  N   UNL A   1      38.983  32.070  33.191  1.00  0.00    -0.354 N 
ATOM     21  C   UNL A   1      39.665  29.460  29.822  1.00  0.00     0.074 A 
ATOM     22  C   UNL A   1      38.729  29.732  28.751  1.00  0.00     0.031 C 
ATOM     23  C   UNL A   1      37.968  33.698  34.341  1.00  0.00     0.029 A 
ATOM     24  C   UNL A   1      39.046  32.717  34.401  1.00  0.00     0.049 A 
ATOM     25  H   UNL A   1      39.609  31.357  32.928  1.00  0.00     0.167 HD
ATOM     26  C   UNL A   1      40.644  28.526  29.768  1.00  0.00     0.037 A 
ATOM     27  C   UNL A   1      39.866  32.530  35.451  1.00  0.00     0.037 A 
ATOM     28  C   UNL A   1      41.585  28.275  30.829  1.00  0.00     0.049 A 
ATOM     29  C   UNL A   1      40.922  31.467  35.381  1.00  0.00     0.074 A 
ATOM     30  C   UNL A   1      42.632  27.370  30.853  1.00  0.00     0.029 A 
ATOM     31  N   UNL A   1      41.592  28.929  32.051  1.00  0.00    -0.354 N 
ATOM     32  N   UNL A   1      41.206  30.656  34.391  1.00  0.00    -0.248 NA
ATOM     33  C   UNL A   1      41.762  31.285  36.572  1.00  0.00     0.031 C 
ATOM     34  C   UNL A   1      43.251  27.451  32.104  1.00  0.00     0.029 A 
ATOM     35  C   UNL A   1      42.614  28.434  32.844  1.00  0.00     0.049 A 
ATOM     36  H   UNL A   1      40.965  29.639  32.316  1.00  0.00     0.167 HD
ATOM     37  C   UNL A   1      42.264  29.875  34.833  1.00  0.00     0.074 A 
ATOM     38  C   UNL A   1      42.578  30.315  36.177  1.00  0.00     0.031 C 
ATOM     39  C   UNL A   1      42.914  28.883  34.180  1.00  0.00     0.037 A 
BRANCH  26  40
ATOM     40  C   UNL A   1      40.745  27.693  28.526  1.00  0.00     0.057 A 
ATOM     41  C   UNL A   1      41.520  28.122  27.441  1.00  0.00     0.134 A 
ATOM     42  C   UNL A   1      40.031  26.498  28.379  1.00  0.00     0.134 A 
ATOM     43  F   UNL A   1      42.225  29.261  27.516  1.00  0.00    -0.206 F 
ATOM     44  C   UNL A   1      41.575  27.395  26.251  1.00  0.00     0.040 A 
ATOM     45  C   UNL A   1      40.093  25.752  27.200  1.00  0.00     0.040 A 
ATOM     46  F   UNL A   1      39.279  26.027  29.385  1.00  0.00    -0.206 F 
ATOM     47  C   UNL A   1      40.862  26.205  26.129  1.00  0.00     0.006 A 
ENDBRANCH  26  40
BRANCH  27  48
ATOM     48  C   UNL A   1      39.709  33.385  36.651  1.00  0.00     0.057 A 
ATOM     49  C   UNL A   1      38.792  33.064  37.659  1.00  0.00     0.134 A 
ATOM     50  C   UNL A   1      40.425  34.579  36.781  1.00  0.00     0.134 A 
ATOM     51  F   UNL A   1      38.070  31.937  37.582  1.00  0.00    -0.206 F 
ATOM     52  C   UNL A   1      38.574  33.915  38.743  1.00  0.00     0.040 A 
ATOM     53  C   UNL A   1      40.231  35.429  37.871  1.00  0.00     0.040 A 
ATOM     54  F   UNL A   1      41.326  34.931  35.851  1.00  0.00    -0.206 F 
ATOM     55  C   UNL A   1      39.295  35.102  38.850  1.00  0.00     0.006 A 
ENDBRANCH  27  48
BRANCH  39  56
ATOM     56  C   UNL A   1      44.044  28.210  34.897  1.00  0.00     0.057 A 
ATOM     57  C   UNL A   1      45.350  28.707  34.795  1.00  0.00     0.134 A 
ATOM     58  C   UNL A   1      43.852  27.029  35.622  1.00  0.00     0.134 A 
ATOM     59  F   UNL A   1      45.599  29.831  34.107  1.00  0.00    -0.206 F 
ATOM     60  C   UNL A   1      46.429  28.042  35.379  1.00  0.00     0.040 A 
ATOM     61  C   UNL A   1      44.921  26.366  36.226  1.00  0.00     0.040 A 
ATOM     62  F   UNL A   1      42.623  26.509  35.764  1.00  0.00    -0.206 F 
ATOM     63  C   UNL A   1      46.215  26.868  36.097  1.00  0.00     0.006 A 
ENDBRANCH  39  56
ENDBRANCH  13  14
ENDBRANCH   6   8
ENDBRANCH   3   4
ENDBRANCH   2   3
ENDBRANCH   1   2
BRANCH   1  64
ATOM     64  C   UNL A   1      32.954  30.008  26.023  1.00  0.00     0.116 C 
BRANCH  64  65
ATOM     65  N   UNL A   1      33.345  29.709  24.657  1.00  0.00    -0.352 N 
ATOM     66  C   UNL A   1      33.345  28.496  24.016  1.00  0.00     0.251 C 
ATOM     67  H   UNL A   1      33.649  30.476  24.120  1.00  0.00     0.163 HD
ATOM     68  O   UNL A   1      33.785  28.365  22.884  1.00  0.00    -0.269 OA
BRANCH  66  69
ATOM     69  C   UNL A   1      32.809  27.330  24.730  1.00  0.00     0.042 A 
ATOM     70  C   UNL A   1      33.655  26.552  25.528  1.00  0.00     0.015 A 
ATOM     71  C   UNL A   1      31.464  27.004  24.570  1.00  0.00     0.054 A 
ATOM     72  C   UNL A   1      33.145  25.420  26.164  1.00  0.00     0.024 A 
ATOM     73  C   UNL A   1      30.971  25.861  25.189  1.00  0.00     0.142 A 
ATOM     74  C   UNL A   1      31.797  25.080  25.990  1.00  0.00     0.103 A 
ATOM     75  F   UNL A   1      29.691  25.532  24.982  1.00  0.00    -0.206 F 
BRANCH  74  76
ATOM     76  S   UNL A   1      31.172  23.606  26.738  1.00  0.00     0.186 S 
ATOM     77  O   UNL A   1      32.203  23.192  27.674  1.00  0.00    -0.223 OA
ATOM     78  O   UNL A   1      29.846  23.928  27.240  1.00  0.00    -0.223 OA
BRANCH  76  79
ATOM     79  C   UNL A   1      31.017  22.339  25.493  1.00  0.00     0.188 C 
BRANCH  79  80
ATOM     80  C   UNL A   1      32.029  22.477  24.399  1.00  0.00     0.020 A 
ATOM     81  C   UNL A   1      31.863  22.991  23.125  1.00  0.00     0.016 A 
ATOM     82  S   UNL A   1      33.672  22.075  24.693  1.00  0.00    -0.148 S 
ATOM     83  C   UNL A   1      33.080  23.022  22.385  1.00  0.00     0.012 A 
ATOM     84  C   UNL A   1      34.143  22.559  23.126  1.00  0.00     0.065 A 
ENDBRANCH  79  80
ENDBRANCH  76  79
ENDBRANCH  74  76
ENDBRANCH  66  69
ENDBRANCH  64  65
ENDBRANCH   1  64
TORSDOF 14
ENDMDL
MODEL 2
REMARK VINA RESULT:     -11.7      0.599      6.221
REMARK SMILES O=C(NCCCCNC(=O)c1ccc(S(=O)(=O)Cc2cccs2)c(F)c1)c1ccc(-c2c3nc(c(-c4c(F)cccc4F)c4ccc([nH]4)c(-c4c(F)cccc4F)c4nc(c(-c5c(F)cccc5F)c5ccc2[nH]5)C=C4)C=C3)cc1
REMARK SMILES IDX 6 1 5 2 4 3 3 4 1 5 2 6 27 8 28 9 80 10 29 11 79 12 30 13
REMARK SMILES IDX 31 14 32 15 73 16 33 17 78 18 72 19 74 20 34 21 77 22 71 23
REMARK SMILES IDX 70 24 35 26 61 27 44 28 60 29 45 30 48 31 59 32 75 33 46 34
REMARK SMILES IDX 47 35 58 37 76 38 49 39 36 40 37 41 42 42 38 43 39 44 41 45
REMARK SMILES IDX 43 46 40 47 62 48 63 49 68 50 64 51 65 52 67 53 69 54 66 55
REMARK SMILES IDX 50 56 51 57 56 58 52 59 53 60 55 61 57 62 54 63 7 64 8 65
REMARK SMILES IDX 9 66 10 68 11 69 12 70 26 71 13 72 24 73 14 74 25 75 15 76
REMARK SMILES IDX 16 77 17 78 18 79 19 80 20 81 23 82 21 83 22 84
REMARK H PARENT 3 7 74 25 48 36 8 67
REMARK Flexibility Score: inf
ROOT
ATOM      1  C   UNL A   1      31.400  30.709  25.866  1.00  0.00     0.023 C 
ENDROOT
BRANCH   1   2
ATOM      2  C   UNL A   1      31.332  32.100  26.501  1.00  0.00     0.023 C 
BRANCH   2   3
ATOM      3  C   UNL A   1      32.587  32.541  27.244  1.00  0.00     0.116 C 
BRANCH   3   4
ATOM      4  N   UNL A   1      32.557  33.946  27.622  1.00  0.00    -0.352 N 
ATOM      5  O   UNL A   1      33.086  35.791  28.802  1.00  0.00    -0.269 OA
ATOM      6  C   UNL A   1      33.347  34.627  28.515  1.00  0.00     0.251 C 
ATOM      7  H   UNL A   1      31.869  34.487  27.172  1.00  0.00     0.163 HD
BRANCH   6   8
ATOM      8  C   UNL A   1      34.493  33.949  29.156  1.00  0.00     0.039 A 
ATOM      9  C   UNL A   1      35.807  34.252  28.788  1.00  0.00     0.014 A 
ATOM     10  C   UNL A   1      34.241  32.998  30.149  1.00  0.00     0.014 A 
ATOM     11  C   UNL A   1      36.860  33.512  29.318  1.00  0.00     0.010 A 
ATOM     12  C   UNL A   1      35.304  32.305  30.729  1.00  0.00     0.010 A 
ATOM     13  C   UNL A   1      36.619  32.533  30.295  1.00  0.00    -0.014 A 
BRANCH  13  14
ATOM     14  C   UNL A   1      37.753  31.778  30.882  1.00  0.00     0.031 A 
ATOM     15  C   UNL A   1      38.207  32.043  32.287  1.00  0.00     0.074 A 
ATOM     16  C   UNL A   1      38.368  30.842  30.137  1.00  0.00     0.049 A 
ATOM     17  N   UNL A   1      39.204  31.506  32.945  1.00  0.00    -0.248 NA
ATOM     18  C   UNL A   1      37.449  33.041  33.057  1.00  0.00     0.031 C 
ATOM     19  C   UNL A   1      38.011  30.493  28.760  1.00  0.00     0.029 A 
ATOM     20  N   UNL A   1      39.417  30.010  30.432  1.00  0.00    -0.354 N 
ATOM     21  C   UNL A   1      39.207  32.114  34.194  1.00  0.00     0.074 A 
ATOM     22  C   UNL A   1      38.123  33.074  34.198  1.00  0.00     0.031 C 
ATOM     23  C   UNL A   1      38.805  29.495  28.342  1.00  0.00     0.029 A 
ATOM     24  C   UNL A   1      39.761  29.176  29.397  1.00  0.00     0.049 A 
ATOM     25  H   UNL A   1      39.879  30.010  31.301  1.00  0.00     0.167 HD
ATOM     26  C   UNL A   1      40.035  31.886  35.241  1.00  0.00     0.037 A 
ATOM     27  C   UNL A   1      40.748  28.267  29.299  1.00  0.00     0.037 A 
ATOM     28  C   UNL A   1      41.098  30.916  35.238  1.00  0.00     0.049 A 
ATOM     29  C   UNL A   1      41.673  28.055  30.460  1.00  0.00     0.074 A 
ATOM     30  C   UNL A   1      41.970  30.592  36.264  1.00  0.00     0.029 A 
ATOM     31  N   UNL A   1      41.436  30.115  34.158  1.00  0.00    -0.354 N 
ATOM     32  N   UNL A   1      41.660  28.633  31.636  1.00  0.00    -0.248 NA
ATOM     33  C   UNL A   1      42.755  27.077  30.279  1.00  0.00     0.031 C 
ATOM     34  C   UNL A   1      42.858  29.620  35.792  1.00  0.00     0.029 A 
ATOM     35  C   UNL A   1      42.514  29.310  34.487  1.00  0.00     0.049 A 
ATOM     36  H   UNL A   1      40.977  30.117  33.288  1.00  0.00     0.167 HD
ATOM     37  C   UNL A   1      42.720  28.082  32.342  1.00  0.00     0.074 A 
ATOM     38  C   UNL A   1      43.351  27.116  31.464  1.00  0.00     0.031 C 
ATOM     39  C   UNL A   1      43.131  28.354  33.603  1.00  0.00     0.037 A 
BRANCH  26  40
ATOM     40  C   UNL A   1      39.835  32.708  36.480  1.00  0.00     0.057 A 
ATOM     41  C   UNL A   1      38.837  32.373  37.403  1.00  0.00     0.134 A 
ATOM     42  C   UNL A   1      40.589  33.861  36.729  1.00  0.00     0.134 A 
ATOM     43  F   UNL A   1      38.078  31.283  37.220  1.00  0.00    -0.206 F 
ATOM     44  C   UNL A   1      38.591  33.162  38.529  1.00  0.00     0.040 A 
ATOM     45  C   UNL A   1      40.364  34.648  37.861  1.00  0.00     0.040 A 
ATOM     46  F   UNL A   1      41.566  34.230  35.888  1.00  0.00    -0.206 F 
ATOM     47  C   UNL A   1      39.357  34.302  38.760  1.00  0.00     0.006 A 
ENDBRANCH  26  40
BRANCH  27  48
ATOM     48  C   UNL A   1      40.893  27.492  28.044  1.00  0.00     0.057 A 
ATOM     49  C   UNL A   1      40.281  26.243  27.884  1.00  0.00     0.134 A 
ATOM     50  C   UNL A   1      41.703  27.956  27.002  1.00  0.00     0.134 A 
ATOM     51  F   UNL A   1      39.501  25.743  28.854  1.00  0.00    -0.206 F 
ATOM     52  C   UNL A   1      40.491  25.469  26.742  1.00  0.00     0.040 A 
ATOM     53  C   UNL A   1      41.905  27.201  25.846  1.00  0.00     0.040 A 
ATOM     54  F   UNL A   1      42.304  29.151  27.096  1.00  0.00    -0.206 F 
ATOM     55  C   UNL A   1      41.306  25.949  25.719  1.00  0.00     0.006 A 
ENDBRANCH  27  48
BRANCH  39  56
ATOM     56  C   UNL A   1      44.309  27.591  34.125  1.00  0.00     0.057 A 
ATOM     57  C   UNL A   1      45.608  28.094  33.975  1.00  0.00     0.134 A 
ATOM     58  C   UNL A   1      44.164  26.326  34.704  1.00  0.00     0.134 A 
ATOM     59  F   UNL A   1      45.812  29.298  33.420  1.00  0.00    -0.206 F 
ATOM     60  C   UNL A   1      46.724  27.356  34.371  1.00  0.00     0.040 A 
ATOM     61  C   UNL A   1      45.272  25.587  35.121  1.00  0.00     0.040 A 
ATOM     62  F   UNL A   1      42.944  25.795  34.884  1.00  0.00    -0.206 F 
ATOM     63  C   UNL A   1      46.557  26.099  34.946  1.00  0.00     0.006 A 
ENDBRANCH  39  56
ENDBRANCH  13  14
ENDBRANCH   6   8
ENDBRANCH   3   4
ENDBRANCH   2   3
ENDBRANCH   1   2
BRANCH   1  64
ATOM     64  C   UNL A   1      32.767  30.032  25.935  1.00  0.00     0.116 C 
BRANCH  64  65
ATOM     65  N   UNL A   1      33.278  29.702  24.617  1.00  0.00    -0.352 N 
ATOM     66  C   UNL A   1      33.376  28.469  24.025  1.00  0.00     0.251 C 
ATOM     67  H   UNL A   1      33.595  30.462  24.078  1.00  0.00     0.163 HD
ATOM     68  O   UNL A   1      33.911  28.317  22.937  1.00  0.00    -0.269 OA
BRANCH  66  69
ATOM     69  C   UNL A   1      32.829  27.307  24.737  1.00  0.00     0.042 A 
ATOM     70  C   UNL A   1      33.649  26.567  25.596  1.00  0.00     0.015 A 
ATOM     71  C   UNL A   1      31.501  26.947  24.516  1.00  0.00     0.054 A 
ATOM     72  C   UNL A   1      33.131  25.438  26.231  1.00  0.00     0.024 A 
ATOM     73  C   UNL A   1      31.001  25.808  25.135  1.00  0.00     0.142 A 
ATOM     74  C   UNL A   1      31.801  25.064  25.996  1.00  0.00     0.103 A 
ATOM     75  F   UNL A   1      29.741  25.445  24.871  1.00  0.00    -0.206 F 
BRANCH  74  76
ATOM     76  S   UNL A   1      31.170  23.593  26.745  1.00  0.00     0.186 S 
ATOM     77  O   UNL A   1      32.194  23.182  27.690  1.00  0.00    -0.223 OA
ATOM     78  O   UNL A   1      29.840  23.918  27.236  1.00  0.00    -0.223 OA
BRANCH  76  79
ATOM     79  C   UNL A   1      31.022  22.322  25.504  1.00  0.00     0.188 C 
BRANCH  79  80
ATOM     80  C   UNL A   1      32.029  22.467  24.406  1.00  0.00     0.020 A 
ATOM     81  C   UNL A   1      31.845  22.943  23.120  1.00  0.00     0.016 A 
ATOM     82  S   UNL A   1      33.684  22.127  24.708  1.00  0.00    -0.148 S 
ATOM     83  C   UNL A   1      33.061  22.996  22.378  1.00  0.00     0.012 A 
ATOM     84  C   UNL A   1      34.139  22.588  23.129  1.00  0.00     0.065 A 
ENDBRANCH  79  80
ENDBRANCH  76  79
ENDBRANCH  74  76
ENDBRANCH  66  69
ENDBRANCH  64  65
ENDBRANCH   1  64
TORSDOF 14
ENDMDL
MODEL 3
REMARK VINA RESULT:     -11.6      4.569      9.407
REMARK SMILES O=C(NCCCCNC(=O)c1ccc(S(=O)(=O)Cc2cccs2)c(F)c1)c1ccc(-c2c3nc(c(-c4c(F)cccc4F)c4ccc([nH]4)c(-c4c(F)cccc4F)c4nc(c(-c5c(F)cccc5F)c5ccc2[nH]5)C=C4)C=C3)cc1
REMARK SMILES IDX 6 1 5 2 4 3 3 4 1 5 2 6 27 8 28 9 80 10 29 11 79 12 30 13
REMARK SMILES IDX 31 14 32 15 73 16 33 17 78 18 72 19 74 20 34 21 77 22 71 23
REMARK SMILES IDX 70 24 35 26 61 27 44 28 60 29 45 30 48 31 59 32 75 33 46 34
REMARK SMILES IDX 47 35 58 37 76 38 49 39 36 40 37 41 42 42 38 43 39 44 41 45
REMARK SMILES IDX 43 46 40 47 62 48 63 49 68 50 64 51 65 52 67 53 69 54 66 55
REMARK SMILES IDX 50 56 51 57 56 58 52 59 53 60 55 61 57 62 54 63 7 64 8 65
REMARK SMILES IDX 9 66 10 68 11 69 12 70 26 71 13 72 24 73 14 74 25 75 15 76
REMARK SMILES IDX 16 77 17 78 18 79 19 80 20 81 23 82 21 83 22 84
REMARK H PARENT 3 7 74 25 48 36 8 67
REMARK Flexibility Score: inf
ROOT
ATOM      1  C   UNL A   1      36.317  20.342  25.029  1.00  0.00     0.023 C 
ENDROOT
BRANCH   1   2
ATOM      2  C   UNL A   1      37.764  19.998  24.667  1.00  0.00     0.023 C 
BRANCH   2   3
ATOM      3  C   UNL A   1      38.795  20.282  25.753  1.00  0.00     0.116 C 
BRANCH   3   4
ATOM      4  N   UNL A   1      39.900  19.337  25.746  1.00  0.00    -0.352 N 
ATOM      5  O   UNL A   1      42.040  18.642  25.871  1.00  0.00    -0.269 OA
ATOM      6  C   UNL A   1      41.221  19.534  26.064  1.00  0.00     0.251 C 
ATOM      7  H   UNL A   1      39.666  18.420  25.473  1.00  0.00     0.163 HD
BRANCH   6   8
ATOM      8  C   UNL A   1      41.663  20.835  26.608  1.00  0.00     0.039 A 
ATOM      9  C   UNL A   1      41.675  21.073  27.985  1.00  0.00     0.014 A 
ATOM     10  C   UNL A   1      42.080  21.829  25.718  1.00  0.00     0.014 A 
ATOM     11  C   UNL A   1      41.978  22.345  28.464  1.00  0.00     0.010 A 
ATOM     12  C   UNL A   1      42.450  23.084  26.205  1.00  0.00     0.010 A 
ATOM     13  C   UNL A   1      42.370  23.362  27.579  1.00  0.00    -0.014 A 
BRANCH  13  14
ATOM     14  C   UNL A   1      42.729  24.701  28.102  1.00  0.00     0.031 A 
ATOM     15  C   UNL A   1      41.676  25.745  28.332  1.00  0.00     0.074 A 
ATOM     16  C   UNL A   1      44.019  24.970  28.378  1.00  0.00     0.049 A 
ATOM     17  N   UNL A   1      41.815  26.980  28.745  1.00  0.00    -0.248 NA
ATOM     18  C   UNL A   1      40.283  25.358  28.060  1.00  0.00     0.031 C 
ATOM     19  C   UNL A   1      45.130  24.033  28.201  1.00  0.00     0.029 A 
ATOM     20  N   UNL A   1      44.612  26.104  28.869  1.00  0.00    -0.354 N 
ATOM     21  C   UNL A   1      40.537  27.522  28.763  1.00  0.00     0.074 A 
ATOM     22  C   UNL A   1      39.634  26.489  28.303  1.00  0.00     0.031 C 
ATOM     23  C   UNL A   1      46.265  24.619  28.610  1.00  0.00     0.029 A 
ATOM     24  C   UNL A   1      45.971  25.988  29.022  1.00  0.00     0.049 A 
ATOM     25  H   UNL A   1      44.112  26.923  29.091  1.00  0.00     0.167 HD
ATOM     26  C   UNL A   1      40.154  28.767  29.136  1.00  0.00     0.037 A 
ATOM     27  C   UNL A   1      46.885  26.887  29.431  1.00  0.00     0.037 A 
ATOM     28  C   UNL A   1      41.055  29.784  29.613  1.00  0.00     0.049 A 
ATOM     29  C   UNL A   1      46.441  28.269  29.807  1.00  0.00     0.074 A 
ATOM     30  C   UNL A   1      40.755  31.065  30.043  1.00  0.00     0.029 A 
ATOM     31  N   UNL A   1      42.429  29.637  29.721  1.00  0.00    -0.354 N 
ATOM     32  N   UNL A   1      45.228  28.766  29.825  1.00  0.00    -0.248 NA
ATOM     33  C   UNL A   1      47.489  29.217  30.209  1.00  0.00     0.031 C 
ATOM     34  C   UNL A   1      41.952  31.705  30.378  1.00  0.00     0.029 A 
ATOM     35  C   UNL A   1      42.993  30.810  30.194  1.00  0.00     0.049 A 
ATOM     36  H   UNL A   1      42.929  28.820  29.495  1.00  0.00     0.167 HD
ATOM     37  C   UNL A   1      45.363  30.080  30.250  1.00  0.00     0.074 A 
ATOM     38  C   UNL A   1      46.775  30.301  30.489  1.00  0.00     0.031 C 
ATOM     39  C   UNL A   1      44.400  31.015  30.426  1.00  0.00     0.037 A 
BRANCH  26  40
ATOM     40  C   UNL A   1      38.698  29.108  29.034  1.00  0.00     0.057 A 
ATOM     41  C   UNL A   1      38.152  29.546  27.821  1.00  0.00     0.134 A 
ATOM     42  C   UNL A   1      37.849  29.061  30.147  1.00  0.00     0.134 A 
ATOM     43  F   UNL A   1      38.912  29.618  26.719  1.00  0.00    -0.206 F 
ATOM     44  C   UNL A   1      36.814  29.932  27.720  1.00  0.00     0.040 A 
ATOM     45  C   UNL A   1      36.505  29.427  30.054  1.00  0.00     0.040 A 
ATOM     46  F   UNL A   1      38.309  28.641  31.335  1.00  0.00    -0.206 F 
ATOM     47  C   UNL A   1      35.986  29.871  28.839  1.00  0.00     0.006 A 
ENDBRANCH  26  40
BRANCH  27  48
ATOM     48  C   UNL A   1      48.310  26.485  29.504  1.00  0.00     0.057 A 
ATOM     49  C   UNL A   1      48.839  25.885  30.652  1.00  0.00     0.134 A 
ATOM     50  C   UNL A   1      49.187  26.756  28.449  1.00  0.00     0.134 A 
ATOM     51  F   UNL A   1      48.047  25.611  31.699  1.00  0.00    -0.206 F 
ATOM     52  C   UNL A   1      50.199  25.591  30.760  1.00  0.00     0.040 A 
ATOM     53  C   UNL A   1      50.546  26.449  28.536  1.00  0.00     0.040 A 
ATOM     54  F   UNL A   1      48.732  27.319  27.321  1.00  0.00    -0.206 F 
ATOM     55  C   UNL A   1      51.056  25.875  29.699  1.00  0.00     0.006 A 
ENDBRANCH  27  48
BRANCH  39  56
ATOM     56  C   UNL A   1      44.830  32.364  30.915  1.00  0.00     0.057 A 
ATOM     57  C   UNL A   1      44.915  32.630  32.288  1.00  0.00     0.134 A 
ATOM     58  C   UNL A   1      45.083  33.418  30.031  1.00  0.00     0.134 A 
ATOM     59  F   UNL A   1      44.676  31.663  33.186  1.00  0.00    -0.206 F 
ATOM     60  C   UNL A   1      45.223  33.905  32.764  1.00  0.00     0.040 A 
ATOM     61  C   UNL A   1      45.411  34.692  30.495  1.00  0.00     0.040 A 
ATOM     62  F   UNL A   1      45.028  33.222  28.704  1.00  0.00    -0.206 F 
ATOM     63  C   UNL A   1      45.472  34.940  31.866  1.00  0.00     0.006 A 
ENDBRANCH  39  56
ENDBRANCH  13  14
ENDBRANCH   6   8
ENDBRANCH   3   4
ENDBRANCH   2   3
ENDBRANCH   1   2
BRANCH   1  64
ATOM     64  C   UNL A   1      36.132  21.664  25.770  1.00  0.00     0.116 C 
BRANCH  64  65
ATOM     65  N   UNL A   1      35.171  21.551  26.853  1.00  0.00    -0.352 N 
ATOM     66  C   UNL A   1      34.056  22.315  27.086  1.00  0.00     0.251 C 
ATOM     67  H   UNL A   1      35.341  20.832  27.504  1.00  0.00     0.163 HD
ATOM     68  O   UNL A   1      33.374  22.171  28.090  1.00  0.00    -0.269 OA
BRANCH  66  69
ATOM     69  C   UNL A   1      33.693  23.339  26.098  1.00  0.00     0.042 A 
ATOM     70  C   UNL A   1      34.573  24.393  25.831  1.00  0.00     0.015 A 
ATOM     71  C   UNL A   1      32.454  23.253  25.466  1.00  0.00     0.054 A 
ATOM     72  C   UNL A   1      34.197  25.386  24.925  1.00  0.00     0.024 A 
ATOM     73  C   UNL A   1      32.079  24.259  24.583  1.00  0.00     0.142 A 
ATOM     74  C   UNL A   1      32.944  25.311  24.302  1.00  0.00     0.103 A 
ATOM     75  F   UNL A   1      30.865  24.190  24.024  1.00  0.00    -0.206 F 
BRANCH  74  76
ATOM     76  S   UNL A   1      32.441  26.606  23.210  1.00  0.00     0.186 S 
ATOM     77  O   UNL A   1      33.553  27.541  23.197  1.00  0.00    -0.223 OA
ATOM     78  O   UNL A   1      32.037  25.966  21.968  1.00  0.00    -0.223 OA
BRANCH  76  79
ATOM     79  C   UNL A   1      31.028  27.441  23.905  1.00  0.00     0.188 C 
BRANCH  79  80
ATOM     80  C   UNL A   1      31.309  28.028  25.254  1.00  0.00     0.020 A 
ATOM     81  C   UNL A   1      31.327  27.399  26.485  1.00  0.00     0.016 A 
ATOM     82  S   UNL A   1      31.790  29.670  25.391  1.00  0.00    -0.148 S 
ATOM     83  C   UNL A   1      31.705  28.277  27.542  1.00  0.00     0.012 A 
ATOM     84  C   UNL A   1      31.993  29.540  27.081  1.00  0.00     0.065 A 
ENDBRANCH  79  80
ENDBRANCH  76  79
ENDBRANCH  74  76
ENDBRANCH  66  69
ENDBRANCH  64  65
ENDBRANCH   1  64
TORSDOF 14
ENDMDL
