MODEL 1
REMARK VINA RESULT:     -11.6      0.000      0.000
REMARK SMILES [NH3+][C@@]1(C(=O)NCCCCNC(=O)c2ccc(-c3c4nc(c(-c5c(F)cccc5F)c5ccc([nH]5)c(-c5c(F)cccc5F)c5nc(c(-c6c(F)cccc6F)c6ccc3[nH]6)C=C5)C=C4)cc2)CCC[C@@H](Oc2ccccc2[N+](=O)[O-])C1
REMARK SMILES IDX 7 1 6 2 5 3 3 4 4 5 2 7 67 8 81 9 68 10 70 11 69 12 1 13
REMARK SMILES IDX 71 17 72 18 73 19 77 20 74 21 76 22 75 23 78 24 79 25 80 26
REMARK SMILES IDX 8 27 9 28 10 29 11 30 12 32 13 33 14 34 66 35 15 36 65 37
REMARK SMILES IDX 16 38 17 39 18 40 59 41 19 42 64 43 58 44 60 45 20 46 63 47
REMARK SMILES IDX 57 48 56 49 21 51 47 52 30 53 46 54 31 55 34 56 45 57 61 58
REMARK SMILES IDX 32 59 33 60 44 62 62 63 35 64 22 65 23 66 28 67 24 68 25 69
REMARK SMILES IDX 27 70 29 71 26 72 48 73 49 74 54 75 50 76 51 77 53 78 55 79
REMARK SMILES IDX 52 80 36 81 37 82 42 83 38 84 39 85 41 86 43 87 40 88
REMARK H PARENT 5 6 1 14 1 15 1 16 10 31 60 50 34 61
REMARK Flexibility Score: inf
ROOT
ATOM      1  C   UNL A   1      37.069  21.825  24.520  1.00  0.00     0.023 C 
ENDROOT
BRANCH   1   2
ATOM      2  C   UNL A   1      36.563  22.694  25.678  1.00  0.00     0.116 C 
BRANCH   2   3
ATOM      3  N   UNL A   1      35.602  22.005  26.518  1.00  0.00    -0.351 N 
ATOM      4  C   UNL A   1      34.235  21.956  26.485  1.00  0.00     0.281 C 
ATOM      5  O   UNL A   1      33.703  21.244  27.344  1.00  0.00    -0.268 OA
ATOM      6  H   UNL A   1      36.006  21.478  27.244  1.00  0.00     0.163 HD
BRANCH   4   7
ATOM      7  C   UNL A   1      33.373  22.653  25.366  1.00  0.00     0.177 C 
ATOM      8  C   UNL A   1      33.566  21.877  24.045  1.00  0.00     0.079 C 
ATOM      9  C   UNL A   1      33.903  24.094  25.183  1.00  0.00     0.124 C 
ATOM     10  C   UNL A   1      32.880  22.539  22.851  1.00  0.00     0.011 C 
ATOM     11  C   UNL A   1      33.506  24.832  23.887  1.00  0.00     0.180 C 
ATOM     12  C   UNL A   1      33.365  23.966  22.625  1.00  0.00     0.046 C 
BRANCH   7  13
ATOM     13  N   UNL A   1      31.942  22.584  25.711  1.00  0.00    -0.345 N 
ATOM     14  H   UNL A   1      31.612  21.626  25.605  1.00  0.00     0.345 HD
ATOM     15  H   UNL A   1      31.413  23.197  25.089  1.00  0.00     0.345 HD
ATOM     16  H   UNL A   1      31.811  22.885  26.676  1.00  0.00     0.345 HD
ENDBRANCH   7  13
BRANCH  11  17
ATOM     17  O   UNL A   1      32.496  25.860  24.004  1.00  0.00    -0.483 OA
BRANCH  17  18
ATOM     18  C   UNL A   1      32.555  26.700  25.069  1.00  0.00     0.197 A 
ATOM     19  C   UNL A   1      33.676  27.514  25.230  1.00  0.00     0.054 A 
ATOM     20  C   UNL A   1      31.569  26.712  26.062  1.00  0.00     0.310 A 
ATOM     21  C   UNL A   1      33.741  28.424  26.290  1.00  0.00     0.004 A 
ATOM     22  C   UNL A   1      31.614  27.636  27.116  1.00  0.00     0.090 A 
ATOM     23  C   UNL A   1      32.699  28.506  27.215  1.00  0.00     0.007 A 
BRANCH  20  24
ATOM     24  N   UNL A   1      30.439  25.797  26.007  1.00  0.00     0.066 N 
ATOM     25  O   UNL A   1      29.535  26.081  25.206  1.00  0.00    -0.258 OA
ATOM     26  O   UNL A   1      30.439  24.818  26.763  1.00  0.00    -0.258 OA
ENDBRANCH  20  24
ENDBRANCH  17  18
ENDBRANCH  11  17
ENDBRANCH   4   7
ENDBRANCH   2   3
ENDBRANCH   1   2
BRANCH   1  27
ATOM     27  C   UNL A   1      37.779  20.540  24.945  1.00  0.00     0.023 C 
BRANCH  27  28
ATOM     28  C   UNL A   1      39.051  20.746  25.758  1.00  0.00     0.116 C 
BRANCH  28  29
ATOM     29  N   UNL A   1      39.982  19.627  25.705  1.00  0.00    -0.352 N 
ATOM     30  C   UNL A   1      41.312  19.620  26.063  1.00  0.00     0.251 C 
ATOM     31  H   UNL A   1      39.617  18.776  25.372  1.00  0.00     0.163 HD
ATOM     32  O   UNL A   1      42.001  18.618  25.904  1.00  0.00    -0.269 OA
BRANCH  30  33
ATOM     33  C   UNL A   1      41.913  20.865  26.590  1.00  0.00     0.039 A 
ATOM     34  C   UNL A   1      42.414  21.807  25.689  1.00  0.00     0.014 A 
ATOM     35  C   UNL A   1      41.887  21.138  27.960  1.00  0.00     0.014 A 
ATOM     36  C   UNL A   1      42.798  23.067  26.154  1.00  0.00     0.010 A 
ATOM     37  C   UNL A   1      42.198  22.417  28.410  1.00  0.00     0.010 A 
ATOM     38  C   UNL A   1      42.641  23.399  27.510  1.00  0.00    -0.014 A 
BRANCH  38  39
ATOM     39  C   UNL A   1      42.903  24.775  28.007  1.00  0.00     0.031 A 
ATOM     40  C   UNL A   1      44.291  25.177  28.424  1.00  0.00     0.074 A 
ATOM     41  C   UNL A   1      41.877  25.634  28.168  1.00  0.00     0.049 A 
ATOM     42  N   UNL A   1      44.698  26.294  28.969  1.00  0.00    -0.248 NA
ATOM     43  C   UNL A   1      45.354  24.179  28.229  1.00  0.00     0.031 C 
ATOM     44  C   UNL A   1      40.474  25.350  27.858  1.00  0.00     0.029 A 
ATOM     45  N   UNL A   1      41.855  26.920  28.648  1.00  0.00    -0.354 N 
ATOM     46  C   UNL A   1      46.056  26.126  29.202  1.00  0.00     0.074 A 
ATOM     47  C   UNL A   1      46.394  24.782  28.784  1.00  0.00     0.031 C 
ATOM     48  C   UNL A   1      39.734  26.435  28.135  1.00  0.00     0.029 A 
ATOM     49  C   UNL A   1      40.599  27.479  28.673  1.00  0.00     0.049 A 
ATOM     50  H   UNL A   1      42.663  27.398  28.945  1.00  0.00     0.167 HD
ATOM     51  C   UNL A   1      46.948  27.016  29.698  1.00  0.00     0.037 A 
ATOM     52  C   UNL A   1      40.192  28.693  29.089  1.00  0.00     0.037 A 
ATOM     53  C   UNL A   1      46.621  28.364  30.082  1.00  0.00     0.049 A 
ATOM     54  C   UNL A   1      41.203  29.669  29.622  1.00  0.00     0.074 A 
ATOM     55  C   UNL A   1      47.469  29.363  30.529  1.00  0.00     0.029 A 
ATOM     56  N   UNL A   1      45.343  28.902  30.062  1.00  0.00    -0.354 N 
ATOM     57  N   UNL A   1      42.496  29.519  29.772  1.00  0.00    -0.248 NA
ATOM     58  C   UNL A   1      40.698  30.984  30.043  1.00  0.00     0.031 C 
ATOM     59  C   UNL A   1      46.698  30.496  30.812  1.00  0.00     0.029 A 
ATOM     60  C   UNL A   1      45.377  30.214  30.504  1.00  0.00     0.049 A 
ATOM     61  H   UNL A   1      44.533  28.422  29.776  1.00  0.00     0.167 HD
ATOM     62  C   UNL A   1      42.962  30.726  30.276  1.00  0.00     0.074 A 
ATOM     63  C   UNL A   1      41.816  31.601  30.397  1.00  0.00     0.031 C 
ATOM     64  C   UNL A   1      44.229  31.076  30.609  1.00  0.00     0.037 A 
BRANCH  51  65
ATOM     65  C   UNL A   1      48.369  26.559  29.842  1.00  0.00     0.057 A 
ATOM     66  C   UNL A   1      49.324  26.797  28.844  1.00  0.00     0.134 A 
ATOM     67  C   UNL A   1      48.795  25.898  31.001  1.00  0.00     0.134 A 
ATOM     68  F   UNL A   1      48.976  27.414  27.705  1.00  0.00    -0.206 F 
ATOM     69  C   UNL A   1      50.645  26.367  28.980  1.00  0.00     0.040 A 
ATOM     70  C   UNL A   1      50.119  25.486  31.159  1.00  0.00     0.040 A 
ATOM     71  F   UNL A   1      47.934  25.644  31.997  1.00  0.00    -0.206 F 
ATOM     72  C   UNL A   1      51.047  25.715  30.144  1.00  0.00     0.006 A 
ENDBRANCH  51  65
BRANCH  52  73
ATOM     73  C   UNL A   1      38.759  29.069  28.993  1.00  0.00     0.057 A 
ATOM     74  C   UNL A   1      37.914  28.968  30.105  1.00  0.00     0.134 A 
ATOM     75  C   UNL A   1      38.198  29.527  27.796  1.00  0.00     0.134 A 
ATOM     76  F   UNL A   1      38.391  28.517  31.274  1.00  0.00    -0.206 F 
ATOM     77  C   UNL A   1      36.559  29.291  30.026  1.00  0.00     0.040 A 
ATOM     78  C   UNL A   1      36.848  29.874  27.707  1.00  0.00     0.040 A 
ATOM     79  F   UNL A   1      38.957  29.652  26.697  1.00  0.00    -0.206 F 
ATOM     80  C   UNL A   1      36.024  29.749  28.824  1.00  0.00     0.006 A 
ENDBRANCH  52  73
BRANCH  64  81
ATOM     81  C   UNL A   1      44.446  32.474  31.104  1.00  0.00     0.057 A 
ATOM     82  C   UNL A   1      44.423  32.786  32.469  1.00  0.00     0.134 A 
ATOM     83  C   UNL A   1      44.726  33.513  30.206  1.00  0.00     0.134 A 
ATOM     84  F   UNL A   1      44.146  31.839  33.378  1.00  0.00    -0.206 F 
ATOM     85  C   UNL A   1      44.654  34.085  32.923  1.00  0.00     0.040 A 
ATOM     86  C   UNL A   1      44.981  34.811  30.650  1.00  0.00     0.040 A 
ATOM     87  F   UNL A   1      44.770  33.277  28.887  1.00  0.00    -0.206 F 
ATOM     88  C   UNL A   1      44.941  35.100  32.012  1.00  0.00     0.006 A 
ENDBRANCH  64  81
ENDBRANCH  38  39
ENDBRANCH  30  33
ENDBRANCH  28  29
ENDBRANCH  27  28
ENDBRANCH   1  27
TORSDOF 15
ENDMDL
MODEL 2
REMARK VINA RESULT:     -11.5      1.235      1.709
REMARK SMILES [NH3+][C@@]1(C(=O)NCCCCNC(=O)c2ccc(-c3c4nc(c(-c5c(F)cccc5F)c5ccc([nH]5)c(-c5c(F)cccc5F)c5nc(c(-c6c(F)cccc6F)c6ccc3[nH]6)C=C5)C=C4)cc2)CCC[C@@H](Oc2ccccc2[N+](=O)[O-])C1
REMARK SMILES IDX 7 1 6 2 5 3 3 4 4 5 2 7 67 8 81 9 68 10 70 11 69 12 1 13
REMARK SMILES IDX 71 17 72 18 73 19 77 20 74 21 76 22 75 23 78 24 79 25 80 26
REMARK SMILES IDX 8 27 9 28 10 29 11 30 12 32 13 33 14 34 66 35 15 36 65 37
REMARK SMILES IDX 16 38 17 39 18 40 59 41 19 42 64 43 58 44 60 45 20 46 63 47
REMARK SMILES IDX 57 48 56 49 21 51 47 52 30 53 46 54 31 55 34 56 45 57 61 58
REMARK SMILES IDX 32 59 33 60 44 62 62 63 35 64 22 65 23 66 28 67 24 68 25 69
REMARK SMILES IDX 27 70 29 71 26 72 48 73 49 74 54 75 50 76 51 77 53 78 55 79
REMARK SMILES IDX 52 80 36 81 37 82 42 83 38 84 39 85 41 86 43 87 40 88
REMARK H PARENT 5 6 1 14 1 15 1 16 10 31 60 50 34 61
REMARK Flexibility Score: inf
ROOT
ATOM      1  C   UNL A   1      37.149  21.579  24.439  1.00  0.00     0.023 C 
ENDROOT
BRANCH   1   2
ATOM      2  C   UNL A   1      36.807  22.524  25.597  1.00  0.00     0.116 C 
BRANCH   2   3
ATOM      3  N   UNL A   1      35.828  21.964  26.509  1.00  0.00    -0.351 N 
ATOM      4  C   UNL A   1      34.462  22.023  26.525  1.00  0.00     0.281 C 
ATOM      5  O   UNL A   1      33.909  21.406  27.443  1.00  0.00    -0.268 OA
ATOM      6  H   UNL A   1      36.217  21.448  27.251  1.00  0.00     0.163 HD
BRANCH   4   7
ATOM      7  C   UNL A   1      33.614  22.723  25.397  1.00  0.00     0.177 C 
ATOM      8  C   UNL A   1      33.872  21.987  24.063  1.00  0.00     0.079 C 
ATOM      9  C   UNL A   1      34.105  24.183  25.267  1.00  0.00     0.124 C 
ATOM     10  C   UNL A   1      33.204  22.659  22.865  1.00  0.00     0.011 C 
ATOM     11  C   UNL A   1      33.727  24.942  23.978  1.00  0.00     0.180 C 
ATOM     12  C   UNL A   1      33.652  24.106  22.691  1.00  0.00     0.046 C 
BRANCH   7  13
ATOM     13  N   UNL A   1      32.175  22.602  25.694  1.00  0.00    -0.345 N 
ATOM     14  H   UNL A   1      31.879  21.637  25.553  1.00  0.00     0.345 HD
ATOM     15  H   UNL A   1      31.648  23.215  25.071  1.00  0.00     0.345 HD
ATOM     16  H   UNL A   1      32.005  22.873  26.662  1.00  0.00     0.345 HD
ENDBRANCH   7  13
BRANCH  11  17
ATOM     17  O   UNL A   1      32.682  25.936  24.088  1.00  0.00    -0.483 OA
BRANCH  17  18
ATOM     18  C   UNL A   1      32.722  26.796  25.138  1.00  0.00     0.197 A 
ATOM     19  C   UNL A   1      33.808  27.662  25.265  1.00  0.00     0.054 A 
ATOM     20  C   UNL A   1      31.754  26.781  26.149  1.00  0.00     0.310 A 
ATOM     21  C   UNL A   1      33.851  28.592  26.308  1.00  0.00     0.004 A 
ATOM     22  C   UNL A   1      31.776  27.724  27.187  1.00  0.00     0.090 A 
ATOM     23  C   UNL A   1      32.823  28.643  27.251  1.00  0.00     0.007 A 
BRANCH  20  24
ATOM     24  N   UNL A   1      30.666  25.816  26.130  1.00  0.00     0.066 N 
ATOM     25  O   UNL A   1      30.787  24.832  26.876  1.00  0.00    -0.258 OA
ATOM     26  O   UNL A   1      29.711  26.022  25.372  1.00  0.00    -0.258 OA
ENDBRANCH  20  24
ENDBRANCH  17  18
ENDBRANCH  11  17
ENDBRANCH   4   7
ENDBRANCH   2   3
ENDBRANCH   1   2
BRANCH   1  27
ATOM     27  C   UNL A   1      37.830  20.275  24.855  1.00  0.00     0.023 C 
BRANCH  27  28
ATOM     28  C   UNL A   1      39.047  20.445  25.757  1.00  0.00     0.116 C 
BRANCH  28  29
ATOM     29  N   UNL A   1      39.920  19.280  25.808  1.00  0.00    -0.352 N 
ATOM     30  C   UNL A   1      41.266  19.248  26.096  1.00  0.00     0.251 C 
ATOM     31  H   UNL A   1      39.497  18.413  25.610  1.00  0.00     0.163 HD
ATOM     32  O   UNL A   1      41.898  18.198  26.038  1.00  0.00    -0.269 OA
BRANCH  30  33
ATOM     33  C   UNL A   1      41.954  20.517  26.421  1.00  0.00     0.039 A 
ATOM     34  C   UNL A   1      42.371  21.346  25.377  1.00  0.00     0.014 A 
ATOM     35  C   UNL A   1      42.092  20.926  27.750  1.00  0.00     0.014 A 
ATOM     36  C   UNL A   1      42.837  22.631  25.664  1.00  0.00     0.010 A 
ATOM     37  C   UNL A   1      42.484  22.231  28.027  1.00  0.00     0.010 A 
ATOM     38  C   UNL A   1      42.844  23.103  26.987  1.00  0.00    -0.014 A 
BRANCH  38  39
ATOM     39  C   UNL A   1      43.195  24.511  27.306  1.00  0.00     0.031 A 
ATOM     40  C   UNL A   1      44.631  24.954  27.293  1.00  0.00     0.074 A 
ATOM     41  C   UNL A   1      42.230  25.368  27.697  1.00  0.00     0.049 A 
ATOM     42  N   UNL A   1      45.143  26.109  27.633  1.00  0.00    -0.248 NA
ATOM     43  C   UNL A   1      45.626  23.957  26.868  1.00  0.00     0.031 C 
ATOM     44  C   UNL A   1      40.805  25.049  27.810  1.00  0.00     0.029 A 
ATOM     45  N   UNL A   1      42.306  26.683  28.085  1.00  0.00    -0.354 N 
ATOM     46  C   UNL A   1      46.516  25.971  27.486  1.00  0.00     0.074 A 
ATOM     47  C   UNL A   1      46.762  24.607  27.072  1.00  0.00     0.031 C 
ATOM     48  C   UNL A   1      40.141  26.142  28.218  1.00  0.00     0.029 A 
ATOM     49  C   UNL A   1      41.092  27.228  28.427  1.00  0.00     0.049 A 
ATOM     50  H   UNL A   1      43.151  27.187  28.115  1.00  0.00     0.167 HD
ATOM     51  C   UNL A   1      47.485  26.902  27.658  1.00  0.00     0.037 A 
ATOM     52  C   UNL A   1      40.782  28.463  28.867  1.00  0.00     0.037 A 
ATOM     53  C   UNL A   1      47.240  28.269  28.036  1.00  0.00     0.049 A 
ATOM     54  C   UNL A   1      41.873  29.482  29.036  1.00  0.00     0.074 A 
ATOM     55  C   UNL A   1      48.149  29.304  28.166  1.00  0.00     0.029 A 
ATOM     56  N   UNL A   1      45.992  28.790  28.343  1.00  0.00    -0.354 N 
ATOM     57  N   UNL A   1      43.161  29.357  28.825  1.00  0.00    -0.248 NA
ATOM     58  C   UNL A   1      41.468  30.817  29.501  1.00  0.00     0.031 C 
ATOM     59  C   UNL A   1      47.456  30.445  28.585  1.00  0.00     0.029 A 
ATOM     60  C   UNL A   1      46.111  30.129  28.678  1.00  0.00     0.049 A 
ATOM     61  H   UNL A   1      45.148  28.284  28.325  1.00  0.00     0.167 HD
ATOM     62  C   UNL A   1      43.714  30.599  29.105  1.00  0.00     0.074 A 
ATOM     63  C   UNL A   1      42.622  31.468  29.490  1.00  0.00     0.031 C 
ATOM     64  C   UNL A   1      45.013  30.983  29.048  1.00  0.00     0.037 A 
BRANCH  51  65
ATOM     65  C   UNL A   1      48.902  26.470  27.424  1.00  0.00     0.057 A 
ATOM     66  C   UNL A   1      49.705  25.984  28.465  1.00  0.00     0.134 A 
ATOM     67  C   UNL A   1      49.464  26.518  26.142  1.00  0.00     0.134 A 
ATOM     68  F   UNL A   1      49.230  25.926  29.719  1.00  0.00    -0.206 F 
ATOM     69  C   UNL A   1      51.024  25.587  28.245  1.00  0.00     0.040 A 
ATOM     70  C   UNL A   1      50.773  26.099  25.905  1.00  0.00     0.040 A 
ATOM     71  F   UNL A   1      48.748  26.967  25.100  1.00  0.00    -0.206 F 
ATOM     72  C   UNL A   1      51.560  25.638  26.960  1.00  0.00     0.006 A 
ENDBRANCH  51  65
BRANCH  52  73
ATOM     73  C   UNL A   1      39.370  28.817  29.154  1.00  0.00     0.057 A 
ATOM     74  C   UNL A   1      38.828  28.631  30.432  1.00  0.00     0.134 A 
ATOM     75  C   UNL A   1      38.526  29.337  28.166  1.00  0.00     0.134 A 
ATOM     76  F   UNL A   1      39.582  28.117  31.415  1.00  0.00    -0.206 F 
ATOM     77  C   UNL A   1      37.495  28.931  30.713  1.00  0.00     0.040 A 
ATOM     78  C   UNL A   1      37.196  29.663  28.438  1.00  0.00     0.040 A 
ATOM     79  F   UNL A   1      38.988  29.545  26.924  1.00  0.00    -0.206 F 
ATOM     80  C   UNL A   1      36.676  29.453  29.714  1.00  0.00     0.006 A 
ENDBRANCH  52  73
BRANCH  64  81
ATOM     81  C   UNL A   1      45.319  32.413  29.377  1.00  0.00     0.057 A 
ATOM     82  C   UNL A   1      45.678  32.813  30.670  1.00  0.00     0.134 A 
ATOM     83  C   UNL A   1      45.299  33.395  28.377  1.00  0.00     0.134 A 
ATOM     84  F   UNL A   1      45.701  31.923  31.674  1.00  0.00    -0.206 F 
ATOM     85  C   UNL A   1      45.988  34.142  30.962  1.00  0.00     0.040 A 
ATOM     86  C   UNL A   1      45.631  34.722  28.652  1.00  0.00     0.040 A 
ATOM     87  F   UNL A   1      44.971  33.075  27.117  1.00  0.00    -0.206 F 
ATOM     88  C   UNL A   1      45.973  35.099  29.949  1.00  0.00     0.006 A 
ENDBRANCH  64  81
ENDBRANCH  38  39
ENDBRANCH  30  33
ENDBRANCH  28  29
ENDBRANCH  27  28
ENDBRANCH   1  27
TORSDOF 15
ENDMDL
MODEL 3
REMARK VINA RESULT:     -11.4      3.559      8.837
REMARK SMILES [NH3+][C@@]1(C(=O)NCCCCNC(=O)c2ccc(-c3c4nc(c(-c5c(F)cccc5F)c5ccc([nH]5)c(-c5c(F)cccc5F)c5nc(c(-c6c(F)cccc6F)c6ccc3[nH]6)C=C5)C=C4)cc2)CCC[C@@H](Oc2ccccc2[N+](=O)[O-])C1
REMARK SMILES IDX 7 1 6 2 5 3 3 4 4 5 2 7 67 8 81 9 68 10 70 11 69 12 1 13
REMARK SMILES IDX 71 17 72 18 73 19 77 20 74 21 76 22 75 23 78 24 79 25 80 26
REMARK SMILES IDX 8 27 9 28 10 29 11 30 12 32 13 33 14 34 66 35 15 36 65 37
REMARK SMILES IDX 16 38 17 39 18 40 59 41 19 42 64 43 58 44 60 45 20 46 63 47
REMARK SMILES IDX 57 48 56 49 21 51 47 52 30 53 46 54 31 55 34 56 45 57 61 58
REMARK SMILES IDX 32 59 33 60 44 62 62 63 35 64 22 65 23 66 28 67 24 68 25 69
REMARK SMILES IDX 27 70 29 71 26 72 48 73 49 74 54 75 50 76 51 77 53 78 55 79
REMARK SMILES IDX 52 80 36 81 37 82 42 83 38 84 39 85 41 86 43 87 40 88
REMARK H PARENT 5 6 1 14 1 15 1 16 10 31 60 50 34 61
REMARK Flexibility Score: inf
ROOT
ATOM      1  C   UNL A   1      32.217  29.848  27.017  1.00  0.00     0.023 C 
ENDROOT
BRANCH   1   2
ATOM      2  C   UNL A   1      33.465  29.396  26.248  1.00  0.00     0.116 C 
BRANCH   2   3
ATOM      3  N   UNL A   1      33.305  29.498  24.810  1.00  0.00    -0.351 N 
ATOM      4  C   UNL A   1      32.820  28.615  23.884  1.00  0.00     0.281 C 
ATOM      5  O   UNL A   1      32.793  29.023  22.717  1.00  0.00    -0.268 OA
ATOM      6  H   UNL A   1      33.600  30.356  24.431  1.00  0.00     0.163 HD
BRANCH   4   7
ATOM      7  C   UNL A   1      32.216  27.211  24.263  1.00  0.00     0.177 C 
ATOM      8  C   UNL A   1      30.997  27.435  25.185  1.00  0.00     0.079 C 
ATOM      9  C   UNL A   1      33.294  26.422  25.039  1.00  0.00     0.124 C 
ATOM     10  C   UNL A   1      30.405  26.136  25.729  1.00  0.00     0.011 C 
ATOM     11  C   UNL A   1      32.821  25.205  25.863  1.00  0.00     0.180 C 
ATOM     12  C   UNL A   1      31.429  25.314  26.503  1.00  0.00     0.046 C 
BRANCH   7  13
ATOM     13  N   UNL A   1      31.730  26.523  23.053  1.00  0.00    -0.345 N 
ATOM     14  H   UNL A   1      31.607  25.531  23.253  1.00  0.00     0.345 HD
ATOM     15  H   UNL A   1      32.410  26.638  22.301  1.00  0.00     0.345 HD
ATOM     16  H   UNL A   1      30.838  26.927  22.769  1.00  0.00     0.345 HD
ENDBRANCH   7  13
BRANCH  11  17
ATOM     17  O   UNL A   1      33.111  23.897  25.320  1.00  0.00    -0.483 OA
BRANCH  17  18
ATOM     18  C   UNL A   1      34.386  23.629  24.936  1.00  0.00     0.197 A 
ATOM     19  C   UNL A   1      35.405  23.675  25.887  1.00  0.00     0.054 A 
ATOM     20  C   UNL A   1      34.726  23.396  23.599  1.00  0.00     0.310 A 
ATOM     21  C   UNL A   1      36.719  23.355  25.530  1.00  0.00     0.004 A 
ATOM     22  C   UNL A   1      36.036  23.053  23.233  1.00  0.00     0.090 A 
ATOM     23  C   UNL A   1      37.029  23.016  24.212  1.00  0.00     0.007 A 
BRANCH  20  24
ATOM     24  N   UNL A   1      33.722  23.458  22.548  1.00  0.00     0.066 N 
ATOM     25  O   UNL A   1      33.652  24.520  21.910  1.00  0.00    -0.258 OA
ATOM     26  O   UNL A   1      32.998  22.471  22.369  1.00  0.00    -0.258 OA
ENDBRANCH  20  24
ENDBRANCH  17  18
ENDBRANCH  11  17
ENDBRANCH   4   7
ENDBRANCH   2   3
ENDBRANCH   1   2
BRANCH   1  27
ATOM     27  C   UNL A   1      31.872  31.329  26.867  1.00  0.00     0.023 C 
BRANCH  27  28
ATOM     28  C   UNL A   1      32.990  32.292  27.249  1.00  0.00     0.116 C 
BRANCH  28  29
ATOM     29  N   UNL A   1      32.530  33.622  27.625  1.00  0.00    -0.352 N 
ATOM     30  C   UNL A   1      33.105  34.488  28.529  1.00  0.00     0.251 C 
ATOM     31  H   UNL A   1      31.711  33.939  27.181  1.00  0.00     0.163 HD
ATOM     32  O   UNL A   1      32.572  35.558  28.802  1.00  0.00    -0.269 OA
BRANCH  30  33
ATOM     33  C   UNL A   1      34.350  34.077  29.214  1.00  0.00     0.039 A 
ATOM     34  C   UNL A   1      34.259  33.341  30.398  1.00  0.00     0.014 A 
ATOM     35  C   UNL A   1      35.594  34.333  28.634  1.00  0.00     0.014 A 
ATOM     36  C   UNL A   1      35.412  32.775  30.946  1.00  0.00     0.010 A 
ATOM     37  C   UNL A   1      36.729  33.707  29.139  1.00  0.00     0.010 A 
ATOM     38  C   UNL A   1      36.647  32.908  30.291  1.00  0.00    -0.014 A 
BRANCH  38  39
ATOM     39  C   UNL A   1      37.861  32.197  30.771  1.00  0.00     0.031 A 
ATOM     40  C   UNL A   1      38.675  32.768  31.898  1.00  0.00     0.074 A 
ATOM     41  C   UNL A   1      38.280  31.086  30.133  1.00  0.00     0.049 A 
ATOM     42  N   UNL A   1      39.811  32.348  32.391  1.00  0.00    -0.248 NA
ATOM     43  C   UNL A   1      38.158  33.990  32.533  1.00  0.00     0.031 C 
ATOM     44  C   UNL A   1      37.615  30.461  28.988  1.00  0.00     0.029 A 
ATOM     45  N   UNL A   1      39.379  30.292  30.351  1.00  0.00    -0.354 N 
ATOM     46  C   UNL A   1      40.155  33.263  33.377  1.00  0.00     0.074 A 
ATOM     47  C   UNL A   1      39.133  34.287  33.379  1.00  0.00     0.031 C 
ATOM     48  C   UNL A   1      38.306  29.370  28.619  1.00  0.00     0.029 A 
ATOM     49  C   UNL A   1      39.479  29.237  29.475  1.00  0.00     0.049 A 
ATOM     50  H   UNL A   1      40.032  30.461  31.067  1.00  0.00     0.167 HD
ATOM     51  C   UNL A   1      41.214  33.242  34.221  1.00  0.00     0.037 A 
ATOM     52  C   UNL A   1      40.416  28.275  29.371  1.00  0.00     0.037 A 
ATOM     53  C   UNL A   1      42.214  32.207  34.244  1.00  0.00     0.049 A 
ATOM     54  C   UNL A   1      41.574  28.265  30.329  1.00  0.00     0.074 A 
ATOM     55  C   UNL A   1      43.285  32.061  35.108  1.00  0.00     0.029 A 
ATOM     56  N   UNL A   1      42.262  31.138  33.361  1.00  0.00    -0.354 N 
ATOM     57  N   UNL A   1      41.849  29.099  31.302  1.00  0.00    -0.248 NA
ATOM     58  C   UNL A   1      42.553  27.178  30.175  1.00  0.00     0.031 C 
ATOM     59  C   UNL A   1      44.002  30.921  34.728  1.00  0.00     0.029 A 
ATOM     60  C   UNL A   1      43.355  30.337  33.651  1.00  0.00     0.049 A 
ATOM     61  H   UNL A   1      41.616  30.973  32.637  1.00  0.00     0.167 HD
ATOM     62  C   UNL A   1      43.012  28.624  31.892  1.00  0.00     0.074 A 
ATOM     63  C   UNL A   1      43.386  27.423  31.176  1.00  0.00     0.031 C 
ATOM     64  C   UNL A   1      43.708  29.139  32.935  1.00  0.00     0.037 A 
BRANCH  51  65
ATOM     65  C   UNL A   1      41.337  34.372  35.199  1.00  0.00     0.057 A 
ATOM     66  C   UNL A   1      40.783  34.298  36.483  1.00  0.00     0.134 A 
ATOM     67  C   UNL A   1      42.039  35.537  34.862  1.00  0.00     0.134 A 
ATOM     68  F   UNL A   1      40.088  33.215  36.862  1.00  0.00    -0.206 F 
ATOM     69  C   UNL A   1      40.897  35.354  37.389  1.00  0.00     0.040 A 
ATOM     70  C   UNL A   1      42.182  36.588  35.769  1.00  0.00     0.040 A 
ATOM     71  F   UNL A   1      42.599  35.671  33.651  1.00  0.00    -0.206 F 
ATOM     72  C   UNL A   1      41.603  36.501  37.035  1.00  0.00     0.006 A 
ENDBRANCH  51  65
BRANCH  52  73
ATOM     73  C   UNL A   1      40.285  27.219  28.336  1.00  0.00     0.057 A 
ATOM     74  C   UNL A   1      39.522  26.070  28.574  1.00  0.00     0.134 A 
ATOM     75  C   UNL A   1      40.923  27.324  27.095  1.00  0.00     0.134 A 
ATOM     76  F   UNL A   1      38.904  25.904  29.752  1.00  0.00    -0.206 F 
ATOM     77  C   UNL A   1      39.412  25.054  27.623  1.00  0.00     0.040 A 
ATOM     78  C   UNL A   1      40.804  26.327  26.125  1.00  0.00     0.040 A 
ATOM     79  F   UNL A   1      41.663  28.405  26.804  1.00  0.00    -0.206 F 
ATOM     80  C   UNL A   1      40.051  25.184  26.392  1.00  0.00     0.006 A 
ENDBRANCH  52  73
BRANCH  64  81
ATOM     81  C   UNL A   1      44.924  28.388  33.386  1.00  0.00     0.057 A 
ATOM     82  C   UNL A   1      44.843  27.334  34.303  1.00  0.00     0.134 A 
ATOM     83  C   UNL A   1      46.187  28.695  32.861  1.00  0.00     0.134 A 
ATOM     84  F   UNL A   1      43.666  27.001  34.853  1.00  0.00    -0.206 F 
ATOM     85  C   UNL A   1      45.977  26.622  34.697  1.00  0.00     0.040 A 
ATOM     86  C   UNL A   1      47.324  27.975  33.229  1.00  0.00     0.040 A 
ATOM     87  F   UNL A   1      46.330  29.689  31.972  1.00  0.00    -0.206 F 
ATOM     88  C   UNL A   1      47.220  26.937  34.153  1.00  0.00     0.006 A 
ENDBRANCH  64  81
ENDBRANCH  38  39
ENDBRANCH  30  33
ENDBRANCH  28  29
ENDBRANCH  27  28
ENDBRANCH   1  27
TORSDOF 15
ENDMDL
