MODEL 1
REMARK VINA RESULT:     -12.5      0.000      0.000
REMARK SMILES Cc1cccc(-c2cccnc2C(=O)NCCCCNC(=O)c2ccc(-c3c4nc(c(-c5c(F)cccc5F)c5ccc([nH]5)c(-c5c(F)cccc5F)c5nc(c(-c6c(F)cccc6F)c6ccc3[nH]6)C=C5)C=C4)cc2)c1
REMARK SMILES IDX 18 1 17 2 16 3 15 4 13 5 14 6 12 8 7 9 8 10 9 11 11 12 10 13
REMARK SMILES IDX 6 14 1 15 2 16 3 17 77 18 4 19 5 20 19 21 20 22 21 23 22 25
REMARK SMILES IDX 23 26 24 27 76 28 25 29 75 30 26 31 27 32 28 33 69 34 29 35
REMARK SMILES IDX 74 36 68 37 70 38 30 39 73 40 67 41 66 42 31 44 57 45 40 46
REMARK SMILES IDX 56 47 41 48 44 49 55 50 71 51 42 52 43 53 54 55 72 56 45 57
REMARK SMILES IDX 32 58 33 59 38 60 34 61 35 62 37 63 39 64 36 65 58 66 59 67
REMARK SMILES IDX 64 68 60 69 61 70 63 71 65 72 62 73 46 74 47 75 52 76 48 77
REMARK SMILES IDX 49 78 51 79 53 80 50 81
REMARK H PARENT 15 7 20 24 70 43 44 54
REMARK Flexibility Score: inf
ROOT
ATOM      1  C   UNL A   1      32.816  30.498  26.685  1.00  0.00     0.023 C 
ENDROOT
BRANCH   1   2
ATOM      2  C   UNL A   1      31.728  29.596  27.253  1.00  0.00     0.023 C 
BRANCH   2   3
ATOM      3  C   UNL A   1      32.016  28.105  27.360  1.00  0.00     0.116 C 
BRANCH   3   4
ATOM      4  N   UNL A   1      30.980  27.163  27.018  1.00  0.00    -0.351 N 
ATOM      5  C   UNL A   1      30.865  26.401  25.863  1.00  0.00     0.270 C 
ATOM      6  O   UNL A   1      30.040  25.481  25.885  1.00  0.00    -0.267 OA
ATOM      7  H   UNL A   1      30.266  27.046  27.687  1.00  0.00     0.163 HD
BRANCH   5   8
ATOM      8  C   UNL A   1      31.609  26.685  24.568  1.00  0.00     0.135 A 
ATOM      9  C   UNL A   1      31.221  27.586  23.556  1.00  0.00     0.013 A 
ATOM     10  C   UNL A   1      32.090  27.712  22.452  1.00  0.00     0.013 A 
ATOM     11  C   UNL A   1      33.285  27.004  22.392  1.00  0.00     0.021 A 
ATOM     12  N   UNL A   1      32.788  25.987  24.510  1.00  0.00    -0.250 NA
ATOM     13  C   UNL A   1      33.592  26.169  23.444  1.00  0.00     0.112 A 
BRANCH   9  14
ATOM     14  C   UNL A   1      29.987  28.379  23.552  1.00  0.00    -0.016 A 
ATOM     15  C   UNL A   1      29.089  32.092  23.466  1.00  0.00     0.044 C 
ATOM     16  C   UNL A   1      28.943  30.599  23.501  1.00  0.00    -0.051 A 
ATOM     17  C   UNL A   1      27.729  30.002  23.153  1.00  0.00     0.003 A 
ATOM     18  C   UNL A   1      30.052  29.778  23.745  1.00  0.00     0.012 A 
ATOM     19  C   UNL A   1      27.631  28.612  23.056  1.00  0.00     0.001 A 
ATOM     20  C   UNL A   1      28.750  27.803  23.252  1.00  0.00     0.009 A 
ENDBRANCH   9  14
ENDBRANCH   5   8
ENDBRANCH   3   4
ENDBRANCH   2   3
ENDBRANCH   1   2
BRANCH   1  21
ATOM     21  C   UNL A   1      34.245  30.256  27.144  1.00  0.00     0.116 C 
BRANCH  21  22
ATOM     22  N   UNL A   1      34.986  31.364  27.721  1.00  0.00    -0.352 N 
ATOM     23  C   UNL A   1      36.207  31.368  28.398  1.00  0.00     0.251 C 
ATOM     24  H   UNL A   1      34.563  32.248  27.620  1.00  0.00     0.163 HD
ATOM     25  O   UNL A   1      36.621  32.408  28.855  1.00  0.00    -0.269 OA
BRANCH  23  26
ATOM     26  C   UNL A   1      37.078  30.143  28.467  1.00  0.00     0.039 A 
ATOM     27  C   UNL A   1      36.998  29.315  29.606  1.00  0.00     0.014 A 
ATOM     28  C   UNL A   1      38.060  29.871  27.527  1.00  0.00     0.014 A 
ATOM     29  C   UNL A   1      38.018  28.398  29.887  1.00  0.00     0.010 A 
ATOM     30  C   UNL A   1      39.126  29.079  27.855  1.00  0.00     0.010 A 
ATOM     31  C   UNL A   1      39.129  28.378  29.055  1.00  0.00    -0.014 A 
BRANCH  31  32
ATOM     32  C   UNL A   1      40.413  27.762  29.326  1.00  0.00     0.031 A 
ATOM     33  C   UNL A   1      40.734  26.440  28.768  1.00  0.00     0.074 A 
ATOM     34  C   UNL A   1      41.391  28.598  29.740  1.00  0.00     0.049 A 
ATOM     35  N   UNL A   1      41.752  25.739  29.123  1.00  0.00    -0.248 NA
ATOM     36  C   UNL A   1      39.921  25.796  27.744  1.00  0.00     0.031 C 
ATOM     37  C   UNL A   1      42.836  28.440  29.624  1.00  0.00     0.029 A 
ATOM     38  N   UNL A   1      41.244  29.732  30.534  1.00  0.00    -0.354 N 
ATOM     39  C   UNL A   1      41.919  24.751  28.179  1.00  0.00     0.074 A 
ATOM     40  C   UNL A   1      40.707  24.774  27.394  1.00  0.00     0.031 C 
ATOM     41  C   UNL A   1      43.425  29.222  30.543  1.00  0.00     0.029 A 
ATOM     42  C   UNL A   1      42.361  29.767  31.374  1.00  0.00     0.049 A 
ATOM     43  H   UNL A   1      40.502  30.380  30.509  1.00  0.00     0.167 HD
ATOM     44  C   UNL A   1      43.135  24.138  28.080  1.00  0.00     0.037 A 
ATOM     45  C   UNL A   1      42.262  29.613  32.727  1.00  0.00     0.037 A 
ATOM     46  C   UNL A   1      44.065  24.685  29.070  1.00  0.00     0.049 A 
ATOM     47  C   UNL A   1      43.029  28.402  33.216  1.00  0.00     0.074 A 
ATOM     48  C   UNL A   1      45.090  25.615  28.983  1.00  0.00     0.029 A 
ATOM     49  N   UNL A   1      43.791  24.536  30.424  1.00  0.00    -0.354 N 
ATOM     50  N   UNL A   1      43.366  27.391  32.464  1.00  0.00    -0.248 NA
ATOM     51  C   UNL A   1      43.479  28.247  34.592  1.00  0.00     0.031 C 
ATOM     52  C   UNL A   1      45.423  26.031  30.297  1.00  0.00     0.029 A 
ATOM     53  C   UNL A   1      44.611  25.346  31.185  1.00  0.00     0.049 A 
ATOM     54  H   UNL A   1      43.106  23.932  30.792  1.00  0.00     0.167 HD
ATOM     55  C   UNL A   1      44.074  26.473  33.204  1.00  0.00     0.074 A 
ATOM     56  C   UNL A   1      44.122  27.068  34.527  1.00  0.00     0.031 C 
ATOM     57  C   UNL A   1      44.547  25.315  32.643  1.00  0.00     0.037 A 
BRANCH  44  58
ATOM     58  C   UNL A   1      43.571  23.262  26.924  1.00  0.00     0.057 A 
ATOM     59  C   UNL A   1      43.115  21.932  26.810  1.00  0.00     0.134 A 
ATOM     60  C   UNL A   1      44.449  23.653  25.897  1.00  0.00     0.134 A 
ATOM     61  F   UNL A   1      42.189  21.428  27.634  1.00  0.00    -0.206 F 
ATOM     62  C   UNL A   1      43.581  21.040  25.832  1.00  0.00     0.040 A 
ATOM     63  C   UNL A   1      44.959  22.760  24.941  1.00  0.00     0.040 A 
ATOM     64  F   UNL A   1      44.803  24.931  25.724  1.00  0.00    -0.206 F 
ATOM     65  C   UNL A   1      44.534  21.442  24.913  1.00  0.00     0.006 A 
ENDBRANCH  44  58
BRANCH  45  66
ATOM     66  C   UNL A   1      40.963  30.091  33.283  1.00  0.00     0.057 A 
ATOM     67  C   UNL A   1      40.792  31.475  33.465  1.00  0.00     0.134 A 
ATOM     68  C   UNL A   1      39.802  29.313  33.182  1.00  0.00     0.134 A 
ATOM     69  F   UNL A   1      41.863  32.278  33.571  1.00  0.00    -0.206 F 
ATOM     70  C   UNL A   1      39.532  32.076  33.402  1.00  0.00     0.040 A 
ATOM     71  C   UNL A   1      38.534  29.906  33.131  1.00  0.00     0.040 A 
ATOM     72  F   UNL A   1      39.883  27.994  32.964  1.00  0.00    -0.206 F 
ATOM     73  C   UNL A   1      38.401  31.293  33.194  1.00  0.00     0.006 A 
ENDBRANCH  45  66
BRANCH  57  74
ATOM     74  C   UNL A   1      45.070  24.067  33.348  1.00  0.00     0.057 A 
ATOM     75  C   UNL A   1      46.356  23.912  33.885  1.00  0.00     0.134 A 
ATOM     76  C   UNL A   1      44.200  22.978  33.628  1.00  0.00     0.134 A 
ATOM     77  F   UNL A   1      47.282  24.872  33.810  1.00  0.00    -0.206 F 
ATOM     78  C   UNL A   1      46.755  22.767  34.595  1.00  0.00     0.040 A 
ATOM     79  C   UNL A   1      44.567  21.863  34.388  1.00  0.00     0.040 A 
ATOM     80  F   UNL A   1      42.930  22.944  33.202  1.00  0.00    -0.206 F 
ATOM     81  C   UNL A   1      45.857  21.746  34.865  1.00  0.00     0.006 A 
ENDBRANCH  57  74
ENDBRANCH  31  32
ENDBRANCH  23  26
ENDBRANCH  21  22
ENDBRANCH   1  21
TORSDOF 12
ENDMDL
MODEL 2
REMARK VINA RESULT:     -12.5      2.041      3.272
REMARK SMILES Cc1cccc(-c2cccnc2C(=O)NCCCCNC(=O)c2ccc(-c3c4nc(c(-c5c(F)cccc5F)c5ccc([nH]5)c(-c5c(F)cccc5F)c5nc(c(-c6c(F)cccc6F)c6ccc3[nH]6)C=C5)C=C4)cc2)c1
REMARK SMILES IDX 18 1 17 2 16 3 15 4 13 5 14 6 12 8 7 9 8 10 9 11 11 12 10 13
REMARK SMILES IDX 6 14 1 15 2 16 3 17 77 18 4 19 5 20 19 21 20 22 21 23 22 25
REMARK SMILES IDX 23 26 24 27 76 28 25 29 75 30 26 31 27 32 28 33 69 34 29 35
REMARK SMILES IDX 74 36 68 37 70 38 30 39 73 40 67 41 66 42 31 44 57 45 40 46
REMARK SMILES IDX 56 47 41 48 44 49 55 50 71 51 42 52 43 53 54 55 72 56 45 57
REMARK SMILES IDX 32 58 33 59 38 60 34 61 35 62 37 63 39 64 36 65 58 66 59 67
REMARK SMILES IDX 64 68 60 69 61 70 63 71 65 72 62 73 46 74 47 75 52 76 48 77
REMARK SMILES IDX 49 78 51 79 53 80 50 81
REMARK H PARENT 15 7 20 24 70 43 44 54
REMARK Flexibility Score: inf
ROOT
ATOM      1  C   UNL A   1      33.265  30.079  26.603  1.00  0.00     0.023 C 
ENDROOT
BRANCH   1   2
ATOM      2  C   UNL A   1      31.945  29.536  27.133  1.00  0.00     0.023 C 
BRANCH   2   3
ATOM      3  C   UNL A   1      31.897  28.084  27.588  1.00  0.00     0.116 C 
BRANCH   3   4
ATOM      4  N   UNL A   1      30.901  27.205  27.030  1.00  0.00    -0.351 N 
ATOM      5  C   UNL A   1      30.884  26.625  25.767  1.00  0.00     0.270 C 
ATOM      6  O   UNL A   1      30.070  25.713  25.587  1.00  0.00    -0.267 OA
ATOM      7  H   UNL A   1      30.139  26.989  27.616  1.00  0.00     0.163 HD
BRANCH   5   8
ATOM      8  C   UNL A   1      31.722  27.101  24.591  1.00  0.00     0.135 A 
ATOM      9  C   UNL A   1      31.345  28.050  23.620  1.00  0.00     0.013 A 
ATOM     10  C   UNL A   1      32.304  28.363  22.634  1.00  0.00     0.013 A 
ATOM     11  C   UNL A   1      33.568  27.785  22.650  1.00  0.00     0.021 A 
ATOM     12  N   UNL A   1      32.970  26.531  24.610  1.00  0.00    -0.250 NA
ATOM     13  C   UNL A   1      33.855  26.890  23.658  1.00  0.00     0.112 A 
BRANCH   9  14
ATOM     14  C   UNL A   1      30.039  28.714  23.543  1.00  0.00    -0.016 A 
ATOM     15  C   UNL A   1      28.771  32.317  23.492  1.00  0.00     0.044 C 
ATOM     16  C   UNL A   1      28.777  30.817  23.474  1.00  0.00    -0.051 A 
ATOM     17  C   UNL A   1      27.661  30.113  23.016  1.00  0.00     0.003 A 
ATOM     18  C   UNL A   1      29.944  30.104  23.780  1.00  0.00     0.012 A 
ATOM     19  C   UNL A   1      27.715  28.725  22.872  1.00  0.00     0.001 A 
ATOM     20  C   UNL A   1      28.894  28.027  23.132  1.00  0.00     0.009 A 
ENDBRANCH   9  14
ENDBRANCH   5   8
ENDBRANCH   3   4
ENDBRANCH   2   3
ENDBRANCH   1   2
BRANCH   1  21
ATOM     21  C   UNL A   1      34.104  30.934  27.539  1.00  0.00     0.116 C 
BRANCH  21  22
ATOM     22  N   UNL A   1      33.603  32.245  27.917  1.00  0.00    -0.352 N 
ATOM     23  C   UNL A   1      34.117  33.170  28.827  1.00  0.00     0.251 C 
ATOM     24  H   UNL A   1      32.775  32.523  27.463  1.00  0.00     0.163 HD
ATOM     25  O   UNL A   1      33.502  34.189  29.039  1.00  0.00    -0.269 OA
BRANCH  23  26
ATOM     26  C   UNL A   1      35.473  32.992  29.457  1.00  0.00     0.039 A 
ATOM     27  C   UNL A   1      36.603  33.521  28.799  1.00  0.00     0.014 A 
ATOM     28  C   UNL A   1      35.677  32.207  30.580  1.00  0.00     0.014 A 
ATOM     29  C   UNL A   1      37.888  33.077  29.134  1.00  0.00     0.010 A 
ATOM     30  C   UNL A   1      36.909  31.665  30.827  1.00  0.00     0.010 A 
ATOM     31  C   UNL A   1      38.008  32.065  30.076  1.00  0.00    -0.014 A 
BRANCH  31  32
ATOM     32  C   UNL A   1      39.175  31.246  30.335  1.00  0.00     0.031 A 
ATOM     33  C   UNL A   1      39.359  29.971  29.626  1.00  0.00     0.074 A 
ATOM     34  C   UNL A   1      40.223  31.879  30.909  1.00  0.00     0.049 A 
ATOM     35  N   UNL A   1      40.246  29.096  29.942  1.00  0.00    -0.248 NA
ATOM     36  C   UNL A   1      38.544  29.578  28.483  1.00  0.00     0.031 C 
ATOM     37  C   UNL A   1      41.638  31.535  30.853  1.00  0.00     0.029 A 
ATOM     38  N   UNL A   1      40.169  32.916  31.836  1.00  0.00    -0.354 N 
ATOM     39  C   UNL A   1      40.350  28.217  28.887  1.00  0.00     0.074 A 
ATOM     40  C   UNL A   1      39.212  28.507  28.046  1.00  0.00     0.031 C 
ATOM     41  C   UNL A   1      42.257  32.107  31.899  1.00  0.00     0.029 A 
ATOM     42  C   UNL A   1      41.217  32.690  32.734  1.00  0.00     0.049 A 
ATOM     43  H   UNL A   1      39.523  33.661  31.855  1.00  0.00     0.167 HD
ATOM     44  C   UNL A   1      41.477  27.456  28.776  1.00  0.00     0.037 A 
ATOM     45  C   UNL A   1      41.000  32.386  34.047  1.00  0.00     0.037 A 
ATOM     46  C   UNL A   1      42.397  27.741  29.879  1.00  0.00     0.049 A 
ATOM     47  C   UNL A   1      41.562  31.029  34.415  1.00  0.00     0.074 A 
ATOM     48  C   UNL A   1      43.539  28.521  29.973  1.00  0.00     0.029 A 
ATOM     49  N   UNL A   1      42.007  27.467  31.184  1.00  0.00    -0.354 N 
ATOM     50  N   UNL A   1      41.816  30.080  33.556  1.00  0.00    -0.248 NA
ATOM     51  C   UNL A   1      41.885  30.645  35.781  1.00  0.00     0.031 C 
ATOM     52  C   UNL A   1      43.827  28.721  31.346  1.00  0.00     0.029 A 
ATOM     53  C   UNL A   1      42.869  28.054  32.090  1.00  0.00     0.049 A 
ATOM     54  H   UNL A   1      41.223  26.925  31.431  1.00  0.00     0.167 HD
ATOM     55  C   UNL A   1      42.340  28.989  34.207  1.00  0.00     0.074 A 
ATOM     56  C   UNL A   1      42.369  29.403  35.597  1.00  0.00     0.031 C 
ATOM     57  C   UNL A   1      42.695  27.853  33.525  1.00  0.00     0.037 A 
BRANCH  44  58
ATOM     58  C   UNL A   1      41.877  26.676  27.540  1.00  0.00     0.057 A 
ATOM     59  C   UNL A   1      42.003  25.271  27.579  1.00  0.00     0.134 A 
ATOM     60  C   UNL A   1      42.169  27.239  26.285  1.00  0.00     0.134 A 
ATOM     61  F   UNL A   1      41.656  24.559  28.657  1.00  0.00    -0.206 F 
ATOM     62  C   UNL A   1      42.486  24.512  26.503  1.00  0.00     0.040 A 
ATOM     63  C   UNL A   1      42.698  26.500  25.216  1.00  0.00     0.040 A 
ATOM     64  F   UNL A   1      41.892  28.518  26.008  1.00  0.00    -0.206 F 
ATOM     65  C   UNL A   1      42.871  25.130  25.325  1.00  0.00     0.006 A 
ENDBRANCH  44  58
BRANCH  45  66
ATOM     66  C   UNL A   1      39.738  32.970  34.588  1.00  0.00     0.057 A 
ATOM     67  C   UNL A   1      38.593  32.154  34.621  1.00  0.00     0.134 A 
ATOM     68  C   UNL A   1      39.763  34.068  35.458  1.00  0.00     0.134 A 
ATOM     69  F   UNL A   1      38.503  31.086  33.812  1.00  0.00    -0.206 F 
ATOM     70  C   UNL A   1      37.587  32.333  35.575  1.00  0.00     0.040 A 
ATOM     71  C   UNL A   1      38.753  34.262  36.409  1.00  0.00     0.040 A 
ATOM     72  F   UNL A   1      40.837  34.867  35.517  1.00  0.00    -0.206 F 
ATOM     73  C   UNL A   1      37.687  33.367  36.500  1.00  0.00     0.006 A 
ENDBRANCH  45  66
BRANCH  57  74
ATOM     74  C   UNL A   1      42.996  26.467  34.088  1.00  0.00     0.057 A 
ATOM     75  C   UNL A   1      44.235  25.816  34.034  1.00  0.00     0.134 A 
ATOM     76  C   UNL A   1      42.018  25.770  34.850  1.00  0.00     0.134 A 
ATOM     77  F   UNL A   1      45.304  26.362  33.447  1.00  0.00    -0.206 F 
ATOM     78  C   UNL A   1      44.472  24.571  34.641  1.00  0.00     0.040 A 
ATOM     79  C   UNL A   1      42.262  24.563  35.513  1.00  0.00     0.040 A 
ATOM     80  F   UNL A   1      40.773  26.235  35.020  1.00  0.00    -0.206 F 
ATOM     81  C   UNL A   1      43.493  23.948  35.398  1.00  0.00     0.006 A 
ENDBRANCH  57  74
ENDBRANCH  31  32
ENDBRANCH  23  26
ENDBRANCH  21  22
ENDBRANCH   1  21
TORSDOF 12
ENDMDL
MODEL 3
REMARK VINA RESULT:     -12.4      2.212      3.342
REMARK SMILES Cc1cccc(-c2cccnc2C(=O)NCCCCNC(=O)c2ccc(-c3c4nc(c(-c5c(F)cccc5F)c5ccc([nH]5)c(-c5c(F)cccc5F)c5nc(c(-c6c(F)cccc6F)c6ccc3[nH]6)C=C5)C=C4)cc2)c1
REMARK SMILES IDX 18 1 17 2 16 3 15 4 13 5 14 6 12 8 7 9 8 10 9 11 11 12 10 13
REMARK SMILES IDX 6 14 1 15 2 16 3 17 77 18 4 19 5 20 19 21 20 22 21 23 22 25
REMARK SMILES IDX 23 26 24 27 76 28 25 29 75 30 26 31 27 32 28 33 69 34 29 35
REMARK SMILES IDX 74 36 68 37 70 38 30 39 73 40 67 41 66 42 31 44 57 45 40 46
REMARK SMILES IDX 56 47 41 48 44 49 55 50 71 51 42 52 43 53 54 55 72 56 45 57
REMARK SMILES IDX 32 58 33 59 38 60 34 61 35 62 37 63 39 64 36 65 58 66 59 67
REMARK SMILES IDX 64 68 60 69 61 70 63 71 65 72 62 73 46 74 47 75 52 76 48 77
REMARK SMILES IDX 49 78 51 79 53 80 50 81
REMARK H PARENT 15 7 20 24 70 43 44 54
REMARK Flexibility Score: inf
ROOT
ATOM      1  C   UNL A   1      33.575  29.527  27.312  1.00  0.00     0.023 C 
ENDROOT
BRANCH   1   2
ATOM      2  C   UNL A   1      32.078  29.667  27.071  1.00  0.00     0.023 C 
BRANCH   2   3
ATOM      3  C   UNL A   1      31.617  30.304  25.767  1.00  0.00     0.116 C 
BRANCH   3   4
ATOM      4  N   UNL A   1      32.213  29.876  24.527  1.00  0.00    -0.351 N 
ATOM      5  C   UNL A   1      31.629  29.131  23.510  1.00  0.00     0.270 C 
ATOM      6  O   UNL A   1      32.235  29.091  22.434  1.00  0.00    -0.267 OA
ATOM      7  H   UNL A   1      33.150  30.145  24.383  1.00  0.00     0.163 HD
BRANCH   5   8
ATOM      8  C   UNL A   1      30.366  28.301  23.670  1.00  0.00     0.135 A 
ATOM      9  C   UNL A   1      29.063  28.668  23.277  1.00  0.00     0.013 A 
ATOM     10  C   UNL A   1      28.043  27.717  23.494  1.00  0.00     0.013 A 
ATOM     11  C   UNL A   1      28.327  26.470  24.038  1.00  0.00     0.021 A 
ATOM     12  N   UNL A   1      30.647  27.069  24.204  1.00  0.00    -0.250 NA
ATOM     13  C   UNL A   1      29.636  26.191  24.363  1.00  0.00     0.112 A 
BRANCH   9  14
ATOM     14  C   UNL A   1      28.686  29.956  22.685  1.00  0.00    -0.016 A 
ATOM     15  C   UNL A   1      29.312  33.643  23.464  1.00  0.00     0.044 C 
ATOM     16  C   UNL A   1      28.817  32.404  22.778  1.00  0.00    -0.051 A 
ATOM     17  C   UNL A   1      28.368  32.462  21.456  1.00  0.00     0.003 A 
ATOM     18  C   UNL A   1      28.926  31.152  23.399  1.00  0.00     0.012 A 
ATOM     19  C   UNL A   1      28.035  31.290  20.775  1.00  0.00     0.001 A 
ATOM     20  C   UNL A   1      28.192  30.043  21.381  1.00  0.00     0.009 A 
ENDBRANCH   9  14
ENDBRANCH   5   8
ENDBRANCH   3   4
ENDBRANCH   2   3
ENDBRANCH   1   2
BRANCH   1  21
ATOM     21  C   UNL A   1      34.404  30.800  27.367  1.00  0.00     0.116 C 
BRANCH  21  22
ATOM     22  N   UNL A   1      33.790  32.006  27.898  1.00  0.00    -0.352 N 
ATOM     23  C   UNL A   1      34.206  32.836  28.940  1.00  0.00     0.251 C 
ATOM     24  H   UNL A   1      32.954  32.279  27.456  1.00  0.00     0.163 HD
ATOM     25  O   UNL A   1      33.506  33.767  29.263  1.00  0.00    -0.269 OA
BRANCH  23  26
ATOM     26  C   UNL A   1      35.555  32.678  29.588  1.00  0.00     0.039 A 
ATOM     27  C   UNL A   1      36.679  33.266  28.970  1.00  0.00     0.014 A 
ATOM     28  C   UNL A   1      35.765  31.860  30.686  1.00  0.00     0.014 A 
ATOM     29  C   UNL A   1      37.971  32.851  29.313  1.00  0.00     0.010 A 
ATOM     30  C   UNL A   1      37.009  31.350  30.937  1.00  0.00     0.010 A 
ATOM     31  C   UNL A   1      38.108  31.810  30.221  1.00  0.00    -0.014 A 
BRANCH  31  32
ATOM     32  C   UNL A   1      39.296  31.020  30.472  1.00  0.00     0.031 A 
ATOM     33  C   UNL A   1      39.568  29.815  29.674  1.00  0.00     0.074 A 
ATOM     34  C   UNL A   1      40.287  31.645  31.147  1.00  0.00     0.049 A 
ATOM     35  N   UNL A   1      40.477  28.953  29.964  1.00  0.00    -0.248 NA
ATOM     36  C   UNL A   1      38.826  29.485  28.464  1.00  0.00     0.031 C 
ATOM     37  C   UNL A   1      41.717  31.362  31.135  1.00  0.00     0.029 A 
ATOM     38  N   UNL A   1      40.145  32.600  32.149  1.00  0.00    -0.354 N 
ATOM     39  C   UNL A   1      40.668  28.168  28.849  1.00  0.00     0.074 A 
ATOM     40  C   UNL A   1      39.560  28.480  27.978  1.00  0.00     0.031 C 
ATOM     41  C   UNL A   1      42.261  31.872  32.253  1.00  0.00     0.029 A 
ATOM     42  C   UNL A   1      41.158  32.343  33.078  1.00  0.00     0.049 A 
ATOM     43  H   UNL A   1      39.467  33.314  32.196  1.00  0.00     0.167 HD
ATOM     44  C   UNL A   1      41.832  27.463  28.734  1.00  0.00     0.037 A 
ATOM     45  C   UNL A   1      40.893  31.925  34.350  1.00  0.00     0.037 A 
ATOM     46  C   UNL A   1      42.685  27.694  29.902  1.00  0.00     0.049 A 
ATOM     47  C   UNL A   1      41.496  30.566  34.637  1.00  0.00     0.074 A 
ATOM     48  C   UNL A   1      43.787  28.508  30.114  1.00  0.00     0.029 A 
ATOM     49  N   UNL A   1      42.247  27.299  31.160  1.00  0.00    -0.354 N 
ATOM     50  N   UNL A   1      41.831  29.701  33.719  1.00  0.00    -0.248 NA
ATOM     51  C   UNL A   1      41.771  30.084  35.983  1.00  0.00     0.031 C 
ATOM     52  C   UNL A   1      44.001  28.607  31.512  1.00  0.00     0.029 A 
ATOM     53  C   UNL A   1      43.039  27.844  32.151  1.00  0.00     0.049 A 
ATOM     54  H   UNL A   1      41.476  26.708  31.323  1.00  0.00     0.167 HD
ATOM     55  C   UNL A   1      42.371  28.581  34.307  1.00  0.00     0.074 A 
ATOM     56  C   UNL A   1      42.317  28.882  35.726  1.00  0.00     0.031 C 
ATOM     57  C   UNL A   1      42.807  27.520  33.556  1.00  0.00     0.037 A 
BRANCH  44  58
ATOM     58  C   UNL A   1      42.323  26.803  27.462  1.00  0.00     0.057 A 
ATOM     59  C   UNL A   1      42.234  25.406  27.290  1.00  0.00     0.134 A 
ATOM     60  C   UNL A   1      42.907  27.475  26.374  1.00  0.00     0.134 A 
ATOM     61  F   UNL A   1      41.605  24.622  28.174  1.00  0.00    -0.206 F 
ATOM     62  C   UNL A   1      42.782  24.730  26.190  1.00  0.00     0.040 A 
ATOM     63  C   UNL A   1      43.501  26.810  25.290  1.00  0.00     0.040 A 
ATOM     64  F   UNL A   1      42.872  28.808  26.271  1.00  0.00    -0.206 F 
ATOM     65  C   UNL A   1      43.451  25.429  25.200  1.00  0.00     0.006 A 
ENDBRANCH  44  58
BRANCH  45  66
ATOM     66  C   UNL A   1      39.583  32.412  34.872  1.00  0.00     0.057 A 
ATOM     67  C   UNL A   1      39.502  33.747  35.308  1.00  0.00     0.134 A 
ATOM     68  C   UNL A   1      38.383  31.783  34.517  1.00  0.00     0.134 A 
ATOM     69  F   UNL A   1      40.614  34.409  35.666  1.00  0.00    -0.206 F 
ATOM     70  C   UNL A   1      38.305  34.468  35.253  1.00  0.00     0.040 A 
ATOM     71  C   UNL A   1      37.177  32.496  34.472  1.00  0.00     0.040 A 
ATOM     72  F   UNL A   1      38.383  30.528  34.051  1.00  0.00    -0.206 F 
ATOM     73  C   UNL A   1      37.146  33.852  34.795  1.00  0.00     0.006 A 
ENDBRANCH  45  66
BRANCH  57  74
ATOM     74  C   UNL A   1      43.141  26.106  34.021  1.00  0.00     0.057 A 
ATOM     75  C   UNL A   1      44.366  25.452  33.830  1.00  0.00     0.134 A 
ATOM     76  C   UNL A   1      42.224  25.376  34.826  1.00  0.00     0.134 A 
ATOM     77  F   UNL A   1      45.386  26.022  33.184  1.00  0.00    -0.206 F 
ATOM     78  C   UNL A   1      44.641  24.177  34.352  1.00  0.00     0.040 A 
ATOM     79  C   UNL A   1      42.511  24.136  35.405  1.00  0.00     0.040 A 
ATOM     80  F   UNL A   1      41.001  25.837  35.123  1.00  0.00    -0.206 F 
ATOM     81  C   UNL A   1      43.723  23.521  35.157  1.00  0.00     0.006 A 
ENDBRANCH  57  74
ENDBRANCH  31  32
ENDBRANCH  23  26
ENDBRANCH  21  22
ENDBRANCH   1  21
TORSDOF 12
ENDMDL
