MODEL 1
REMARK VINA RESULT:     -11.7      0.000      0.000
REMARK SMILES CCc1cccc(CC)c1NC(=O)C[C@@](C)(C(=O)NCCCCNC(=O)c1ccc(-c2c3nc(c(-c4c(F)cccc4F)c4ccc([nH]4)c(-c4c(F)cccc4F)c4nc(c(-c5c(F)cccc5F)c5ccc2[nH]5)C=C4)C=C3)cc1)c1ccccc1
REMARK SMILES IDX 20 1 19 2 17 3 18 4 15 6 16 7 14 8 12 9 11 10 13 12 10 13
REMARK SMILES IDX 3 14 4 15 5 16 7 17 6 18 2 19 1 20 8 21 9 22 81 23 82 24
REMARK SMILES IDX 86 25 83 26 85 27 84 28 21 29 22 30 23 31 24 32 25 33 26 35
REMARK SMILES IDX 27 36 28 37 80 38 29 39 79 40 30 41 31 42 32 43 73 44 33 45
REMARK SMILES IDX 78 46 72 47 74 48 34 49 77 50 71 51 70 52 35 54 61 55 44 56
REMARK SMILES IDX 60 57 45 58 48 59 59 60 75 61 46 62 47 63 58 65 76 66 49 67
REMARK SMILES IDX 36 68 37 69 42 70 38 71 39 72 41 73 43 74 40 75 62 76 63 77
REMARK SMILES IDX 68 78 64 79 65 80 67 81 69 82 66 83 50 84 51 85 56 86 52 87
REMARK SMILES IDX 53 88 55 89 57 90 54 91
REMARK H PARENT 19 5 11 11 24 34 74 53 48 64
REMARK Flexibility Score: inf
ROOT
ATOM      1  C   UNL A   1      36.311  22.375  25.199  1.00  0.00     0.116 C 
ENDROOT
BRANCH   1   2
ATOM      2  N   UNL A   1      34.918  21.912  25.291  1.00  0.00    -0.355 N 
ATOM      3  C   UNL A   1      33.805  22.391  24.640  1.00  0.00     0.230 C 
ATOM      4  O   UNL A   1      33.333  21.581  23.831  1.00  0.00    -0.274 OA
ATOM      5  H   UNL A   1      34.761  21.155  25.901  1.00  0.00     0.163 HD
BRANCH   3   6
ATOM      6  C   UNL A   1      33.120  23.812  24.889  1.00  0.00     0.080 C 
ATOM      7  C   UNL A   1      33.933  24.489  26.029  1.00  0.00     0.027 C 
BRANCH   6   8
ATOM      8  C   UNL A   1      31.602  23.630  25.207  1.00  0.00     0.121 C 
BRANCH   8   9
ATOM      9  C   UNL A   1      30.872  24.492  26.215  1.00  0.00     0.225 C 
ATOM     10  N   UNL A   1      30.715  25.829  26.278  1.00  0.00    -0.326 N 
ATOM     11  H   UNL A   1      30.199  26.008  27.098  1.00  0.00     0.169 HD
ATOM     12  O   UNL A   1      30.455  23.940  27.251  1.00  0.00    -0.275 OA
BRANCH  10  13
ATOM     13  C   UNL A   1      30.969  27.095  25.682  1.00  0.00     0.047 A 
ATOM     14  C   UNL A   1      30.251  27.331  24.457  1.00  0.00    -0.024 A 
ATOM     15  C   UNL A   1      30.311  28.593  23.834  1.00  0.00     0.006 A 
ATOM     16  C   UNL A   1      31.072  29.617  24.363  1.00  0.00     0.001 A 
ATOM     17  C   UNL A   1      31.854  28.110  26.115  1.00  0.00    -0.024 A 
ATOM     18  C   UNL A   1      31.844  29.373  25.483  1.00  0.00     0.006 A 
BRANCH  14  19
ATOM     19  C   UNL A   1      29.420  26.231  23.793  1.00  0.00     0.034 C 
ATOM     20  C   UNL A   1      27.901  26.329  23.876  1.00  0.00     0.009 C 
ENDBRANCH  14  19
BRANCH  17  21
ATOM     21  C   UNL A   1      33.017  27.827  27.012  1.00  0.00     0.034 C 
ATOM     22  C   UNL A   1      34.333  28.588  26.873  1.00  0.00     0.009 C 
ENDBRANCH  17  21
ENDBRANCH  10  13
ENDBRANCH   8   9
ENDBRANCH   6   8
BRANCH   6  23
ATOM     23  C   UNL A   1      33.406  24.856  23.731  1.00  0.00    -0.032 A 
ATOM     24  C   UNL A   1      32.713  24.768  22.506  1.00  0.00     0.005 A 
ATOM     25  C   UNL A   1      34.025  26.096  23.997  1.00  0.00     0.005 A 
ATOM     26  C   UNL A   1      32.542  25.870  21.660  1.00  0.00     0.000 A 
ATOM     27  C   UNL A   1      33.850  27.204  23.153  1.00  0.00     0.000 A 
ATOM     28  C   UNL A   1      33.084  27.099  22.000  1.00  0.00     0.000 A 
ENDBRANCH   6  23
ENDBRANCH   3   6
ENDBRANCH   1   2
BRANCH   1  29
ATOM     29  C   UNL A   1      37.182  21.495  24.300  1.00  0.00     0.023 C 
BRANCH  29  30
ATOM     30  C   UNL A   1      37.751  20.255  24.991  1.00  0.00     0.023 C 
BRANCH  30  31
ATOM     31  C   UNL A   1      39.015  20.471  25.824  1.00  0.00     0.116 C 
BRANCH  31  32
ATOM     32  N   UNL A   1      39.913  19.325  25.865  1.00  0.00    -0.352 N 
ATOM     33  C   UNL A   1      41.272  19.301  26.126  1.00  0.00     0.251 C 
ATOM     34  H   UNL A   1      39.499  18.451  25.681  1.00  0.00     0.163 HD
ATOM     35  O   UNL A   1      41.902  18.263  26.087  1.00  0.00    -0.269 OA
BRANCH  33  36
ATOM     36  C   UNL A   1      41.960  20.581  26.407  1.00  0.00     0.039 A 
ATOM     37  C   UNL A   1      42.385  21.369  25.334  1.00  0.00     0.014 A 
ATOM     38  C   UNL A   1      42.101  21.033  27.721  1.00  0.00     0.014 A 
ATOM     39  C   UNL A   1      42.851  22.664  25.573  1.00  0.00     0.010 A 
ATOM     40  C   UNL A   1      42.504  22.344  27.951  1.00  0.00     0.010 A 
ATOM     41  C   UNL A   1      42.860  23.181  26.879  1.00  0.00    -0.014 A 
BRANCH  41  42
ATOM     42  C   UNL A   1      43.207  24.598  27.158  1.00  0.00     0.031 A 
ATOM     43  C   UNL A   1      44.639  25.043  27.097  1.00  0.00     0.074 A 
ATOM     44  C   UNL A   1      42.253  25.455  27.573  1.00  0.00     0.049 A 
ATOM     45  N   UNL A   1      45.172  26.177  27.474  1.00  0.00    -0.248 NA
ATOM     46  C   UNL A   1      45.606  24.066  26.575  1.00  0.00     0.031 C 
ATOM     47  C   UNL A   1      40.829  25.142  27.714  1.00  0.00     0.029 A 
ATOM     48  N   UNL A   1      42.344  26.765  27.978  1.00  0.00    -0.354 N 
ATOM     49  C   UNL A   1      46.537  26.038  27.265  1.00  0.00     0.074 A 
ATOM     50  C   UNL A   1      46.755  24.698  26.763  1.00  0.00     0.031 C 
ATOM     51  C   UNL A   1      40.180  26.230  28.159  1.00  0.00     0.029 A 
ATOM     52  C   UNL A   1      41.144  27.305  28.374  1.00  0.00     0.049 A 
ATOM     53  H   UNL A   1      43.189  27.270  27.981  1.00  0.00     0.167 HD
ATOM     54  C   UNL A   1      47.521  26.950  27.459  1.00  0.00     0.037 A 
ATOM     55  C   UNL A   1      40.856  28.524  28.870  1.00  0.00     0.037 A 
ATOM     56  C   UNL A   1      47.301  28.295  27.917  1.00  0.00     0.049 A 
ATOM     57  C   UNL A   1      41.962  29.526  29.057  1.00  0.00     0.074 A 
ATOM     58  C   UNL A   1      48.226  29.308  28.100  1.00  0.00     0.029 A 
ATOM     59  N   UNL A   1      46.062  28.819  28.257  1.00  0.00    -0.354 N 
ATOM     60  N   UNL A   1      43.244  29.393  28.821  1.00  0.00    -0.248 NA
ATOM     61  C   UNL A   1      41.581  30.848  29.576  1.00  0.00     0.031 C 
ATOM     62  C   UNL A   1      47.550  30.438  28.571  1.00  0.00     0.029 A 
ATOM     63  C   UNL A   1      46.200  30.139  28.650  1.00  0.00     0.049 A 
ATOM     64  H   UNL A   1      45.211  28.324  28.225  1.00  0.00     0.167 HD
ATOM     65  C   UNL A   1      43.817  30.621  29.129  1.00  0.00     0.074 A 
ATOM     66  C   UNL A   1      42.743  31.487  29.566  1.00  0.00     0.031 C 
ATOM     67  C   UNL A   1      45.116  30.995  29.054  1.00  0.00     0.037 A 
BRANCH  54  68
ATOM     68  C   UNL A   1      48.926  26.515  27.167  1.00  0.00     0.057 A 
ATOM     69  C   UNL A   1      49.488  26.649  25.891  1.00  0.00     0.134 A 
ATOM     70  C   UNL A   1      49.732  25.975  28.176  1.00  0.00     0.134 A 
ATOM     71  F   UNL A   1      48.763  27.147  24.878  1.00  0.00    -0.206 F 
ATOM     72  C   UNL A   1      50.792  26.233  25.622  1.00  0.00     0.040 A 
ATOM     73  C   UNL A   1      51.046  25.578  27.925  1.00  0.00     0.040 A 
ATOM     74  F   UNL A   1      49.256  25.824  29.421  1.00  0.00    -0.206 F 
ATOM     75  C   UNL A   1      51.577  25.700  26.642  1.00  0.00     0.006 A 
ENDBRANCH  54  68
BRANCH  55  76
ATOM     76  C   UNL A   1      39.456  28.882  29.206  1.00  0.00     0.057 A 
ATOM     77  C   UNL A   1      38.947  28.660  30.491  1.00  0.00     0.134 A 
ATOM     78  C   UNL A   1      38.590  29.434  28.256  1.00  0.00     0.134 A 
ATOM     79  F   UNL A   1      39.725  28.114  31.438  1.00  0.00    -0.206 F 
ATOM     80  C   UNL A   1      37.622  28.956  30.816  1.00  0.00     0.040 A 
ATOM     81  C   UNL A   1      37.269  29.756  28.572  1.00  0.00     0.040 A 
ATOM     82  F   UNL A   1      39.018  29.678  27.008  1.00  0.00    -0.206 F 
ATOM     83  C   UNL A   1      36.779  29.509  29.854  1.00  0.00     0.006 A 
ENDBRANCH  55  76
BRANCH  67  84
ATOM     84  C   UNL A   1      45.444  32.417  29.396  1.00  0.00     0.057 A 
ATOM     85  C   UNL A   1      45.398  33.438  28.439  1.00  0.00     0.134 A 
ATOM     86  C   UNL A   1      45.755  32.775  30.715  1.00  0.00     0.134 A 
ATOM     87  F   UNL A   1      45.121  33.157  27.158  1.00  0.00    -0.206 F 
ATOM     88  C   UNL A   1      45.663  34.766  28.781  1.00  0.00     0.040 A 
ATOM     89  C   UNL A   1      46.000  34.100  31.071  1.00  0.00     0.040 A 
ATOM     90  F   UNL A   1      45.807  31.843  31.678  1.00  0.00    -0.206 F 
ATOM     91  C   UNL A   1      45.956  35.101  30.102  1.00  0.00     0.006 A 
ENDBRANCH  67  84
ENDBRANCH  41  42
ENDBRANCH  33  36
ENDBRANCH  31  32
ENDBRANCH  30  31
ENDBRANCH  29  30
ENDBRANCH   1  29
TORSDOF 17
ENDMDL
MODEL 2
REMARK VINA RESULT:     -11.7      4.484      8.549
REMARK SMILES CCc1cccc(CC)c1NC(=O)C[C@@](C)(C(=O)NCCCCNC(=O)c1ccc(-c2c3nc(c(-c4c(F)cccc4F)c4ccc([nH]4)c(-c4c(F)cccc4F)c4nc(c(-c5c(F)cccc5F)c5ccc2[nH]5)C=C4)C=C3)cc1)c1ccccc1
REMARK SMILES IDX 20 1 19 2 17 3 18 4 15 6 16 7 14 8 12 9 11 10 13 12 10 13
REMARK SMILES IDX 3 14 4 15 5 16 7 17 6 18 2 19 1 20 8 21 9 22 81 23 82 24
REMARK SMILES IDX 86 25 83 26 85 27 84 28 21 29 22 30 23 31 24 32 25 33 26 35
REMARK SMILES IDX 27 36 28 37 80 38 29 39 79 40 30 41 31 42 32 43 73 44 33 45
REMARK SMILES IDX 78 46 72 47 74 48 34 49 77 50 71 51 70 52 35 54 61 55 44 56
REMARK SMILES IDX 60 57 45 58 48 59 59 60 75 61 46 62 47 63 58 65 76 66 49 67
REMARK SMILES IDX 36 68 37 69 42 70 38 71 39 72 41 73 43 74 40 75 62 76 63 77
REMARK SMILES IDX 68 78 64 79 65 80 67 81 69 82 66 83 50 84 51 85 56 86 52 87
REMARK SMILES IDX 53 88 55 89 57 90 54 91
REMARK H PARENT 19 5 11 11 24 34 74 53 48 64
REMARK Flexibility Score: inf
ROOT
ATOM      1  C   UNL A   1      30.550  29.756  24.064  1.00  0.00     0.116 C 
ENDROOT
BRANCH   1   2
ATOM      2  N   UNL A   1      31.263  29.008  23.017  1.00  0.00    -0.355 N 
ATOM      3  C   UNL A   1      31.223  27.661  22.740  1.00  0.00     0.230 C 
ATOM      4  O   UNL A   1      30.699  27.409  21.646  1.00  0.00    -0.274 OA
ATOM      5  H   UNL A   1      31.849  29.544  22.436  1.00  0.00     0.163 HD
BRANCH   3   6
ATOM      6  C   UNL A   1      31.811  26.501  23.665  1.00  0.00     0.080 C 
ATOM      7  C   UNL A   1      30.707  26.182  24.712  1.00  0.00     0.027 C 
BRANCH   6   8
ATOM      8  C   UNL A   1      33.173  26.946  24.288  1.00  0.00     0.121 C 
BRANCH   8   9
ATOM      9  C   UNL A   1      33.612  26.524  25.673  1.00  0.00     0.225 C 
ATOM     10  N   UNL A   1      33.962  25.315  26.154  1.00  0.00    -0.326 N 
ATOM     11  H   UNL A   1      34.159  25.443  27.110  1.00  0.00     0.169 HD
ATOM     12  O   UNL A   1      33.511  27.361  26.590  1.00  0.00    -0.275 OA
BRANCH  10  13
ATOM     13  C   UNL A   1      34.172  23.934  25.887  1.00  0.00     0.047 A 
ATOM     14  C   UNL A   1      33.076  23.081  26.266  1.00  0.00    -0.024 A 
ATOM     15  C   UNL A   1      33.100  21.711  25.938  1.00  0.00     0.006 A 
ATOM     16  C   UNL A   1      34.174  21.152  25.275  1.00  0.00     0.001 A 
ATOM     17  C   UNL A   1      35.319  23.306  25.345  1.00  0.00    -0.024 A 
ATOM     18  C   UNL A   1      35.276  21.938  24.994  1.00  0.00     0.006 A 
BRANCH  14  19
ATOM     19  C   UNL A   1      31.872  23.623  27.038  1.00  0.00     0.034 C 
ATOM     20  C   UNL A   1      30.510  22.984  26.787  1.00  0.00     0.009 C 
ENDBRANCH  14  19
BRANCH  17  21
ATOM     21  C   UNL A   1      36.675  23.934  25.401  1.00  0.00     0.034 C 
ATOM     22  C   UNL A   1      37.895  23.150  25.875  1.00  0.00     0.009 C 
ENDBRANCH  17  21
ENDBRANCH  10  13
ENDBRANCH   8   9
ENDBRANCH   6   8
BRANCH   6  23
ATOM     23  C   UNL A   1      31.875  25.094  22.940  1.00  0.00    -0.032 A 
ATOM     24  C   UNL A   1      33.043  24.698  22.254  1.00  0.00     0.005 A 
ATOM     25  C   UNL A   1      30.979  24.055  23.271  1.00  0.00     0.005 A 
ATOM     26  C   UNL A   1      33.357  23.354  22.021  1.00  0.00     0.000 A 
ATOM     27  C   UNL A   1      31.294  22.707  23.043  1.00  0.00     0.000 A 
ATOM     28  C   UNL A   1      32.497  22.355  22.445  1.00  0.00     0.000 A 
ENDBRANCH   6  23
ENDBRANCH   3   6
ENDBRANCH   1   2
BRANCH   1  29
ATOM     29  C   UNL A   1      31.409  30.033  25.299  1.00  0.00     0.023 C 
BRANCH  29  30
ATOM     30  C   UNL A   1      31.158  31.393  25.951  1.00  0.00     0.023 C 
BRANCH  30  31
ATOM     31  C   UNL A   1      32.106  31.778  27.088  1.00  0.00     0.116 C 
BRANCH  31  32
ATOM     32  N   UNL A   1      32.090  33.193  27.434  1.00  0.00    -0.352 N 
ATOM     33  C   UNL A   1      33.077  33.944  28.046  1.00  0.00     0.251 C 
ATOM     34  H   UNL A   1      31.266  33.679  27.201  1.00  0.00     0.163 HD
ATOM     35  O   UNL A   1      32.904  35.118  28.308  1.00  0.00    -0.269 OA
BRANCH  33  36
ATOM     36  C   UNL A   1      34.341  33.275  28.427  1.00  0.00     0.039 A 
ATOM     37  C   UNL A   1      35.529  34.009  28.399  1.00  0.00     0.014 A 
ATOM     38  C   UNL A   1      34.329  31.958  28.891  1.00  0.00     0.014 A 
ATOM     39  C   UNL A   1      36.691  33.459  28.943  1.00  0.00     0.010 A 
ATOM     40  C   UNL A   1      35.472  31.437  29.491  1.00  0.00     0.010 A 
ATOM     41  C   UNL A   1      36.657  32.191  29.545  1.00  0.00    -0.014 A 
BRANCH  41  42
ATOM     42  C   UNL A   1      37.831  31.632  30.264  1.00  0.00     0.031 A 
ATOM     43  C   UNL A   1      38.697  30.604  29.596  1.00  0.00     0.074 A 
ATOM     44  C   UNL A   1      38.053  31.966  31.551  1.00  0.00     0.049 A 
ATOM     45  N   UNL A   1      39.652  29.868  30.105  1.00  0.00    -0.248 NA
ATOM     46  C   UNL A   1      38.427  30.344  28.174  1.00  0.00     0.031 C 
ATOM     47  C   UNL A   1      37.264  32.923  32.331  1.00  0.00     0.029 A 
ATOM     48  N   UNL A   1      38.998  31.515  32.441  1.00  0.00    -0.354 N 
ATOM     49  C   UNL A   1      40.073  29.037  29.076  1.00  0.00     0.074 A 
ATOM     50  C   UNL A   1      39.246  29.334  27.926  1.00  0.00     0.031 C 
ATOM     51  C   UNL A   1      37.765  32.997  33.575  1.00  0.00     0.029 A 
ATOM     52  C   UNL A   1      38.883  32.065  33.695  1.00  0.00     0.049 A 
ATOM     53  H   UNL A   1      39.694  30.862  32.202  1.00  0.00     0.167 HD
ATOM     54  C   UNL A   1      41.070  28.119  29.083  1.00  0.00     0.037 A 
ATOM     55  C   UNL A   1      39.588  31.832  34.819  1.00  0.00     0.037 A 
ATOM     56  C   UNL A   1      41.919  27.853  30.213  1.00  0.00     0.049 A 
ATOM     57  C   UNL A   1      40.703  30.824  34.796  1.00  0.00     0.074 A 
ATOM     58  C   UNL A   1      42.987  26.976  30.303  1.00  0.00     0.029 A 
ATOM     59  N   UNL A   1      41.803  28.471  31.449  1.00  0.00    -0.354 N 
ATOM     60  N   UNL A   1      41.115  30.071  33.805  1.00  0.00    -0.248 NA
ATOM     61  C   UNL A   1      41.454  30.634  36.046  1.00  0.00     0.031 C 
ATOM     62  C   UNL A   1      43.503  27.048  31.602  1.00  0.00     0.029 A 
ATOM     63  C   UNL A   1      42.778  27.994  32.308  1.00  0.00     0.049 A 
ATOM     64  H   UNL A   1      41.127  29.148  31.681  1.00  0.00     0.167 HD
ATOM     65  C   UNL A   1      42.191  29.346  34.301  1.00  0.00     0.074 A 
ATOM     66  C   UNL A   1      42.371  29.751  35.678  1.00  0.00     0.031 C 
ATOM     67  C   UNL A   1      42.961  28.429  33.668  1.00  0.00     0.037 A 
BRANCH  54  68
ATOM     68  C   UNL A   1      41.294  27.340  27.821  1.00  0.00     0.057 A 
ATOM     69  C   UNL A   1      42.158  27.798  26.817  1.00  0.00     0.134 A 
ATOM     70  C   UNL A   1      40.656  26.112  27.616  1.00  0.00     0.134 A 
ATOM     71  F   UNL A   1      42.788  28.974  26.948  1.00  0.00    -0.206 F 
ATOM     72  C   UNL A   1      42.353  27.076  25.640  1.00  0.00     0.040 A 
ATOM     73  C   UNL A   1      40.864  25.368  26.453  1.00  0.00     0.040 A 
ATOM     74  F   UNL A   1      39.821  25.614  28.540  1.00  0.00    -0.206 F 
ATOM     75  C   UNL A   1      41.710  25.854  25.458  1.00  0.00     0.006 A 
ENDBRANCH  54  68
BRANCH  55  76
ATOM     76  C   UNL A   1      39.282  32.584  36.061  1.00  0.00     0.057 A 
ATOM     77  C   UNL A   1      38.390  32.069  37.010  1.00  0.00     0.134 A 
ATOM     78  C   UNL A   1      39.853  33.834  36.325  1.00  0.00     0.134 A 
ATOM     79  F   UNL A   1      37.796  30.885  36.802  1.00  0.00    -0.206 F 
ATOM     80  C   UNL A   1      38.061  32.777  38.167  1.00  0.00     0.040 A 
ATOM     81  C   UNL A   1      39.551  34.544  37.488  1.00  0.00     0.040 A 
ATOM     82  F   UNL A   1      40.721  34.379  35.460  1.00  0.00    -0.206 F 
ATOM     83  C   UNL A   1      38.646  34.018  38.410  1.00  0.00     0.006 A 
ENDBRANCH  55  76
BRANCH  67  84
ATOM     84  C   UNL A   1      44.105  27.841  34.438  1.00  0.00     0.057 A 
ATOM     85  C   UNL A   1      45.362  28.455  34.479  1.00  0.00     0.134 A 
ATOM     86  C   UNL A   1      43.925  26.673  35.192  1.00  0.00     0.134 A 
ATOM     87  F   UNL A   1      45.600  29.566  33.769  1.00  0.00    -0.206 F 
ATOM     88  C   UNL A   1      46.406  27.921  35.237  1.00  0.00     0.040 A 
ATOM     89  C   UNL A   1      44.955  26.143  35.968  1.00  0.00     0.040 A 
ATOM     90  F   UNL A   1      42.742  26.043  35.198  1.00  0.00    -0.206 F 
ATOM     91  C   UNL A   1      46.201  26.766  35.990  1.00  0.00     0.006 A 
ENDBRANCH  67  84
ENDBRANCH  41  42
ENDBRANCH  33  36
ENDBRANCH  31  32
ENDBRANCH  30  31
ENDBRANCH  29  30
ENDBRANCH   1  29
TORSDOF 17
ENDMDL
MODEL 3
REMARK VINA RESULT:     -11.7      0.995      2.288
REMARK SMILES CCc1cccc(CC)c1NC(=O)C[C@@](C)(C(=O)NCCCCNC(=O)c1ccc(-c2c3nc(c(-c4c(F)cccc4F)c4ccc([nH]4)c(-c4c(F)cccc4F)c4nc(c(-c5c(F)cccc5F)c5ccc2[nH]5)C=C4)C=C3)cc1)c1ccccc1
REMARK SMILES IDX 20 1 19 2 17 3 18 4 15 6 16 7 14 8 12 9 11 10 13 12 10 13
REMARK SMILES IDX 3 14 4 15 5 16 7 17 6 18 2 19 1 20 8 21 9 22 81 23 82 24
REMARK SMILES IDX 86 25 83 26 85 27 84 28 21 29 22 30 23 31 24 32 25 33 26 35
REMARK SMILES IDX 27 36 28 37 80 38 29 39 79 40 30 41 31 42 32 43 73 44 33 45
REMARK SMILES IDX 78 46 72 47 74 48 34 49 77 50 71 51 70 52 35 54 61 55 44 56
REMARK SMILES IDX 60 57 45 58 48 59 59 60 75 61 46 62 47 63 58 65 76 66 49 67
REMARK SMILES IDX 36 68 37 69 42 70 38 71 39 72 41 73 43 74 40 75 62 76 63 77
REMARK SMILES IDX 68 78 64 79 65 80 67 81 69 82 66 83 50 84 51 85 56 86 52 87
REMARK SMILES IDX 53 88 55 89 57 90 54 91
REMARK H PARENT 19 5 11 11 24 34 74 53 48 64
REMARK Flexibility Score: inf
ROOT
ATOM      1  C   UNL A   1      35.290  20.183  24.985  1.00  0.00     0.116 C 
ENDROOT
BRANCH   1   2
ATOM      2  N   UNL A   1      34.111  20.769  25.641  1.00  0.00    -0.355 N 
ATOM      3  C   UNL A   1      32.928  21.185  25.078  1.00  0.00     0.230 C 
ATOM      4  O   UNL A   1      31.959  20.492  25.420  1.00  0.00    -0.274 OA
ATOM      5  H   UNL A   1      34.178  20.878  26.618  1.00  0.00     0.163 HD
BRANCH   3   6
ATOM      6  C   UNL A   1      32.748  22.445  24.114  1.00  0.00     0.080 C 
ATOM      7  C   UNL A   1      32.268  21.879  22.748  1.00  0.00     0.027 C 
BRANCH   6   8
ATOM      8  C   UNL A   1      34.078  23.260  24.038  1.00  0.00     0.121 C 
BRANCH   8   9
ATOM      9  C   UNL A   1      34.435  24.332  25.045  1.00  0.00     0.225 C 
ATOM     10  N   UNL A   1      34.162  25.652  25.058  1.00  0.00    -0.326 N 
ATOM     11  H   UNL A   1      34.588  26.014  25.868  1.00  0.00     0.169 HD
ATOM     12  O   UNL A   1      35.234  24.028  25.951  1.00  0.00    -0.275 OA
BRANCH  10  13
ATOM     13  C   UNL A   1      33.529  26.751  24.415  1.00  0.00     0.047 A 
ATOM     14  C   UNL A   1      32.902  27.686  25.313  1.00  0.00    -0.024 A 
ATOM     15  C   UNL A   1      32.354  28.885  24.817  1.00  0.00     0.006 A 
ATOM     16  C   UNL A   1      32.379  29.179  23.468  1.00  0.00     0.001 A 
ATOM     17  C   UNL A   1      33.405  27.009  23.030  1.00  0.00    -0.024 A 
ATOM     18  C   UNL A   1      32.887  28.245  22.584  1.00  0.00     0.006 A 
BRANCH  14  19
ATOM     19  C   UNL A   1      32.803  27.408  26.814  1.00  0.00     0.034 C 
ATOM     20  C   UNL A   1      31.784  28.201  27.626  1.00  0.00     0.009 C 
ENDBRANCH  14  19
BRANCH  17  21
ATOM     21  C   UNL A   1      33.512  25.926  22.003  1.00  0.00     0.034 C 
ATOM     22  C   UNL A   1      32.526  25.832  20.842  1.00  0.00     0.009 C 
ENDBRANCH  17  21
ENDBRANCH  10  13
ENDBRANCH   8   9
ENDBRANCH   6   8
BRANCH   6  23
ATOM     23  C   UNL A   1      31.481  23.330  24.471  1.00  0.00    -0.032 A 
ATOM     24  C   UNL A   1      31.192  23.651  25.813  1.00  0.00     0.005 A 
ATOM     25  C   UNL A   1      30.852  24.137  23.499  1.00  0.00     0.005 A 
ATOM     26  C   UNL A   1      30.430  24.770  26.169  1.00  0.00     0.000 A 
ATOM     27  C   UNL A   1      30.092  25.263  23.853  1.00  0.00     0.000 A 
ATOM     28  C   UNL A   1      29.906  25.596  25.188  1.00  0.00     0.000 A 
ENDBRANCH   6  23
ENDBRANCH   3   6
ENDBRANCH   1   2
BRANCH   1  29
ATOM     29  C   UNL A   1      36.581  20.957  25.261  1.00  0.00     0.023 C 
BRANCH  29  30
ATOM     30  C   UNL A   1      37.858  20.213  24.870  1.00  0.00     0.023 C 
BRANCH  30  31
ATOM     31  C   UNL A   1      39.034  20.345  25.839  1.00  0.00     0.116 C 
BRANCH  31  32
ATOM     32  N   UNL A   1      39.954  19.215  25.829  1.00  0.00    -0.352 N 
ATOM     33  C   UNL A   1      41.315  19.206  26.079  1.00  0.00     0.251 C 
ATOM     34  H   UNL A   1      39.554  18.342  25.614  1.00  0.00     0.163 HD
ATOM     35  O   UNL A   1      41.964  18.182  25.995  1.00  0.00    -0.269 OA
BRANCH  33  36
ATOM     36  C   UNL A   1      41.982  20.487  26.405  1.00  0.00     0.039 A 
ATOM     37  C   UNL A   1      42.584  21.215  25.376  1.00  0.00     0.014 A 
ATOM     38  C   UNL A   1      41.930  20.999  27.703  1.00  0.00     0.014 A 
ATOM     39  C   UNL A   1      43.039  22.512  25.625  1.00  0.00     0.010 A 
ATOM     40  C   UNL A   1      42.324  22.313  27.933  1.00  0.00     0.010 A 
ATOM     41  C   UNL A   1      42.860  23.091  26.892  1.00  0.00    -0.014 A 
BRANCH  41  42
ATOM     42  C   UNL A   1      43.193  24.514  27.157  1.00  0.00     0.031 A 
ATOM     43  C   UNL A   1      44.621  24.972  27.092  1.00  0.00     0.074 A 
ATOM     44  C   UNL A   1      42.230  25.367  27.563  1.00  0.00     0.049 A 
ATOM     45  N   UNL A   1      45.143  26.115  27.457  1.00  0.00    -0.248 NA
ATOM     46  C   UNL A   1      45.598  23.999  26.580  1.00  0.00     0.031 C 
ATOM     47  C   UNL A   1      40.810  25.041  27.707  1.00  0.00     0.029 A 
ATOM     48  N   UNL A   1      42.309  26.682  27.954  1.00  0.00    -0.354 N 
ATOM     49  C   UNL A   1      46.509  25.987  27.251  1.00  0.00     0.074 A 
ATOM     50  C   UNL A   1      46.740  24.645  26.763  1.00  0.00     0.031 C 
ATOM     51  C   UNL A   1      40.150  26.128  28.141  1.00  0.00     0.029 A 
ATOM     52  C   UNL A   1      41.104  27.214  28.345  1.00  0.00     0.049 A 
ATOM     53  H   UNL A   1      43.149  27.194  27.954  1.00  0.00     0.167 HD
ATOM     54  C   UNL A   1      47.484  26.910  27.436  1.00  0.00     0.037 A 
ATOM     55  C   UNL A   1      40.804  28.435  28.829  1.00  0.00     0.037 A 
ATOM     56  C   UNL A   1      47.251  28.258  27.881  1.00  0.00     0.049 A 
ATOM     57  C   UNL A   1      41.900  29.449  29.006  1.00  0.00     0.074 A 
ATOM     58  C   UNL A   1      48.166  29.281  28.053  1.00  0.00     0.029 A 
ATOM     59  N   UNL A   1      46.007  28.773  28.215  1.00  0.00    -0.354 N 
ATOM     60  N   UNL A   1      43.184  29.326  28.771  1.00  0.00    -0.248 NA
ATOM     61  C   UNL A   1      41.506  30.773  29.512  1.00  0.00     0.031 C 
ATOM     62  C   UNL A   1      47.479  30.410  28.513  1.00  0.00     0.029 A 
ATOM     63  C   UNL A   1      46.132  30.098  28.594  1.00  0.00     0.049 A 
ATOM     64  H   UNL A   1      45.161  28.270  28.187  1.00  0.00     0.167 HD
ATOM     65  C   UNL A   1      43.744  30.562  29.068  1.00  0.00     0.074 A 
ATOM     66  C   UNL A   1      42.661  31.422  29.495  1.00  0.00     0.031 C 
ATOM     67  C   UNL A   1      45.040  30.949  28.989  1.00  0.00     0.037 A 
BRANCH  54  68
ATOM     68  C   UNL A   1      48.893  26.487  27.149  1.00  0.00     0.057 A 
ATOM     69  C   UNL A   1      49.716  25.942  28.144  1.00  0.00     0.134 A 
ATOM     70  C   UNL A   1      49.428  26.608  25.861  1.00  0.00     0.134 A 
ATOM     71  F   UNL A   1      49.266  25.813  29.401  1.00  0.00    -0.206 F 
ATOM     72  C   UNL A   1      51.030  25.561  27.874  1.00  0.00     0.040 A 
ATOM     73  C   UNL A   1      50.734  26.206  25.574  1.00  0.00     0.040 A 
ATOM     74  F   UNL A   1      48.692  27.116  24.862  1.00  0.00    -0.206 F 
ATOM     75  C   UNL A   1      51.541  25.687  26.585  1.00  0.00     0.006 A 
ENDBRANCH  54  68
BRANCH  55  76
ATOM     76  C   UNL A   1      39.400  28.783  29.160  1.00  0.00     0.057 A 
ATOM     77  C   UNL A   1      38.881  28.532  30.436  1.00  0.00     0.134 A 
ATOM     78  C   UNL A   1      38.541  29.354  28.215  1.00  0.00     0.134 A 
ATOM     79  F   UNL A   1      39.652  27.968  31.378  1.00  0.00    -0.206 F 
ATOM     80  C   UNL A   1      37.553  28.818  30.756  1.00  0.00     0.040 A 
ATOM     81  C   UNL A   1      37.216  29.666  28.527  1.00  0.00     0.040 A 
ATOM     82  F   UNL A   1      38.978  29.625  26.977  1.00  0.00    -0.206 F 
ATOM     83  C   UNL A   1      36.717  29.390  29.800  1.00  0.00     0.006 A 
ENDBRANCH  55  76
BRANCH  67  84
ATOM     84  C   UNL A   1      45.354  32.377  29.317  1.00  0.00     0.057 A 
ATOM     85  C   UNL A   1      45.276  33.391  28.356  1.00  0.00     0.134 A 
ATOM     86  C   UNL A   1      45.684  32.747  30.628  1.00  0.00     0.134 A 
ATOM     87  F   UNL A   1      44.978  33.099  27.081  1.00  0.00    -0.206 F 
ATOM     88  C   UNL A   1      45.527  34.725  28.685  1.00  0.00     0.040 A 
ATOM     89  C   UNL A   1      45.918  34.078  30.972  1.00  0.00     0.040 A 
ATOM     90  F   UNL A   1      45.769  31.822  31.594  1.00  0.00    -0.206 F 
ATOM     91  C   UNL A   1      45.841  35.071  29.998  1.00  0.00     0.006 A 
ENDBRANCH  67  84
ENDBRANCH  41  42
ENDBRANCH  33  36
ENDBRANCH  31  32
ENDBRANCH  30  31
ENDBRANCH  29  30
ENDBRANCH   1  29
TORSDOF 17
ENDMDL
