MODEL 1
REMARK VINA RESULT:     -14.9      0.000      0.000
REMARK SMILES O=C(NCCCCNC(=O)[C@H]1[C@H]2CC[C@H](CC2)[C@@H]1C(=O)Nc1ccc(Cc2ccncc2)cc1)c1ccc(-c2c3nc(c(-c4c(F)cccc4F)c4ccc([nH]4)c(-c4c(F)cccc4F)c4nc(c(-c5c(F)cccc5F)c5ccc2[nH]5)C=C4)C=C3)cc1
REMARK SMILES IDX 6 1 5 2 4 3 3 4 1 5 2 6 35 8 36 9 88 10 37 11 87 12 38 13
REMARK SMILES IDX 39 14 40 15 81 16 41 17 86 18 80 19 82 20 42 21 85 22 79 23
REMARK SMILES IDX 78 24 43 26 69 27 52 28 68 29 53 30 56 31 67 32 83 33 54 34
REMARK SMILES IDX 55 35 66 37 84 38 57 39 44 40 45 41 50 42 46 43 47 44 49 45
REMARK SMILES IDX 51 46 48 47 70 48 71 49 76 50 72 51 73 52 75 53 77 54 74 55
REMARK SMILES IDX 58 56 59 57 64 58 60 59 61 60 63 61 65 62 62 63 7 64 8 65
REMARK SMILES IDX 9 66 10 68 11 69 12 70 18 71 13 72 17 73 15 74 14 75 16 76
REMARK SMILES IDX 19 77 20 78 21 79 22 81 23 82 34 83 24 84 33 85 25 86 26 87
REMARK SMILES IDX 27 88 28 89 32 90 29 91 31 92 30 93
REMARK H PARENT 3 7 82 25 56 36 8 67 21 80
REMARK Flexibility Score: inf
ROOT
ATOM      1  C   UNL A   1      32.662  27.471  26.768  1.00  0.00     0.023 C 
ENDROOT
BRANCH   1   2
ATOM      2  C   UNL A   1      33.697  28.433  26.182  1.00  0.00     0.023 C 
BRANCH   2   3
ATOM      3  C   UNL A   1      34.688  28.835  27.267  1.00  0.00     0.116 C 
BRANCH   3   4
ATOM      4  N   UNL A   1      34.396  29.997  28.017  1.00  0.00    -0.352 N 
ATOM      5  O   UNL A   1      34.734  31.610  29.520  1.00  0.00    -0.269 OA
ATOM      6  C   UNL A   1      35.191  30.662  28.891  1.00  0.00     0.251 C 
ATOM      7  H   UNL A   1      33.494  30.373  27.887  1.00  0.00     0.163 HD
BRANCH   6   8
ATOM      8  C   UNL A   1      36.550  30.178  29.148  1.00  0.00     0.039 A 
ATOM      9  C   UNL A   1      37.116  29.450  30.674  1.00  0.00     0.014 A 
ATOM     10  C   UNL A   1      37.678  30.409  27.877  1.00  0.00     0.014 A 
ATOM     11  C   UNL A   1      39.064  28.960  30.834  1.00  0.00     0.010 A 
ATOM     12  C   UNL A   1      39.347  29.972  27.982  1.00  0.00     0.010 A 
ATOM     13  C   UNL A   1      40.082  29.259  29.392  1.00  0.00    -0.014 A 
BRANCH  13  14
ATOM     14  C   UNL A   1      41.449  28.787  29.186  1.00  0.00     0.031 A 
ATOM     15  C   UNL A   1      42.557  29.775  29.155  1.00  0.00     0.074 A 
ATOM     16  C   UNL A   1      41.616  27.518  28.782  1.00  0.00     0.049 A 
ATOM     17  N   UNL A   1      43.822  29.584  28.900  1.00  0.00    -0.248 NA
ATOM     18  C   UNL A   1      42.192  31.176  29.415  1.00  0.00     0.031 C 
ATOM     19  C   UNL A   1      40.539  26.545  28.614  1.00  0.00     0.029 A 
ATOM     20  N   UNL A   1      42.736  26.835  28.395  1.00  0.00    -0.354 N 
ATOM     21  C   UNL A   1      44.411  30.833  29.004  1.00  0.00     0.074 A 
ATOM     22  C   UNL A   1      43.359  31.786  29.277  1.00  0.00     0.031 C 
ATOM     23  C   UNL A   1      41.049  25.374  28.214  1.00  0.00     0.029 A 
ATOM     24  C   UNL A   1      42.482  25.537  28.021  1.00  0.00     0.049 A 
ATOM     25  H   UNL A   1      43.637  27.234  28.385  1.00  0.00     0.167 HD
ATOM     26  C   UNL A   1      45.724  31.137  28.896  1.00  0.00     0.037 A 
ATOM     27  C   UNL A   1      43.317  24.598  27.547  1.00  0.00     0.037 A 
ATOM     28  C   UNL A   1      46.722  30.166  28.533  1.00  0.00     0.049 A 
ATOM     29  C   UNL A   1      44.762  24.970  27.386  1.00  0.00     0.074 A 
ATOM     30  C   UNL A   1      48.087  30.335  28.411  1.00  0.00     0.029 A 
ATOM     31  N   UNL A   1      46.445  28.847  28.188  1.00  0.00    -0.354 N 
ATOM     32  N   UNL A   1      45.346  26.124  27.609  1.00  0.00    -0.248 NA
ATOM     33  C   UNL A   1      45.667  23.916  26.916  1.00  0.00     0.031 C 
ATOM     34  C   UNL A   1      48.624  29.144  27.912  1.00  0.00     0.029 A 
ATOM     35  C   UNL A   1      47.611  28.199  27.821  1.00  0.00     0.049 A 
ATOM     36  H   UNL A   1      45.551  28.435  28.204  1.00  0.00     0.167 HD
ATOM     37  C   UNL A   1      46.692  25.929  27.346  1.00  0.00     0.074 A 
ATOM     38  C   UNL A   1      46.836  24.540  26.949  1.00  0.00     0.031 C 
ATOM     39  C   UNL A   1      47.718  26.812  27.434  1.00  0.00     0.037 A 
BRANCH  26  40
ATOM     40  C   UNL A   1      46.116  32.565  29.133  1.00  0.00     0.057 A 
ATOM     41  C   UNL A   1      46.145  33.508  28.093  1.00  0.00     0.134 A 
ATOM     42  C   UNL A   1      46.493  33.004  30.408  1.00  0.00     0.134 A 
ATOM     43  F   UNL A   1      45.809  33.154  26.843  1.00  0.00    -0.206 F 
ATOM     44  C   UNL A   1      46.582  34.817  28.303  1.00  0.00     0.040 A 
ATOM     45  C   UNL A   1      46.896  34.320  30.636  1.00  0.00     0.040 A 
ATOM     46  F   UNL A   1      46.488  32.161  31.450  1.00  0.00    -0.206 F 
ATOM     47  C   UNL A   1      46.955  35.226  29.581  1.00  0.00     0.006 A 
ENDBRANCH  26  40
BRANCH  27  48
ATOM     48  C   UNL A   1      42.811  23.240  27.229  1.00  0.00     0.057 A 
ATOM     49  C   UNL A   1      42.564  22.307  28.241  1.00  0.00     0.134 A 
ATOM     50  C   UNL A   1      42.534  22.848  25.912  1.00  0.00     0.134 A 
ATOM     51  F   UNL A   1      42.808  22.620  29.522  1.00  0.00    -0.206 F 
ATOM     52  C   UNL A   1      42.086  21.026  27.958  1.00  0.00     0.040 A 
ATOM     53  C   UNL A   1      42.026  21.581  25.617  1.00  0.00     0.040 A 
ATOM     54  F   UNL A   1      42.727  23.701  24.895  1.00  0.00    -0.206 F 
ATOM     55  C   UNL A   1      41.810  20.663  26.642  1.00  0.00     0.006 A 
ENDBRANCH  27  48
BRANCH  39  56
ATOM     56  C   UNL A   1      49.096  26.285  27.161  1.00  0.00     0.057 A 
ATOM     57  C   UNL A   1      49.693  26.359  25.897  1.00  0.00     0.134 A 
ATOM     58  C   UNL A   1      49.859  25.751  28.209  1.00  0.00     0.134 A 
ATOM     59  F   UNL A   1      49.012  26.850  24.850  1.00  0.00    -0.206 F 
ATOM     60  C   UNL A   1      50.990  25.898  25.679  1.00  0.00     0.040 A 
ATOM     61  C   UNL A   1      51.172  25.327  28.013  1.00  0.00     0.040 A 
ATOM     62  F   UNL A   1      49.350  25.662  29.447  1.00  0.00    -0.206 F 
ATOM     63  C   UNL A   1      51.738  25.391  26.743  1.00  0.00     0.006 A 
ENDBRANCH  39  56
ENDBRANCH  13  14
ENDBRANCH   6   8
ENDBRANCH   3   4
ENDBRANCH   2   3
ENDBRANCH   1   2
BRANCH   1  64
ATOM     64  C   UNL A   1      32.914  25.932  26.054  1.00  0.00     0.116 C 
BRANCH  64  65
ATOM     65  N   UNL A   1      34.530  24.969  25.165  1.00  0.00    -0.356 N 
ATOM     66  C   UNL A   1      35.085  23.769  24.568  1.00  0.00     0.224 C 
ATOM     67  H   UNL A   1      35.252  25.637  25.136  1.00  0.00     0.163 HD
ATOM     68  O   UNL A   1      36.239  23.881  24.135  1.00  0.00    -0.275 OA
BRANCH  66  69
ATOM     69  C   UNL A   1      34.375  22.368  24.514  1.00  0.00     0.094 C 
ATOM     70  C   UNL A   1      34.736  21.301  25.560  1.00  0.00     0.002 C 
ATOM     71  C   UNL A   1      32.871  22.517  24.286  1.00  0.00     0.094 C 
ATOM     72  C   UNL A   1      34.015  21.544  26.875  1.00  0.00     0.005 C 
ATOM     73  C   UNL A   1      34.220  19.949  24.981  1.00  0.00     0.005 C 
ATOM     74  C   UNL A   1      32.165  21.426  25.136  1.00  0.00     0.002 C 
ATOM     75  C   UNL A   1      32.508  21.674  26.623  1.00  0.00     0.005 C 
ATOM     76  C   UNL A   1      32.701  20.029  24.742  1.00  0.00     0.005 C 
BRANCH  71  77
ATOM     77  C   UNL A   1      32.540  22.378  22.785  1.00  0.00     0.228 C 
ATOM     78  O   UNL A   1      32.495  21.277  22.232  1.00  0.00    -0.274 OA
ATOM     79  N   UNL A   1      32.230  23.498  22.039  1.00  0.00    -0.326 N 
ATOM     80  H   UNL A   1      32.284  23.430  21.059  1.00  0.00     0.169 HD
BRANCH  79  81
ATOM     81  C   UNL A   1      31.841  24.730  22.595  1.00  0.00     0.041 A 
ATOM     82  C   UNL A   1      32.851  26.169  22.141  1.00  0.00     0.026 A 
ATOM     83  C   UNL A   1      30.280  24.988  23.570  1.00  0.00     0.026 A 
ATOM     84  C   UNL A   1      32.413  27.815  22.766  1.00  0.00     0.006 A 
ATOM     85  C   UNL A   1      29.826  26.678  24.082  1.00  0.00     0.006 A 
ATOM     86  C   UNL A   1      30.895  28.099  23.709  1.00  0.00    -0.043 A 
BRANCH  86  87
ATOM     87  C   UNL A   1      30.572  29.516  24.275  1.00  0.00     0.071 C 
BRANCH  87  88
ATOM     88  C   UNL A   1      29.630  30.490  23.494  1.00  0.00    -0.041 A 
ATOM     89  C   UNL A   1      28.860  29.871  22.044  1.00  0.00     0.024 A 
ATOM     90  C   UNL A   1      29.501  32.203  24.001  1.00  0.00     0.024 A 
ATOM     91  C   UNL A   1      28.024  30.999  20.977  1.00  0.00     0.111 A 
ATOM     92  C   UNL A   1      28.682  33.414  23.015  1.00  0.00     0.111 A 
ATOM     93  N   UNL A   1      27.934  32.894  21.477  1.00  0.00    -0.265 NA
ENDBRANCH  87  88
ENDBRANCH  86  87
ENDBRANCH  79  81
ENDBRANCH  71  77
ENDBRANCH  66  69
ENDBRANCH  64  65
ENDBRANCH   1  64
TORSDOF 15
ENDMDL
MODEL 2
REMARK VINA RESULT:     -14.7      4.916      9.216
REMARK SMILES O=C(NCCCCNC(=O)[C@H]1[C@H]2CC[C@H](CC2)[C@@H]1C(=O)Nc1ccc(Cc2ccncc2)cc1)c1ccc(-c2c3nc(c(-c4c(F)cccc4F)c4ccc([nH]4)c(-c4c(F)cccc4F)c4nc(c(-c5c(F)cccc5F)c5ccc2[nH]5)C=C4)C=C3)cc1
REMARK SMILES IDX 6 1 5 2 4 3 3 4 1 5 2 6 35 8 36 9 88 10 37 11 87 12 38 13
REMARK SMILES IDX 39 14 40 15 81 16 41 17 86 18 80 19 82 20 42 21 85 22 79 23
REMARK SMILES IDX 78 24 43 26 69 27 52 28 68 29 53 30 56 31 67 32 83 33 54 34
REMARK SMILES IDX 55 35 66 37 84 38 57 39 44 40 45 41 50 42 46 43 47 44 49 45
REMARK SMILES IDX 51 46 48 47 70 48 71 49 76 50 72 51 73 52 75 53 77 54 74 55
REMARK SMILES IDX 58 56 59 57 64 58 60 59 61 60 63 61 65 62 62 63 7 64 8 65
REMARK SMILES IDX 9 66 10 68 11 69 12 70 18 71 13 72 17 73 15 74 14 75 16 76
REMARK SMILES IDX 19 77 20 78 21 79 22 81 23 82 34 83 24 84 33 85 25 86 26 87
REMARK SMILES IDX 27 88 28 89 32 90 29 91 31 92 30 93
REMARK H PARENT 3 7 82 25 56 36 8 67 21 80
REMARK Flexibility Score: inf
ROOT
ATOM      1  C   UNL A   1      39.766  22.006  26.839  1.00  0.00     0.023 C 
ENDROOT
BRANCH   1   2
ATOM      2  C   UNL A   1      41.153  21.791  26.228  1.00  0.00     0.023 C 
BRANCH   2   3
ATOM      3  C   UNL A   1      42.073  22.931  26.645  1.00  0.00     0.116 C 
BRANCH   3   4
ATOM      4  N   UNL A   1      42.462  23.851  25.646  1.00  0.00    -0.352 N 
ATOM      5  O   UNL A   1      42.631  25.830  24.630  1.00  0.00    -0.269 OA
ATOM      6  C   UNL A   1      42.307  25.199  25.629  1.00  0.00     0.251 C 
ATOM      7  H   UNL A   1      42.904  23.462  24.855  1.00  0.00     0.163 HD
BRANCH   6   8
ATOM      8  C   UNL A   1      41.661  25.867  26.761  1.00  0.00     0.039 A 
ATOM      9  C   UNL A   1      40.174  25.316  27.576  1.00  0.00     0.014 A 
ATOM     10  C   UNL A   1      42.384  27.336  27.273  1.00  0.00     0.014 A 
ATOM     11  C   UNL A   1      39.406  26.464  29.043  1.00  0.00     0.010 A 
ATOM     12  C   UNL A   1      41.759  28.323  28.547  1.00  0.00     0.010 A 
ATOM     13  C   UNL A   1      40.315  27.952  29.450  1.00  0.00    -0.014 A 
BRANCH  13  14
ATOM     14  C   UNL A   1      40.089  28.814  30.607  1.00  0.00     0.031 A 
ATOM     15  C   UNL A   1      39.117  29.931  30.496  1.00  0.00     0.074 A 
ATOM     16  C   UNL A   1      40.950  28.719  31.633  1.00  0.00     0.049 A 
ATOM     17  N   UNL A   1      38.832  30.862  31.364  1.00  0.00    -0.248 NA
ATOM     18  C   UNL A   1      38.385  30.039  29.224  1.00  0.00     0.031 C 
ATOM     19  C   UNL A   1      42.047  27.758  31.717  1.00  0.00     0.029 A 
ATOM     20  N   UNL A   1      41.074  29.459  32.776  1.00  0.00    -0.354 N 
ATOM     21  C   UNL A   1      37.863  31.645  30.760  1.00  0.00     0.074 A 
ATOM     22  C   UNL A   1      37.656  31.125  29.426  1.00  0.00     0.031 C 
ATOM     23  C   UNL A   1      42.701  27.923  32.873  1.00  0.00     0.029 A 
ATOM     24  C   UNL A   1      42.116  29.055  33.576  1.00  0.00     0.049 A 
ATOM     25  H   UNL A   1      40.475  30.207  33.005  1.00  0.00     0.167 HD
ATOM     26  C   UNL A   1      37.199  32.695  31.294  1.00  0.00     0.037 A 
ATOM     27  C   UNL A   1      42.562  29.569  34.735  1.00  0.00     0.037 A 
ATOM     28  C   UNL A   1      37.506  33.231  32.593  1.00  0.00     0.049 A 
ATOM     29  C   UNL A   1      41.844  30.765  35.287  1.00  0.00     0.074 A 
ATOM     30  C   UNL A   1      36.897  34.275  33.262  1.00  0.00     0.029 A 
ATOM     31  N   UNL A   1      38.547  32.786  33.401  1.00  0.00    -0.354 N 
ATOM     32  N   UNL A   1      40.837  31.432  34.772  1.00  0.00    -0.248 NA
ATOM     33  C   UNL A   1      42.313  31.280  36.577  1.00  0.00     0.031 C 
ATOM     34  C   UNL A   1      37.621  34.514  34.434  1.00  0.00     0.029 A 
ATOM     35  C   UNL A   1      38.619  33.556  34.548  1.00  0.00     0.049 A 
ATOM     36  H   UNL A   1      39.145  32.033  33.188  1.00  0.00     0.167 HD
ATOM     37  C   UNL A   1      40.524  32.420  35.692  1.00  0.00     0.074 A 
ATOM     38  C   UNL A   1      41.449  32.261  36.798  1.00  0.00     0.031 C 
ATOM     39  C   UNL A   1      39.553  33.366  35.633  1.00  0.00     0.037 A 
BRANCH  26  40
ATOM     40  C   UNL A   1      36.131  33.326  30.452  1.00  0.00     0.057 A 
ATOM     41  C   UNL A   1      34.767  33.077  30.677  1.00  0.00     0.134 A 
ATOM     42  C   UNL A   1      36.461  34.174  29.388  1.00  0.00     0.134 A 
ATOM     43  F   UNL A   1      34.378  32.264  31.670  1.00  0.00    -0.206 F 
ATOM     44  C   UNL A   1      33.779  33.607  29.845  1.00  0.00     0.040 A 
ATOM     45  C   UNL A   1      35.480  34.739  28.574  1.00  0.00     0.040 A 
ATOM     46  F   UNL A   1      37.743  34.459  29.115  1.00  0.00    -0.206 F 
ATOM     47  C   UNL A   1      34.136  34.445  28.791  1.00  0.00     0.006 A 
ENDBRANCH  26  40
BRANCH  27  48
ATOM     48  C   UNL A   1      43.707  28.941  35.439  1.00  0.00     0.057 A 
ATOM     49  C   UNL A   1      43.505  27.926  36.381  1.00  0.00     0.134 A 
ATOM     50  C   UNL A   1      45.031  29.313  35.170  1.00  0.00     0.134 A 
ATOM     51  F   UNL A   1      42.262  27.523  36.683  1.00  0.00    -0.206 F 
ATOM     52  C   UNL A   1      44.572  27.324  37.051  1.00  0.00     0.040 A 
ATOM     53  C   UNL A   1      46.109  28.698  35.809  1.00  0.00     0.040 A 
ATOM     54  F   UNL A   1      45.297  30.263  34.262  1.00  0.00    -0.206 F 
ATOM     55  C   UNL A   1      45.880  27.706  36.760  1.00  0.00     0.006 A 
ENDBRANCH  27  48
BRANCH  39  56
ATOM     56  C   UNL A   1      39.399  34.259  36.828  1.00  0.00     0.057 A 
ATOM     57  C   UNL A   1      38.731  33.853  37.989  1.00  0.00     0.134 A 
ATOM     58  C   UNL A   1      39.991  35.530  36.831  1.00  0.00     0.134 A 
ATOM     59  F   UNL A   1      38.133  32.653  38.047  1.00  0.00    -0.206 F 
ATOM     60  C   UNL A   1      38.636  34.688  39.101  1.00  0.00     0.040 A 
ATOM     61  C   UNL A   1      39.939  36.356  37.952  1.00  0.00     0.040 A 
ATOM     62  F   UNL A   1      40.656  35.975  35.754  1.00  0.00    -0.206 F 
ATOM     63  C   UNL A   1      39.252  35.939  39.088  1.00  0.00     0.006 A 
ENDBRANCH  39  56
ENDBRANCH  13  14
ENDBRANCH   6   8
ENDBRANCH   3   4
ENDBRANCH   2   3
ENDBRANCH   1   2
BRANCH   1  64
ATOM     64  C   UNL A   1      38.604  21.447  25.708  1.00  0.00     0.116 C 
BRANCH  64  65
ATOM     65  N   UNL A   1      37.367  22.351  24.300  1.00  0.00    -0.356 N 
ATOM     66  C   UNL A   1      36.030  22.587  23.792  1.00  0.00     0.224 C 
ATOM     67  H   UNL A   1      37.969  22.850  23.702  1.00  0.00     0.163 HD
ATOM     68  O   UNL A   1      35.960  23.359  22.826  1.00  0.00    -0.275 OA
BRANCH  66  69
ATOM     69  C   UNL A   1      34.722  21.887  24.313  1.00  0.00     0.094 C 
ATOM     70  C   UNL A   1      34.752  21.143  25.658  1.00  0.00     0.002 C 
ATOM     71  C   UNL A   1      33.503  22.791  24.141  1.00  0.00     0.094 C 
ATOM     72  C   UNL A   1      34.627  22.104  26.828  1.00  0.00     0.005 C 
ATOM     73  C   UNL A   1      33.492  20.226  25.663  1.00  0.00     0.005 C 
ATOM     74  C   UNL A   1      32.592  22.580  25.381  1.00  0.00     0.002 C 
ATOM     75  C   UNL A   1      33.389  22.989  26.641  1.00  0.00     0.005 C 
ATOM     76  C   UNL A   1      32.223  21.083  25.508  1.00  0.00     0.005 C 
BRANCH  71  77
ATOM     77  C   UNL A   1      32.768  22.456  22.827  1.00  0.00     0.228 C 
ATOM     78  O   UNL A   1      32.699  21.301  22.399  1.00  0.00    -0.274 OA
ATOM     79  N   UNL A   1      32.117  23.452  22.125  1.00  0.00    -0.326 N 
ATOM     80  H   UNL A   1      31.891  23.282  21.182  1.00  0.00     0.169 HD
BRANCH  79  81
ATOM     81  C   UNL A   1      31.759  24.696  22.675  1.00  0.00     0.041 A 
ATOM     82  C   UNL A   1      32.685  26.137  22.071  1.00  0.00     0.026 A 
ATOM     83  C   UNL A   1      30.299  24.960  23.794  1.00  0.00     0.026 A 
ATOM     84  C   UNL A   1      32.275  27.795  22.682  1.00  0.00     0.006 A 
ATOM     85  C   UNL A   1      29.862  26.658  24.292  1.00  0.00     0.006 A 
ATOM     86  C   UNL A   1      30.854  28.085  23.764  1.00  0.00    -0.043 A 
BRANCH  86  87
ATOM     87  C   UNL A   1      30.559  29.515  24.311  1.00  0.00     0.071 C 
BRANCH  87  88
ATOM     88  C   UNL A   1      29.624  30.491  23.524  1.00  0.00    -0.041 A 
ATOM     89  C   UNL A   1      28.837  29.865  22.086  1.00  0.00     0.024 A 
ATOM     90  C   UNL A   1      29.517  32.211  24.013  1.00  0.00     0.024 A 
ATOM     91  C   UNL A   1      28.008  30.990  21.012  1.00  0.00     0.111 A 
ATOM     92  C   UNL A   1      28.707  33.420  23.017  1.00  0.00     0.111 A 
ATOM     93  N   UNL A   1      27.943  32.891  21.489  1.00  0.00    -0.265 NA
ENDBRANCH  87  88
ENDBRANCH  86  87
ENDBRANCH  79  81
ENDBRANCH  71  77
ENDBRANCH  66  69
ENDBRANCH  64  65
ENDBRANCH   1  64
TORSDOF 15
ENDMDL
MODEL 3
REMARK VINA RESULT:     -14.4      1.836      2.341
REMARK SMILES O=C(NCCCCNC(=O)[C@H]1[C@H]2CC[C@H](CC2)[C@@H]1C(=O)Nc1ccc(Cc2ccncc2)cc1)c1ccc(-c2c3nc(c(-c4c(F)cccc4F)c4ccc([nH]4)c(-c4c(F)cccc4F)c4nc(c(-c5c(F)cccc5F)c5ccc2[nH]5)C=C4)C=C3)cc1
REMARK SMILES IDX 6 1 5 2 4 3 3 4 1 5 2 6 35 8 36 9 88 10 37 11 87 12 38 13
REMARK SMILES IDX 39 14 40 15 81 16 41 17 86 18 80 19 82 20 42 21 85 22 79 23
REMARK SMILES IDX 78 24 43 26 69 27 52 28 68 29 53 30 56 31 67 32 83 33 54 34
REMARK SMILES IDX 55 35 66 37 84 38 57 39 44 40 45 41 50 42 46 43 47 44 49 45
REMARK SMILES IDX 51 46 48 47 70 48 71 49 76 50 72 51 73 52 75 53 77 54 74 55
REMARK SMILES IDX 58 56 59 57 64 58 60 59 61 60 63 61 65 62 62 63 7 64 8 65
REMARK SMILES IDX 9 66 10 68 11 69 12 70 18 71 13 72 17 73 15 74 14 75 16 76
REMARK SMILES IDX 19 77 20 78 21 79 22 81 23 82 34 83 24 84 33 85 25 86 26 87
REMARK SMILES IDX 27 88 28 89 32 90 29 91 31 92 30 93
REMARK H PARENT 3 7 82 25 56 36 8 67 21 80
REMARK Flexibility Score: inf
ROOT
ATOM      1  C   UNL A   1      32.732  27.396  26.810  1.00  0.00     0.023 C 
ENDROOT
BRANCH   1   2
ATOM      2  C   UNL A   1      33.682  28.415  26.178  1.00  0.00     0.023 C 
BRANCH   2   3
ATOM      3  C   UNL A   1      34.620  28.964  27.245  1.00  0.00     0.116 C 
BRANCH   3   4
ATOM      4  N   UNL A   1      34.335  30.248  27.762  1.00  0.00    -0.352 N 
ATOM      5  O   UNL A   1      34.591  32.040  29.066  1.00  0.00    -0.269 OA
ATOM      6  C   UNL A   1      35.041  30.972  28.666  1.00  0.00     0.251 C 
ATOM      7  H   UNL A   1      33.514  30.673  27.422  1.00  0.00     0.163 HD
BRANCH   6   8
ATOM      8  C   UNL A   1      36.277  30.422  29.229  1.00  0.00     0.039 A 
ATOM      9  C   UNL A   1      36.402  29.513  30.757  1.00  0.00     0.014 A 
ATOM     10  C   UNL A   1      37.712  30.760  28.351  1.00  0.00     0.014 A 
ATOM     11  C   UNL A   1      38.232  28.951  31.388  1.00  0.00     0.010 A 
ATOM     12  C   UNL A   1      39.288  30.264  28.859  1.00  0.00     0.010 A 
ATOM     13  C   UNL A   1      39.608  29.378  30.325  1.00  0.00    -0.014 A 
BRANCH  13  14
ATOM     14  C   UNL A   1      40.980  28.892  30.449  1.00  0.00     0.031 A 
ATOM     15  C   UNL A   1      42.003  29.769  31.070  1.00  0.00     0.074 A 
ATOM     16  C   UNL A   1      41.311  27.781  29.771  1.00  0.00     0.049 A 
ATOM     17  N   UNL A   1      43.286  29.573  31.199  1.00  0.00    -0.248 NA
ATOM     18  C   UNL A   1      41.529  31.061  31.592  1.00  0.00     0.031 C 
ATOM     19  C   UNL A   1      40.382  26.973  28.985  1.00  0.00     0.029 A 
ATOM     20  N   UNL A   1      42.517  27.162  29.590  1.00  0.00    -0.354 N 
ATOM     21  C   UNL A   1      43.768  30.697  31.848  1.00  0.00     0.074 A 
ATOM     22  C   UNL A   1      42.655  31.603  32.027  1.00  0.00     0.031 C 
ATOM     23  C   UNL A   1      41.033  25.932  28.451  1.00  0.00     0.029 A 
ATOM     24  C   UNL A   1      42.442  26.045  28.793  1.00  0.00     0.049 A 
ATOM     25  H   UNL A   1      43.357  27.485  29.992  1.00  0.00     0.167 HD
ATOM     26  C   UNL A   1      45.032  30.929  32.268  1.00  0.00     0.037 A 
ATOM     27  C   UNL A   1      43.417  25.224  28.366  1.00  0.00     0.037 A 
ATOM     28  C   UNL A   1      46.123  30.035  31.985  1.00  0.00     0.049 A 
ATOM     29  C   UNL A   1      44.820  25.527  28.802  1.00  0.00     0.074 A 
ATOM     30  C   UNL A   1      47.446  30.138  32.370  1.00  0.00     0.029 A 
ATOM     31  N   UNL A   1      46.018  28.891  31.201  1.00  0.00    -0.354 N 
ATOM     32  N   UNL A   1      45.260  26.527  29.529  1.00  0.00    -0.248 NA
ATOM     33  C   UNL A   1      45.863  24.591  28.369  1.00  0.00     0.031 C 
ATOM     34  C   UNL A   1      48.155  29.104  31.751  1.00  0.00     0.029 A 
ATOM     35  C   UNL A   1      47.260  28.296  31.063  1.00  0.00     0.049 A 
ATOM     36  H   UNL A   1      45.183  28.554  30.803  1.00  0.00     0.167 HD
ATOM     37  C   UNL A   1      46.623  26.323  29.675  1.00  0.00     0.074 A 
ATOM     38  C   UNL A   1      46.934  25.098  28.962  1.00  0.00     0.031 C 
ATOM     39  C   UNL A   1      47.533  27.072  30.346  1.00  0.00     0.037 A 
BRANCH  26  40
ATOM     40  C   UNL A   1      45.277  32.200  33.024  1.00  0.00     0.057 A 
ATOM     41  C   UNL A   1      45.146  32.268  34.421  1.00  0.00     0.134 A 
ATOM     42  C   UNL A   1      45.624  33.379  32.355  1.00  0.00     0.134 A 
ATOM     43  F   UNL A   1      44.802  31.180  35.127  1.00  0.00    -0.206 F 
ATOM     44  C   UNL A   1      45.302  33.470  35.113  1.00  0.00     0.040 A 
ATOM     45  C   UNL A   1      45.819  34.578  33.041  1.00  0.00     0.040 A 
ATOM     46  F   UNL A   1      45.769  33.391  31.022  1.00  0.00    -0.206 F 
ATOM     47  C   UNL A   1      45.644  34.630  34.422  1.00  0.00     0.006 A 
ENDBRANCH  26  40
BRANCH  27  48
ATOM     48  C   UNL A   1      43.088  24.051  27.520  1.00  0.00     0.057 A 
ATOM     49  C   UNL A   1      42.670  22.844  28.091  1.00  0.00     0.134 A 
ATOM     50  C   UNL A   1      43.154  24.111  26.122  1.00  0.00     0.134 A 
ATOM     51  F   UNL A   1      42.586  22.722  29.424  1.00  0.00    -0.206 F 
ATOM     52  C   UNL A   1      42.355  21.732  27.308  1.00  0.00     0.040 A 
ATOM     53  C   UNL A   1      42.811  23.017  25.324  1.00  0.00     0.040 A 
ATOM     54  F   UNL A   1      43.525  25.244  25.508  1.00  0.00    -0.206 F 
ATOM     55  C   UNL A   1      42.420  21.819  25.919  1.00  0.00     0.006 A 
ENDBRANCH  27  48
BRANCH  39  56
ATOM     56  C   UNL A   1      48.939  26.552  30.398  1.00  0.00     0.057 A 
ATOM     57  C   UNL A   1      49.924  26.955  29.489  1.00  0.00     0.134 A 
ATOM     58  C   UNL A   1      49.322  25.676  31.424  1.00  0.00     0.134 A 
ATOM     59  F   UNL A   1      49.620  27.784  28.477  1.00  0.00    -0.206 F 
ATOM     60  C   UNL A   1      51.234  26.487  29.583  1.00  0.00     0.040 A 
ATOM     61  C   UNL A   1      50.637  25.235  31.553  1.00  0.00     0.040 A 
ATOM     62  F   UNL A   1      48.428  25.260  32.334  1.00  0.00    -0.206 F 
ATOM     63  C   UNL A   1      51.595  25.634  30.626  1.00  0.00     0.006 A 
ENDBRANCH  39  56
ENDBRANCH  13  14
ENDBRANCH   6   8
ENDBRANCH   3   4
ENDBRANCH   2   3
ENDBRANCH   1   2
BRANCH   1  64
ATOM     64  C   UNL A   1      32.963  25.897  26.010  1.00  0.00     0.116 C 
BRANCH  64  65
ATOM     65  N   UNL A   1      34.568  24.960  25.073  1.00  0.00    -0.356 N 
ATOM     66  C   UNL A   1      35.132  23.764  24.479  1.00  0.00     0.224 C 
ATOM     67  H   UNL A   1      35.268  25.648  24.999  1.00  0.00     0.163 HD
ATOM     68  O   UNL A   1      36.264  23.898  23.995  1.00  0.00    -0.275 OA
BRANCH  66  69
ATOM     69  C   UNL A   1      34.462  22.341  24.486  1.00  0.00     0.094 C 
ATOM     70  C   UNL A   1      34.906  21.306  25.532  1.00  0.00     0.002 C 
ATOM     71  C   UNL A   1      32.946  22.443  24.331  1.00  0.00     0.094 C 
ATOM     72  C   UNL A   1      34.244  21.553  26.876  1.00  0.00     0.005 C 
ATOM     73  C   UNL A   1      34.403  19.929  25.003  1.00  0.00     0.005 C 
ATOM     74  C   UNL A   1      32.315  21.349  25.234  1.00  0.00     0.002 C 
ATOM     75  C   UNL A   1      32.723  21.635  26.698  1.00  0.00     0.005 C 
ATOM     76  C   UNL A   1      32.872  19.961  24.840  1.00  0.00     0.005 C 
BRANCH  71  77
ATOM     77  C   UNL A   1      32.545  22.265  22.852  1.00  0.00     0.228 C 
ATOM     78  O   UNL A   1      32.483  21.151  22.327  1.00  0.00    -0.274 OA
ATOM     79  N   UNL A   1      32.190  23.365  22.094  1.00  0.00    -0.326 N 
ATOM     80  H   UNL A   1      32.198  23.274  21.114  1.00  0.00     0.169 HD
BRANCH  79  81
ATOM     81  C   UNL A   1      31.818  24.607  22.639  1.00  0.00     0.041 A 
ATOM     82  C   UNL A   1      32.818  26.036  22.134  1.00  0.00     0.026 A 
ATOM     83  C   UNL A   1      30.283  24.886  23.648  1.00  0.00     0.026 A 
ATOM     84  C   UNL A   1      32.399  27.693  22.742  1.00  0.00     0.006 A 
ATOM     85  C   UNL A   1      29.846  26.585  24.143  1.00  0.00     0.006 A 
ATOM     86  C   UNL A   1      30.906  27.997  23.718  1.00  0.00    -0.043 A 
BRANCH  86  87
ATOM     87  C   UNL A   1      30.601  29.424  24.267  1.00  0.00     0.071 C 
BRANCH  87  88
ATOM     88  C   UNL A   1      29.651  30.391  23.488  1.00  0.00    -0.041 A 
ATOM     89  C   UNL A   1      28.886  29.768  22.036  1.00  0.00     0.024 A 
ATOM     90  C   UNL A   1      29.505  32.101  23.999  1.00  0.00     0.024 A 
ATOM     91  C   UNL A   1      28.040  30.890  20.972  1.00  0.00     0.111 A 
ATOM     92  C   UNL A   1      28.675  33.306  23.015  1.00  0.00     0.111 A 
ATOM     93  N   UNL A   1      27.932  32.783  21.475  1.00  0.00    -0.265 NA
ENDBRANCH  87  88
ENDBRANCH  86  87
ENDBRANCH  79  81
ENDBRANCH  71  77
ENDBRANCH  66  69
ENDBRANCH  64  65
ENDBRANCH   1  64
TORSDOF 15
ENDMDL
