MODEL 1
REMARK VINA RESULT:     -12.3      0.000      0.000
REMARK SMILES CC(C)(CC(=O)NCCCCNC(=O)c1ccc(-c2c3nc(c(-c4c(F)cccc4F)c4ccc([nH]4)c(-c4c(F)cccc4F)c4nc(c(-c5c(F)cccc5F)c5ccc2[nH]5)C=C4)C=C3)cc1)CC(=O)N1CCN(c2nc3ccc(Cl)cc3s2)CC1
REMARK SMILES IDX 8 1 7 2 5 3 6 4 4 6 2 7 1 8 3 9 69 10 70 11 71 12 72 13
REMARK SMILES IDX 73 14 87 15 74 16 86 17 75 18 76 19 77 20 85 21 78 22 84 23
REMARK SMILES IDX 79 24 83 25 80 26 81 27 82 28 9 29 10 30 11 31 12 32 13 33
REMARK SMILES IDX 14 35 15 36 16 37 68 38 17 39 67 40 18 41 19 42 20 43 61 44
REMARK SMILES IDX 21 45 66 46 60 47 62 48 22 49 65 50 59 51 58 52 23 54 49 55
REMARK SMILES IDX 32 56 48 57 33 58 36 59 47 60 63 61 34 62 35 63 46 65 64 66
REMARK SMILES IDX 37 67 24 68 25 69 30 70 26 71 27 72 29 73 31 74 28 75 50 76
REMARK SMILES IDX 51 77 56 78 52 79 53 80 55 81 57 82 54 83 38 84 39 85 44 86
REMARK SMILES IDX 40 87 41 88 43 89 45 90 42 91
REMARK H PARENT 7 5 12 34 62 53 36 64
REMARK Flexibility Score: inf
ROOT
ATOM      1  C   UNL A   1      30.395  30.374  24.646  1.00  0.00     0.116 C 
ENDROOT
BRANCH   1   2
ATOM      2  N   UNL A   1      30.877  29.597  23.533  1.00  0.00    -0.356 N 
ATOM      3  C   UNL A   1      30.469  28.338  23.205  1.00  0.00     0.220 C 
ATOM      4  O   UNL A   1      30.359  28.029  22.016  1.00  0.00    -0.275 OA
ATOM      5  H   UNL A   1      31.561  30.011  22.959  1.00  0.00     0.163 HD
BRANCH   3   6
ATOM      6  C   UNL A   1      30.198  27.314  24.275  1.00  0.00     0.107 C 
BRANCH   6   7
ATOM      7  C   UNL A   1      31.396  26.519  24.880  1.00  0.00    -0.018 C 
ATOM      8  C   UNL A   1      32.710  26.834  24.135  1.00  0.00     0.012 C 
ATOM      9  C   UNL A   1      31.596  27.161  26.296  1.00  0.00     0.012 C 
BRANCH   7  10
ATOM     10  C   UNL A   1      31.133  24.988  25.147  1.00  0.00     0.107 C 
BRANCH  10  11
ATOM     11  C   UNL A   1      31.679  24.122  26.324  1.00  0.00     0.223 C 
ATOM     12  O   UNL A   1      30.999  23.877  27.319  1.00  0.00    -0.275 OA
ATOM     13  N   UNL A   1      32.854  23.426  26.046  1.00  0.00    -0.339 N 
ATOM     14  C   UNL A   1      33.068  21.980  26.208  1.00  0.00     0.141 C 
ATOM     15  C   UNL A   1      34.107  24.120  25.878  1.00  0.00     0.141 C 
ATOM     16  C   UNL A   1      34.073  21.381  25.129  1.00  0.00     0.140 C 
ATOM     17  C   UNL A   1      34.699  23.723  24.548  1.00  0.00     0.140 C 
ATOM     18  N   UNL A   1      35.124  22.328  24.689  1.00  0.00    -0.345 N 
BRANCH  18  19
ATOM     19  C   UNL A   1      36.464  22.155  24.858  1.00  0.00     0.186 A 
ATOM     20  N   UNL A   1      37.035  20.994  24.610  1.00  0.00    -0.220 NA
ATOM     21  S   UNL A   1      37.510  23.292  25.621  1.00  0.00    -0.097 S 
ATOM     22  C   UNL A   1      38.240  20.882  25.258  1.00  0.00     0.084 A 
ATOM     23  C   UNL A   1      38.674  22.038  25.904  1.00  0.00     0.058 A 
ATOM     24  C   UNL A   1      39.012  19.705  25.346  1.00  0.00     0.031 A 
ATOM     25  C   UNL A   1      39.865  22.055  26.651  1.00  0.00     0.042 A 
ATOM     26  C   UNL A   1      40.186  19.701  26.104  1.00  0.00     0.023 A 
ATOM     27  C   UNL A   1      40.598  20.864  26.747  1.00  0.00     0.042 A 
ATOM     28  Cl  UNL A   1      42.035  20.829  27.697  1.00  0.00    -0.084 Cl
ENDBRANCH  18  19
ENDBRANCH  10  11
ENDBRANCH   7  10
ENDBRANCH   6   7
ENDBRANCH   3   6
ENDBRANCH   1   2
BRANCH   1  29
ATOM     29  C   UNL A   1      31.432  30.646  25.730  1.00  0.00     0.023 C 
BRANCH  29  30
ATOM     30  C   UNL A   1      31.301  31.949  26.503  1.00  0.00     0.023 C 
BRANCH  30  31
ATOM     31  C   UNL A   1      32.614  32.595  26.898  1.00  0.00     0.116 C 
BRANCH  31  32
ATOM     32  N   UNL A   1      32.446  33.887  27.551  1.00  0.00    -0.352 N 
ATOM     33  C   UNL A   1      33.152  34.444  28.580  1.00  0.00     0.251 C 
ATOM     34  H   UNL A   1      31.713  34.442  27.198  1.00  0.00     0.163 HD
ATOM     35  O   UNL A   1      32.781  35.509  29.077  1.00  0.00    -0.269 OA
BRANCH  33  36
ATOM     36  C   UNL A   1      34.342  33.756  29.105  1.00  0.00     0.039 A 
ATOM     37  C   UNL A   1      35.606  34.270  28.810  1.00  0.00     0.014 A 
ATOM     38  C   UNL A   1      34.209  32.610  29.894  1.00  0.00     0.014 A 
ATOM     39  C   UNL A   1      36.737  33.650  29.337  1.00  0.00     0.010 A 
ATOM     40  C   UNL A   1      35.324  32.068  30.512  1.00  0.00     0.010 A 
ATOM     41  C   UNL A   1      36.601  32.555  30.206  1.00  0.00    -0.014 A 
BRANCH  41  42
ATOM     42  C   UNL A   1      37.785  31.847  30.742  1.00  0.00     0.031 A 
ATOM     43  C   UNL A   1      38.293  32.196  32.115  1.00  0.00     0.074 A 
ATOM     44  C   UNL A   1      38.424  30.935  29.986  1.00  0.00     0.049 A 
ATOM     45  N   UNL A   1      39.342  31.743  32.751  1.00  0.00    -0.248 NA
ATOM     46  C   UNL A   1      37.542  33.222  32.860  1.00  0.00     0.031 C 
ATOM     47  C   UNL A   1      38.054  30.554  28.621  1.00  0.00     0.029 A 
ATOM     48  N   UNL A   1      39.523  30.165  30.261  1.00  0.00    -0.354 N 
ATOM     49  C   UNL A   1      39.385  32.441  33.950  1.00  0.00     0.074 A 
ATOM     50  C   UNL A   1      38.306  33.401  33.924  1.00  0.00     0.031 C 
ATOM     51  C   UNL A   1      38.892  29.596  28.192  1.00  0.00     0.029 A 
ATOM     52  C   UNL A   1      39.877  29.325  29.233  1.00  0.00     0.049 A 
ATOM     53  H   UNL A   1      40.014  30.209  31.113  1.00  0.00     0.167 HD
ATOM     54  C   UNL A   1      40.225  32.275  34.998  1.00  0.00     0.037 A 
ATOM     55  C   UNL A   1      40.882  28.435  29.149  1.00  0.00     0.037 A 
ATOM     56  C   UNL A   1      41.272  31.291  35.030  1.00  0.00     0.049 A 
ATOM     57  C   UNL A   1      41.798  28.258  30.330  1.00  0.00     0.074 A 
ATOM     58  C   UNL A   1      42.147  30.995  36.059  1.00  0.00     0.029 A 
ATOM     59  N   UNL A   1      41.581  30.437  33.982  1.00  0.00    -0.354 N 
ATOM     60  N   UNL A   1      41.788  28.879  31.486  1.00  0.00    -0.248 NA
ATOM     61  C   UNL A   1      42.857  27.249  30.199  1.00  0.00     0.031 C 
ATOM     62  C   UNL A   1      43.017  29.993  35.616  1.00  0.00     0.029 A 
ATOM     63  C   UNL A   1      42.644  29.623  34.333  1.00  0.00     0.049 A 
ATOM     64  H   UNL A   1      41.113  30.413  33.115  1.00  0.00     0.167 HD
ATOM     65  C   UNL A   1      42.810  28.309  32.233  1.00  0.00     0.074 A 
ATOM     66  C   UNL A   1      43.412  27.285  31.403  1.00  0.00     0.031 C 
ATOM     67  C   UNL A   1      43.215  28.600  33.494  1.00  0.00     0.037 A 
BRANCH  54  68
ATOM     68  C   UNL A   1      40.034  33.169  36.189  1.00  0.00     0.057 A 
ATOM     69  C   UNL A   1      39.124  32.860  37.211  1.00  0.00     0.134 A 
ATOM     70  C   UNL A   1      40.776  34.350  36.323  1.00  0.00     0.134 A 
ATOM     71  F   UNL A   1      38.369  31.754  37.138  1.00  0.00    -0.206 F 
ATOM     72  C   UNL A   1      38.938  33.707  38.305  1.00  0.00     0.040 A 
ATOM     73  C   UNL A   1      40.621  35.188  37.429  1.00  0.00     0.040 A 
ATOM     74  F   UNL A   1      41.665  34.706  35.385  1.00  0.00    -0.206 F 
ATOM     75  C   UNL A   1      39.692  34.872  38.419  1.00  0.00     0.006 A 
ENDBRANCH  54  68
BRANCH  55  76
ATOM     76  C   UNL A   1      41.054  27.616  27.922  1.00  0.00     0.057 A 
ATOM     77  C   UNL A   1      40.448  26.359  27.801  1.00  0.00     0.134 A 
ATOM     78  C   UNL A   1      41.834  28.060  26.847  1.00  0.00     0.134 A 
ATOM     79  F   UNL A   1      39.701  25.872  28.801  1.00  0.00    -0.206 F 
ATOM     80  C   UNL A   1      40.632  25.563  26.669  1.00  0.00     0.040 A 
ATOM     81  C   UNL A   1      42.004  27.288  25.698  1.00  0.00     0.040 A 
ATOM     82  F   UNL A   1      42.432  29.260  26.895  1.00  0.00    -0.206 F 
ATOM     83  C   UNL A   1      41.410  26.030  25.611  1.00  0.00     0.006 A 
ENDBRANCH  55  76
BRANCH  67  84
ATOM     84  C   UNL A   1      44.320  27.766  34.072  1.00  0.00     0.057 A 
ATOM     85  C   UNL A   1      44.078  26.533  34.690  1.00  0.00     0.134 A 
ATOM     86  C   UNL A   1      45.652  28.189  33.972  1.00  0.00     0.134 A 
ATOM     87  F   UNL A   1      42.825  26.075  34.827  1.00  0.00    -0.206 F 
ATOM     88  C   UNL A   1      45.119  25.765  35.215  1.00  0.00     0.040 A 
ATOM     89  C   UNL A   1      46.703  27.416  34.463  1.00  0.00     0.040 A 
ATOM     90  F   UNL A   1      45.955  29.354  33.379  1.00  0.00    -0.206 F 
ATOM     91  C   UNL A   1      46.437  26.203  35.095  1.00  0.00     0.006 A 
ENDBRANCH  67  84
ENDBRANCH  41  42
ENDBRANCH  33  36
ENDBRANCH  31  32
ENDBRANCH  30  31
ENDBRANCH  29  30
ENDBRANCH   1  29
TORSDOF 15
ENDMDL
MODEL 2
REMARK VINA RESULT:     -12.2      2.245      3.036
REMARK SMILES CC(C)(CC(=O)NCCCCNC(=O)c1ccc(-c2c3nc(c(-c4c(F)cccc4F)c4ccc([nH]4)c(-c4c(F)cccc4F)c4nc(c(-c5c(F)cccc5F)c5ccc2[nH]5)C=C4)C=C3)cc1)CC(=O)N1CCN(c2nc3ccc(Cl)cc3s2)CC1
REMARK SMILES IDX 8 1 7 2 5 3 6 4 4 6 2 7 1 8 3 9 69 10 70 11 71 12 72 13
REMARK SMILES IDX 73 14 87 15 74 16 86 17 75 18 76 19 77 20 85 21 78 22 84 23
REMARK SMILES IDX 79 24 83 25 80 26 81 27 82 28 9 29 10 30 11 31 12 32 13 33
REMARK SMILES IDX 14 35 15 36 16 37 68 38 17 39 67 40 18 41 19 42 20 43 61 44
REMARK SMILES IDX 21 45 66 46 60 47 62 48 22 49 65 50 59 51 58 52 23 54 49 55
REMARK SMILES IDX 32 56 48 57 33 58 36 59 47 60 63 61 34 62 35 63 46 65 64 66
REMARK SMILES IDX 37 67 24 68 25 69 30 70 26 71 27 72 29 73 31 74 28 75 50 76
REMARK SMILES IDX 51 77 56 78 52 79 53 80 55 81 57 82 54 83 38 84 39 85 44 86
REMARK SMILES IDX 40 87 41 88 43 89 45 90 42 91
REMARK H PARENT 7 5 12 34 62 53 36 64
REMARK Flexibility Score: inf
ROOT
ATOM      1  C   UNL A   1      29.806  31.177  24.376  1.00  0.00     0.116 C 
ENDROOT
BRANCH   1   2
ATOM      2  N   UNL A   1      30.010  30.689  23.037  1.00  0.00    -0.356 N 
ATOM      3  C   UNL A   1      29.347  29.645  22.462  1.00  0.00     0.220 C 
ATOM      4  O   UNL A   1      29.048  29.704  21.266  1.00  0.00    -0.275 OA
ATOM      5  H   UNL A   1      30.685  31.148  22.488  1.00  0.00     0.163 HD
BRANCH   3   6
ATOM      6  C   UNL A   1      29.023  28.408  23.256  1.00  0.00     0.107 C 
BRANCH   6   7
ATOM      7  C   UNL A   1      30.158  27.378  23.547  1.00  0.00    -0.018 C 
ATOM      8  C   UNL A   1      30.880  27.701  24.872  1.00  0.00     0.012 C 
ATOM      9  C   UNL A   1      29.387  26.046  23.849  1.00  0.00     0.012 C 
BRANCH   7  10
ATOM     10  C   UNL A   1      31.108  27.048  22.335  1.00  0.00     0.107 C 
BRANCH  10  11
ATOM     11  C   UNL A   1      32.613  26.640  22.391  1.00  0.00     0.223 C 
ATOM     12  O   UNL A   1      33.508  27.418  22.064  1.00  0.00    -0.275 OA
ATOM     13  N   UNL A   1      32.878  25.466  23.093  1.00  0.00    -0.339 N 
ATOM     14  C   UNL A   1      33.832  25.312  24.202  1.00  0.00     0.141 C 
ATOM     15  C   UNL A   1      32.474  24.183  22.573  1.00  0.00     0.141 C 
ATOM     16  C   UNL A   1      33.364  24.228  25.269  1.00  0.00     0.140 C 
ATOM     17  C   UNL A   1      31.648  23.481  23.623  1.00  0.00     0.140 C 
ATOM     18  N   UNL A   1      32.576  23.113  24.696  1.00  0.00    -0.345 N 
BRANCH  18  19
ATOM     19  C   UNL A   1      32.938  21.800  24.710  1.00  0.00     0.186 A 
ATOM     20  N   UNL A   1      32.847  21.059  23.625  1.00  0.00    -0.220 NA
ATOM     21  S   UNL A   1      33.306  20.901  26.134  1.00  0.00    -0.097 S 
ATOM     22  C   UNL A   1      32.805  19.722  23.936  1.00  0.00     0.084 A 
ATOM     23  C   UNL A   1      33.011  19.421  25.281  1.00  0.00     0.058 A 
ATOM     24  C   UNL A   1      32.530  18.681  23.024  1.00  0.00     0.031 A 
ATOM     25  C   UNL A   1      32.944  18.098  25.752  1.00  0.00     0.042 A 
ATOM     26  C   UNL A   1      32.437  17.365  23.483  1.00  0.00     0.023 A 
ATOM     27  C   UNL A   1      32.639  17.086  24.830  1.00  0.00     0.042 A 
ATOM     28  Cl  UNL A   1      32.495  15.459  25.378  1.00  0.00    -0.084 Cl
ENDBRANCH  18  19
ENDBRANCH  10  11
ENDBRANCH   7  10
ENDBRANCH   6   7
ENDBRANCH   3   6
ENDBRANCH   1   2
BRANCH   1  29
ATOM     29  C   UNL A   1      31.029  31.084  25.281  1.00  0.00     0.023 C 
BRANCH  29  30
ATOM     30  C   UNL A   1      31.025  31.934  26.542  1.00  0.00     0.023 C 
BRANCH  30  31
ATOM     31  C   UNL A   1      32.349  32.592  26.876  1.00  0.00     0.116 C 
BRANCH  31  32
ATOM     32  N   UNL A   1      32.201  33.936  27.420  1.00  0.00    -0.352 N 
ATOM     33  C   UNL A   1      32.937  34.577  28.377  1.00  0.00     0.251 C 
ATOM     34  H   UNL A   1      31.459  34.462  27.041  1.00  0.00     0.163 HD
ATOM     35  O   UNL A   1      32.582  35.682  28.792  1.00  0.00    -0.269 OA
BRANCH  33  36
ATOM     36  C   UNL A   1      34.140  33.931  28.926  1.00  0.00     0.039 A 
ATOM     37  C   UNL A   1      35.397  34.406  28.544  1.00  0.00     0.014 A 
ATOM     38  C   UNL A   1      34.027  32.864  29.822  1.00  0.00     0.014 A 
ATOM     39  C   UNL A   1      36.541  33.828  29.092  1.00  0.00     0.010 A 
ATOM     40  C   UNL A   1      35.159  32.374  30.453  1.00  0.00     0.010 A 
ATOM     41  C   UNL A   1      36.428  32.820  30.063  1.00  0.00    -0.014 A 
BRANCH  41  42
ATOM     42  C   UNL A   1      37.625  32.155  30.624  1.00  0.00     0.031 A 
ATOM     43  C   UNL A   1      38.216  32.667  31.910  1.00  0.00     0.074 A 
ATOM     44  C   UNL A   1      38.201  31.135  29.963  1.00  0.00     0.049 A 
ATOM     45  N   UNL A   1      39.289  32.272  32.544  1.00  0.00    -0.248 NA
ATOM     46  C   UNL A   1      37.529  33.803  32.551  1.00  0.00     0.031 C 
ATOM     47  C   UNL A   1      37.748  30.588  28.682  1.00  0.00     0.029 A 
ATOM     48  N   UNL A   1      39.298  30.376  30.279  1.00  0.00    -0.354 N 
ATOM     49  C   UNL A   1      39.414  33.121  33.636  1.00  0.00     0.074 A 
ATOM     50  C   UNL A   1      38.356  34.099  33.540  1.00  0.00     0.031 C 
ATOM     51  C   UNL A   1      38.540  29.559  28.340  1.00  0.00     0.029 A 
ATOM     52  C   UNL A   1      39.576  29.400  29.354  1.00  0.00     0.049 A 
ATOM     53  H   UNL A   1      39.836  30.518  31.090  1.00  0.00     0.167 HD
ATOM     54  C   UNL A   1      40.308  33.070  34.651  1.00  0.00     0.037 A 
ATOM     55  C   UNL A   1      40.556  28.478  29.336  1.00  0.00     0.037 A 
ATOM     56  C   UNL A   1      41.335  32.069  34.758  1.00  0.00     0.049 A 
ATOM     57  C   UNL A   1      41.534  28.433  30.480  1.00  0.00     0.074 A 
ATOM     58  C   UNL A   1      42.260  31.887  35.769  1.00  0.00     0.029 A 
ATOM     59  N   UNL A   1      41.566  31.077  33.817  1.00  0.00    -0.354 N 
ATOM     60  N   UNL A   1      41.601  29.199  31.542  1.00  0.00    -0.248 NA
ATOM     61  C   UNL A   1      42.562  27.386  30.428  1.00  0.00     0.031 C 
ATOM     62  C   UNL A   1      43.082  30.812  35.418  1.00  0.00     0.029 A 
ATOM     63  C   UNL A   1      42.631  30.287  34.216  1.00  0.00     0.049 A 
ATOM     64  H   UNL A   1      41.050  30.953  32.987  1.00  0.00     0.167 HD
ATOM     65  C   UNL A   1      42.652  28.704  32.303  1.00  0.00     0.074 A 
ATOM     66  C   UNL A   1      43.184  27.564  31.585  1.00  0.00     0.031 C 
ATOM     67  C   UNL A   1      43.132  29.147  33.491  1.00  0.00     0.037 A 
BRANCH  54  68
ATOM     68  C   UNL A   1      40.203  34.117  35.722  1.00  0.00     0.057 A 
ATOM     69  C   UNL A   1      39.449  33.915  36.887  1.00  0.00     0.134 A 
ATOM     70  C   UNL A   1      40.871  35.342  35.592  1.00  0.00     0.134 A 
ATOM     71  F   UNL A   1      38.769  32.772  37.067  1.00  0.00    -0.206 F 
ATOM     72  C   UNL A   1      39.340  34.902  37.868  1.00  0.00     0.040 A 
ATOM     73  C   UNL A   1      40.795  36.323  36.581  1.00  0.00     0.040 A 
ATOM     74  F   UNL A   1      41.611  35.602  34.504  1.00  0.00    -0.206 F 
ATOM     75  C   UNL A   1      40.019  36.109  37.719  1.00  0.00     0.006 A 
ENDBRANCH  54  68
BRANCH  55  76
ATOM     76  C   UNL A   1      40.642  27.501  28.221  1.00  0.00     0.057 A 
ATOM     77  C   UNL A   1      39.981  26.269  28.288  1.00  0.00     0.134 A 
ATOM     78  C   UNL A   1      41.393  27.767  27.069  1.00  0.00     0.134 A 
ATOM     79  F   UNL A   1      39.258  25.949  29.370  1.00  0.00    -0.206 F 
ATOM     80  C   UNL A   1      40.084  25.326  27.264  1.00  0.00     0.040 A 
ATOM     81  C   UNL A   1      41.482  26.845  26.026  1.00  0.00     0.040 A 
ATOM     82  F   UNL A   1      42.041  28.934  26.938  1.00  0.00    -0.206 F 
ATOM     83  C   UNL A   1      40.835  25.616  26.126  1.00  0.00     0.006 A 
ENDBRANCH  55  76
BRANCH  67  84
ATOM     84  C   UNL A   1      44.251  28.365  34.115  1.00  0.00     0.057 A 
ATOM     85  C   UNL A   1      45.595  28.707  33.926  1.00  0.00     0.134 A 
ATOM     86  C   UNL A   1      43.972  27.274  34.948  1.00  0.00     0.134 A 
ATOM     87  F   UNL A   1      45.931  29.736  33.132  1.00  0.00    -0.206 F 
ATOM     88  C   UNL A   1      46.624  27.974  34.520  1.00  0.00     0.040 A 
ATOM     89  C   UNL A   1      44.989  26.553  35.573  1.00  0.00     0.040 A 
ATOM     90  F   UNL A   1      42.704  26.901  35.182  1.00  0.00    -0.206 F 
ATOM     91  C   UNL A   1      46.321  26.898  35.353  1.00  0.00     0.006 A 
ENDBRANCH  67  84
ENDBRANCH  41  42
ENDBRANCH  33  36
ENDBRANCH  31  32
ENDBRANCH  30  31
ENDBRANCH  29  30
ENDBRANCH   1  29
TORSDOF 15
ENDMDL
MODEL 3
REMARK VINA RESULT:     -12.2      0.820      5.942
REMARK SMILES CC(C)(CC(=O)NCCCCNC(=O)c1ccc(-c2c3nc(c(-c4c(F)cccc4F)c4ccc([nH]4)c(-c4c(F)cccc4F)c4nc(c(-c5c(F)cccc5F)c5ccc2[nH]5)C=C4)C=C3)cc1)CC(=O)N1CCN(c2nc3ccc(Cl)cc3s2)CC1
REMARK SMILES IDX 8 1 7 2 5 3 6 4 4 6 2 7 1 8 3 9 69 10 70 11 71 12 72 13
REMARK SMILES IDX 73 14 87 15 74 16 86 17 75 18 76 19 77 20 85 21 78 22 84 23
REMARK SMILES IDX 79 24 83 25 80 26 81 27 82 28 9 29 10 30 11 31 12 32 13 33
REMARK SMILES IDX 14 35 15 36 16 37 68 38 17 39 67 40 18 41 19 42 20 43 61 44
REMARK SMILES IDX 21 45 66 46 60 47 62 48 22 49 65 50 59 51 58 52 23 54 49 55
REMARK SMILES IDX 32 56 48 57 33 58 36 59 47 60 63 61 34 62 35 63 46 65 64 66
REMARK SMILES IDX 37 67 24 68 25 69 30 70 26 71 27 72 29 73 31 74 28 75 50 76
REMARK SMILES IDX 51 77 56 78 52 79 53 80 55 81 57 82 54 83 38 84 39 85 44 86
REMARK SMILES IDX 40 87 41 88 43 89 45 90 42 91
REMARK H PARENT 7 5 12 34 62 53 36 64
REMARK Flexibility Score: inf
ROOT
ATOM      1  C   UNL A   1      30.606  30.173  24.661  1.00  0.00     0.116 C 
ENDROOT
BRANCH   1   2
ATOM      2  N   UNL A   1      31.115  29.359  23.588  1.00  0.00    -0.356 N 
ATOM      3  C   UNL A   1      30.658  28.121  23.243  1.00  0.00     0.220 C 
ATOM      4  O   UNL A   1      30.609  27.805  22.051  1.00  0.00    -0.275 OA
ATOM      5  H   UNL A   1      31.856  29.727  23.057  1.00  0.00     0.163 HD
BRANCH   3   6
ATOM      6  C   UNL A   1      30.260  27.126  24.300  1.00  0.00     0.107 C 
BRANCH   6   7
ATOM      7  C   UNL A   1      31.376  26.334  25.049  1.00  0.00    -0.018 C 
ATOM      8  C   UNL A   1      32.772  26.658  24.478  1.00  0.00     0.012 C 
ATOM      9  C   UNL A   1      31.393  26.973  26.481  1.00  0.00     0.012 C 
BRANCH   7  10
ATOM     10  C   UNL A   1      31.089  24.801  25.277  1.00  0.00     0.107 C 
BRANCH  10  11
ATOM     11  C   UNL A   1      31.651  23.888  26.411  1.00  0.00     0.223 C 
ATOM     12  O   UNL A   1      30.988  23.611  27.409  1.00  0.00    -0.275 OA
ATOM     13  N   UNL A   1      32.815  23.194  26.084  1.00  0.00    -0.339 N 
ATOM     14  C   UNL A   1      33.020  21.741  26.189  1.00  0.00     0.141 C 
ATOM     15  C   UNL A   1      34.070  23.885  25.918  1.00  0.00     0.141 C 
ATOM     16  C   UNL A   1      33.999  21.176  25.069  1.00  0.00     0.140 C 
ATOM     17  C   UNL A   1      34.633  23.533  24.562  1.00  0.00     0.140 C 
ATOM     18  N   UNL A   1      35.049  22.130  24.644  1.00  0.00    -0.345 N 
BRANCH  18  19
ATOM     19  C   UNL A   1      36.391  21.941  24.779  1.00  0.00     0.186 A 
ATOM     20  N   UNL A   1      36.930  20.754  24.595  1.00  0.00    -0.220 NA
ATOM     21  S   UNL A   1      37.483  23.106  25.426  1.00  0.00    -0.097 S 
ATOM     22  C   UNL A   1      38.155  20.662  25.209  1.00  0.00     0.084 A 
ATOM     23  C   UNL A   1      38.632  21.851  25.758  1.00  0.00     0.058 A 
ATOM     24  C   UNL A   1      38.908  19.478  25.353  1.00  0.00     0.031 A 
ATOM     25  C   UNL A   1      39.849  21.894  26.462  1.00  0.00     0.042 A 
ATOM     26  C   UNL A   1      40.107  19.502  26.071  1.00  0.00     0.023 A 
ATOM     27  C   UNL A   1      40.562  20.697  26.617  1.00  0.00     0.042 A 
ATOM     28  Cl  UNL A   1      42.030  20.699  27.519  1.00  0.00    -0.084 Cl
ENDBRANCH  18  19
ENDBRANCH  10  11
ENDBRANCH   7  10
ENDBRANCH   6   7
ENDBRANCH   3   6
ENDBRANCH   1   2
BRANCH   1  29
ATOM     29  C   UNL A   1      31.623  30.507  25.745  1.00  0.00     0.023 C 
BRANCH  29  30
ATOM     30  C   UNL A   1      31.384  31.772  26.556  1.00  0.00     0.023 C 
BRANCH  30  31
ATOM     31  C   UNL A   1      32.638  32.515  26.969  1.00  0.00     0.116 C 
BRANCH  31  32
ATOM     32  N   UNL A   1      32.369  33.850  27.491  1.00  0.00    -0.352 N 
ATOM     33  C   UNL A   1      33.012  34.549  28.474  1.00  0.00     0.251 C 
ATOM     34  H   UNL A   1      31.610  34.318  27.072  1.00  0.00     0.163 HD
ATOM     35  O   UNL A   1      32.560  35.628  28.859  1.00  0.00    -0.269 OA
BRANCH  33  36
ATOM     36  C   UNL A   1      34.230  33.995  29.085  1.00  0.00     0.039 A 
ATOM     37  C   UNL A   1      34.105  33.072  30.125  1.00  0.00     0.014 A 
ATOM     38  C   UNL A   1      35.493  34.380  28.627  1.00  0.00     0.014 A 
ATOM     39  C   UNL A   1      35.253  32.510  30.682  1.00  0.00     0.010 A 
ATOM     40  C   UNL A   1      36.622  33.733  29.099  1.00  0.00     0.010 A 
ATOM     41  C   UNL A   1      36.518  32.824  30.160  1.00  0.00    -0.014 A 
BRANCH  41  42
ATOM     42  C   UNL A   1      37.756  32.281  30.763  1.00  0.00     0.031 A 
ATOM     43  C   UNL A   1      38.421  31.089  30.129  1.00  0.00     0.074 A 
ATOM     44  C   UNL A   1      38.249  32.823  31.891  1.00  0.00     0.049 A 
ATOM     45  N   UNL A   1      39.474  30.421  30.523  1.00  0.00    -0.248 NA
ATOM     46  C   UNL A   1      37.795  30.550  28.909  1.00  0.00     0.031 C 
ATOM     47  C   UNL A   1      37.660  33.947  32.623  1.00  0.00     0.029 A 
ATOM     48  N   UNL A   1      39.362  32.496  32.622  1.00  0.00    -0.354 N 
ATOM     49  C   UNL A   1      39.619  29.379  29.616  1.00  0.00     0.074 A 
ATOM     50  C   UNL A   1      38.507  29.455  28.698  1.00  0.00     0.031 C 
ATOM     51  C   UNL A   1      38.437  34.237  33.679  1.00  0.00     0.029 A 
ATOM     52  C   UNL A   1      39.554  33.300  33.719  1.00  0.00     0.049 A 
ATOM     53  H   UNL A   1      39.965  31.757  32.384  1.00  0.00     0.167 HD
ATOM     54  C   UNL A   1      40.610  28.462  29.532  1.00  0.00     0.037 A 
ATOM     55  C   UNL A   1      40.527  33.278  34.648  1.00  0.00     0.037 A 
ATOM     56  C   UNL A   1      41.733  28.418  30.427  1.00  0.00     0.049 A 
ATOM     57  C   UNL A   1      41.625  32.256  34.529  1.00  0.00     0.074 A 
ATOM     58  C   UNL A   1      42.824  27.568  30.402  1.00  0.00     0.029 A 
ATOM     59  N   UNL A   1      41.909  29.268  31.510  1.00  0.00    -0.354 N 
ATOM     60  N   UNL A   1      41.787  31.318  33.627  1.00  0.00    -0.248 NA
ATOM     61  C   UNL A   1      42.682  32.300  35.548  1.00  0.00     0.031 C 
ATOM     62  C   UNL A   1      43.638  27.874  31.498  1.00  0.00     0.029 A 
ATOM     63  C   UNL A   1      43.084  28.953  32.171  1.00  0.00     0.049 A 
ATOM     64  H   UNL A   1      41.289  29.988  31.770  1.00  0.00     0.167 HD
ATOM     65  C   UNL A   1      42.982  30.685  33.946  1.00  0.00     0.074 A 
ATOM     66  C   UNL A   1      43.507  31.355  35.118  1.00  0.00     0.031 C 
ATOM     67  C   UNL A   1      43.594  29.646  33.326  1.00  0.00     0.037 A 
BRANCH  54  68
ATOM     68  C   UNL A   1      40.522  27.446  28.429  1.00  0.00     0.057 A 
ATOM     69  C   UNL A   1      39.747  26.284  28.550  1.00  0.00     0.134 A 
ATOM     70  C   UNL A   1      41.212  27.637  27.225  1.00  0.00     0.134 A 
ATOM     71  F   UNL A   1      39.075  26.030  29.683  1.00  0.00    -0.206 F 
ATOM     72  C   UNL A   1      39.687  25.335  27.528  1.00  0.00     0.040 A 
ATOM     73  C   UNL A   1      41.134  26.711  26.183  1.00  0.00     0.040 A 
ATOM     74  F   UNL A   1      41.971  28.728  27.039  1.00  0.00    -0.206 F 
ATOM     75  C   UNL A   1      40.377  25.550  26.337  1.00  0.00     0.006 A 
ENDBRANCH  54  68
BRANCH  55  76
ATOM     76  C   UNL A   1      40.531  34.276  35.748  1.00  0.00     0.057 A 
ATOM     77  C   UNL A   1      39.927  33.996  36.980  1.00  0.00     0.134 A 
ATOM     78  C   UNL A   1      41.128  35.533  35.596  1.00  0.00     0.134 A 
ATOM     79  F   UNL A   1      39.326  32.815  37.184  1.00  0.00    -0.206 F 
ATOM     80  C   UNL A   1      39.891  34.939  38.009  1.00  0.00     0.040 A 
ATOM     81  C   UNL A   1      41.124  36.475  36.625  1.00  0.00     0.040 A 
ATOM     82  F   UNL A   1      41.735  35.860  34.444  1.00  0.00    -0.206 F 
ATOM     83  C   UNL A   1      40.495  36.182  37.833  1.00  0.00     0.006 A 
ENDBRANCH  55  76
BRANCH  67  84
ATOM     84  C   UNL A   1      44.924  29.210  33.867  1.00  0.00     0.057 A 
ATOM     85  C   UNL A   1      45.048  28.155  34.780  1.00  0.00     0.134 A 
ATOM     86  C   UNL A   1      46.102  29.834  33.435  1.00  0.00     0.134 A 
ATOM     87  F   UNL A   1      43.958  27.522  35.240  1.00  0.00    -0.206 F 
ATOM     88  C   UNL A   1      46.294  27.756  35.267  1.00  0.00     0.040 A 
ATOM     89  C   UNL A   1      47.355  29.423  33.889  1.00  0.00     0.040 A 
ATOM     90  F   UNL A   1      46.055  30.842  32.551  1.00  0.00    -0.206 F 
ATOM     91  C   UNL A   1      47.452  28.386  34.815  1.00  0.00     0.006 A 
ENDBRANCH  67  84
ENDBRANCH  41  42
ENDBRANCH  33  36
ENDBRANCH  31  32
ENDBRANCH  30  31
ENDBRANCH  29  30
ENDBRANCH   1  29
TORSDOF 15
ENDMDL
