MODEL 1
REMARK VINA RESULT:     -13.5      0.000      0.000
REMARK SMILES O=C(NCCCCNC(=O)c1cc(S(=O)(=O)ON2C(=O)c3cccc4cccc(c34)C2=O)ccc1Br)c1ccc(-c2c3nc(c(-c4c(F)cccc4F)c4ccc([nH]4)c(-c4c(F)cccc4F)c4nc(c(-c5c(F)cccc5F)c5ccc2[nH]5)C=C4)C=C3)cc1
REMARK SMILES IDX 6 1 5 2 4 3 3 4 1 5 2 6 37 8 38 9 90 10 39 11 89 12 40 13
REMARK SMILES IDX 41 14 42 15 83 16 43 17 88 18 82 19 84 20 44 21 87 22 81 23
REMARK SMILES IDX 80 24 45 26 71 27 54 28 70 29 55 30 58 31 69 32 85 33 56 34
REMARK SMILES IDX 57 35 68 37 86 38 59 39 46 40 47 41 52 42 48 43 49 44 51 45
REMARK SMILES IDX 53 46 50 47 72 48 73 49 78 50 74 51 75 52 77 53 79 54 76 55
REMARK SMILES IDX 60 56 61 57 66 58 62 59 63 60 65 61 67 62 64 63 7 64 8 65
REMARK SMILES IDX 9 66 10 68 11 69 12 70 35 71 13 72 34 73 36 74 33 75 14 76
REMARK SMILES IDX 15 77 16 78 17 79 18 80 19 81 31 82 20 83 21 84 29 85 32 86
REMARK SMILES IDX 22 87 30 88 28 89 23 90 25 91 27 92 24 93 26 94
REMARK H PARENT 3 7 84 25 58 36 8 67
REMARK Flexibility Score: inf
ROOT
ATOM      1  C   UNL A   1      31.471  30.690  25.736  1.00  0.00     0.023 C 
ENDROOT
BRANCH   1   2
ATOM      2  C   UNL A   1      31.308  31.953  26.583  1.00  0.00     0.023 C 
BRANCH   2   3
ATOM      3  C   UNL A   1      32.596  32.554  27.138  1.00  0.00     0.116 C 
BRANCH   3   4
ATOM      4  N   UNL A   1      32.445  33.939  27.554  1.00  0.00    -0.352 N 
ATOM      5  O   UNL A   1      32.770  35.795  28.787  1.00  0.00    -0.269 OA
ATOM      6  C   UNL A   1      33.143  34.663  28.489  1.00  0.00     0.251 C 
ATOM      7  H   UNL A   1      31.731  34.436  27.094  1.00  0.00     0.163 HD
BRANCH   6   8
ATOM      8  C   UNL A   1      34.323  34.081  29.167  1.00  0.00     0.039 A 
ATOM      9  C   UNL A   1      35.623  34.439  28.802  1.00  0.00     0.014 A 
ATOM     10  C   UNL A   1      34.116  33.173  30.210  1.00  0.00     0.014 A 
ATOM     11  C   UNL A   1      36.712  33.788  29.380  1.00  0.00     0.010 A 
ATOM     12  C   UNL A   1      35.210  32.573  30.839  1.00  0.00     0.010 A 
ATOM     13  C   UNL A   1      36.516  32.849  30.404  1.00  0.00    -0.014 A 
BRANCH  13  14
ATOM     14  C   UNL A   1      37.680  32.175  31.032  1.00  0.00     0.031 A 
ATOM     15  C   UNL A   1      38.425  31.091  30.303  1.00  0.00     0.074 A 
ATOM     16  C   UNL A   1      38.062  32.536  32.271  1.00  0.00     0.049 A 
ATOM     17  N   UNL A   1      39.427  30.357  30.715  1.00  0.00    -0.248 NA
ATOM     18  C   UNL A   1      37.980  30.788  28.933  1.00  0.00     0.031 C 
ATOM     19  C   UNL A   1      37.419  33.571  33.082  1.00  0.00     0.029 A 
ATOM     20  N   UNL A   1      39.080  32.073  33.064  1.00  0.00    -0.354 N 
ATOM     21  C   UNL A   1      39.718  29.490  29.669  1.00  0.00     0.074 A 
ATOM     22  C   UNL A   1      38.774  29.776  28.610  1.00  0.00     0.031 C 
ATOM     23  C   UNL A   1      38.068  33.675  34.251  1.00  0.00     0.029 A 
ATOM     24  C   UNL A   1      39.137  32.683  34.293  1.00  0.00     0.049 A 
ATOM     25  H   UNL A   1      39.709  31.370  32.780  1.00  0.00     0.167 HD
ATOM     26  C   UNL A   1      40.689  28.547  29.597  1.00  0.00     0.037 A 
ATOM     27  C   UNL A   1      39.943  32.455  35.345  1.00  0.00     0.037 A 
ATOM     28  C   UNL A   1      41.639  28.276  30.645  1.00  0.00     0.049 A 
ATOM     29  C   UNL A   1      40.995  31.390  35.251  1.00  0.00     0.074 A 
ATOM     30  C   UNL A   1      42.682  27.365  30.650  1.00  0.00     0.029 A 
ATOM     31  N   UNL A   1      41.659  28.913  31.877  1.00  0.00    -0.354 N 
ATOM     32  N   UNL A   1      41.276  30.595  34.247  1.00  0.00    -0.248 NA
ATOM     33  C   UNL A   1      41.841  31.187  36.436  1.00  0.00     0.031 C 
ATOM     34  C   UNL A   1      43.309  27.425  31.900  1.00  0.00     0.029 A 
ATOM     35  C   UNL A   1      42.684  28.402  32.658  1.00  0.00     0.049 A 
ATOM     36  H   UNL A   1      41.036  29.623  32.157  1.00  0.00     0.167 HD
ATOM     37  C   UNL A   1      42.341  29.812  34.669  1.00  0.00     0.074 A 
ATOM     38  C   UNL A   1      42.663  30.233  36.017  1.00  0.00     0.031 C 
ATOM     39  C   UNL A   1      42.995  28.834  33.996  1.00  0.00     0.037 A 
BRANCH  26  40
ATOM     40  C   UNL A   1      40.757  27.720  28.346  1.00  0.00     0.057 A 
ATOM     41  C   UNL A   1      40.071  26.505  28.222  1.00  0.00     0.134 A 
ATOM     42  C   UNL A   1      41.494  28.162  27.239  1.00  0.00     0.134 A 
ATOM     43  F   UNL A   1      39.356  26.020  29.249  1.00  0.00    -0.206 F 
ATOM     44  C   UNL A   1      40.137  25.746  27.051  1.00  0.00     0.040 A 
ATOM     45  C   UNL A   1      41.549  27.424  26.056  1.00  0.00     0.040 A 
ATOM     46  F   UNL A   1      42.168  29.320  27.288  1.00  0.00    -0.206 F 
ATOM     47  C   UNL A   1      40.873  26.209  25.962  1.00  0.00     0.006 A 
ENDBRANCH  26  40
BRANCH  27  48
ATOM     48  C   UNL A   1      39.773  33.260  36.579  1.00  0.00     0.057 A 
ATOM     49  C   UNL A   1      40.503  34.436  36.780  1.00  0.00     0.134 A 
ATOM     50  C   UNL A   1      38.852  32.891  37.566  1.00  0.00     0.134 A 
ATOM     51  F   UNL A   1      41.412  34.829  35.876  1.00  0.00    -0.206 F 
ATOM     52  C   UNL A   1      40.324  35.217  37.922  1.00  0.00     0.040 A 
ATOM     53  C   UNL A   1      38.646  33.675  38.701  1.00  0.00     0.040 A 
ATOM     54  F   UNL A   1      38.117  31.777  37.424  1.00  0.00    -0.206 F 
ATOM     55  C   UNL A   1      39.386  34.841  38.882  1.00  0.00     0.006 A 
ENDBRANCH  27  48
BRANCH  39  56
ATOM     56  C   UNL A   1      44.145  28.174  34.695  1.00  0.00     0.057 A 
ATOM     57  C   UNL A   1      45.441  28.698  34.639  1.00  0.00     0.134 A 
ATOM     58  C   UNL A   1      43.943  27.022  35.466  1.00  0.00     0.134 A 
ATOM     59  F   UNL A   1      45.702  29.791  33.906  1.00  0.00    -0.206 F 
ATOM     60  C   UNL A   1      46.501  28.092  35.315  1.00  0.00     0.040 A 
ATOM     61  C   UNL A   1      44.990  26.420  36.163  1.00  0.00     0.040 A 
ATOM     62  F   UNL A   1      42.723  26.473  35.563  1.00  0.00    -0.206 F 
ATOM     63  C   UNL A   1      46.275  26.953  36.086  1.00  0.00     0.006 A 
ENDBRANCH  39  56
ENDBRANCH  13  14
ENDBRANCH   6   8
ENDBRANCH   3   4
ENDBRANCH   2   3
ENDBRANCH   1   2
BRANCH   1  64
ATOM     64  C   UNL A   1      32.678  29.818  26.071  1.00  0.00     0.116 C 
BRANCH  64  65
ATOM     65  N   UNL A   1      33.444  29.433  24.898  1.00  0.00    -0.352 N 
ATOM     66  C   UNL A   1      33.190  28.440  23.987  1.00  0.00     0.252 C 
ATOM     67  H   UNL A   1      34.262  29.957  24.735  1.00  0.00     0.163 HD
ATOM     68  O   UNL A   1      33.955  28.242  23.049  1.00  0.00    -0.269 OA
BRANCH  66  69
ATOM     69  C   UNL A   1      32.031  27.548  24.170  1.00  0.00     0.055 A 
ATOM     70  C   UNL A   1      32.243  26.397  24.942  1.00  0.00     0.038 A 
ATOM     71  C   UNL A   1      30.782  27.777  23.579  1.00  0.00     0.030 A 
ATOM     72  C   UNL A   1      31.187  25.505  25.152  1.00  0.00     0.097 A 
ATOM     73  C   UNL A   1      29.723  26.895  23.830  1.00  0.00     0.018 A 
ATOM     74  Br  UNL A   1      30.457  29.215  22.382  1.00  0.00    -0.050 Br
ATOM     75  C   UNL A   1      29.920  25.762  24.623  1.00  0.00     0.024 A 
BRANCH  72  76
ATOM     76  S   UNL A   1      31.463  24.039  26.122  1.00  0.00     0.318 S 
ATOM     77  O   UNL A   1      31.696  24.480  27.480  1.00  0.00    -0.192 OA
ATOM     78  O   UNL A   1      30.374  23.128  25.816  1.00  0.00    -0.192 OA
BRANCH  76  79
ATOM     79  O   UNL A   1      32.849  23.417  25.510  1.00  0.00    -0.134 OA
BRANCH  79  80
ATOM     80  N   UNL A   1      32.671  22.123  24.971  1.00  0.00    -0.127 N 
ATOM     81  C   UNL A   1      32.515  22.083  23.599  1.00  0.00     0.286 C 
ATOM     82  C   UNL A   1      32.991  21.082  25.824  1.00  0.00     0.286 C 
ATOM     83  O   UNL A   1      32.548  23.062  22.860  1.00  0.00    -0.266 OA
ATOM     84  C   UNL A   1      32.362  20.727  23.030  1.00  0.00     0.051 A 
ATOM     85  C   UNL A   1      32.915  19.730  25.211  1.00  0.00     0.051 A 
ATOM     86  O   UNL A   1      33.365  21.222  26.984  1.00  0.00    -0.266 OA
ATOM     87  C   UNL A   1      32.024  20.582  21.680  1.00  0.00     0.014 A 
ATOM     88  C   UNL A   1      32.590  19.607  23.848  1.00  0.00     0.007 A 
ATOM     89  C   UNL A   1      33.177  18.597  25.990  1.00  0.00     0.014 A 
ATOM     90  C   UNL A   1      31.918  19.310  21.127  1.00  0.00     0.001 A 
ATOM     91  C   UNL A   1      32.507  18.317  23.274  1.00  0.00    -0.017 A 
ATOM     92  C   UNL A   1      33.112  17.330  25.415  1.00  0.00     0.001 A 
ATOM     93  C   UNL A   1      32.166  18.187  21.916  1.00  0.00     0.009 A 
ATOM     94  C   UNL A   1      32.774  17.191  24.067  1.00  0.00     0.009 A 
ENDBRANCH  79  80
ENDBRANCH  76  79
ENDBRANCH  72  76
ENDBRANCH  66  69
ENDBRANCH  64  65
ENDBRANCH   1  64
TORSDOF 14
ENDMDL
MODEL 2
REMARK VINA RESULT:     -13.4      1.479      2.436
REMARK SMILES O=C(NCCCCNC(=O)c1cc(S(=O)(=O)ON2C(=O)c3cccc4cccc(c34)C2=O)ccc1Br)c1ccc(-c2c3nc(c(-c4c(F)cccc4F)c4ccc([nH]4)c(-c4c(F)cccc4F)c4nc(c(-c5c(F)cccc5F)c5ccc2[nH]5)C=C4)C=C3)cc1
REMARK SMILES IDX 6 1 5 2 4 3 3 4 1 5 2 6 37 8 38 9 90 10 39 11 89 12 40 13
REMARK SMILES IDX 41 14 42 15 83 16 43 17 88 18 82 19 84 20 44 21 87 22 81 23
REMARK SMILES IDX 80 24 45 26 71 27 54 28 70 29 55 30 58 31 69 32 85 33 56 34
REMARK SMILES IDX 57 35 68 37 86 38 59 39 46 40 47 41 52 42 48 43 49 44 51 45
REMARK SMILES IDX 53 46 50 47 72 48 73 49 78 50 74 51 75 52 77 53 79 54 76 55
REMARK SMILES IDX 60 56 61 57 66 58 62 59 63 60 65 61 67 62 64 63 7 64 8 65
REMARK SMILES IDX 9 66 10 68 11 69 12 70 35 71 13 72 34 73 36 74 33 75 14 76
REMARK SMILES IDX 15 77 16 78 17 79 18 80 19 81 31 82 20 83 21 84 29 85 32 86
REMARK SMILES IDX 22 87 30 88 28 89 23 90 25 91 27 92 24 93 26 94
REMARK H PARENT 3 7 84 25 58 36 8 67
REMARK Flexibility Score: inf
ROOT
ATOM      1  C   UNL A   1      31.128  30.947  25.272  1.00  0.00     0.023 C 
ENDROOT
BRANCH   1   2
ATOM      2  C   UNL A   1      31.282  31.594  26.650  1.00  0.00     0.023 C 
BRANCH   2   3
ATOM      3  C   UNL A   1      32.584  32.352  26.889  1.00  0.00     0.116 C 
BRANCH   3   4
ATOM      4  N   UNL A   1      32.375  33.715  27.346  1.00  0.00    -0.352 N 
ATOM      5  O   UNL A   1      32.611  35.543  28.640  1.00  0.00    -0.269 OA
ATOM      6  C   UNL A   1      33.032  34.436  28.313  1.00  0.00     0.251 C 
ATOM      7  H   UNL A   1      31.648  34.199  26.890  1.00  0.00     0.163 HD
BRANCH   6   8
ATOM      8  C   UNL A   1      34.223  33.878  28.990  1.00  0.00     0.039 A 
ATOM      9  C   UNL A   1      35.515  34.276  28.636  1.00  0.00     0.014 A 
ATOM     10  C   UNL A   1      34.036  32.953  30.021  1.00  0.00     0.014 A 
ATOM     11  C   UNL A   1      36.618  33.648  29.212  1.00  0.00     0.010 A 
ATOM     12  C   UNL A   1      35.143  32.375  30.649  1.00  0.00     0.010 A 
ATOM     13  C   UNL A   1      36.442  32.691  30.224  1.00  0.00    -0.014 A 
BRANCH  13  14
ATOM     14  C   UNL A   1      37.621  32.041  30.850  1.00  0.00     0.031 A 
ATOM     15  C   UNL A   1      38.384  30.969  30.122  1.00  0.00     0.074 A 
ATOM     16  C   UNL A   1      38.002  32.414  32.086  1.00  0.00     0.049 A 
ATOM     17  N   UNL A   1      39.401  30.256  30.533  1.00  0.00    -0.248 NA
ATOM     18  C   UNL A   1      37.941  30.653  28.755  1.00  0.00     0.031 C 
ATOM     19  C   UNL A   1      37.342  33.440  32.895  1.00  0.00     0.029 A 
ATOM     20  N   UNL A   1      39.030  31.973  32.877  1.00  0.00    -0.354 N 
ATOM     21  C   UNL A   1      39.705  29.390  29.489  1.00  0.00     0.074 A 
ATOM     22  C   UNL A   1      38.751  29.654  28.433  1.00  0.00     0.031 C 
ATOM     23  C   UNL A   1      37.993  33.561  34.062  1.00  0.00     0.029 A 
ATOM     24  C   UNL A   1      39.081  32.589  34.103  1.00  0.00     0.049 A 
ATOM     25  H   UNL A   1      39.672  31.281  32.594  1.00  0.00     0.167 HD
ATOM     26  C   UNL A   1      40.693  28.465  29.417  1.00  0.00     0.037 A 
ATOM     27  C   UNL A   1      39.895  32.380  35.154  1.00  0.00     0.037 A 
ATOM     28  C   UNL A   1      41.652  28.217  30.463  1.00  0.00     0.049 A 
ATOM     29  C   UNL A   1      40.967  31.335  35.060  1.00  0.00     0.074 A 
ATOM     30  C   UNL A   1      42.712  27.326  30.468  1.00  0.00     0.029 A 
ATOM     31  N   UNL A   1      41.665  28.858  31.692  1.00  0.00    -0.354 N 
ATOM     32  N   UNL A   1      41.258  30.541  34.057  1.00  0.00    -0.248 NA
ATOM     33  C   UNL A   1      41.820  31.152  36.242  1.00  0.00     0.031 C 
ATOM     34  C   UNL A   1      43.342  27.402  31.715  1.00  0.00     0.029 A 
ATOM     35  C   UNL A   1      42.701  28.369  32.471  1.00  0.00     0.049 A 
ATOM     36  H   UNL A   1      41.029  29.557  31.972  1.00  0.00     0.167 HD
ATOM     37  C   UNL A   1      42.340  29.781  34.478  1.00  0.00     0.074 A 
ATOM     38  C   UNL A   1      42.658  30.213  35.824  1.00  0.00     0.031 C 
ATOM     39  C   UNL A   1      43.009  28.812  33.807  1.00  0.00     0.037 A 
BRANCH  26  40
ATOM     40  C   UNL A   1      40.772  27.636  28.169  1.00  0.00     0.057 A 
ATOM     41  C   UNL A   1      41.521  28.040  27.056  1.00  0.00     0.134 A 
ATOM     42  C   UNL A   1      40.115  26.401  28.091  1.00  0.00     0.134 A 
ATOM     43  F   UNL A   1      42.166  29.216  27.062  1.00  0.00    -0.206 F 
ATOM     44  C   UNL A   1      41.592  27.258  25.902  1.00  0.00     0.040 A 
ATOM     45  C   UNL A   1      40.197  25.600  26.951  1.00  0.00     0.040 A 
ATOM     46  F   UNL A   1      39.387  25.951  29.123  1.00  0.00    -0.206 F 
ATOM     47  C   UNL A   1      40.933  26.031  25.849  1.00  0.00     0.006 A 
ENDBRANCH  26  40
BRANCH  27  48
ATOM     48  C   UNL A   1      39.714  33.187  36.385  1.00  0.00     0.057 A 
ATOM     49  C   UNL A   1      40.424  34.376  36.580  1.00  0.00     0.134 A 
ATOM     50  C   UNL A   1      38.802  32.805  37.376  1.00  0.00     0.134 A 
ATOM     51  F   UNL A   1      41.324  34.782  35.672  1.00  0.00    -0.206 F 
ATOM     52  C   UNL A   1      40.234  35.158  37.719  1.00  0.00     0.040 A 
ATOM     53  C   UNL A   1      38.585  33.589  38.509  1.00  0.00     0.040 A 
ATOM     54  F   UNL A   1      38.087  31.678  37.240  1.00  0.00    -0.206 F 
ATOM     55  C   UNL A   1      39.306  34.769  38.684  1.00  0.00     0.006 A 
ENDBRANCH  27  48
BRANCH  39  56
ATOM     56  C   UNL A   1      44.174  28.177  34.503  1.00  0.00     0.057 A 
ATOM     57  C   UNL A   1      44.040  26.990  35.233  1.00  0.00     0.134 A 
ATOM     58  C   UNL A   1      45.453  28.739  34.408  1.00  0.00     0.134 A 
ATOM     59  F   UNL A   1      42.839  26.410  35.373  1.00  0.00    -0.206 F 
ATOM     60  C   UNL A   1      45.136  26.390  35.856  1.00  0.00     0.040 A 
ATOM     61  C   UNL A   1      46.560  28.138  35.008  1.00  0.00     0.040 A 
ATOM     62  F   UNL A   1      45.649  29.874  33.719  1.00  0.00    -0.206 F 
ATOM     63  C   UNL A   1      46.402  26.962  35.738  1.00  0.00     0.006 A 
ENDBRANCH  39  56
ENDBRANCH  13  14
ENDBRANCH   6   8
ENDBRANCH   3   4
ENDBRANCH   2   3
ENDBRANCH   1   2
BRANCH   1  64
ATOM     64  C   UNL A   1      29.736  31.032  24.651  1.00  0.00     0.116 C 
BRANCH  64  65
ATOM     65  N   UNL A   1      29.758  31.000  23.199  1.00  0.00    -0.352 N 
ATOM     66  C   UNL A   1      29.747  29.917  22.358  1.00  0.00     0.252 C 
ATOM     67  H   UNL A   1      29.784  31.879  22.756  1.00  0.00     0.163 HD
ATOM     68  O   UNL A   1      29.777  30.070  21.141  1.00  0.00    -0.269 OA
BRANCH  66  69
ATOM     69  C   UNL A   1      29.777  28.551  22.911  1.00  0.00     0.055 A 
ATOM     70  C   UNL A   1      31.020  27.903  22.911  1.00  0.00     0.038 A 
ATOM     71  C   UNL A   1      28.636  27.884  23.375  1.00  0.00     0.030 A 
ATOM     72  C   UNL A   1      31.118  26.604  23.417  1.00  0.00     0.097 A 
ATOM     73  C   UNL A   1      28.758  26.597  23.916  1.00  0.00     0.018 A 
ATOM     74  Br  UNL A   1      26.890  28.620  23.255  1.00  0.00    -0.050 Br
ATOM     75  C   UNL A   1      29.999  25.956  23.945  1.00  0.00     0.024 A 
BRANCH  72  76
ATOM     76  S   UNL A   1      32.696  25.779  23.404  1.00  0.00     0.318 S 
ATOM     77  O   UNL A   1      32.659  24.836  22.307  1.00  0.00    -0.192 OA
ATOM     78  O   UNL A   1      33.707  26.820  23.452  1.00  0.00    -0.192 OA
BRANCH  76  79
ATOM     79  O   UNL A   1      32.724  24.960  24.822  1.00  0.00    -0.134 OA
BRANCH  79  80
ATOM     80  N   UNL A   1      33.342  23.695  24.705  1.00  0.00    -0.127 N 
ATOM     81  C   UNL A   1      34.693  23.681  24.992  1.00  0.00     0.286 C 
ATOM     82  C   UNL A   1      32.473  22.621  24.637  1.00  0.00     0.286 C 
ATOM     83  O   UNL A   1      35.345  24.656  25.351  1.00  0.00    -0.266 OA
ATOM     84  C   UNL A   1      35.333  22.350  24.903  1.00  0.00     0.051 A 
ATOM     85  C   UNL A   1      33.129  21.287  24.635  1.00  0.00     0.051 A 
ATOM     86  O   UNL A   1      31.249  22.715  24.633  1.00  0.00    -0.266 OA
ATOM     87  C   UNL A   1      36.725  22.250  25.001  1.00  0.00     0.014 A 
ATOM     88  C   UNL A   1      34.529  21.207  24.752  1.00  0.00     0.007 A 
ATOM     89  C   UNL A   1      32.352  20.128  24.527  1.00  0.00     0.014 A 
ATOM     90  C   UNL A   1      37.332  20.999  24.959  1.00  0.00     0.001 A 
ATOM     91  C   UNL A   1      35.150  19.937  24.736  1.00  0.00    -0.017 A 
ATOM     92  C   UNL A   1      32.967  18.878  24.531  1.00  0.00     0.001 A 
ATOM     93  C   UNL A   1      36.549  19.851  24.836  1.00  0.00     0.009 A 
ATOM     94  C   UNL A   1      34.357  18.784  24.629  1.00  0.00     0.009 A 
ENDBRANCH  79  80
ENDBRANCH  76  79
ENDBRANCH  72  76
ENDBRANCH  66  69
ENDBRANCH  64  65
ENDBRANCH   1  64
TORSDOF 14
ENDMDL
MODEL 3
REMARK VINA RESULT:     -13.4      0.526      5.929
REMARK SMILES O=C(NCCCCNC(=O)c1cc(S(=O)(=O)ON2C(=O)c3cccc4cccc(c34)C2=O)ccc1Br)c1ccc(-c2c3nc(c(-c4c(F)cccc4F)c4ccc([nH]4)c(-c4c(F)cccc4F)c4nc(c(-c5c(F)cccc5F)c5ccc2[nH]5)C=C4)C=C3)cc1
REMARK SMILES IDX 6 1 5 2 4 3 3 4 1 5 2 6 37 8 38 9 90 10 39 11 89 12 40 13
REMARK SMILES IDX 41 14 42 15 83 16 43 17 88 18 82 19 84 20 44 21 87 22 81 23
REMARK SMILES IDX 80 24 45 26 71 27 54 28 70 29 55 30 58 31 69 32 85 33 56 34
REMARK SMILES IDX 57 35 68 37 86 38 59 39 46 40 47 41 52 42 48 43 49 44 51 45
REMARK SMILES IDX 53 46 50 47 72 48 73 49 78 50 74 51 75 52 77 53 79 54 76 55
REMARK SMILES IDX 60 56 61 57 66 58 62 59 63 60 65 61 67 62 64 63 7 64 8 65
REMARK SMILES IDX 9 66 10 68 11 69 12 70 35 71 13 72 34 73 36 74 33 75 14 76
REMARK SMILES IDX 15 77 16 78 17 79 18 80 19 81 31 82 20 83 21 84 29 85 32 86
REMARK SMILES IDX 22 87 30 88 28 89 23 90 25 91 27 92 24 93 26 94
REMARK H PARENT 3 7 84 25 58 36 8 67
REMARK Flexibility Score: inf
ROOT
ATOM      1  C   UNL A   1      31.333  30.715  25.785  1.00  0.00     0.023 C 
ENDROOT
BRANCH   1   2
ATOM      2  C   UNL A   1      31.272  32.063  26.506  1.00  0.00     0.023 C 
BRANCH   2   3
ATOM      3  C   UNL A   1      32.581  32.552  27.119  1.00  0.00     0.116 C 
BRANCH   3   4
ATOM      4  N   UNL A   1      32.518  33.931  27.571  1.00  0.00    -0.352 N 
ATOM      5  O   UNL A   1      32.982  35.737  28.834  1.00  0.00    -0.269 OA
ATOM      6  C   UNL A   1      33.284  34.594  28.498  1.00  0.00     0.251 C 
ATOM      7  H   UNL A   1      31.817  34.476  27.146  1.00  0.00     0.163 HD
BRANCH   6   8
ATOM      8  C   UNL A   1      34.452  33.935  29.123  1.00  0.00     0.039 A 
ATOM      9  C   UNL A   1      35.758  34.249  28.741  1.00  0.00     0.014 A 
ATOM     10  C   UNL A   1      34.229  32.995  30.135  1.00  0.00     0.014 A 
ATOM     11  C   UNL A   1      36.829  33.529  29.265  1.00  0.00     0.010 A 
ATOM     12  C   UNL A   1      35.309  32.322  30.712  1.00  0.00     0.010 A 
ATOM     13  C   UNL A   1      36.615  32.558  30.256  1.00  0.00    -0.014 A 
BRANCH  13  14
ATOM     14  C   UNL A   1      37.762  31.808  30.827  1.00  0.00     0.031 A 
ATOM     15  C   UNL A   1      38.263  32.111  32.212  1.00  0.00     0.074 A 
ATOM     16  C   UNL A   1      38.361  30.855  30.090  1.00  0.00     0.049 A 
ATOM     17  N   UNL A   1      39.284  31.598  32.852  1.00  0.00    -0.248 NA
ATOM     18  C   UNL A   1      37.525  33.129  32.976  1.00  0.00     0.031 C 
ATOM     19  C   UNL A   1      37.969  30.471  28.733  1.00  0.00     0.029 A 
ATOM     20  N   UNL A   1      39.425  30.039  30.375  1.00  0.00    -0.354 N 
ATOM     21  C   UNL A   1      39.327  32.245  34.080  1.00  0.00     0.074 A 
ATOM     22  C   UNL A   1      38.242  33.203  34.090  1.00  0.00     0.031 C 
ATOM     23  C   UNL A   1      38.771  29.482  28.310  1.00  0.00     0.029 A 
ATOM     24  C   UNL A   1      39.763  29.199  29.343  1.00  0.00     0.049 A 
ATOM     25  H   UNL A   1      39.901  30.054  31.237  1.00  0.00     0.167 HD
ATOM     26  C   UNL A   1      40.189  32.053  35.108  1.00  0.00     0.037 A 
ATOM     27  C   UNL A   1      40.772  28.317  29.228  1.00  0.00     0.037 A 
ATOM     28  C   UNL A   1      41.257  31.087  35.104  1.00  0.00     0.049 A 
ATOM     29  C   UNL A   1      41.728  28.137  30.370  1.00  0.00     0.074 A 
ATOM     30  C   UNL A   1      42.160  30.793  36.112  1.00  0.00     0.029 A 
ATOM     31  N   UNL A   1      41.570  30.259  34.036  1.00  0.00    -0.354 N 
ATOM     32  N   UNL A   1      41.741  28.738  31.536  1.00  0.00    -0.248 NA
ATOM     33  C   UNL A   1      42.810  27.162  30.182  1.00  0.00     0.031 C 
ATOM     34  C   UNL A   1      43.041  29.815  35.640  1.00  0.00     0.029 A 
ATOM     35  C   UNL A   1      42.663  29.469  34.353  1.00  0.00     0.049 A 
ATOM     36  H   UNL A   1      41.087  30.237  33.177  1.00  0.00     0.167 HD
ATOM     37  C   UNL A   1      42.817  28.200  32.227  1.00  0.00     0.074 A 
ATOM     38  C   UNL A   1      43.428  27.218  31.354  1.00  0.00     0.031 C 
ATOM     39  C   UNL A   1      43.257  28.493  33.475  1.00  0.00     0.037 A 
BRANCH  26  40
ATOM     40  C   UNL A   1      40.024  32.923  36.319  1.00  0.00     0.057 A 
ATOM     41  C   UNL A   1      40.785  34.085  36.507  1.00  0.00     0.134 A 
ATOM     42  C   UNL A   1      39.069  32.612  37.297  1.00  0.00     0.134 A 
ATOM     43  F   UNL A   1      41.724  34.433  35.614  1.00  0.00    -0.206 F 
ATOM     44  C   UNL A   1      40.620  34.891  37.635  1.00  0.00     0.040 A 
ATOM     45  C   UNL A   1      38.879  33.423  38.417  1.00  0.00     0.040 A 
ATOM     46  F   UNL A   1      38.302  31.519  37.175  1.00  0.00    -0.206 F 
ATOM     47  C   UNL A   1      39.661  34.563  38.591  1.00  0.00     0.006 A 
ENDBRANCH  26  40
BRANCH  27  48
ATOM     48  C   UNL A   1      40.919  27.541  27.974  1.00  0.00     0.057 A 
ATOM     49  C   UNL A   1      41.740  27.995  26.936  1.00  0.00     0.134 A 
ATOM     50  C   UNL A   1      40.272  26.311  27.800  1.00  0.00     0.134 A 
ATOM     51  F   UNL A   1      42.371  29.173  27.041  1.00  0.00    -0.206 F 
ATOM     52  C   UNL A   1      41.912  27.253  25.767  1.00  0.00     0.040 A 
ATOM     53  C   UNL A   1      40.453  25.549  26.645  1.00  0.00     0.040 A 
ATOM     54  F   UNL A   1      39.479  25.821  28.763  1.00  0.00    -0.206 F 
ATOM     55  C   UNL A   1      41.274  26.022  25.623  1.00  0.00     0.006 A 
ENDBRANCH  27  48
BRANCH  39  56
ATOM     56  C   UNL A   1      44.435  27.720  33.985  1.00  0.00     0.057 A 
ATOM     57  C   UNL A   1      44.286  26.487  34.630  1.00  0.00     0.134 A 
ATOM     58  C   UNL A   1      45.738  28.197  33.789  1.00  0.00     0.134 A 
ATOM     59  F   UNL A   1      43.064  25.984  34.860  1.00  0.00    -0.206 F 
ATOM     60  C   UNL A   1      45.391  25.761  35.077  1.00  0.00     0.040 A 
ATOM     61  C   UNL A   1      46.851  27.470  34.213  1.00  0.00     0.040 A 
ATOM     62  F   UNL A   1      45.948  29.370  33.173  1.00  0.00    -0.206 F 
ATOM     63  C   UNL A   1      46.679  26.250  34.862  1.00  0.00     0.006 A 
ENDBRANCH  39  56
ENDBRANCH  13  14
ENDBRANCH   6   8
ENDBRANCH   3   4
ENDBRANCH   2   3
ENDBRANCH   1   2
BRANCH   1  64
ATOM     64  C   UNL A   1      32.649  29.954  25.915  1.00  0.00     0.116 C 
BRANCH  64  65
ATOM     65  N   UNL A   1      33.272  29.672  24.633  1.00  0.00    -0.352 N 
ATOM     66  C   UNL A   1      32.908  28.760  23.676  1.00  0.00     0.252 C 
ATOM     67  H   UNL A   1      34.068  30.212  24.421  1.00  0.00     0.163 HD
ATOM     68  O   UNL A   1      33.558  28.645  22.642  1.00  0.00    -0.269 OA
BRANCH  66  69
ATOM     69  C   UNL A   1      31.773  27.851  23.916  1.00  0.00     0.055 A 
ATOM     70  C   UNL A   1      32.036  26.712  24.691  1.00  0.00     0.038 A 
ATOM     71  C   UNL A   1      30.497  28.053  23.374  1.00  0.00     0.030 A 
ATOM     72  C   UNL A   1      31.004  25.806  24.952  1.00  0.00     0.097 A 
ATOM     73  C   UNL A   1      29.464  27.157  23.678  1.00  0.00     0.018 A 
ATOM     74  Br  UNL A   1      30.099  29.472  22.177  1.00  0.00    -0.050 Br
ATOM     75  C   UNL A   1      29.712  26.035  24.474  1.00  0.00     0.024 A 
BRANCH  72  76
ATOM     76  S   UNL A   1      31.344  24.355  25.926  1.00  0.00     0.318 S 
ATOM     77  O   UNL A   1      31.627  24.815  27.268  1.00  0.00    -0.192 OA
ATOM     78  O   UNL A   1      30.259  23.424  25.675  1.00  0.00    -0.192 OA
BRANCH  76  79
ATOM     79  O   UNL A   1      32.714  23.747  25.263  1.00  0.00    -0.134 OA
BRANCH  79  80
ATOM     80  N   UNL A   1      32.555  22.417  24.814  1.00  0.00    -0.127 N 
ATOM     81  C   UNL A   1      32.455  22.275  23.444  1.00  0.00     0.286 C 
ATOM     82  C   UNL A   1      32.838  21.443  25.755  1.00  0.00     0.286 C 
ATOM     83  O   UNL A   1      32.519  23.196  22.636  1.00  0.00    -0.266 OA
ATOM     84  C   UNL A   1      32.322  20.879  22.972  1.00  0.00     0.051 A 
ATOM     85  C   UNL A   1      32.784  20.048  25.243  1.00  0.00     0.051 A 
ATOM     86  O   UNL A   1      33.165  21.670  26.915  1.00  0.00    -0.266 OA
ATOM     87  C   UNL A   1      32.039  20.634  21.624  1.00  0.00     0.014 A 
ATOM     88  C   UNL A   1      32.515  19.824  23.880  1.00  0.00     0.007 A 
ATOM     89  C   UNL A   1      33.012  18.977  26.114  1.00  0.00     0.014 A 
ATOM     90  C   UNL A   1      31.953  19.325  21.164  1.00  0.00     0.001 A 
ATOM     91  C   UNL A   1      32.452  18.495  23.401  1.00  0.00    -0.017 A 
ATOM     92  C   UNL A   1      32.968  17.671  25.632  1.00  0.00     0.001 A 
ATOM     93  C   UNL A   1      32.167  18.263  22.044  1.00  0.00     0.009 A 
ATOM     94  C   UNL A   1      32.685  17.432  24.286  1.00  0.00     0.009 A 
ENDBRANCH  79  80
ENDBRANCH  76  79
ENDBRANCH  72  76
ENDBRANCH  66  69
ENDBRANCH  64  65
ENDBRANCH   1  64
TORSDOF 14
ENDMDL
