MODEL 1
REMARK VINA RESULT:     -10.0      0.000      0.000
REMARK SMILES C[C@@H]1[C@@H](C(=O)NCCCCNC(=O)c2ccc(-c3c4nc(c(-c5c(F)cccc5F)c5ccc([nH]5)c(-c5c(F)cccc5F)c5nc(c(-c6c(F)cccc6F)c6ccc3[nH]6)C=C5)C=C4)cc2)CCN1C(=O)Nc1nccs1
REMARK SMILES IDX 8 1 7 2 6 3 4 4 5 5 3 7 1 8 2 9 70 10 68 11 69 12 71 13
REMARK SMILES IDX 72 14 73 15 74 17 75 18 78 19 76 20 77 21 9 22 10 23 11 24
REMARK SMILES IDX 12 25 13 27 14 28 15 29 67 30 16 31 66 32 17 33 18 34 19 35
REMARK SMILES IDX 60 36 20 37 65 38 59 39 61 40 21 41 64 42 58 43 57 44 22 46
REMARK SMILES IDX 48 47 31 48 47 49 32 50 35 51 46 52 62 53 33 54 34 55 45 57
REMARK SMILES IDX 63 58 36 59 23 60 24 61 29 62 25 63 26 64 28 65 30 66 27 67
REMARK SMILES IDX 49 68 50 69 55 70 51 71 52 72 54 73 56 74 53 75 37 76 38 77
REMARK SMILES IDX 43 78 39 79 40 80 42 81 44 82 41 83
REMARK H PARENT 6 6 73 16 11 26 61 45 35 56
REMARK Flexibility Score: inf
ROOT
ATOM      1  C   UNL A   1      33.151  34.979  32.533  1.00  0.00     0.023 C 
ENDROOT
BRANCH   1   2
ATOM      2  C   UNL A   1      34.555  35.183  33.084  1.00  0.00     0.116 C 
BRANCH   2   3
ATOM      3  N   UNL A   1      34.699  34.741  34.456  1.00  0.00    -0.356 N 
ATOM      4  C   UNL A   1      35.723  34.026  35.012  1.00  0.00     0.225 C 
ATOM      5  O   UNL A   1      35.671  33.798  36.219  1.00  0.00    -0.275 OA
ATOM      6  H   UNL A   1      33.966  34.987  35.065  1.00  0.00     0.163 HD
BRANCH   4   7
ATOM      7  C   UNL A   1      36.826  33.505  34.097  1.00  0.00     0.102 C 
ATOM      8  C   UNL A   1      37.644  31.385  33.025  1.00  0.00     0.032 C 
ATOM      9  C   UNL A   1      37.116  32.010  34.326  1.00  0.00     0.096 C 
ATOM     10  N   UNL A   1      38.150  31.991  35.370  1.00  0.00    -0.321 N 
ATOM     11  C   UNL A   1      38.190  34.146  34.364  1.00  0.00     0.037 C 
ATOM     12  C   UNL A   1      38.776  33.298  35.478  1.00  0.00     0.122 C 
BRANCH  10  13
ATOM     13  C   UNL A   1      38.415  31.090  36.360  1.00  0.00     0.323 C 
ATOM     14  O   UNL A   1      37.693  31.052  37.368  1.00  0.00    -0.248 OA
ATOM     15  N   UNL A   1      39.328  30.106  36.269  1.00  0.00    -0.283 N 
ATOM     16  H   UNL A   1      39.181  29.370  36.906  1.00  0.00     0.174 HD
BRANCH  15  17
ATOM     17  C   UNL A   1      40.414  29.929  35.472  1.00  0.00     0.190 A 
ATOM     18  N   UNL A   1      40.593  29.148  34.440  1.00  0.00    -0.228 NA
ATOM     19  S   UNL A   1      41.741  30.922  35.894  1.00  0.00    -0.105 S 
ATOM     20  C   UNL A   1      41.902  29.230  34.016  1.00  0.00     0.125 A 
ATOM     21  C   UNL A   1      42.694  30.109  34.720  1.00  0.00     0.088 A 
ENDBRANCH  15  17
ENDBRANCH  10  13
ENDBRANCH   4   7
ENDBRANCH   2   3
ENDBRANCH   1   2
BRANCH   1  22
ATOM     22  C   UNL A   1      32.610  36.127  31.683  1.00  0.00     0.023 C 
BRANCH  22  23
ATOM     23  C   UNL A   1      33.243  36.275  30.305  1.00  0.00     0.116 C 
BRANCH  23  24
ATOM     24  N   UNL A   1      32.645  35.401  29.308  1.00  0.00    -0.352 N 
ATOM     25  C   UNL A   1      33.193  34.338  28.628  1.00  0.00     0.251 C 
ATOM     26  H   UNL A   1      31.706  35.600  29.086  1.00  0.00     0.163 HD
ATOM     27  O   UNL A   1      32.577  33.808  27.714  1.00  0.00    -0.269 OA
BRANCH  25  28
ATOM     28  C   UNL A   1      34.545  33.856  28.986  1.00  0.00     0.039 A 
ATOM     29  C   UNL A   1      34.692  33.008  30.086  1.00  0.00     0.014 A 
ATOM     30  C   UNL A   1      35.659  34.224  28.229  1.00  0.00     0.014 A 
ATOM     31  C   UNL A   1      35.946  32.469  30.380  1.00  0.00     0.010 A 
ATOM     32  C   UNL A   1      36.886  33.613  28.465  1.00  0.00     0.010 A 
ATOM     33  C   UNL A   1      37.045  32.734  29.546  1.00  0.00    -0.014 A 
BRANCH  33  34
ATOM     34  C   UNL A   1      38.374  32.119  29.796  1.00  0.00     0.031 A 
ATOM     35  C   UNL A   1      39.439  32.898  30.518  1.00  0.00     0.074 A 
ATOM     36  C   UNL A   1      38.646  30.888  29.319  1.00  0.00     0.049 A 
ATOM     37  N   UNL A   1      40.682  32.568  30.766  1.00  0.00    -0.248 NA
ATOM     38  C   UNL A   1      39.068  34.238  30.998  1.00  0.00     0.031 C 
ATOM     39  C   UNL A   1      37.717  30.047  28.561  1.00  0.00     0.029 A 
ATOM     40  N   UNL A   1      39.791  30.134  29.390  1.00  0.00    -0.354 N 
ATOM     41  C   UNL A   1      41.240  33.664  31.414  1.00  0.00     0.074 A 
ATOM     42  C   UNL A   1      40.223  34.690  31.461  1.00  0.00     0.031 C 
ATOM     43  C   UNL A   1      38.318  28.884  28.265  1.00  0.00     0.029 A 
ATOM     44  C   UNL A   1      39.687  28.913  28.770  1.00  0.00     0.049 A 
ATOM     45  H   UNL A   1      40.610  30.441  29.843  1.00  0.00     0.167 HD
ATOM     46  C   UNL A   1      42.478  33.795  31.946  1.00  0.00     0.037 A 
ATOM     47  C   UNL A   1      40.594  27.929  28.622  1.00  0.00     0.037 A 
ATOM     48  C   UNL A   1      43.483  32.765  31.914  1.00  0.00     0.049 A 
ATOM     49  C   UNL A   1      41.969  28.103  29.208  1.00  0.00     0.074 A 
ATOM     50  C   UNL A   1      44.752  32.780  32.468  1.00  0.00     0.029 A 
ATOM     51  N   UNL A   1      43.333  31.535  31.290  1.00  0.00    -0.354 N 
ATOM     52  N   UNL A   1      42.463  29.119  29.874  1.00  0.00    -0.248 NA
ATOM     53  C   UNL A   1      42.911  26.989  29.029  1.00  0.00     0.031 C 
ATOM     54  C   UNL A   1      45.387  31.579  32.136  1.00  0.00     0.029 A 
ATOM     55  C   UNL A   1      44.493  30.791  31.429  1.00  0.00     0.049 A 
ATOM     56  H   UNL A   1      42.522  31.234  30.820  1.00  0.00     0.167 HD
ATOM     57  C   UNL A   1      43.757  28.752  30.225  1.00  0.00     0.074 A 
ATOM     58  C   UNL A   1      43.967  27.417  29.705  1.00  0.00     0.031 C 
ATOM     59  C   UNL A   1      44.684  29.456  30.918  1.00  0.00     0.037 A 
BRANCH  46  60
ATOM     60  C   UNL A   1      42.811  35.102  32.606  1.00  0.00     0.057 A 
ATOM     61  C   UNL A   1      43.455  36.139  31.915  1.00  0.00     0.134 A 
ATOM     62  C   UNL A   1      42.468  35.338  33.944  1.00  0.00     0.134 A 
ATOM     63  F   UNL A   1      43.824  35.976  30.636  1.00  0.00    -0.206 F 
ATOM     64  C   UNL A   1      43.777  37.346  32.540  1.00  0.00     0.040 A 
ATOM     65  C   UNL A   1      42.754  36.553  34.569  1.00  0.00     0.040 A 
ATOM     66  F   UNL A   1      41.843  34.394  34.663  1.00  0.00    -0.206 F 
ATOM     67  C   UNL A   1      43.419  37.558  33.869  1.00  0.00     0.006 A 
ENDBRANCH  46  60
BRANCH  47  68
ATOM     68  C   UNL A   1      40.227  26.676  27.912  1.00  0.00     0.057 A 
ATOM     69  C   UNL A   1      40.660  26.436  26.603  1.00  0.00     0.134 A 
ATOM     70  C   UNL A   1      39.429  25.698  28.516  1.00  0.00     0.134 A 
ATOM     71  F   UNL A   1      41.412  27.344  25.963  1.00  0.00    -0.206 F 
ATOM     72  C   UNL A   1      40.295  25.279  25.911  1.00  0.00     0.040 A 
ATOM     73  C   UNL A   1      39.079  24.524  27.846  1.00  0.00     0.040 A 
ATOM     74  F   UNL A   1      38.988  25.863  29.772  1.00  0.00    -0.206 F 
ATOM     75  C   UNL A   1      39.506  24.317  26.537  1.00  0.00     0.006 A 
ENDBRANCH  47  68
BRANCH  59  76
ATOM     76  C   UNL A   1      45.994  28.778  31.204  1.00  0.00     0.057 A 
ATOM     77  C   UNL A   1      47.099  28.899  30.352  1.00  0.00     0.134 A 
ATOM     78  C   UNL A   1      46.159  28.023  32.373  1.00  0.00     0.134 A 
ATOM     79  F   UNL A   1      47.005  29.597  29.211  1.00  0.00    -0.206 F 
ATOM     80  C   UNL A   1      48.312  28.271  30.639  1.00  0.00     0.040 A 
ATOM     81  C   UNL A   1      47.376  27.417  32.686  1.00  0.00     0.040 A 
ATOM     82  F   UNL A   1      45.144  27.875  33.238  1.00  0.00    -0.206 F 
ATOM     83  C   UNL A   1      48.455  27.534  31.813  1.00  0.00     0.006 A 
ENDBRANCH  59  76
ENDBRANCH  33  34
ENDBRANCH  25  28
ENDBRANCH  23  24
ENDBRANCH  22  23
ENDBRANCH   1  22
TORSDOF 13
ENDMDL
MODEL 2
REMARK VINA RESULT:      -9.9      5.828     11.315
REMARK SMILES C[C@@H]1[C@@H](C(=O)NCCCCNC(=O)c2ccc(-c3c4nc(c(-c5c(F)cccc5F)c5ccc([nH]5)c(-c5c(F)cccc5F)c5nc(c(-c6c(F)cccc6F)c6ccc3[nH]6)C=C5)C=C4)cc2)CCN1C(=O)Nc1nccs1
REMARK SMILES IDX 8 1 7 2 6 3 4 4 5 5 3 7 1 8 2 9 70 10 68 11 69 12 71 13
REMARK SMILES IDX 72 14 73 15 74 17 75 18 78 19 76 20 77 21 9 22 10 23 11 24
REMARK SMILES IDX 12 25 13 27 14 28 15 29 67 30 16 31 66 32 17 33 18 34 19 35
REMARK SMILES IDX 60 36 20 37 65 38 59 39 61 40 21 41 64 42 58 43 57 44 22 46
REMARK SMILES IDX 48 47 31 48 47 49 32 50 35 51 46 52 62 53 33 54 34 55 45 57
REMARK SMILES IDX 63 58 36 59 23 60 24 61 29 62 25 63 26 64 28 65 30 66 27 67
REMARK SMILES IDX 49 68 50 69 55 70 51 71 52 72 54 73 56 74 53 75 37 76 38 77
REMARK SMILES IDX 43 78 39 79 40 80 42 81 44 82 41 83
REMARK H PARENT 6 6 73 16 11 26 61 45 35 56
REMARK Flexibility Score: inf
ROOT
ATOM      1  C   UNL A   1      36.593  20.165  24.976  1.00  0.00     0.023 C 
ENDROOT
BRANCH   1   2
ATOM      2  C   UNL A   1      36.590  21.479  25.745  1.00  0.00     0.116 C 
BRANCH   2   3
ATOM      3  N   UNL A   1      35.537  21.557  26.736  1.00  0.00    -0.356 N 
ATOM      4  C   UNL A   1      34.433  22.365  26.738  1.00  0.00     0.225 C 
ATOM      5  O   UNL A   1      33.630  22.233  27.659  1.00  0.00    -0.275 OA
ATOM      6  H   UNL A   1      35.626  20.951  27.506  1.00  0.00     0.163 HD
BRANCH   4   7
ATOM      7  C   UNL A   1      34.300  23.416  25.640  1.00  0.00     0.102 C 
ATOM      8  C   UNL A   1      33.941  25.882  25.321  1.00  0.00     0.032 C 
ATOM      9  C   UNL A   1      33.483  24.637  26.098  1.00  0.00     0.096 C 
ATOM     10  N   UNL A   1      32.093  24.297  25.763  1.00  0.00    -0.321 N 
ATOM     11  C   UNL A   1      33.505  22.928  24.427  1.00  0.00     0.037 C 
ATOM     12  C   UNL A   1      32.062  23.206  24.805  1.00  0.00     0.122 C 
BRANCH  10  13
ATOM     13  C   UNL A   1      30.913  24.634  26.361  1.00  0.00     0.323 C 
ATOM     14  O   UNL A   1      30.444  23.910  27.251  1.00  0.00    -0.248 OA
ATOM     15  N   UNL A   1      30.270  25.801  26.169  1.00  0.00    -0.283 N 
ATOM     16  H   UNL A   1      29.633  26.023  26.886  1.00  0.00     0.174 HD
BRANCH  15  17
ATOM     17  C   UNL A   1      30.325  26.730  25.181  1.00  0.00     0.190 A 
ATOM     18  N   UNL A   1      30.996  27.849  25.101  1.00  0.00    -0.228 NA
ATOM     19  S   UNL A   1      29.372  26.336  23.816  1.00  0.00    -0.105 S 
ATOM     20  C   UNL A   1      30.651  28.519  23.948  1.00  0.00     0.125 A 
ATOM     21  C   UNL A   1      29.738  27.873  23.144  1.00  0.00     0.088 A 
ENDBRANCH  15  17
ENDBRANCH  10  13
ENDBRANCH   4   7
ENDBRANCH   2   3
ENDBRANCH   1   2
BRANCH   1  22
ATOM     22  C   UNL A   1      37.974  19.576  24.698  1.00  0.00     0.023 C 
BRANCH  22  23
ATOM     23  C   UNL A   1      39.052  19.929  25.715  1.00  0.00     0.116 C 
BRANCH  23  24
ATOM     24  N   UNL A   1      40.117  18.940  25.783  1.00  0.00    -0.352 N 
ATOM     25  C   UNL A   1      41.463  19.110  26.009  1.00  0.00     0.251 C 
ATOM     26  H   UNL A   1      39.830  18.007  25.645  1.00  0.00     0.163 HD
ATOM     27  O   UNL A   1      42.232  18.167  25.884  1.00  0.00    -0.269 OA
BRANCH  25  28
ATOM     28  C   UNL A   1      41.982  20.446  26.373  1.00  0.00     0.039 A 
ATOM     29  C   UNL A   1      42.537  21.251  25.376  1.00  0.00     0.014 A 
ATOM     30  C   UNL A   1      41.905  20.910  27.688  1.00  0.00     0.014 A 
ATOM     31  C   UNL A   1      42.945  22.551  25.685  1.00  0.00     0.010 A 
ATOM     32  C   UNL A   1      42.221  22.233  27.973  1.00  0.00     0.010 A 
ATOM     33  C   UNL A   1      42.751  23.067  26.977  1.00  0.00    -0.014 A 
BRANCH  33  34
ATOM     34  C   UNL A   1      43.112  24.468  27.314  1.00  0.00     0.031 A 
ATOM     35  C   UNL A   1      44.552  24.904  27.276  1.00  0.00     0.074 A 
ATOM     36  C   UNL A   1      42.158  25.330  27.718  1.00  0.00     0.049 A 
ATOM     37  N   UNL A   1      45.078  26.056  27.608  1.00  0.00    -0.248 NA
ATOM     38  C   UNL A   1      45.535  23.901  26.837  1.00  0.00     0.031 C 
ATOM     39  C   UNL A   1      40.733  25.019  27.844  1.00  0.00     0.029 A 
ATOM     40  N   UNL A   1      42.246  26.643  28.108  1.00  0.00    -0.354 N 
ATOM     41  C   UNL A   1      46.448  25.909  27.432  1.00  0.00     0.074 A 
ATOM     42  C   UNL A   1      46.679  24.539  27.029  1.00  0.00     0.031 C 
ATOM     43  C   UNL A   1      40.077  26.118  28.252  1.00  0.00     0.029 A 
ATOM     44  C   UNL A   1      41.039  27.196  28.460  1.00  0.00     0.049 A 
ATOM     45  H   UNL A   1      43.095  27.141  28.135  1.00  0.00     0.167 HD
ATOM     46  C   UNL A   1      47.425  26.837  27.567  1.00  0.00     0.037 A 
ATOM     47  C   UNL A   1      40.741  28.432  28.904  1.00  0.00     0.037 A 
ATOM     48  C   UNL A   1      47.192  28.204  27.949  1.00  0.00     0.049 A 
ATOM     49  C   UNL A   1      41.845  29.442  29.061  1.00  0.00     0.074 A 
ATOM     50  C   UNL A   1      48.108  29.236  28.066  1.00  0.00     0.029 A 
ATOM     51  N   UNL A   1      45.952  28.731  28.282  1.00  0.00    -0.354 N 
ATOM     52  N   UNL A   1      43.129  29.308  28.829  1.00  0.00    -0.248 NA
ATOM     53  C   UNL A   1      41.457  30.779  29.533  1.00  0.00     0.031 C 
ATOM     54  C   UNL A   1      47.429  30.373  28.517  1.00  0.00     0.029 A 
ATOM     55  C   UNL A   1      46.082  30.067  28.622  1.00  0.00     0.049 A 
ATOM     56  H   UNL A   1      45.104  28.229  28.275  1.00  0.00     0.167 HD
ATOM     57  C   UNL A   1      43.695  30.551  29.090  1.00  0.00     0.074 A 
ATOM     58  C   UNL A   1      42.613  31.426  29.489  1.00  0.00     0.031 C 
ATOM     59  C   UNL A   1      44.993  30.931  29.004  1.00  0.00     0.037 A 
BRANCH  46  60
ATOM     60  C   UNL A   1      48.836  26.397  27.298  1.00  0.00     0.057 A 
ATOM     61  C   UNL A   1      49.381  26.402  26.006  1.00  0.00     0.134 A 
ATOM     62  C   UNL A   1      49.669  25.980  28.345  1.00  0.00     0.134 A 
ATOM     63  F   UNL A   1      48.635  26.777  24.956  1.00  0.00    -0.206 F 
ATOM     64  C   UNL A   1      50.688  25.977  25.760  1.00  0.00     0.040 A 
ATOM     65  C   UNL A   1      50.988  25.584  28.116  1.00  0.00     0.040 A 
ATOM     66  F   UNL A   1      49.217  25.957  29.608  1.00  0.00    -0.206 F 
ATOM     67  C   UNL A   1      51.498  25.572  26.819  1.00  0.00     0.006 A 
ENDBRANCH  46  60
BRANCH  47  68
ATOM     68  C   UNL A   1      39.333  28.797  29.206  1.00  0.00     0.057 A 
ATOM     69  C   UNL A   1      38.508  29.360  28.226  1.00  0.00     0.134 A 
ATOM     70  C   UNL A   1      38.782  28.605  30.478  1.00  0.00     0.134 A 
ATOM     71  F   UNL A   1      38.984  29.587  26.992  1.00  0.00    -0.206 F 
ATOM     72  C   UNL A   1      37.193  29.740  28.503  1.00  0.00     0.040 A 
ATOM     73  C   UNL A   1      37.460  28.953  30.763  1.00  0.00     0.040 A 
ATOM     74  F   UNL A   1      39.516  28.061  31.460  1.00  0.00    -0.206 F 
ATOM     75  C   UNL A   1      36.665  29.531  29.775  1.00  0.00     0.006 A 
ENDBRANCH  47  68
BRANCH  59  76
ATOM     76  C   UNL A   1      45.310  32.371  29.294  1.00  0.00     0.057 A 
ATOM     77  C   UNL A   1      45.236  33.364  28.308  1.00  0.00     0.134 A 
ATOM     78  C   UNL A   1      45.658  32.772  30.590  1.00  0.00     0.134 A 
ATOM     79  F   UNL A   1      44.921  33.046  27.044  1.00  0.00    -0.206 F 
ATOM     80  C   UNL A   1      45.524  34.699  28.597  1.00  0.00     0.040 A 
ATOM     81  C   UNL A   1      45.917  34.108  30.897  1.00  0.00     0.040 A 
ATOM     82  F   UNL A   1      45.737  31.874  31.584  1.00  0.00    -0.206 F 
ATOM     83  C   UNL A   1      45.858  35.075  29.897  1.00  0.00     0.006 A 
ENDBRANCH  59  76
ENDBRANCH  33  34
ENDBRANCH  25  28
ENDBRANCH  23  24
ENDBRANCH  22  23
ENDBRANCH   1  22
TORSDOF 13
ENDMDL
MODEL 3
REMARK VINA RESULT:      -9.9      5.986     11.395
REMARK SMILES C[C@@H]1[C@@H](C(=O)NCCCCNC(=O)c2ccc(-c3c4nc(c(-c5c(F)cccc5F)c5ccc([nH]5)c(-c5c(F)cccc5F)c5nc(c(-c6c(F)cccc6F)c6ccc3[nH]6)C=C5)C=C4)cc2)CCN1C(=O)Nc1nccs1
REMARK SMILES IDX 8 1 7 2 6 3 4 4 5 5 3 7 1 8 2 9 70 10 68 11 69 12 71 13
REMARK SMILES IDX 72 14 73 15 74 17 75 18 78 19 76 20 77 21 9 22 10 23 11 24
REMARK SMILES IDX 12 25 13 27 14 28 15 29 67 30 16 31 66 32 17 33 18 34 19 35
REMARK SMILES IDX 60 36 20 37 65 38 59 39 61 40 21 41 64 42 58 43 57 44 22 46
REMARK SMILES IDX 48 47 31 48 47 49 32 50 35 51 46 52 62 53 33 54 34 55 45 57
REMARK SMILES IDX 63 58 36 59 23 60 24 61 29 62 25 63 26 64 28 65 30 66 27 67
REMARK SMILES IDX 49 68 50 69 55 70 51 71 52 72 54 73 56 74 53 75 37 76 38 77
REMARK SMILES IDX 43 78 39 79 40 80 42 81 44 82 41 83
REMARK H PARENT 6 6 73 16 11 26 61 45 35 56
REMARK Flexibility Score: inf
ROOT
ATOM      1  C   UNL A   1      37.011  20.992  24.641  1.00  0.00     0.023 C 
ENDROOT
BRANCH   1   2
ATOM      2  C   UNL A   1      36.076  21.429  25.760  1.00  0.00     0.116 C 
BRANCH   2   3
ATOM      3  N   UNL A   1      34.808  20.730  25.749  1.00  0.00    -0.356 N 
ATOM      4  C   UNL A   1      33.667  21.056  25.068  1.00  0.00     0.225 C 
ATOM      5  O   UNL A   1      32.709  20.290  25.158  1.00  0.00    -0.275 OA
ATOM      6  H   UNL A   1      34.761  19.916  26.300  1.00  0.00     0.163 HD
BRANCH   4   7
ATOM      7  C   UNL A   1      33.633  22.372  24.297  1.00  0.00     0.102 C 
ATOM      8  C   UNL A   1      34.089  24.825  24.587  1.00  0.00     0.032 C 
ATOM      9  C   UNL A   1      33.441  23.586  25.224  1.00  0.00     0.096 C 
ATOM     10  N   UNL A   1      31.984  23.751  25.318  1.00  0.00    -0.321 N 
ATOM     11  C   UNL A   1      32.434  22.490  23.353  1.00  0.00     0.037 C 
ATOM     12  C   UNL A   1      31.328  23.033  24.239  1.00  0.00     0.122 C 
BRANCH  10  13
ATOM     13  C   UNL A   1      31.192  24.213  26.329  1.00  0.00     0.323 C 
ATOM     14  O   UNL A   1      30.863  23.452  27.251  1.00  0.00    -0.248 OA
ATOM     15  N   UNL A   1      30.851  25.504  26.499  1.00  0.00    -0.283 N 
ATOM     16  H   UNL A   1      30.562  25.719  27.415  1.00  0.00     0.174 HD
BRANCH  15  17
ATOM     17  C   UNL A   1      30.826  26.567  25.655  1.00  0.00     0.190 A 
ATOM     18  N   UNL A   1      30.185  26.747  24.531  1.00  0.00    -0.228 NA
ATOM     19  S   UNL A   1      31.781  27.884  26.186  1.00  0.00    -0.105 S 
ATOM     20  C   UNL A   1      30.556  27.949  23.970  1.00  0.00     0.125 A 
ATOM     21  C   UNL A   1      31.459  28.687  24.703  1.00  0.00     0.088 A 
ENDBRANCH  15  17
ENDBRANCH  10  13
ENDBRANCH   4   7
ENDBRANCH   2   3
ENDBRANCH   1   2
BRANCH   1  22
ATOM     22  C   UNL A   1      37.945  19.835  24.987  1.00  0.00     0.023 C 
BRANCH  22  23
ATOM     23  C   UNL A   1      39.173  20.208  25.809  1.00  0.00     0.116 C 
BRANCH  23  24
ATOM     24  N   UNL A   1      40.150  19.134  25.893  1.00  0.00    -0.352 N 
ATOM     25  C   UNL A   1      41.508  19.195  26.100  1.00  0.00     0.251 C 
ATOM     26  H   UNL A   1      39.783  18.226  25.786  1.00  0.00     0.163 HD
ATOM     27  O   UNL A   1      42.192  18.186  25.994  1.00  0.00    -0.269 OA
BRANCH  25  28
ATOM     28  C   UNL A   1      42.145  20.490  26.421  1.00  0.00     0.039 A 
ATOM     29  C   UNL A   1      42.597  21.298  25.376  1.00  0.00     0.014 A 
ATOM     30  C   UNL A   1      42.276  20.915  27.744  1.00  0.00     0.014 A 
ATOM     31  C   UNL A   1      43.114  22.566  25.656  1.00  0.00     0.010 A 
ATOM     32  C   UNL A   1      42.700  22.211  28.015  1.00  0.00     0.010 A 
ATOM     33  C   UNL A   1      43.130  23.049  26.975  1.00  0.00    -0.014 A 
BRANCH  33  34
ATOM     34  C   UNL A   1      43.609  24.419  27.293  1.00  0.00     0.031 A 
ATOM     35  C   UNL A   1      42.635  25.470  27.750  1.00  0.00     0.074 A 
ATOM     36  C   UNL A   1      44.906  24.737  27.108  1.00  0.00     0.049 A 
ATOM     37  N   UNL A   1      42.842  26.738  28.002  1.00  0.00    -0.248 NA
ATOM     38  C   UNL A   1      41.236  25.046  27.915  1.00  0.00     0.031 C 
ATOM     39  C   UNL A   1      45.944  23.824  26.624  1.00  0.00     0.029 A 
ATOM     40  N   UNL A   1      45.571  25.923  27.297  1.00  0.00    -0.354 N 
ATOM     41  C   UNL A   1      41.600  27.261  28.339  1.00  0.00     0.074 A 
ATOM     42  C   UNL A   1      40.636  26.193  28.195  1.00  0.00     0.031 C 
ATOM     43  C   UNL A   1      47.118  24.474  26.583  1.00  0.00     0.029 A 
ATOM     44  C   UNL A   1      46.909  25.860  26.993  1.00  0.00     0.049 A 
ATOM     45  H   UNL A   1      45.130  26.743  27.618  1.00  0.00     0.167 HD
ATOM     46  C   UNL A   1      41.292  28.512  28.757  1.00  0.00     0.037 A 
ATOM     47  C   UNL A   1      47.860  26.812  27.035  1.00  0.00     0.037 A 
ATOM     48  C   UNL A   1      42.255  29.569  28.919  1.00  0.00     0.049 A 
ATOM     49  C   UNL A   1      47.492  28.199  27.488  1.00  0.00     0.074 A 
ATOM     50  C   UNL A   1      42.053  30.857  29.384  1.00  0.00     0.029 A 
ATOM     51  N   UNL A   1      43.605  29.460  28.615  1.00  0.00    -0.354 N 
ATOM     52  N   UNL A   1      46.326  28.664  27.865  1.00  0.00    -0.248 NA
ATOM     53  C   UNL A   1      48.575  29.191  27.530  1.00  0.00     0.031 C 
ATOM     54  C   UNL A   1      43.271  31.542  29.315  1.00  0.00     0.029 A 
ATOM     55  C   UNL A   1      44.243  30.664  28.865  1.00  0.00     0.049 A 
ATOM     56  H   UNL A   1      44.044  28.647  28.274  1.00  0.00     0.167 HD
ATOM     57  C   UNL A   1      46.541  29.989  28.224  1.00  0.00     0.074 A 
ATOM     58  C   UNL A   1      47.952  30.250  28.027  1.00  0.00     0.031 C 
ATOM     59  C   UNL A   1      45.652  30.905  28.678  1.00  0.00     0.037 A 
BRANCH  46  60
ATOM     60  C   UNL A   1      39.851  28.801  29.067  1.00  0.00     0.057 A 
ATOM     61  C   UNL A   1      38.948  29.215  28.078  1.00  0.00     0.134 A 
ATOM     62  C   UNL A   1      39.352  28.646  30.367  1.00  0.00     0.134 A 
ATOM     63  F   UNL A   1      39.360  29.396  26.814  1.00  0.00    -0.206 F 
ATOM     64  C   UNL A   1      37.613  29.498  28.376  1.00  0.00     0.040 A 
ATOM     65  C   UNL A   1      38.013  28.893  30.672  1.00  0.00     0.040 A 
ATOM     66  F   UNL A   1      40.158  28.246  31.363  1.00  0.00    -0.206 F 
ATOM     67  C   UNL A   1      37.141  29.330  29.676  1.00  0.00     0.006 A 
ENDBRANCH  46  60
BRANCH  47  68
ATOM     68  C   UNL A   1      49.262  26.484  26.665  1.00  0.00     0.057 A 
ATOM     69  C   UNL A   1      49.723  26.662  25.356  1.00  0.00     0.134 A 
ATOM     70  C   UNL A   1      50.168  25.975  27.603  1.00  0.00     0.134 A 
ATOM     71  F   UNL A   1      48.897  27.129  24.407  1.00  0.00    -0.206 F 
ATOM     72  C   UNL A   1      51.027  26.326  24.986  1.00  0.00     0.040 A 
ATOM     73  C   UNL A   1      51.483  25.662  27.254  1.00  0.00     0.040 A 
ATOM     74  F   UNL A   1      49.792  25.789  28.877  1.00  0.00    -0.206 F 
ATOM     75  C   UNL A   1      51.912  25.829  25.939  1.00  0.00     0.006 A 
ENDBRANCH  47  68
BRANCH  59  76
ATOM     76  C   UNL A   1      46.185  32.260  29.047  1.00  0.00     0.057 A 
ATOM     77  C   UNL A   1      46.223  33.322  28.134  1.00  0.00     0.134 A 
ATOM     78  C   UNL A   1      46.632  32.514  30.351  1.00  0.00     0.134 A 
ATOM     79  F   UNL A   1      45.821  33.144  26.867  1.00  0.00    -0.206 F 
ATOM     80  C   UNL A   1      46.711  34.578  28.497  1.00  0.00     0.040 A 
ATOM     81  C   UNL A   1      47.093  33.774  30.734  1.00  0.00     0.040 A 
ATOM     82  F   UNL A   1      46.613  31.545  31.278  1.00  0.00    -0.206 F 
ATOM     83  C   UNL A   1      47.140  34.809  29.803  1.00  0.00     0.006 A 
ENDBRANCH  59  76
ENDBRANCH  33  34
ENDBRANCH  25  28
ENDBRANCH  23  24
ENDBRANCH  22  23
ENDBRANCH   1  22
TORSDOF 13
ENDMDL
