MODEL 1
REMARK VINA RESULT:     -11.3      0.000      0.000
REMARK SMILES CCOC(=O)C1=NN(c2ccc(F)cc2F)[C@@H](C(=O)NCCCCNC(=O)c2ccc(-c3c4nc(c(-c5c(F)cccc5F)c5ccc([nH]5)c(-c5c(F)cccc5F)c5nc(c(-c6c(F)cccc6F)c6ccc3[nH]6)C=C5)C=C4)cc2)C1
REMARK SMILES IDX 22 1 21 2 20 3 18 4 19 5 17 7 6 8 7 9 82 10 8 11 4 12 5 13
REMARK SMILES IDX 3 14 2 15 1 16 9 17 10 18 15 19 11 20 14 21 16 22 12 23
REMARK SMILES IDX 13 24 23 25 24 26 25 27 26 28 27 30 28 31 29 32 81 33 30 34
REMARK SMILES IDX 80 35 31 36 32 37 33 38 74 39 34 40 79 41 73 42 75 43 35 44
REMARK SMILES IDX 78 45 72 46 71 47 36 49 62 50 45 51 61 52 46 53 49 54 60 55
REMARK SMILES IDX 76 56 47 57 48 58 59 60 77 61 50 62 37 63 38 64 43 65 39 66
REMARK SMILES IDX 40 67 42 68 44 69 41 70 63 71 64 72 69 73 65 74 66 75 68 76
REMARK SMILES IDX 70 77 67 78 51 79 52 80 57 81 53 82 54 83 56 84 58 85 55 86
REMARK H PARENT 20 6 25 29 75 48 49 59
REMARK Flexibility Score: inf
ROOT
ATOM      1  C   UNL A   1      38.095  22.773  25.714  1.00  0.00     0.023 C 
ENDROOT
BRANCH   1   2
ATOM      2  C   UNL A   1      36.697  23.376  25.589  1.00  0.00     0.116 C 
BRANCH   2   3
ATOM      3  N   UNL A   1      35.788  22.886  26.606  1.00  0.00    -0.354 N 
ATOM      4  C   UNL A   1      34.735  22.017  26.519  1.00  0.00     0.245 C 
ATOM      5  O   UNL A   1      34.259  21.620  27.587  1.00  0.00    -0.273 OA
ATOM      6  H   UNL A   1      35.956  23.237  27.511  1.00  0.00     0.163 HD
BRANCH   4   7
ATOM      7  C   UNL A   1      34.204  21.546  25.156  1.00  0.00     0.203 C 
ATOM      8  C   UNL A   1      33.138  19.519  24.909  1.00  0.00     0.148 C 
ATOM      9  N   UNL A   1      32.162  20.367  24.973  1.00  0.00    -0.169 NA
ATOM     10  C   UNL A   1      34.520  20.063  24.971  1.00  0.00     0.103 C 
ATOM     11  N   UNL A   1      32.735  21.595  25.116  1.00  0.00    -0.249 N 
BRANCH   8  12
ATOM     12  C   UNL A   1      32.942  18.044  24.728  1.00  0.00     0.354 C 
ATOM     13  O   UNL A   1      31.915  17.486  25.065  1.00  0.00    -0.245 OA
BRANCH  12  14
ATOM     14  O   UNL A   1      34.004  17.534  24.076  1.00  0.00    -0.461 OA
BRANCH  14  15
ATOM     15  C   UNL A   1      34.227  16.131  24.268  1.00  0.00     0.230 C 
ATOM     16  C   UNL A   1      35.302  15.912  25.315  1.00  0.00     0.049 C 
ENDBRANCH  14  15
ENDBRANCH  12  14
ENDBRANCH   8  12
BRANCH  11  17
ATOM     17  C   UNL A   1      31.952  22.745  25.201  1.00  0.00     0.096 A 
ATOM     18  C   UNL A   1      31.223  23.045  26.368  1.00  0.00     0.034 A 
ATOM     19  C   UNL A   1      31.854  23.676  24.143  1.00  0.00     0.151 A 
ATOM     20  C   UNL A   1      30.437  24.199  26.467  1.00  0.00     0.041 A 
ATOM     21  C   UNL A   1      31.068  24.825  24.230  1.00  0.00     0.080 A 
ATOM     22  F   UNL A   1      32.492  23.469  22.980  1.00  0.00    -0.205 F 
ATOM     23  C   UNL A   1      30.365  25.076  25.396  1.00  0.00     0.126 A 
ATOM     24  F   UNL A   1      29.609  26.176  25.493  1.00  0.00    -0.207 F 
ENDBRANCH  11  17
ENDBRANCH   4   7
ENDBRANCH   2   3
ENDBRANCH   1   2
BRANCH   1  25
ATOM     25  C   UNL A   1      38.295  21.397  25.064  1.00  0.00     0.023 C 
BRANCH  25  26
ATOM     26  C   UNL A   1      38.439  20.211  26.017  1.00  0.00     0.116 C 
BRANCH  26  27
ATOM     27  N   UNL A   1      39.605  19.394  25.742  1.00  0.00    -0.352 N 
ATOM     28  C   UNL A   1      40.934  19.672  25.945  1.00  0.00     0.251 C 
ATOM     29  H   UNL A   1      39.416  18.510  25.353  1.00  0.00     0.163 HD
ATOM     30  O   UNL A   1      41.782  18.866  25.570  1.00  0.00    -0.269 OA
BRANCH  28  31
ATOM     31  C   UNL A   1      41.362  20.943  26.571  1.00  0.00     0.039 A 
ATOM     32  C   UNL A   1      41.859  21.951  25.736  1.00  0.00     0.014 A 
ATOM     33  C   UNL A   1      41.331  21.136  27.955  1.00  0.00     0.014 A 
ATOM     34  C   UNL A   1      42.272  23.169  26.278  1.00  0.00     0.010 A 
ATOM     35  C   UNL A   1      41.726  22.362  28.497  1.00  0.00     0.010 A 
ATOM     36  C   UNL A   1      42.193  23.388  27.661  1.00  0.00    -0.014 A 
BRANCH  36  37
ATOM     37  C   UNL A   1      42.581  24.694  28.241  1.00  0.00     0.031 A 
ATOM     38  C   UNL A   1      41.554  25.759  28.476  1.00  0.00     0.074 A 
ATOM     39  C   UNL A   1      43.873  24.931  28.529  1.00  0.00     0.049 A 
ATOM     40  N   UNL A   1      41.726  26.992  28.879  1.00  0.00    -0.248 NA
ATOM     41  C   UNL A   1      40.153  25.395  28.217  1.00  0.00     0.031 C 
ATOM     42  C   UNL A   1      44.971  23.981  28.344  1.00  0.00     0.029 A 
ATOM     43  N   UNL A   1      44.480  26.053  29.033  1.00  0.00    -0.354 N 
ATOM     44  C   UNL A   1      40.461  27.563  28.893  1.00  0.00     0.074 A 
ATOM     45  C   UNL A   1      39.528  26.538  28.474  1.00  0.00     0.031 C 
ATOM     46  C   UNL A   1      46.119  24.560  28.735  1.00  0.00     0.029 A 
ATOM     47  C   UNL A   1      45.838  25.922  29.180  1.00  0.00     0.049 A 
ATOM     48  H   UNL A   1      43.989  26.873  29.267  1.00  0.00     0.167 HD
ATOM     49  C   UNL A   1      40.110  28.830  29.218  1.00  0.00     0.037 A 
ATOM     50  C   UNL A   1      46.755  26.805  29.614  1.00  0.00     0.037 A 
ATOM     51  C   UNL A   1      41.021  29.848  29.666  1.00  0.00     0.049 A 
ATOM     52  C   UNL A   1      46.334  28.188  30.010  1.00  0.00     0.074 A 
ATOM     53  C   UNL A   1      40.747  31.159  30.023  1.00  0.00     0.029 A 
ATOM     54  N   UNL A   1      42.383  29.666  29.834  1.00  0.00    -0.354 N 
ATOM     55  N   UNL A   1      45.138  28.721  29.990  1.00  0.00    -0.248 NA
ATOM     56  C   UNL A   1      47.395  29.092  30.479  1.00  0.00     0.031 C 
ATOM     57  C   UNL A   1      41.948  31.768  30.410  1.00  0.00     0.029 A 
ATOM     58  C   UNL A   1      42.965  30.836  30.293  1.00  0.00     0.049 A 
ATOM     59  H   UNL A   1      42.867  28.827  29.654  1.00  0.00     0.167 HD
ATOM     60  C   UNL A   1      45.300  30.025  30.434  1.00  0.00     0.074 A 
ATOM     61  C   UNL A   1      46.709  30.201  30.727  1.00  0.00     0.031 C 
ATOM     62  C   UNL A   1      44.365  30.993  30.579  1.00  0.00     0.037 A 
BRANCH  49  63
ATOM     63  C   UNL A   1      38.666  29.186  29.082  1.00  0.00     0.057 A 
ATOM     64  C   UNL A   1      37.808  29.124  30.185  1.00  0.00     0.134 A 
ATOM     65  C   UNL A   1      38.126  29.573  27.851  1.00  0.00     0.134 A 
ATOM     66  F   UNL A   1      38.275  28.768  31.391  1.00  0.00    -0.206 F 
ATOM     67  C   UNL A   1      36.453  29.434  30.068  1.00  0.00     0.040 A 
ATOM     68  C   UNL A   1      36.773  29.887  27.723  1.00  0.00     0.040 A 
ATOM     69  F   UNL A   1      38.905  29.661  26.763  1.00  0.00    -0.206 F 
ATOM     70  C   UNL A   1      35.932  29.817  28.833  1.00  0.00     0.006 A 
ENDBRANCH  49  63
BRANCH  50  71
ATOM     71  C   UNL A   1      48.176  26.406  29.681  1.00  0.00     0.057 A 
ATOM     72  C   UNL A   1      48.695  25.773  30.814  1.00  0.00     0.134 A 
ATOM     73  C   UNL A   1      49.042  26.656  28.614  1.00  0.00     0.134 A 
ATOM     74  F   UNL A   1      47.902  25.506  31.861  1.00  0.00    -0.206 F 
ATOM     75  C   UNL A   1      50.037  25.403  30.886  1.00  0.00     0.040 A 
ATOM     76  C   UNL A   1      50.386  26.289  28.671  1.00  0.00     0.040 A 
ATOM     77  F   UNL A   1      48.589  27.251  27.500  1.00  0.00    -0.206 F 
ATOM     78  C   UNL A   1      50.887  25.661  29.811  1.00  0.00     0.006 A 
ENDBRANCH  50  71
BRANCH  62  79
ATOM     79  C   UNL A   1      44.839  32.322  31.067  1.00  0.00     0.057 A 
ATOM     80  C   UNL A   1      44.877  32.617  32.434  1.00  0.00     0.134 A 
ATOM     81  C   UNL A   1      45.244  33.316  30.170  1.00  0.00     0.134 A 
ATOM     82  F   UNL A   1      44.510  31.698  33.340  1.00  0.00    -0.206 F 
ATOM     83  C   UNL A   1      45.307  33.862  32.895  1.00  0.00     0.040 A 
ATOM     84  C   UNL A   1      45.676  34.564  30.619  1.00  0.00     0.040 A 
ATOM     85  F   UNL A   1      45.238  33.083  28.849  1.00  0.00    -0.206 F 
ATOM     86  C   UNL A   1      45.707  34.840  31.985  1.00  0.00     0.006 A 
ENDBRANCH  62  79
ENDBRANCH  36  37
ENDBRANCH  28  31
ENDBRANCH  26  27
ENDBRANCH  25  26
ENDBRANCH   1  25
TORSDOF 15
ENDMDL
MODEL 2
REMARK VINA RESULT:     -11.2      2.036      3.875
REMARK SMILES CCOC(=O)C1=NN(c2ccc(F)cc2F)[C@@H](C(=O)NCCCCNC(=O)c2ccc(-c3c4nc(c(-c5c(F)cccc5F)c5ccc([nH]5)c(-c5c(F)cccc5F)c5nc(c(-c6c(F)cccc6F)c6ccc3[nH]6)C=C5)C=C4)cc2)C1
REMARK SMILES IDX 22 1 21 2 20 3 18 4 19 5 17 7 6 8 7 9 82 10 8 11 4 12 5 13
REMARK SMILES IDX 3 14 2 15 1 16 9 17 10 18 15 19 11 20 14 21 16 22 12 23
REMARK SMILES IDX 13 24 23 25 24 26 25 27 26 28 27 30 28 31 29 32 81 33 30 34
REMARK SMILES IDX 80 35 31 36 32 37 33 38 74 39 34 40 79 41 73 42 75 43 35 44
REMARK SMILES IDX 78 45 72 46 71 47 36 49 62 50 45 51 61 52 46 53 49 54 60 55
REMARK SMILES IDX 76 56 47 57 48 58 59 60 77 61 50 62 37 63 38 64 43 65 39 66
REMARK SMILES IDX 40 67 42 68 44 69 41 70 63 71 64 72 69 73 65 74 66 75 68 76
REMARK SMILES IDX 70 77 67 78 51 79 52 80 57 81 53 82 54 83 56 84 58 85 55 86
REMARK H PARENT 20 6 25 29 75 48 49 59
REMARK Flexibility Score: inf
ROOT
ATOM      1  C   UNL A   1      36.444  20.047  25.005  1.00  0.00     0.023 C 
ENDROOT
BRANCH   1   2
ATOM      2  C   UNL A   1      36.558  21.553  25.237  1.00  0.00     0.116 C 
BRANCH   2   3
ATOM      3  N   UNL A   1      35.646  22.313  24.405  1.00  0.00    -0.354 N 
ATOM      4  C   UNL A   1      34.369  22.742  24.642  1.00  0.00     0.245 C 
ATOM      5  O   UNL A   1      33.900  23.547  23.831  1.00  0.00    -0.273 OA
ATOM      6  H   UNL A   1      36.005  22.561  23.523  1.00  0.00     0.163 HD
BRANCH   4   7
ATOM      7  C   UNL A   1      33.584  22.260  25.873  1.00  0.00     0.203 C 
ATOM      8  C   UNL A   1      31.457  23.024  26.324  1.00  0.00     0.148 C 
ATOM      9  N   UNL A   1      31.253  21.873  25.769  1.00  0.00    -0.169 NA
ATOM     10  C   UNL A   1      32.870  23.448  26.517  1.00  0.00     0.103 C 
ATOM     11  N   UNL A   1      32.485  21.366  25.480  1.00  0.00    -0.249 N 
BRANCH   8  12
ATOM     12  C   UNL A   1      30.356  23.912  26.818  1.00  0.00     0.354 C 
ATOM     13  O   UNL A   1      29.403  23.472  27.433  1.00  0.00    -0.245 OA
BRANCH  12  14
ATOM     14  O   UNL A   1      30.670  25.194  26.551  1.00  0.00    -0.461 OA
BRANCH  14  15
ATOM     15  C   UNL A   1      29.905  25.810  25.506  1.00  0.00     0.230 C 
ATOM     16  C   UNL A   1      30.684  25.781  24.205  1.00  0.00     0.049 C 
ENDBRANCH  14  15
ENDBRANCH  12  14
ENDBRANCH   8  12
BRANCH  11  17
ATOM     17  C   UNL A   1      32.622  20.114  24.883  1.00  0.00     0.096 A 
ATOM     18  C   UNL A   1      32.983  18.982  25.638  1.00  0.00     0.034 A 
ATOM     19  C   UNL A   1      32.397  19.903  23.504  1.00  0.00     0.151 A 
ATOM     20  C   UNL A   1      33.118  17.719  25.051  1.00  0.00     0.041 A 
ATOM     21  C   UNL A   1      32.536  18.650  22.908  1.00  0.00     0.080 A 
ATOM     22  F   UNL A   1      32.072  20.923  22.693  1.00  0.00    -0.205 F 
ATOM     23  C   UNL A   1      32.896  17.566  23.690  1.00  0.00     0.126 A 
ATOM     24  F   UNL A   1      33.031  16.358  23.131  1.00  0.00    -0.207 F 
ENDBRANCH  11  17
ENDBRANCH   4   7
ENDBRANCH   2   3
ENDBRANCH   1   2
BRANCH   1  25
ATOM     25  C   UNL A   1      37.771  19.281  24.894  1.00  0.00     0.023 C 
BRANCH  25  26
ATOM     26  C   UNL A   1      38.930  19.808  25.738  1.00  0.00     0.116 C 
BRANCH  26  27
ATOM     27  N   UNL A   1      40.071  18.910  25.767  1.00  0.00    -0.352 N 
ATOM     28  C   UNL A   1      41.393  19.186  26.010  1.00  0.00     0.251 C 
ATOM     29  H   UNL A   1      39.864  17.966  25.586  1.00  0.00     0.163 HD
ATOM     30  O   UNL A   1      42.223  18.286  25.912  1.00  0.00    -0.269 OA
BRANCH  28  31
ATOM     31  C   UNL A   1      41.838  20.557  26.348  1.00  0.00     0.039 A 
ATOM     32  C   UNL A   1      41.906  20.909  27.701  1.00  0.00     0.014 A 
ATOM     33  C   UNL A   1      42.136  21.504  25.364  1.00  0.00     0.014 A 
ATOM     34  C   UNL A   1      42.324  22.189  28.072  1.00  0.00     0.010 A 
ATOM     35  C   UNL A   1      42.573  22.779  25.735  1.00  0.00     0.010 A 
ATOM     36  C   UNL A   1      42.676  23.127  27.091  1.00  0.00    -0.014 A 
BRANCH  36  37
ATOM     37  C   UNL A   1      43.167  24.469  27.474  1.00  0.00     0.031 A 
ATOM     38  C   UNL A   1      42.219  25.513  27.981  1.00  0.00     0.074 A 
ATOM     39  C   UNL A   1      44.474  24.759  27.334  1.00  0.00     0.049 A 
ATOM     40  N   UNL A   1      42.454  26.769  28.265  1.00  0.00    -0.248 NA
ATOM     41  C   UNL A   1      40.825  25.095  28.186  1.00  0.00     0.031 C 
ATOM     42  C   UNL A   1      45.500  23.835  26.849  1.00  0.00     0.029 A 
ATOM     43  N   UNL A   1      45.158  25.922  27.583  1.00  0.00    -0.354 N 
ATOM     44  C   UNL A   1      41.233  27.301  28.654  1.00  0.00     0.074 A 
ATOM     45  C   UNL A   1      40.261  26.228  28.585  1.00  0.00     0.031 C 
ATOM     46  C   UNL A   1      46.686  24.467  26.840  1.00  0.00     0.029 A 
ATOM     47  C   UNL A   1      46.498  25.839  27.301  1.00  0.00     0.049 A 
ATOM     48  H   UNL A   1      44.728  26.737  27.929  1.00  0.00     0.167 HD
ATOM     49  C   UNL A   1      40.945  28.570  29.027  1.00  0.00     0.037 A 
ATOM     50  C   UNL A   1      47.464  26.770  27.395  1.00  0.00     0.037 A 
ATOM     51  C   UNL A   1      41.905  29.636  29.131  1.00  0.00     0.049 A 
ATOM     52  C   UNL A   1      47.128  28.156  27.853  1.00  0.00     0.074 A 
ATOM     53  C   UNL A   1      41.698  30.953  29.508  1.00  0.00     0.029 A 
ATOM     54  N   UNL A   1      43.258  29.503  28.870  1.00  0.00    -0.354 N 
ATOM     55  N   UNL A   1      45.964  28.651  28.189  1.00  0.00    -0.248 NA
ATOM     56  C   UNL A   1      48.242  29.114  27.934  1.00  0.00     0.031 C 
ATOM     57  C   UNL A   1      42.932  31.617  29.478  1.00  0.00     0.029 A 
ATOM     58  C   UNL A   1      43.902  30.711  29.082  1.00  0.00     0.049 A 
ATOM     59  H   UNL A   1      43.698  28.672  28.577  1.00  0.00     0.167 HD
ATOM     60  C   UNL A   1      46.199  29.979  28.514  1.00  0.00     0.074 A 
ATOM     61  C   UNL A   1      47.619  30.211  28.344  1.00  0.00     0.031 C 
ATOM     62  C   UNL A   1      45.313  30.924  28.910  1.00  0.00     0.037 A 
BRANCH  49  63
ATOM     63  C   UNL A   1      39.517  28.875  29.337  1.00  0.00     0.057 A 
ATOM     64  C   UNL A   1      38.650  29.330  28.338  1.00  0.00     0.134 A 
ATOM     65  C   UNL A   1      39.007  28.735  30.632  1.00  0.00     0.134 A 
ATOM     66  F   UNL A   1      39.083  29.475  27.076  1.00  0.00    -0.206 F 
ATOM     67  C   UNL A   1      37.319  29.638  28.616  1.00  0.00     0.040 A 
ATOM     68  C   UNL A   1      37.677  29.038  30.923  1.00  0.00     0.040 A 
ATOM     69  F   UNL A   1      39.790  28.291  31.627  1.00  0.00    -0.206 F 
ATOM     70  C   UNL A   1      36.829  29.492  29.913  1.00  0.00     0.006 A 
ENDBRANCH  49  63
BRANCH  50  71
ATOM     71  C   UNL A   1      48.852  26.418  27.028  1.00  0.00     0.057 A 
ATOM     72  C   UNL A   1      49.319  26.590  25.722  1.00  0.00     0.134 A 
ATOM     73  C   UNL A   1      49.734  25.896  27.978  1.00  0.00     0.134 A 
ATOM     74  F   UNL A   1      48.512  27.092  24.777  1.00  0.00    -0.206 F 
ATOM     75  C   UNL A   1      50.624  26.250  25.370  1.00  0.00     0.040 A 
ATOM     76  C   UNL A   1      51.044  25.555  27.640  1.00  0.00     0.040 A 
ATOM     77  F   UNL A   1      49.337  25.723  29.247  1.00  0.00    -0.206 F 
ATOM     78  C   UNL A   1      51.491  25.731  26.330  1.00  0.00     0.006 A 
ENDBRANCH  50  71
BRANCH  62  79
ATOM     79  C   UNL A   1      45.858  32.288  29.177  1.00  0.00     0.057 A 
ATOM     80  C   UNL A   1      45.933  33.247  28.161  1.00  0.00     0.134 A 
ATOM     81  C   UNL A   1      46.324  32.642  30.448  1.00  0.00     0.134 A 
ATOM     82  F   UNL A   1      45.492  32.966  26.926  1.00  0.00    -0.206 F 
ATOM     83  C   UNL A   1      46.454  34.519  28.403  1.00  0.00     0.040 A 
ATOM     84  C   UNL A   1      46.847  33.910  30.701  1.00  0.00     0.040 A 
ATOM     85  F   UNL A   1      46.266  31.765  31.461  1.00  0.00    -0.206 F 
ATOM     86  C   UNL A   1      46.914  34.852  29.676  1.00  0.00     0.006 A 
ENDBRANCH  62  79
ENDBRANCH  36  37
ENDBRANCH  28  31
ENDBRANCH  26  27
ENDBRANCH  25  26
ENDBRANCH   1  25
TORSDOF 15
ENDMDL
MODEL 3
REMARK VINA RESULT:     -11.2      0.462      6.044
REMARK SMILES CCOC(=O)C1=NN(c2ccc(F)cc2F)[C@@H](C(=O)NCCCCNC(=O)c2ccc(-c3c4nc(c(-c5c(F)cccc5F)c5ccc([nH]5)c(-c5c(F)cccc5F)c5nc(c(-c6c(F)cccc6F)c6ccc3[nH]6)C=C5)C=C4)cc2)C1
REMARK SMILES IDX 22 1 21 2 20 3 18 4 19 5 17 7 6 8 7 9 82 10 8 11 4 12 5 13
REMARK SMILES IDX 3 14 2 15 1 16 9 17 10 18 15 19 11 20 14 21 16 22 12 23
REMARK SMILES IDX 13 24 23 25 24 26 25 27 26 28 27 30 28 31 29 32 81 33 30 34
REMARK SMILES IDX 80 35 31 36 32 37 33 38 74 39 34 40 79 41 73 42 75 43 35 44
REMARK SMILES IDX 78 45 72 46 71 47 36 49 62 50 45 51 61 52 46 53 49 54 60 55
REMARK SMILES IDX 76 56 47 57 48 58 59 60 77 61 50 62 37 63 38 64 43 65 39 66
REMARK SMILES IDX 40 67 42 68 44 69 41 70 63 71 64 72 69 73 65 74 66 75 68 76
REMARK SMILES IDX 70 77 67 78 51 79 52 80 57 81 53 82 54 83 56 84 58 85 55 86
REMARK H PARENT 20 6 25 29 75 48 49 59
REMARK Flexibility Score: inf
ROOT
ATOM      1  C   UNL A   1      38.317  22.306  25.758  1.00  0.00     0.023 C 
ENDROOT
BRANCH   1   2
ATOM      2  C   UNL A   1      36.943  22.919  25.493  1.00  0.00     0.116 C 
BRANCH   2   3
ATOM      3  N   UNL A   1      35.975  22.578  26.517  1.00  0.00    -0.354 N 
ATOM      4  C   UNL A   1      34.815  21.858  26.444  1.00  0.00     0.245 C 
ATOM      5  O   UNL A   1      34.288  21.551  27.518  1.00  0.00    -0.273 OA
ATOM      6  H   UNL A   1      36.190  22.921  27.415  1.00  0.00     0.163 HD
BRANCH   4   7
ATOM      7  C   UNL A   1      34.225  21.437  25.088  1.00  0.00     0.203 C 
ATOM      8  C   UNL A   1      33.069  19.460  24.835  1.00  0.00     0.148 C 
ATOM      9  N   UNL A   1      32.131  20.346  24.944  1.00  0.00    -0.169 NA
ATOM     10  C   UNL A   1      34.474  19.946  24.867  1.00  0.00     0.103 C 
ATOM     11  N   UNL A   1      32.759  21.547  25.093  1.00  0.00    -0.249 N 
BRANCH   8  12
ATOM     12  C   UNL A   1      32.807  17.998  24.633  1.00  0.00     0.354 C 
ATOM     13  O   UNL A   1      31.849  17.442  25.135  1.00  0.00    -0.245 OA
BRANCH  12  14
ATOM     14  O   UNL A   1      33.715  17.502  23.772  1.00  0.00    -0.461 OA
BRANCH  14  15
ATOM     15  C   UNL A   1      34.091  16.136  23.994  1.00  0.00     0.230 C 
ATOM     16  C   UNL A   1      35.081  16.048  25.139  1.00  0.00     0.049 C 
ENDBRANCH  14  15
ENDBRANCH  12  14
ENDBRANCH   8  12
BRANCH  11  17
ATOM     17  C   UNL A   1      32.027  22.726  25.223  1.00  0.00     0.096 A 
ATOM     18  C   UNL A   1      31.225  22.965  26.355  1.00  0.00     0.034 A 
ATOM     19  C   UNL A   1      32.055  23.747  24.246  1.00  0.00     0.151 A 
ATOM     20  C   UNL A   1      30.490  24.147  26.499  1.00  0.00     0.041 A 
ATOM     21  C   UNL A   1      31.320  24.925  24.378  1.00  0.00     0.080 A 
ATOM     22  F   UNL A   1      32.770  23.605  23.119  1.00  0.00    -0.205 F 
ATOM     23  C   UNL A   1      30.542  25.114  25.507  1.00  0.00     0.126 A 
ATOM     24  F   UNL A   1      29.834  26.241  25.646  1.00  0.00    -0.207 F 
ENDBRANCH  11  17
ENDBRANCH   4   7
ENDBRANCH   2   3
ENDBRANCH   1   2
BRANCH   1  25
ATOM     25  C   UNL A   1      38.539  20.889  25.211  1.00  0.00     0.023 C 
BRANCH  25  26
ATOM     26  C   UNL A   1      38.959  19.828  26.227  1.00  0.00     0.116 C 
BRANCH  26  27
ATOM     27  N   UNL A   1      40.188  19.145  25.866  1.00  0.00    -0.352 N 
ATOM     28  C   UNL A   1      41.487  19.576  25.966  1.00  0.00     0.251 C 
ATOM     29  H   UNL A   1      40.072  18.241  25.496  1.00  0.00     0.163 HD
ATOM     30  O   UNL A   1      42.391  18.868  25.531  1.00  0.00    -0.269 OA
BRANCH  28  31
ATOM     31  C   UNL A   1      41.812  20.895  26.554  1.00  0.00     0.039 A 
ATOM     32  C   UNL A   1      42.227  21.915  25.688  1.00  0.00     0.014 A 
ATOM     33  C   UNL A   1      41.765  21.126  27.932  1.00  0.00     0.014 A 
ATOM     34  C   UNL A   1      42.542  23.178  26.193  1.00  0.00     0.010 A 
ATOM     35  C   UNL A   1      42.061  22.395  28.436  1.00  0.00     0.010 A 
ATOM     36  C   UNL A   1      42.445  23.430  27.569  1.00  0.00    -0.014 A 
BRANCH  36  37
ATOM     37  C   UNL A   1      42.728  24.779  28.109  1.00  0.00     0.031 A 
ATOM     38  C   UNL A   1      44.116  25.157  28.530  1.00  0.00     0.074 A 
ATOM     39  C   UNL A   1      41.720  25.659  28.250  1.00  0.00     0.049 A 
ATOM     40  N   UNL A   1      44.528  26.252  29.116  1.00  0.00    -0.248 NA
ATOM     41  C   UNL A   1      45.176  24.174  28.266  1.00  0.00     0.031 C 
ATOM     42  C   UNL A   1      40.324  25.416  27.883  1.00  0.00     0.029 A 
ATOM     43  N   UNL A   1      41.719  26.937  28.749  1.00  0.00    -0.354 N 
ATOM     44  C   UNL A   1      45.889  26.079  29.321  1.00  0.00     0.074 A 
ATOM     45  C   UNL A   1      46.238  24.781  28.781  1.00  0.00     0.031 C 
ATOM     46  C   UNL A   1      39.601  26.513  28.165  1.00  0.00     0.029 A 
ATOM     47  C   UNL A   1      40.479  27.524  28.747  1.00  0.00     0.049 A 
ATOM     48  H   UNL A   1      42.529  27.388  29.078  1.00  0.00     0.167 HD
ATOM     49  C   UNL A   1      46.768  26.923  29.912  1.00  0.00     0.037 A 
ATOM     50  C   UNL A   1      40.092  28.739  29.176  1.00  0.00     0.037 A 
ATOM     51  C   UNL A   1      46.442  28.227  30.422  1.00  0.00     0.049 A 
ATOM     52  C   UNL A   1      41.093  29.672  29.786  1.00  0.00     0.074 A 
ATOM     53  C   UNL A   1      47.275  29.151  31.032  1.00  0.00     0.029 A 
ATOM     54  N   UNL A   1      45.183  28.799  30.370  1.00  0.00    -0.354 N 
ATOM     55  N   UNL A   1      42.371  29.483  29.998  1.00  0.00    -0.248 NA
ATOM     56  C   UNL A   1      40.592  30.984  30.224  1.00  0.00     0.031 C 
ATOM     57  C   UNL A   1      46.516  30.286  31.346  1.00  0.00     0.029 A 
ATOM     58  C   UNL A   1      45.214  30.065  30.931  1.00  0.00     0.049 A 
ATOM     59  H   UNL A   1      44.382  28.370  29.990  1.00  0.00     0.167 HD
ATOM     60  C   UNL A   1      42.829  30.645  30.602  1.00  0.00     0.074 A 
ATOM     61  C   UNL A   1      41.693  31.539  30.714  1.00  0.00     0.031 C 
ATOM     62  C   UNL A   1      44.078  30.940  31.033  1.00  0.00     0.037 A 
BRANCH  49  63
ATOM     63  C   UNL A   1      48.176  26.444  30.049  1.00  0.00     0.057 A 
ATOM     64  C   UNL A   1      48.592  25.773  31.204  1.00  0.00     0.134 A 
ATOM     65  C   UNL A   1      49.121  26.665  29.043  1.00  0.00     0.134 A 
ATOM     66  F   UNL A   1      47.725  25.525  32.197  1.00  0.00    -0.206 F 
ATOM     67  C   UNL A   1      49.908  25.337  31.355  1.00  0.00     0.040 A 
ATOM     68  C   UNL A   1      50.440  26.232  29.182  1.00  0.00     0.040 A 
ATOM     69  F   UNL A   1      48.774  27.292  27.909  1.00  0.00    -0.206 F 
ATOM     70  C   UNL A   1      50.837  25.567  30.341  1.00  0.00     0.006 A 
ENDBRANCH  49  63
BRANCH  50  71
ATOM     71  C   UNL A   1      38.674  29.136  29.054  1.00  0.00     0.057 A 
ATOM     72  C   UNL A   1      37.808  29.064  30.148  1.00  0.00     0.134 A 
ATOM     73  C   UNL A   1      38.159  29.590  27.837  1.00  0.00     0.134 A 
ATOM     74  F   UNL A   1      38.257  28.641  31.338  1.00  0.00    -0.206 F 
ATOM     75  C   UNL A   1      36.467  29.429  30.035  1.00  0.00     0.040 A 
ATOM     76  C   UNL A   1      36.820  29.962  27.711  1.00  0.00     0.040 A 
ATOM     77  F   UNL A   1      38.953  29.688  26.760  1.00  0.00    -0.206 F 
ATOM     78  C   UNL A   1      35.970  29.880  28.813  1.00  0.00     0.006 A 
ENDBRANCH  50  71
BRANCH  62  79
ATOM     79  C   UNL A   1      44.273  32.277  31.667  1.00  0.00     0.057 A 
ATOM     80  C   UNL A   1      44.112  32.453  33.046  1.00  0.00     0.134 A 
ATOM     81  C   UNL A   1      44.608  33.398  30.898  1.00  0.00     0.134 A 
ATOM     82  F   UNL A   1      43.801  31.413  33.833  1.00  0.00    -0.206 F 
ATOM     83  C   UNL A   1      44.279  33.704  33.641  1.00  0.00     0.040 A 
ATOM     84  C   UNL A   1      44.778  34.653  31.483  1.00  0.00     0.040 A 
ATOM     85  F   UNL A   1      44.785  33.284  29.574  1.00  0.00    -0.206 F 
ATOM     86  C   UNL A   1      44.612  34.809  32.858  1.00  0.00     0.006 A 
ENDBRANCH  62  79
ENDBRANCH  36  37
ENDBRANCH  28  31
ENDBRANCH  26  27
ENDBRANCH  25  26
ENDBRANCH   1  25
TORSDOF 15
ENDMDL
