MODEL 1
REMARK VINA RESULT:     -11.2      0.000      0.000
REMARK SMILES COc1ncnc(N2CCSC[C@@H]2CC(=O)NCCCCNC(=O)c2ccc(-c3c4nc(c(-c5c(F)cccc5F)c5ccc([nH]5)c(-c5c(F)cccc5F)c5nc(c(-c6c(F)cccc6F)c6ccc3[nH]6)C=C5)C=C4)cc2)c1[N+](=O)[O-]
REMARK SMILES IDX 19 1 18 2 17 3 15 4 16 5 14 7 13 8 8 9 9 10 10 11 12 12
REMARK SMILES IDX 11 13 7 14 3 15 4 16 79 17 5 18 6 19 2 20 1 21 80 22 81 23
REMARK SMILES IDX 82 24 20 25 21 26 22 27 23 28 24 30 25 31 26 32 78 33 27 34
REMARK SMILES IDX 77 35 28 36 29 37 30 38 71 39 31 40 76 41 70 42 72 43 32 44
REMARK SMILES IDX 75 45 69 46 68 47 33 49 59 50 42 51 58 52 43 53 46 54 57 55
REMARK SMILES IDX 73 56 44 57 45 58 56 60 74 61 47 62 34 63 35 64 40 65 36 66
REMARK SMILES IDX 37 67 39 68 41 69 38 70 60 71 61 72 66 73 62 74 63 75 65 76
REMARK SMILES IDX 67 77 64 78 48 79 49 80 54 81 50 82 51 83 53 84 55 85 52 86
REMARK H PARENT 17 6 22 29 72 48 46 59
REMARK Flexibility Score: inf
ROOT
ATOM      1  C   UNL A   1      36.990  20.357  25.000  1.00  0.00     0.023 C 
ENDROOT
BRANCH   1   2
ATOM      2  C   UNL A   1      37.184  21.594  24.122  1.00  0.00     0.116 C 
BRANCH   2   3
ATOM      3  N   UNL A   1      37.652  22.731  24.888  1.00  0.00    -0.356 N 
ATOM      4  C   UNL A   1      36.955  23.632  25.637  1.00  0.00     0.222 C 
ATOM      5  O   UNL A   1      37.600  24.484  26.246  1.00  0.00    -0.275 OA
ATOM      6  H   UNL A   1      38.625  22.876  24.864  1.00  0.00     0.163 HD
BRANCH   4   7
ATOM      7  C   UNL A   1      35.451  23.527  25.774  1.00  0.00     0.126 C 
BRANCH   7   8
ATOM      8  C   UNL A   1      34.674  24.084  24.570  1.00  0.00     0.103 C 
ATOM      9  N   UNL A   1      33.434  24.784  24.981  1.00  0.00    -0.345 N 
ATOM     10  C   UNL A   1      32.279  24.004  25.447  1.00  0.00     0.129 C 
ATOM     11  C   UNL A   1      31.851  22.926  24.444  1.00  0.00     0.091 C 
ATOM     12  C   UNL A   1      34.398  22.997  23.514  1.00  0.00     0.095 C 
ATOM     13  S   UNL A   1      33.188  21.755  24.055  1.00  0.00    -0.158 SA
BRANCH   9  14
ATOM     14  C   UNL A   1      33.386  26.158  24.832  1.00  0.00     0.215 A 
ATOM     15  C   UNL A   1      32.990  28.210  23.706  1.00  0.00     0.299 A 
ATOM     16  N   UNL A   1      33.273  28.934  24.804  1.00  0.00    -0.196 NA
ATOM     17  C   UNL A   1      33.071  26.835  23.669  1.00  0.00     0.372 A 
ATOM     18  C   UNL A   1      33.615  28.218  25.878  1.00  0.00     0.228 A 
ATOM     19  N   UNL A   1      33.661  26.876  25.948  1.00  0.00    -0.212 NA
BRANCH  15  20
ATOM     20  O   UNL A   1      32.671  28.950  22.597  1.00  0.00    -0.476 OA
ATOM     21  C   UNL A   1      31.294  29.325  22.636  1.00  0.00     0.280 C 
ENDBRANCH  15  20
BRANCH  17  22
ATOM     22  N   UNL A   1      32.743  26.167  22.456  1.00  0.00     0.072 N 
ATOM     23  O   UNL A   1      31.576  25.787  22.310  1.00  0.00    -0.258 OA
ATOM     24  O   UNL A   1      33.652  26.026  21.626  1.00  0.00    -0.258 OA
ENDBRANCH  17  22
ENDBRANCH   9  14
ENDBRANCH   7   8
ENDBRANCH   4   7
ENDBRANCH   2   3
ENDBRANCH   1   2
BRANCH   1  25
ATOM     25  C   UNL A   1      38.162  19.376  25.002  1.00  0.00     0.023 C 
BRANCH  25  26
ATOM     26  C   UNL A   1      39.386  19.849  25.772  1.00  0.00     0.116 C 
BRANCH  26  27
ATOM     27  N   UNL A   1      40.417  18.828  25.873  1.00  0.00    -0.352 N 
ATOM     28  C   UNL A   1      41.763  18.979  26.109  1.00  0.00     0.251 C 
ATOM     29  H   UNL A   1      40.109  17.901  25.757  1.00  0.00     0.163 HD
ATOM     30  O   UNL A   1      42.516  18.020  26.033  1.00  0.00    -0.269 OA
BRANCH  28  31
ATOM     31  C   UNL A   1      42.293  20.322  26.422  1.00  0.00     0.039 A 
ATOM     32  C   UNL A   1      42.762  21.120  25.376  1.00  0.00     0.014 A 
ATOM     33  C   UNL A   1      42.294  20.801  27.734  1.00  0.00     0.014 A 
ATOM     34  C   UNL A   1      43.169  22.428  25.639  1.00  0.00     0.010 A 
ATOM     35  C   UNL A   1      42.625  22.127  27.982  1.00  0.00     0.010 A 
ATOM     36  C   UNL A   1      43.068  22.953  26.937  1.00  0.00    -0.014 A 
BRANCH  36  37
ATOM     37  C   UNL A   1      43.421  24.364  27.227  1.00  0.00     0.031 A 
ATOM     38  C   UNL A   1      44.853  24.813  27.143  1.00  0.00     0.074 A 
ATOM     39  C   UNL A   1      42.464  25.221  27.633  1.00  0.00     0.049 A 
ATOM     40  N   UNL A   1      45.371  25.980  27.427  1.00  0.00    -0.248 NA
ATOM     41  C   UNL A   1      45.836  23.808  26.709  1.00  0.00     0.031 C 
ATOM     42  C   UNL A   1      41.047  24.892  27.803  1.00  0.00     0.029 A 
ATOM     43  N   UNL A   1      42.542  26.545  27.987  1.00  0.00    -0.354 N 
ATOM     44  C   UNL A   1      46.738  25.845  27.223  1.00  0.00     0.074 A 
ATOM     45  C   UNL A   1      46.976  24.469  26.844  1.00  0.00     0.031 C 
ATOM     46  C   UNL A   1      40.387  25.989  28.205  1.00  0.00     0.029 A 
ATOM     47  C   UNL A   1      41.335  27.087  28.357  1.00  0.00     0.049 A 
ATOM     48  H   UNL A   1      43.382  27.056  27.976  1.00  0.00     0.167 HD
ATOM     49  C   UNL A   1      47.704  26.788  27.317  1.00  0.00     0.037 A 
ATOM     50  C   UNL A   1      41.031  28.329  28.777  1.00  0.00     0.037 A 
ATOM     51  C   UNL A   1      47.461  28.162  27.667  1.00  0.00     0.049 A 
ATOM     52  C   UNL A   1      42.122  29.359  28.876  1.00  0.00     0.074 A 
ATOM     53  C   UNL A   1      48.363  29.209  27.730  1.00  0.00     0.029 A 
ATOM     54  N   UNL A   1      46.222  28.678  28.017  1.00  0.00    -0.354 N 
ATOM     55  N   UNL A   1      43.401  29.235  28.612  1.00  0.00    -0.248 NA
ATOM     56  C   UNL A   1      41.729  30.701  29.324  1.00  0.00     0.031 C 
ATOM     57  C   UNL A   1      47.677  30.351  28.158  1.00  0.00     0.029 A 
ATOM     58  C   UNL A   1      46.339  30.026  28.316  1.00  0.00     0.049 A 
ATOM     59  H   UNL A   1      45.383  28.164  28.047  1.00  0.00     0.167 HD
ATOM     60  C   UNL A   1      43.958  30.488  28.834  1.00  0.00     0.074 A 
ATOM     61  C   UNL A   1      42.876  31.359  29.242  1.00  0.00     0.031 C 
ATOM     62  C   UNL A   1      45.249  30.880  28.712  1.00  0.00     0.037 A 
BRANCH  49  63
ATOM     63  C   UNL A   1      49.115  26.362  27.029  1.00  0.00     0.057 A 
ATOM     64  C   UNL A   1      49.642  26.380  25.731  1.00  0.00     0.134 A 
ATOM     65  C   UNL A   1      49.965  25.955  28.065  1.00  0.00     0.134 A 
ATOM     66  F   UNL A   1      48.876  26.747  24.692  1.00  0.00    -0.206 F 
ATOM     67  C   UNL A   1      50.953  25.980  25.469  1.00  0.00     0.040 A 
ATOM     68  C   UNL A   1      51.287  25.580  27.819  1.00  0.00     0.040 A 
ATOM     69  F   UNL A   1      49.527  25.918  29.333  1.00  0.00    -0.206 F 
ATOM     70  C   UNL A   1      51.782  25.585  26.517  1.00  0.00     0.006 A 
ENDBRANCH  49  63
BRANCH  50  71
ATOM     71  C   UNL A   1      39.627  28.678  29.111  1.00  0.00     0.057 A 
ATOM     72  C   UNL A   1      38.763  29.196  28.140  1.00  0.00     0.134 A 
ATOM     73  C   UNL A   1      39.118  28.509  30.405  1.00  0.00     0.134 A 
ATOM     74  F   UNL A   1      39.199  29.396  26.888  1.00  0.00    -0.206 F 
ATOM     75  C   UNL A   1      37.449  29.553  28.446  1.00  0.00     0.040 A 
ATOM     76  C   UNL A   1      37.799  28.840  30.719  1.00  0.00     0.040 A 
ATOM     77  F   UNL A   1      39.894  28.010  31.379  1.00  0.00    -0.206 F 
ATOM     78  C   UNL A   1      36.962  29.370  29.739  1.00  0.00     0.006 A 
ENDBRANCH  50  71
BRANCH  62  79
ATOM     79  C   UNL A   1      45.557  32.323  28.987  1.00  0.00     0.057 A 
ATOM     80  C   UNL A   1      45.508  33.295  27.981  1.00  0.00     0.134 A 
ATOM     81  C   UNL A   1      45.866  32.749  30.285  1.00  0.00     0.134 A 
ATOM     82  F   UNL A   1      45.231  32.950  26.714  1.00  0.00    -0.206 F 
ATOM     83  C   UNL A   1      45.779  34.637  28.252  1.00  0.00     0.040 A 
ATOM     84  C   UNL A   1      46.112  34.092  30.574  1.00  0.00     0.040 A 
ATOM     85  F   UNL A   1      45.921  31.869  31.296  1.00  0.00    -0.206 F 
ATOM     86  C   UNL A   1      46.074  35.039  29.552  1.00  0.00     0.006 A 
ENDBRANCH  62  79
ENDBRANCH  36  37
ENDBRANCH  28  31
ENDBRANCH  26  27
ENDBRANCH  25  26
ENDBRANCH   1  25
TORSDOF 15
ENDMDL
MODEL 2
REMARK VINA RESULT:     -11.1      4.976     10.259
REMARK SMILES COc1ncnc(N2CCSC[C@@H]2CC(=O)NCCCCNC(=O)c2ccc(-c3c4nc(c(-c5c(F)cccc5F)c5ccc([nH]5)c(-c5c(F)cccc5F)c5nc(c(-c6c(F)cccc6F)c6ccc3[nH]6)C=C5)C=C4)cc2)c1[N+](=O)[O-]
REMARK SMILES IDX 19 1 18 2 17 3 15 4 16 5 14 7 13 8 8 9 9 10 10 11 12 12
REMARK SMILES IDX 11 13 7 14 3 15 4 16 79 17 5 18 6 19 2 20 1 21 80 22 81 23
REMARK SMILES IDX 82 24 20 25 21 26 22 27 23 28 24 30 25 31 26 32 78 33 27 34
REMARK SMILES IDX 77 35 28 36 29 37 30 38 71 39 31 40 76 41 70 42 72 43 32 44
REMARK SMILES IDX 75 45 69 46 68 47 33 49 59 50 42 51 58 52 43 53 46 54 57 55
REMARK SMILES IDX 73 56 44 57 45 58 56 60 74 61 47 62 34 63 35 64 40 65 36 66
REMARK SMILES IDX 37 67 39 68 41 69 38 70 60 71 61 72 66 73 62 74 63 75 65 76
REMARK SMILES IDX 67 77 64 78 48 79 49 80 54 81 50 82 51 83 53 84 55 85 52 86
REMARK H PARENT 17 6 22 29 72 48 46 59
REMARK Flexibility Score: inf
ROOT
ATOM      1  C   UNL A   1      31.626  30.787  26.042  1.00  0.00     0.023 C 
ENDROOT
BRANCH   1   2
ATOM      2  C   UNL A   1      32.452  29.927  26.999  1.00  0.00     0.116 C 
BRANCH   2   3
ATOM      3  N   UNL A   1      31.763  28.704  27.356  1.00  0.00    -0.356 N 
ATOM      4  C   UNL A   1      31.701  27.508  26.704  1.00  0.00     0.222 C 
ATOM      5  O   UNL A   1      31.087  26.593  27.251  1.00  0.00    -0.275 OA
ATOM      6  H   UNL A   1      31.261  28.741  28.202  1.00  0.00     0.163 HD
BRANCH   4   7
ATOM      7  C   UNL A   1      32.433  27.300  25.395  1.00  0.00     0.126 C 
BRANCH   7   8
ATOM      8  C   UNL A   1      32.106  25.966  24.703  1.00  0.00     0.103 C 
ATOM      9  N   UNL A   1      33.273  25.416  23.973  1.00  0.00    -0.345 N 
ATOM     10  C   UNL A   1      33.701  26.039  22.712  1.00  0.00     0.129 C 
ATOM     11  C   UNL A   1      32.565  26.144  21.689  1.00  0.00     0.091 C 
ATOM     12  C   UNL A   1      30.864  26.079  23.800  1.00  0.00     0.095 C 
ATOM     13  S   UNL A   1      31.138  27.085  22.313  1.00  0.00    -0.158 SA
BRANCH   9  14
ATOM     14  C   UNL A   1      33.870  24.275  24.473  1.00  0.00     0.215 A 
ATOM     15  C   UNL A   1      34.303  21.947  24.651  1.00  0.00     0.299 A 
ATOM     16  N   UNL A   1      35.276  22.139  25.559  1.00  0.00    -0.196 NA
ATOM     17  C   UNL A   1      33.558  22.976  24.117  1.00  0.00     0.372 A 
ATOM     18  C   UNL A   1      35.494  23.413  25.891  1.00  0.00     0.228 A 
ATOM     19  N   UNL A   1      34.858  24.481  25.377  1.00  0.00    -0.212 NA
BRANCH  15  20
ATOM     20  O   UNL A   1      34.061  20.634  24.336  1.00  0.00    -0.476 OA
ATOM     21  C   UNL A   1      33.307  20.011  25.376  1.00  0.00     0.280 C 
ENDBRANCH  15  20
BRANCH  17  22
ATOM     22  N   UNL A   1      32.555  22.663  23.157  1.00  0.00     0.072 N 
ATOM     23  O   UNL A   1      32.903  22.572  21.975  1.00  0.00    -0.258 OA
ATOM     24  O   UNL A   1      31.403  22.489  23.581  1.00  0.00    -0.258 OA
ENDBRANCH  17  22
ENDBRANCH   9  14
ENDBRANCH   7   8
ENDBRANCH   4   7
ENDBRANCH   2   3
ENDBRANCH   1   2
BRANCH   1  25
ATOM     25  C   UNL A   1      31.396  32.227  26.501  1.00  0.00     0.023 C 
BRANCH  25  26
ATOM     26  C   UNL A   1      32.564  32.849  27.251  1.00  0.00     0.116 C 
BRANCH  26  27
ATOM     27  N   UNL A   1      32.315  34.230  27.635  1.00  0.00    -0.352 N 
ATOM     28  C   UNL A   1      32.951  34.990  28.587  1.00  0.00     0.251 C 
ATOM     29  H   UNL A   1      31.590  34.682  27.147  1.00  0.00     0.163 HD
ATOM     30  O   UNL A   1      32.529  36.099  28.878  1.00  0.00    -0.269 OA
BRANCH  28  31
ATOM     31  C   UNL A   1      34.133  34.436  29.280  1.00  0.00     0.039 A 
ATOM     32  C   UNL A   1      33.947  33.755  30.486  1.00  0.00     0.014 A 
ATOM     33  C   UNL A   1      35.409  34.558  28.724  1.00  0.00     0.014 A 
ATOM     34  C   UNL A   1      35.037  33.137  31.100  1.00  0.00     0.010 A 
ATOM     35  C   UNL A   1      36.476  33.876  29.295  1.00  0.00     0.010 A 
ATOM     36  C   UNL A   1      36.301  33.161  30.490  1.00  0.00    -0.014 A 
BRANCH  36  37
ATOM     37  C   UNL A   1      37.456  32.446  31.083  1.00  0.00     0.031 A 
ATOM     38  C   UNL A   1      38.070  32.940  32.363  1.00  0.00     0.074 A 
ATOM     39  C   UNL A   1      37.995  31.395  30.434  1.00  0.00     0.049 A 
ATOM     40  N   UNL A   1      39.124  32.498  32.999  1.00  0.00    -0.248 NA
ATOM     41  C   UNL A   1      37.430  34.104  32.996  1.00  0.00     0.031 C 
ATOM     42  C   UNL A   1      37.522  30.852  29.159  1.00  0.00     0.029 A 
ATOM     43  N   UNL A   1      39.068  30.601  30.755  1.00  0.00    -0.354 N 
ATOM     44  C   UNL A   1      39.282  33.337  34.094  1.00  0.00     0.074 A 
ATOM     45  C   UNL A   1      38.250  34.347  34.007  1.00  0.00     0.031 C 
ATOM     46  C   UNL A   1      38.285  29.802  28.819  1.00  0.00     0.029 A 
ATOM     47  C   UNL A   1      39.322  29.620  29.829  1.00  0.00     0.049 A 
ATOM     48  H   UNL A   1      39.604  30.725  31.570  1.00  0.00     0.167 HD
ATOM     49  C   UNL A   1      40.189  33.257  35.096  1.00  0.00     0.037 A 
ATOM     50  C   UNL A   1      40.288  28.682  29.796  1.00  0.00     0.037 A 
ATOM     51  C   UNL A   1      41.197  32.236  35.194  1.00  0.00     0.049 A 
ATOM     52  C   UNL A   1      41.285  28.616  30.920  1.00  0.00     0.074 A 
ATOM     53  C   UNL A   1      42.124  32.032  36.202  1.00  0.00     0.029 A 
ATOM     54  N   UNL A   1      41.410  31.246  34.246  1.00  0.00    -0.354 N 
ATOM     55  N   UNL A   1      41.379  29.374  31.986  1.00  0.00    -0.248 NA
ATOM     56  C   UNL A   1      42.305  27.561  30.839  1.00  0.00     0.031 C 
ATOM     57  C   UNL A   1      42.926  30.943  35.843  1.00  0.00     0.029 A 
ATOM     58  C   UNL A   1      42.468  30.440  34.636  1.00  0.00     0.049 A 
ATOM     59  H   UNL A   1      40.888  31.133  33.420  1.00  0.00     0.167 HD
ATOM     60  C   UNL A   1      42.449  28.870  32.716  1.00  0.00     0.074 A 
ATOM     61  C   UNL A   1      42.962  27.736  31.976  1.00  0.00     0.031 C 
ATOM     62  C   UNL A   1      42.960  29.309  33.891  1.00  0.00     0.037 A 
BRANCH  49  63
ATOM     63  C   UNL A   1      40.124  34.305  36.170  1.00  0.00     0.057 A 
ATOM     64  C   UNL A   1      39.336  34.140  37.317  1.00  0.00     0.134 A 
ATOM     65  C   UNL A   1      40.880  35.480  36.070  1.00  0.00     0.134 A 
ATOM     66  F   UNL A   1      38.579  33.043  37.468  1.00  0.00    -0.206 F 
ATOM     67  C   UNL A   1      39.278  35.118  38.310  1.00  0.00     0.040 A 
ATOM     68  C   UNL A   1      40.851  36.453  37.071  1.00  0.00     0.040 A 
ATOM     69  F   UNL A   1      41.659  35.701  35.000  1.00  0.00    -0.206 F 
ATOM     70  C   UNL A   1      40.044  36.276  38.191  1.00  0.00     0.006 A 
ENDBRANCH  49  63
BRANCH  50  71
ATOM     71  C   UNL A   1      40.343  27.711  28.675  1.00  0.00     0.057 A 
ATOM     72  C   UNL A   1      39.641  26.501  28.734  1.00  0.00     0.134 A 
ATOM     73  C   UNL A   1      41.101  27.962  27.524  1.00  0.00     0.134 A 
ATOM     74  F   UNL A   1      38.912  26.197  29.817  1.00  0.00    -0.206 F 
ATOM     75  C   UNL A   1      39.705  25.568  27.699  1.00  0.00     0.040 A 
ATOM     76  C   UNL A   1      41.154  27.048  26.472  1.00  0.00     0.040 A 
ATOM     77  F   UNL A   1      41.790  29.107  27.404  1.00  0.00    -0.206 F 
ATOM     78  C   UNL A   1      40.460  25.843  26.560  1.00  0.00     0.006 A 
ENDBRANCH  50  71
BRANCH  62  79
ATOM     79  C   UNL A   1      44.110  28.539  34.470  1.00  0.00     0.057 A 
ATOM     80  C   UNL A   1      45.440  28.895  34.218  1.00  0.00     0.134 A 
ATOM     81  C   UNL A   1      43.881  27.451  35.322  1.00  0.00     0.134 A 
ATOM     82  F   UNL A   1      45.727  29.919  33.400  1.00  0.00    -0.206 F 
ATOM     83  C   UNL A   1      46.503  28.182  34.775  1.00  0.00     0.040 A 
ATOM     84  C   UNL A   1      44.934  26.747  35.906  1.00  0.00     0.040 A 
ATOM     85  F   UNL A   1      42.630  27.063  35.610  1.00  0.00    -0.206 F 
ATOM     86  C   UNL A   1      46.251  27.110  35.628  1.00  0.00     0.006 A 
ENDBRANCH  62  79
ENDBRANCH  36  37
ENDBRANCH  28  31
ENDBRANCH  26  27
ENDBRANCH  25  26
ENDBRANCH   1  25
TORSDOF 15
ENDMDL
MODEL 3
REMARK VINA RESULT:     -11.1      1.760      2.421
REMARK SMILES COc1ncnc(N2CCSC[C@@H]2CC(=O)NCCCCNC(=O)c2ccc(-c3c4nc(c(-c5c(F)cccc5F)c5ccc([nH]5)c(-c5c(F)cccc5F)c5nc(c(-c6c(F)cccc6F)c6ccc3[nH]6)C=C5)C=C4)cc2)c1[N+](=O)[O-]
REMARK SMILES IDX 19 1 18 2 17 3 15 4 16 5 14 7 13 8 8 9 9 10 10 11 12 12
REMARK SMILES IDX 11 13 7 14 3 15 4 16 79 17 5 18 6 19 2 20 1 21 80 22 81 23
REMARK SMILES IDX 82 24 20 25 21 26 22 27 23 28 24 30 25 31 26 32 78 33 27 34
REMARK SMILES IDX 77 35 28 36 29 37 30 38 71 39 31 40 76 41 70 42 72 43 32 44
REMARK SMILES IDX 75 45 69 46 68 47 33 49 59 50 42 51 58 52 43 53 46 54 57 55
REMARK SMILES IDX 73 56 44 57 45 58 56 60 74 61 47 62 34 63 35 64 40 65 36 66
REMARK SMILES IDX 37 67 39 68 41 69 38 70 60 71 61 72 66 73 62 74 63 75 65 76
REMARK SMILES IDX 67 77 64 78 48 79 49 80 54 81 50 82 51 83 53 84 55 85 52 86
REMARK H PARENT 17 6 22 29 72 48 46 59
REMARK Flexibility Score: inf
ROOT
ATOM      1  C   UNL A   1      39.059  22.590  26.421  1.00  0.00     0.023 C 
ENDROOT
BRANCH   1   2
ATOM      2  C   UNL A   1      37.934  23.531  25.987  1.00  0.00     0.116 C 
BRANCH   2   3
ATOM      3  N   UNL A   1      37.641  23.405  24.574  1.00  0.00    -0.356 N 
ATOM      4  C   UNL A   1      36.482  23.060  23.945  1.00  0.00     0.222 C 
ATOM      5  O   UNL A   1      36.474  23.081  22.715  1.00  0.00    -0.275 OA
ATOM      6  H   UNL A   1      38.396  23.600  23.973  1.00  0.00     0.163 HD
BRANCH   4   7
ATOM      7  C   UNL A   1      35.233  22.744  24.740  1.00  0.00     0.126 C 
BRANCH   7   8
ATOM      8  C   UNL A   1      33.942  23.308  24.124  1.00  0.00     0.103 C 
ATOM      9  N   UNL A   1      33.111  24.020  25.124  1.00  0.00    -0.345 N 
ATOM     10  C   UNL A   1      32.370  23.251  26.133  1.00  0.00     0.129 C 
ATOM     11  C   UNL A   1      31.468  22.177  25.514  1.00  0.00     0.091 C 
ATOM     12  C   UNL A   1      33.141  22.224  23.379  1.00  0.00     0.095 C 
ATOM     13  S   UNL A   1      32.388  20.993  24.483  1.00  0.00    -0.158 SA
BRANCH   9  14
ATOM     14  C   UNL A   1      33.003  25.393  25.017  1.00  0.00     0.215 A 
ATOM     15  C   UNL A   1      32.114  27.449  24.228  1.00  0.00     0.299 A 
ATOM     16  N   UNL A   1      32.905  28.170  25.043  1.00  0.00    -0.196 NA
ATOM     17  C   UNL A   1      32.160  26.074  24.158  1.00  0.00     0.372 A 
ATOM     18  C   UNL A   1      33.727  27.452  25.811  1.00  0.00     0.228 A 
ATOM     19  N   UNL A   1      33.795  26.109  25.852  1.00  0.00    -0.212 NA
BRANCH  15  20
ATOM     20  O   UNL A   1      31.294  28.192  23.418  1.00  0.00    -0.476 OA
ATOM     21  C   UNL A   1      30.770  29.307  24.139  1.00  0.00     0.280 C 
ENDBRANCH  15  20
BRANCH  17  22
ATOM     22  N   UNL A   1      31.274  25.409  23.264  1.00  0.00     0.072 N 
ATOM     23  O   UNL A   1      30.181  25.044  23.709  1.00  0.00    -0.258 OA
ATOM     24  O   UNL A   1      31.661  25.256  22.097  1.00  0.00    -0.258 OA
ENDBRANCH  17  22
ENDBRANCH   9  14
ENDBRANCH   7   8
ENDBRANCH   4   7
ENDBRANCH   2   3
ENDBRANCH   1   2
BRANCH   1  25
ATOM     25  C   UNL A   1      39.150  21.285  25.632  1.00  0.00     0.023 C 
BRANCH  25  26
ATOM     26  C   UNL A   1      39.538  20.068  26.457  1.00  0.00     0.116 C 
BRANCH  26  27
ATOM     27  N   UNL A   1      40.682  19.356  25.910  1.00  0.00    -0.352 N 
ATOM     28  C   UNL A   1      41.986  19.775  25.795  1.00  0.00     0.251 C 
ATOM     29  H   UNL A   1      40.497  18.450  25.574  1.00  0.00     0.163 HD
ATOM     30  O   UNL A   1      42.803  19.099  25.186  1.00  0.00    -0.269 OA
BRANCH  28  31
ATOM     31  C   UNL A   1      42.381  21.070  26.387  1.00  0.00     0.039 A 
ATOM     32  C   UNL A   1      42.747  22.115  25.535  1.00  0.00     0.014 A 
ATOM     33  C   UNL A   1      42.357  21.260  27.771  1.00  0.00     0.014 A 
ATOM     34  C   UNL A   1      43.023  23.373  26.070  1.00  0.00     0.010 A 
ATOM     35  C   UNL A   1      42.554  22.531  28.295  1.00  0.00     0.010 A 
ATOM     36  C   UNL A   1      42.892  23.600  27.450  1.00  0.00    -0.014 A 
BRANCH  36  37
ATOM     37  C   UNL A   1      43.104  24.947  28.032  1.00  0.00     0.031 A 
ATOM     38  C   UNL A   1      44.473  25.359  28.495  1.00  0.00     0.074 A 
ATOM     39  C   UNL A   1      42.052  25.770  28.208  1.00  0.00     0.049 A 
ATOM     40  N   UNL A   1      44.846  26.461  29.095  1.00  0.00    -0.248 NA
ATOM     41  C   UNL A   1      45.562  24.392  28.281  1.00  0.00     0.031 C 
ATOM     42  C   UNL A   1      40.666  25.465  27.848  1.00  0.00     0.029 A 
ATOM     43  N   UNL A   1      41.984  27.031  28.747  1.00  0.00    -0.354 N 
ATOM     44  C   UNL A   1      46.204  26.312  29.343  1.00  0.00     0.074 A 
ATOM     45  C   UNL A   1      46.578  24.994  28.880  1.00  0.00     0.031 C 
ATOM     46  C   UNL A   1      39.890  26.517  28.153  1.00  0.00     0.029 A 
ATOM     47  C   UNL A   1      40.715  27.555  28.763  1.00  0.00     0.049 A 
ATOM     48  H   UNL A   1      42.771  27.513  29.088  1.00  0.00     0.167 HD
ATOM     49  C   UNL A   1      47.067  27.204  29.883  1.00  0.00     0.037 A 
ATOM     50  C   UNL A   1      40.266  28.737  29.224  1.00  0.00     0.037 A 
ATOM     51  C   UNL A   1      46.697  28.525  30.318  1.00  0.00     0.049 A 
ATOM     52  C   UNL A   1      41.244  29.710  29.823  1.00  0.00     0.074 A 
ATOM     53  C   UNL A   1      47.508  29.526  30.823  1.00  0.00     0.029 A 
ATOM     54  N   UNL A   1      45.404  29.027  30.300  1.00  0.00    -0.354 N 
ATOM     55  N   UNL A   1      42.539  29.584  29.988  1.00  0.00    -0.248 NA
ATOM     56  C   UNL A   1      40.700  30.991  30.294  1.00  0.00     0.031 C 
ATOM     57  C   UNL A   1      46.700  30.620  31.149  1.00  0.00     0.029 A 
ATOM     58  C   UNL A   1      45.392  30.317  30.804  1.00  0.00     0.049 A 
ATOM     59  H   UNL A   1      44.613  28.539  29.977  1.00  0.00     0.167 HD
ATOM     60  C   UNL A   1      42.968  30.778  30.554  1.00  0.00     0.074 A 
ATOM     61  C   UNL A   1      41.797  31.618  30.692  1.00  0.00     0.031 C 
ATOM     62  C   UNL A   1      44.218  31.143  30.926  1.00  0.00     0.037 A 
BRANCH  49  63
ATOM     63  C   UNL A   1      48.499  26.778  30.028  1.00  0.00     0.057 A 
ATOM     64  C   UNL A   1      48.957  26.101  31.166  1.00  0.00     0.134 A 
ATOM     65  C   UNL A   1      49.426  27.024  29.007  1.00  0.00     0.134 A 
ATOM     66  F   UNL A   1      48.124  25.846  32.186  1.00  0.00    -0.206 F 
ATOM     67  C   UNL A   1      50.290  25.710  31.297  1.00  0.00     0.040 A 
ATOM     68  C   UNL A   1      50.756  26.612  29.114  1.00  0.00     0.040 A 
ATOM     69  F   UNL A   1      49.055  27.665  27.888  1.00  0.00    -0.206 F 
ATOM     70  C   UNL A   1      51.193  25.959  30.264  1.00  0.00     0.006 A 
ENDBRANCH  49  63
BRANCH  50  71
ATOM     71  C   UNL A   1      38.826  29.081  29.114  1.00  0.00     0.057 A 
ATOM     72  C   UNL A   1      38.279  29.509  27.899  1.00  0.00     0.134 A 
ATOM     73  C   UNL A   1      37.966  28.996  30.216  1.00  0.00     0.134 A 
ATOM     74  F   UNL A   1      39.056  29.626  26.814  1.00  0.00    -0.206 F 
ATOM     75  C   UNL A   1      36.933  29.860  27.787  1.00  0.00     0.040 A 
ATOM     76  C   UNL A   1      36.613  29.321  30.112  1.00  0.00     0.040 A 
ATOM     77  F   UNL A   1      38.428  28.585  31.406  1.00  0.00    -0.206 F 
ATOM     78  C   UNL A   1      36.094  29.761  28.896  1.00  0.00     0.006 A 
ENDBRANCH  50  71
BRANCH  62  79
ATOM     79  C   UNL A   1      44.391  32.525  31.484  1.00  0.00     0.057 A 
ATOM     80  C   UNL A   1      44.318  32.782  32.859  1.00  0.00     0.134 A 
ATOM     81  C   UNL A   1      44.674  33.605  30.638  1.00  0.00     0.134 A 
ATOM     82  F   UNL A   1      44.037  31.794  33.722  1.00  0.00    -0.206 F 
ATOM     83  C   UNL A   1      44.498  34.069  33.369  1.00  0.00     0.040 A 
ATOM     84  C   UNL A   1      44.883  34.890  31.138  1.00  0.00     0.040 A 
ATOM     85  F   UNL A   1      44.765  33.424  29.312  1.00  0.00    -0.206 F 
ATOM     86  C   UNL A   1      44.789  35.125  32.509  1.00  0.00     0.006 A 
ENDBRANCH  62  79
ENDBRANCH  36  37
ENDBRANCH  28  31
ENDBRANCH  26  27
ENDBRANCH  25  26
ENDBRANCH   1  25
TORSDOF 15
ENDMDL
