MODEL 1
REMARK VINA RESULT:      -9.8      0.000      0.000
REMARK SMILES C[C@H](C(=O)NCCCCNC(=O)c1ccc(-c2c3nc(c(-c4c(F)cccc4F)c4ccc([nH]4)c(-c4c(F)cccc4F)c4nc(c(-c5c(F)cccc5F)c5ccc2[nH]5)C=C4)C=C3)cc1)S(=O)(=O)NC1COC1
REMARK SMILES IDX 7 1 6 2 5 3 3 4 4 5 2 7 1 8 67 9 68 10 69 11 70 12 71 14
REMARK SMILES IDX 72 15 74 16 73 17 8 18 9 19 10 20 11 21 12 23 13 24 14 25
REMARK SMILES IDX 66 26 15 27 65 28 16 29 17 30 18 31 59 32 19 33 64 34 58 35
REMARK SMILES IDX 60 36 20 37 63 38 57 39 56 40 21 42 47 43 30 44 46 45 31 46
REMARK SMILES IDX 34 47 45 48 61 49 32 50 33 51 44 53 62 54 35 55 22 56 23 57
REMARK SMILES IDX 28 58 24 59 25 60 27 61 29 62 26 63 48 64 49 65 54 66 50 67
REMARK SMILES IDX 51 68 53 69 55 70 52 71 36 72 37 73 42 74 38 75 39 76 41 77
REMARK SMILES IDX 43 78 40 79
REMARK H PARENT 5 6 70 13 10 22 60 41 34 52
REMARK Flexibility Score: inf
ROOT
ATOM      1  C   UNL A   1      42.460  22.462  28.719  1.00  0.00     0.023 C 
ENDROOT
BRANCH   1   2
ATOM      2  C   UNL A   1      43.115  23.755  28.229  1.00  0.00     0.116 C 
BRANCH   2   3
ATOM      3  N   UNL A   1      44.557  23.637  28.108  1.00  0.00    -0.355 N 
ATOM      4  C   UNL A   1      45.377  23.834  27.039  1.00  0.00     0.239 C 
ATOM      5  O   UNL A   1      46.586  23.706  27.254  1.00  0.00    -0.274 OA
ATOM      6  H   UNL A   1      45.019  23.369  28.936  1.00  0.00     0.163 HD
BRANCH   4   7
ATOM      7  C   UNL A   1      44.848  24.250  25.686  1.00  0.00     0.209 C 
ATOM      8  C   UNL A   1      45.516  25.541  25.213  1.00  0.00     0.037 C 
BRANCH   7   9
ATOM      9  S   UNL A   1      45.067  22.940  24.476  1.00  0.00     0.223 S 
ATOM     10  O   UNL A   1      43.908  22.855  23.620  1.00  0.00    -0.212 OA
ATOM     11  O   UNL A   1      46.374  23.097  23.870  1.00  0.00    -0.212 OA
BRANCH   9  12
ATOM     12  N   UNL A   1      45.160  21.502  25.320  1.00  0.00    -0.207 NA
ATOM     13  H   UNL A   1      44.284  21.446  25.839  1.00  0.00     0.141 HD
BRANCH  12  14
ATOM     14  C   UNL A   1      45.361  20.128  24.756  1.00  0.00     0.121 C 
ATOM     15  C   UNL A   1      46.402  19.180  25.375  1.00  0.00     0.182 C 
ATOM     16  C   UNL A   1      44.371  19.018  25.146  1.00  0.00     0.182 C 
ATOM     17  O   UNL A   1      45.458  18.078  25.351  1.00  0.00    -0.378 OA
ENDBRANCH  12  14
ENDBRANCH   9  12
ENDBRANCH   7   9
ENDBRANCH   4   7
ENDBRANCH   2   3
ENDBRANCH   1   2
BRANCH   1  18
ATOM     18  C   UNL A   1      42.209  21.399  27.650  1.00  0.00     0.023 C 
BRANCH  18  19
ATOM     19  C   UNL A   1      41.767  21.930  26.295  1.00  0.00     0.116 C 
BRANCH  19  20
ATOM     20  N   UNL A   1      40.346  21.742  26.050  1.00  0.00    -0.352 N 
ATOM     21  C   UNL A   1      39.296  22.602  26.259  1.00  0.00     0.251 C 
ATOM     22  H   UNL A   1      40.100  20.864  25.679  1.00  0.00     0.163 HD
ATOM     23  O   UNL A   1      38.143  22.203  26.127  1.00  0.00    -0.269 OA
BRANCH  21  24
ATOM     24  C   UNL A   1      39.550  23.998  26.677  1.00  0.00     0.039 A 
ATOM     25  C   UNL A   1      39.315  24.354  28.007  1.00  0.00     0.014 A 
ATOM     26  C   UNL A   1      40.025  24.950  25.771  1.00  0.00     0.014 A 
ATOM     27  C   UNL A   1      39.631  25.641  28.446  1.00  0.00     0.010 A 
ATOM     28  C   UNL A   1      40.416  26.205  26.226  1.00  0.00     0.010 A 
ATOM     29  C   UNL A   1      40.229  26.563  27.570  1.00  0.00    -0.014 A 
BRANCH  29  30
ATOM     30  C   UNL A   1      40.687  27.893  28.049  1.00  0.00     0.031 A 
ATOM     31  C   UNL A   1      42.153  28.220  28.105  1.00  0.00     0.074 A 
ATOM     32  C   UNL A   1      39.779  28.783  28.498  1.00  0.00     0.049 A 
ATOM     33  N   UNL A   1      42.742  29.298  28.556  1.00  0.00    -0.248 NA
ATOM     34  C   UNL A   1      43.083  27.190  27.612  1.00  0.00     0.031 C 
ATOM     35  C   UNL A   1      38.331  28.568  28.545  1.00  0.00     0.029 A 
ATOM     36  N   UNL A   1      39.942  30.045  29.015  1.00  0.00    -0.354 N 
ATOM     37  C   UNL A   1      44.105  29.074  28.412  1.00  0.00     0.074 A 
ATOM     38  C   UNL A   1      44.260  27.737  27.881  1.00  0.00     0.031 C 
ATOM     39  C   UNL A   1      37.738  29.666  29.037  1.00  0.00     0.029 A 
ATOM     40  C   UNL A   1      38.762  30.646  29.384  1.00  0.00     0.049 A 
ATOM     41  H   UNL A   1      40.821  30.479  29.110  1.00  0.00     0.167 HD
ATOM     42  C   UNL A   1      45.134  29.914  28.678  1.00  0.00     0.037 A 
ATOM     43  C   UNL A   1      38.531  31.846  29.950  1.00  0.00     0.037 A 
ATOM     44  C   UNL A   1      44.977  31.252  29.187  1.00  0.00     0.049 A 
ATOM     45  C   UNL A   1      39.694  32.752  30.249  1.00  0.00     0.074 A 
ATOM     46  C   UNL A   1      45.955  32.201  29.428  1.00  0.00     0.029 A 
ATOM     47  N   UNL A   1      43.765  31.829  29.535  1.00  0.00    -0.354 N 
ATOM     48  N   UNL A   1      40.973  32.554  30.037  1.00  0.00    -0.248 NA
ATOM     49  C   UNL A   1      39.381  34.050  30.861  1.00  0.00     0.031 C 
ATOM     50  C   UNL A   1      45.340  33.334  29.972  1.00  0.00     0.029 A 
ATOM     51  C   UNL A   1      43.974  33.112  30.016  1.00  0.00     0.049 A 
ATOM     52  H   UNL A   1      42.887  31.392  29.453  1.00  0.00     0.167 HD
ATOM     53  C   UNL A   1      41.612  33.712  30.460  1.00  0.00     0.074 A 
ATOM     54  C   UNL A   1      40.579  34.614  30.925  1.00  0.00     0.031 C 
ATOM     55  C   UNL A   1      42.936  34.002  30.466  1.00  0.00     0.037 A 
BRANCH  42  56
ATOM     56  C   UNL A   1      46.527  29.417  28.422  1.00  0.00     0.057 A 
ATOM     57  C   UNL A   1      47.278  28.776  29.417  1.00  0.00     0.134 A 
ATOM     58  C   UNL A   1      47.103  29.526  27.150  1.00  0.00     0.134 A 
ATOM     59  F   UNL A   1      46.791  28.648  30.660  1.00  0.00    -0.206 F 
ATOM     60  C   UNL A   1      48.557  28.278  29.159  1.00  0.00     0.040 A 
ATOM     61  C   UNL A   1      48.369  29.007  26.874  1.00  0.00     0.040 A 
ATOM     62  F   UNL A   1      46.436  30.122  26.148  1.00  0.00    -0.206 F 
ATOM     63  C   UNL A   1      49.102  28.385  27.882  1.00  0.00     0.006 A 
ENDBRANCH  42  56
BRANCH  43  64
ATOM     64  C   UNL A   1      37.144  32.270  30.269  1.00  0.00     0.057 A 
ATOM     65  C   UNL A   1      36.550  31.941  31.494  1.00  0.00     0.134 A 
ATOM     66  C   UNL A   1      36.368  32.988  29.352  1.00  0.00     0.134 A 
ATOM     67  F   UNL A   1      37.235  31.235  32.407  1.00  0.00    -0.206 F 
ATOM     68  C   UNL A   1      35.228  32.283  31.782  1.00  0.00     0.040 A 
ATOM     69  C   UNL A   1      35.055  33.364  29.639  1.00  0.00     0.040 A 
ATOM     70  F   UNL A   1      36.879  33.343  28.163  1.00  0.00    -0.206 F 
ATOM     71  C   UNL A   1      34.478  33.001  30.854  1.00  0.00     0.006 A 
ENDBRANCH  43  64
BRANCH  55  72
ATOM     72  C   UNL A   1      43.339  35.364  30.953  1.00  0.00     0.057 A 
ATOM     73  C   UNL A   1      43.574  35.628  32.308  1.00  0.00     0.134 A 
ATOM     74  C   UNL A   1      43.531  36.415  30.047  1.00  0.00     0.134 A 
ATOM     75  F   UNL A   1      43.396  34.667  33.229  1.00  0.00    -0.206 F 
ATOM     76  C   UNL A   1      43.957  36.896  32.749  1.00  0.00     0.040 A 
ATOM     77  C   UNL A   1      43.943  37.679  30.472  1.00  0.00     0.040 A 
ATOM     78  F   UNL A   1      43.334  36.228  28.733  1.00  0.00    -0.206 F 
ATOM     79  C   UNL A   1      44.150  37.923  31.827  1.00  0.00     0.006 A 
ENDBRANCH  55  72
ENDBRANCH  29  30
ENDBRANCH  21  24
ENDBRANCH  19  20
ENDBRANCH  18  19
ENDBRANCH   1  18
TORSDOF 14
ENDMDL
MODEL 2
REMARK VINA RESULT:      -9.6      1.758      2.282
REMARK SMILES C[C@H](C(=O)NCCCCNC(=O)c1ccc(-c2c3nc(c(-c4c(F)cccc4F)c4ccc([nH]4)c(-c4c(F)cccc4F)c4nc(c(-c5c(F)cccc5F)c5ccc2[nH]5)C=C4)C=C3)cc1)S(=O)(=O)NC1COC1
REMARK SMILES IDX 7 1 6 2 5 3 3 4 4 5 2 7 1 8 67 9 68 10 69 11 70 12 71 14
REMARK SMILES IDX 72 15 74 16 73 17 8 18 9 19 10 20 11 21 12 23 13 24 14 25
REMARK SMILES IDX 66 26 15 27 65 28 16 29 17 30 18 31 59 32 19 33 64 34 58 35
REMARK SMILES IDX 60 36 20 37 63 38 57 39 56 40 21 42 47 43 30 44 46 45 31 46
REMARK SMILES IDX 34 47 45 48 61 49 32 50 33 51 44 53 62 54 35 55 22 56 23 57
REMARK SMILES IDX 28 58 24 59 25 60 27 61 29 62 26 63 48 64 49 65 54 66 50 67
REMARK SMILES IDX 51 68 53 69 55 70 52 71 36 72 37 73 42 74 38 75 39 76 41 77
REMARK SMILES IDX 43 78 40 79
REMARK H PARENT 5 6 70 13 10 22 60 41 34 52
REMARK Flexibility Score: inf
ROOT
ATOM      1  C   UNL A   1      42.607  22.898  28.946  1.00  0.00     0.023 C 
ENDROOT
BRANCH   1   2
ATOM      2  C   UNL A   1      43.330  24.077  28.294  1.00  0.00     0.116 C 
BRANCH   2   3
ATOM      3  N   UNL A   1      44.748  23.826  28.105  1.00  0.00    -0.355 N 
ATOM      4  C   UNL A   1      45.516  23.871  26.981  1.00  0.00     0.239 C 
ATOM      5  O   UNL A   1      46.721  23.656  27.141  1.00  0.00    -0.274 OA
ATOM      6  H   UNL A   1      45.235  23.582  28.926  1.00  0.00     0.163 HD
BRANCH   4   7
ATOM      7  C   UNL A   1      44.943  24.229  25.631  1.00  0.00     0.209 C 
ATOM      8  C   UNL A   1      45.536  25.540  25.115  1.00  0.00     0.037 C 
BRANCH   7   9
ATOM      9  S   UNL A   1      45.205  22.904  24.446  1.00  0.00     0.223 S 
ATOM     10  O   UNL A   1      44.051  22.767  23.589  1.00  0.00    -0.212 OA
ATOM     11  O   UNL A   1      46.508  23.088  23.840  1.00  0.00    -0.212 OA
BRANCH   9  12
ATOM     12  N   UNL A   1      45.337  21.485  25.317  1.00  0.00    -0.207 NA
ATOM     13  H   UNL A   1      44.546  21.498  25.959  1.00  0.00     0.141 HD
BRANCH  12  14
ATOM     14  C   UNL A   1      45.373  20.086  24.778  1.00  0.00     0.121 C 
ATOM     15  C   UNL A   1      46.408  19.078  25.307  1.00  0.00     0.182 C 
ATOM     16  C   UNL A   1      44.358  19.064  25.312  1.00  0.00     0.182 C 
ATOM     17  O   UNL A   1      45.390  18.050  25.424  1.00  0.00    -0.378 OA
ENDBRANCH  12  14
ENDBRANCH   9  12
ENDBRANCH   7   9
ENDBRANCH   4   7
ENDBRANCH   2   3
ENDBRANCH   1   2
BRANCH   1  18
ATOM     18  C   UNL A   1      41.956  21.905  27.984  1.00  0.00     0.023 C 
BRANCH  18  19
ATOM     19  C   UNL A   1      41.836  22.379  26.543  1.00  0.00     0.116 C 
BRANCH  19  20
ATOM     20  N   UNL A   1      40.480  22.277  26.026  1.00  0.00    -0.352 N 
ATOM     21  C   UNL A   1      39.411  23.122  26.191  1.00  0.00     0.251 C 
ATOM     22  H   UNL A   1      40.303  21.481  25.475  1.00  0.00     0.163 HD
ATOM     23  O   UNL A   1      38.298  22.787  25.794  1.00  0.00    -0.269 OA
BRANCH  21  24
ATOM     24  C   UNL A   1      39.587  24.421  26.876  1.00  0.00     0.039 A 
ATOM     25  C   UNL A   1      39.125  24.557  28.188  1.00  0.00     0.014 A 
ATOM     26  C   UNL A   1      40.212  25.496  26.239  1.00  0.00     0.014 A 
ATOM     27  C   UNL A   1      39.360  25.743  28.886  1.00  0.00     0.010 A 
ATOM     28  C   UNL A   1      40.517  26.647  26.961  1.00  0.00     0.010 A 
ATOM     29  C   UNL A   1      40.100  26.780  28.294  1.00  0.00    -0.014 A 
BRANCH  29  30
ATOM     30  C   UNL A   1      40.467  27.998  29.063  1.00  0.00     0.031 A 
ATOM     31  C   UNL A   1      41.817  28.109  29.715  1.00  0.00     0.074 A 
ATOM     32  C   UNL A   1      39.555  28.976  29.228  1.00  0.00     0.049 A 
ATOM     33  N   UNL A   1      42.289  29.062  30.479  1.00  0.00    -0.248 NA
ATOM     34  C   UNL A   1      42.753  26.993  29.502  1.00  0.00     0.031 C 
ATOM     35  C   UNL A   1      38.193  28.966  28.690  1.00  0.00     0.029 A 
ATOM     36  N   UNL A   1      39.631  30.166  29.910  1.00  0.00    -0.354 N 
ATOM     37  C   UNL A   1      43.566  28.656  30.845  1.00  0.00     0.074 A 
ATOM     38  C   UNL A   1      43.778  27.349  30.264  1.00  0.00     0.031 C 
ATOM     39  C   UNL A   1      37.571  30.102  29.040  1.00  0.00     0.029 A 
ATOM     40  C   UNL A   1      38.470  30.902  29.865  1.00  0.00     0.049 A 
ATOM     41  H   UNL A   1      40.440  30.464  30.386  1.00  0.00     0.167 HD
ATOM     42  C   UNL A   1      44.487  29.323  31.581  1.00  0.00     0.037 A 
ATOM     43  C   UNL A   1      38.162  32.083  30.433  1.00  0.00     0.037 A 
ATOM     44  C   UNL A   1      44.282  30.633  32.141  1.00  0.00     0.049 A 
ATOM     45  C   UNL A   1      39.199  32.794  31.258  1.00  0.00     0.074 A 
ATOM     46  C   UNL A   1      45.178  31.417  32.848  1.00  0.00     0.029 A 
ATOM     47  N   UNL A   1      43.099  31.352  32.062  1.00  0.00    -0.354 N 
ATOM     48  N   UNL A   1      40.429  32.432  31.532  1.00  0.00    -0.248 NA
ATOM     49  C   UNL A   1      38.807  34.081  31.850  1.00  0.00     0.031 C 
ATOM     50  C   UNL A   1      44.521  32.587  33.241  1.00  0.00     0.029 A 
ATOM     51  C   UNL A   1      43.234  32.559  32.731  1.00  0.00     0.049 A 
ATOM     52  H   UNL A   1      42.285  31.051  31.598  1.00  0.00     0.167 HD
ATOM     53  C   UNL A   1      40.966  33.457  32.300  1.00  0.00     0.074 A 
ATOM     54  C   UNL A   1      39.934  34.464  32.433  1.00  0.00     0.031 C 
ATOM     55  C   UNL A   1      42.201  33.555  32.847  1.00  0.00     0.037 A 
BRANCH  42  56
ATOM     56  C   UNL A   1      45.808  28.652  31.824  1.00  0.00     0.057 A 
ATOM     57  C   UNL A   1      46.013  27.799  32.917  1.00  0.00     0.134 A 
ATOM     58  C   UNL A   1      46.867  28.811  30.923  1.00  0.00     0.134 A 
ATOM     59  F   UNL A   1      45.044  27.611  33.825  1.00  0.00    -0.206 F 
ATOM     60  C   UNL A   1      47.230  27.144  33.113  1.00  0.00     0.040 A 
ATOM     61  C   UNL A   1      48.079  28.139  31.093  1.00  0.00     0.040 A 
ATOM     62  F   UNL A   1      46.737  29.608  29.850  1.00  0.00    -0.206 F 
ATOM     63  C   UNL A   1      48.265  27.306  32.194  1.00  0.00     0.006 A 
ENDBRANCH  42  56
BRANCH  43  64
ATOM     64  C   UNL A   1      36.814  32.678  30.242  1.00  0.00     0.057 A 
ATOM     65  C   UNL A   1      36.544  33.527  29.161  1.00  0.00     0.134 A 
ATOM     66  C   UNL A   1      35.773  32.437  31.146  1.00  0.00     0.134 A 
ATOM     67  F   UNL A   1      37.506  33.813  28.272  1.00  0.00    -0.206 F 
ATOM     68  C   UNL A   1      35.299  34.137  29.003  1.00  0.00     0.040 A 
ATOM     69  C   UNL A   1      34.514  33.017  30.983  1.00  0.00     0.040 A 
ATOM     70  F   UNL A   1      35.962  31.626  32.198  1.00  0.00    -0.206 F 
ATOM     71  C   UNL A   1      34.278  33.879  29.915  1.00  0.00     0.006 A 
ENDBRANCH  43  64
BRANCH  55  72
ATOM     72  C   UNL A   1      42.520  34.812  33.606  1.00  0.00     0.057 A 
ATOM     73  C   UNL A   1      42.291  34.925  34.983  1.00  0.00     0.134 A 
ATOM     74  C   UNL A   1      43.095  35.910  32.954  1.00  0.00     0.134 A 
ATOM     75  F   UNL A   1      41.730  33.913  35.665  1.00  0.00    -0.206 F 
ATOM     76  C   UNL A   1      42.599  36.094  35.680  1.00  0.00     0.040 A 
ATOM     77  C   UNL A   1      43.435  37.074  33.646  1.00  0.00     0.040 A 
ATOM     78  F   UNL A   1      43.350  35.865  31.637  1.00  0.00    -0.206 F 
ATOM     79  C   UNL A   1      43.180  37.170  35.011  1.00  0.00     0.006 A 
ENDBRANCH  55  72
ENDBRANCH  29  30
ENDBRANCH  21  24
ENDBRANCH  19  20
ENDBRANCH  18  19
ENDBRANCH   1  18
TORSDOF 14
ENDMDL
MODEL 3
REMARK VINA RESULT:      -9.6      6.191     10.586
REMARK SMILES C[C@H](C(=O)NCCCCNC(=O)c1ccc(-c2c3nc(c(-c4c(F)cccc4F)c4ccc([nH]4)c(-c4c(F)cccc4F)c4nc(c(-c5c(F)cccc5F)c5ccc2[nH]5)C=C4)C=C3)cc1)S(=O)(=O)NC1COC1
REMARK SMILES IDX 7 1 6 2 5 3 3 4 4 5 2 7 1 8 67 9 68 10 69 11 70 12 71 14
REMARK SMILES IDX 72 15 74 16 73 17 8 18 9 19 10 20 11 21 12 23 13 24 14 25
REMARK SMILES IDX 66 26 15 27 65 28 16 29 17 30 18 31 59 32 19 33 64 34 58 35
REMARK SMILES IDX 60 36 20 37 63 38 57 39 56 40 21 42 47 43 30 44 46 45 31 46
REMARK SMILES IDX 34 47 45 48 61 49 32 50 33 51 44 53 62 54 35 55 22 56 23 57
REMARK SMILES IDX 28 58 24 59 25 60 27 61 29 62 26 63 48 64 49 65 54 66 50 67
REMARK SMILES IDX 51 68 53 69 55 70 52 71 36 72 37 73 42 74 38 75 39 76 41 77
REMARK SMILES IDX 43 78 40 79
REMARK H PARENT 5 6 70 13 10 22 60 41 34 52
REMARK Flexibility Score: inf
ROOT
ATOM      1  C   UNL A   1      31.775  30.447  26.611  1.00  0.00     0.023 C 
ENDROOT
BRANCH   1   2
ATOM      2  C   UNL A   1      33.030  30.086  25.814  1.00  0.00     0.116 C 
BRANCH   2   3
ATOM      3  N   UNL A   1      33.250  28.652  25.740  1.00  0.00    -0.355 N 
ATOM      4  C   UNL A   1      33.116  27.786  24.698  1.00  0.00     0.239 C 
ATOM      5  O   UNL A   1      33.428  26.614  24.926  1.00  0.00    -0.274 OA
ATOM      6  H   UNL A   1      33.544  28.238  26.584  1.00  0.00     0.163 HD
BRANCH   4   7
ATOM      7  C   UNL A   1      32.677  28.242  23.326  1.00  0.00     0.209 C 
ATOM      8  C   UNL A   1      33.264  27.342  22.239  1.00  0.00     0.037 C 
BRANCH   7   9
ATOM      9  S   UNL A   1      30.885  28.296  23.206  1.00  0.00     0.223 S 
ATOM     10  O   UNL A   1      30.455  27.763  21.936  1.00  0.00    -0.212 OA
ATOM     11  O   UNL A   1      30.331  27.736  24.423  1.00  0.00    -0.212 OA
BRANCH   9  12
ATOM     12  N   UNL A   1      30.439  29.906  23.238  1.00  0.00    -0.207 NA
ATOM     13  H   UNL A   1      31.169  30.389  22.715  1.00  0.00     0.141 HD
BRANCH  12  14
ATOM     14  C   UNL A   1      29.155  30.503  22.748  1.00  0.00     0.121 C 
ATOM     15  C   UNL A   1      27.812  29.827  23.074  1.00  0.00     0.182 C 
ATOM     16  C   UNL A   1      28.550  31.687  23.520  1.00  0.00     0.182 C 
ATOM     17  O   UNL A   1      27.224  31.104  23.439  1.00  0.00    -0.378 OA
ENDBRANCH  12  14
ENDBRANCH   9  12
ENDBRANCH   7   9
ENDBRANCH   4   7
ENDBRANCH   2   3
ENDBRANCH   1   2
BRANCH   1  18
ATOM     18  C   UNL A   1      31.535  31.940  26.830  1.00  0.00     0.023 C 
BRANCH  18  19
ATOM     19  C   UNL A   1      32.751  32.736  27.279  1.00  0.00     0.116 C 
BRANCH  19  20
ATOM     20  N   UNL A   1      32.431  34.112  27.622  1.00  0.00    -0.352 N 
ATOM     21  C   UNL A   1      32.989  34.935  28.569  1.00  0.00     0.251 C 
ATOM     22  H   UNL A   1      31.703  34.515  27.095  1.00  0.00     0.163 HD
ATOM     23  O   UNL A   1      32.479  36.025  28.810  1.00  0.00    -0.269 OA
BRANCH  21  24
ATOM     24  C   UNL A   1      34.182  34.497  29.325  1.00  0.00     0.039 A 
ATOM     25  C   UNL A   1      34.006  33.931  30.590  1.00  0.00     0.014 A 
ATOM     26  C   UNL A   1      35.467  34.632  28.792  1.00  0.00     0.014 A 
ATOM     27  C   UNL A   1      35.108  33.429  31.285  1.00  0.00     0.010 A 
ATOM     28  C   UNL A   1      36.553  34.059  29.447  1.00  0.00     0.010 A 
ATOM     29  C   UNL A   1      36.384  33.445  30.698  1.00  0.00    -0.014 A 
BRANCH  29  30
ATOM     30  C   UNL A   1      37.546  32.804  31.366  1.00  0.00     0.031 A 
ATOM     31  C   UNL A   1      38.205  31.597  30.758  1.00  0.00     0.074 A 
ATOM     32  C   UNL A   1      37.965  33.273  32.559  1.00  0.00     0.049 A 
ATOM     33  N   UNL A   1      39.182  30.865  31.230  1.00  0.00    -0.248 NA
ATOM     34  C   UNL A   1      37.680  31.135  29.463  1.00  0.00     0.031 C 
ATOM     35  C   UNL A   1      37.378  34.405  33.279  1.00  0.00     0.029 A 
ATOM     36  N   UNL A   1      38.976  32.846  33.384  1.00  0.00    -0.354 N 
ATOM     37  C   UNL A   1      39.382  29.854  30.298  1.00  0.00     0.074 A 
ATOM     38  C   UNL A   1      38.391  30.034  29.259  1.00  0.00     0.031 C 
ATOM     39  C   UNL A   1      38.052  34.598  34.423  1.00  0.00     0.029 A 
ATOM     40  C   UNL A   1      39.089  33.578  34.543  1.00  0.00     0.049 A 
ATOM     41  H   UNL A   1      39.565  32.087  33.167  1.00  0.00     0.167 HD
ATOM     42  C   UNL A   1      40.320  28.877  30.297  1.00  0.00     0.037 A 
ATOM     43  C   UNL A   1      39.925  33.437  35.588  1.00  0.00     0.037 A 
ATOM     44  C   UNL A   1      41.319  28.713  31.320  1.00  0.00     0.049 A 
ATOM     45  C   UNL A   1      40.947  32.333  35.567  1.00  0.00     0.074 A 
ATOM     46  C   UNL A   1      42.352  27.792  31.375  1.00  0.00     0.029 A 
ATOM     47  N   UNL A   1      41.410  29.483  32.470  1.00  0.00    -0.354 N 
ATOM     48  N   UNL A   1      41.172  31.432  34.643  1.00  0.00    -0.248 NA
ATOM     49  C   UNL A   1      41.835  32.231  36.734  1.00  0.00     0.031 C 
ATOM     50  C   UNL A   1      43.035  27.971  32.582  1.00  0.00     0.029 A 
ATOM     51  C   UNL A   1      42.464  29.040  33.253  1.00  0.00     0.049 A 
ATOM     52  H   UNL A   1      40.814  30.233  32.695  1.00  0.00     0.167 HD
ATOM     53  C   UNL A   1      42.243  30.677  35.100  1.00  0.00     0.074 A 
ATOM     54  C   UNL A   1      42.635  31.237  36.376  1.00  0.00     0.031 C 
ATOM     55  C   UNL A   1      42.848  29.613  34.517  1.00  0.00     0.037 A 
BRANCH  42  56
ATOM     56  C   UNL A   1      40.319  27.908  29.151  1.00  0.00     0.057 A 
ATOM     57  C   UNL A   1      39.546  26.739  29.173  1.00  0.00     0.134 A 
ATOM     58  C   UNL A   1      41.052  28.174  27.988  1.00  0.00     0.134 A 
ATOM     59  F   UNL A   1      38.829  26.418  30.260  1.00  0.00    -0.206 F 
ATOM     60  C   UNL A   1      39.516  25.863  28.086  1.00  0.00     0.040 A 
ATOM     61  C   UNL A   1      41.008  27.320  26.884  1.00  0.00     0.040 A 
ATOM     62  F   UNL A   1      41.809  29.279  27.896  1.00  0.00    -0.206 F 
ATOM     63  C   UNL A   1      40.241  26.157  26.934  1.00  0.00     0.006 A 
ENDBRANCH  42  56
BRANCH  43  64
ATOM     64  C   UNL A   1      39.840  34.364  36.746  1.00  0.00     0.057 A 
ATOM     65  C   UNL A   1      39.121  34.020  37.898  1.00  0.00     0.134 A 
ATOM     66  C   UNL A   1      40.451  35.623  36.722  1.00  0.00     0.134 A 
ATOM     67  F   UNL A   1      38.497  32.835  37.974  1.00  0.00    -0.206 F 
ATOM     68  C   UNL A   1      38.986  34.906  38.968  1.00  0.00     0.040 A 
ATOM     69  C   UNL A   1      40.349  36.507  37.797  1.00  0.00     0.040 A 
ATOM     70  F   UNL A   1      41.162  36.011  35.652  1.00  0.00    -0.206 F 
ATOM     71  C   UNL A   1      39.606  36.153  38.921  1.00  0.00     0.006 A 
ENDBRANCH  43  64
BRANCH  55  72
ATOM     72  C   UNL A   1      44.022  29.011  35.234  1.00  0.00     0.057 A 
ATOM     73  C   UNL A   1      45.338  29.415  34.973  1.00  0.00     0.134 A 
ATOM     74  C   UNL A   1      43.829  28.039  36.224  1.00  0.00     0.134 A 
ATOM     75  F   UNL A   1      45.592  30.333  34.027  1.00  0.00    -0.206 F 
ATOM     76  C   UNL A   1      46.421  28.855  35.651  1.00  0.00     0.040 A 
ATOM     77  C   UNL A   1      44.902  27.493  36.931  1.00  0.00     0.040 A 
ATOM     78  F   UNL A   1      42.594  27.614  36.531  1.00  0.00    -0.206 F 
ATOM     79  C   UNL A   1      46.203  27.896  36.639  1.00  0.00     0.006 A 
ENDBRANCH  55  72
ENDBRANCH  29  30
ENDBRANCH  21  24
ENDBRANCH  19  20
ENDBRANCH  18  19
ENDBRANCH   1  18
TORSDOF 14
ENDMDL
