MODEL 1
REMARK VINA RESULT:     -10.9      0.000      0.000
REMARK SMILES N#CCc1ccc(OCC(=O)NCCCCNC(=O)c2ccc(-c3c4nc(c(-c5c(F)cccc5F)c5ccc([nH]5)c(-c5c(F)cccc5F)c5nc(c(-c6c(F)cccc6F)c6ccc3[nH]6)C=C5)C=C4)cc2)cc1
REMARK SMILES IDX 13 1 12 2 10 3 11 4 9 6 8 7 7 8 4 9 5 10 75 11 6 12 74 13
REMARK SMILES IDX 3 14 2 15 1 16 14 17 15 18 16 19 17 20 18 21 19 23 20 24
REMARK SMILES IDX 21 25 73 26 22 27 72 28 23 29 24 30 25 31 66 32 26 33 71 34
REMARK SMILES IDX 65 35 67 36 27 37 70 38 64 39 63 40 28 42 54 43 37 44 53 45
REMARK SMILES IDX 38 46 41 47 52 48 68 49 39 50 40 51 51 53 69 54 42 55 29 56
REMARK SMILES IDX 30 57 35 58 31 59 32 60 34 61 36 62 33 63 55 64 56 65 61 66
REMARK SMILES IDX 57 67 58 68 60 69 62 70 59 71 43 72 44 73 49 74 45 75 46 76
REMARK SMILES IDX 48 77 50 78 47 79
REMARK H PARENT 12 5 17 22 67 41 41 52
REMARK Flexibility Score: inf
ROOT
ATOM      1  C   UNL A   1      32.496  29.649  26.781  1.00  0.00     0.116 C 
ENDROOT
BRANCH   1   2
ATOM      2  N   UNL A   1      31.709  28.490  27.150  1.00  0.00    -0.353 N 
ATOM      3  C   UNL A   1      31.493  27.349  26.432  1.00  0.00     0.257 C 
ATOM      4  O   UNL A   1      30.828  26.444  26.943  1.00  0.00    -0.271 OA
ATOM      5  H   UNL A   1      31.273  28.530  28.033  1.00  0.00     0.163 HD
BRANCH   3   6
ATOM      6  C   UNL A   1      32.115  27.195  25.037  1.00  0.00     0.329 C 
BRANCH   6   7
ATOM      7  O   UNL A   1      31.238  26.856  23.972  1.00  0.00    -0.484 OA
BRANCH   7   8
ATOM      8  C   UNL A   1      30.551  27.876  23.373  1.00  0.00     0.120 A 
ATOM      9  C   UNL A   1      28.895  29.761  22.098  1.00  0.00    -0.034 A 
ATOM     10  C   UNL A   1      28.337  28.750  22.888  1.00  0.00     0.008 A 
ATOM     11  C   UNL A   1      30.293  29.854  22.010  1.00  0.00     0.008 A 
ATOM     12  C   UNL A   1      29.164  27.820  23.523  1.00  0.00     0.047 A 
ATOM     13  C   UNL A   1      31.114  28.917  22.640  1.00  0.00     0.047 A 
BRANCH   9  14
ATOM     14  C   UNL A   1      28.021  30.714  21.318  1.00  0.00     0.155 C 
BRANCH  14  15
ATOM     15  C   UNL A   1      28.172  32.127  21.858  1.00  0.00     0.067 C 
ATOM     16  N   UNL A   1      28.298  33.299  22.306  1.00  0.00    -0.198 NA
ENDBRANCH  14  15
ENDBRANCH   9  14
ENDBRANCH   7   8
ENDBRANCH   6   7
ENDBRANCH   3   6
ENDBRANCH   1   2
BRANCH   1  17
ATOM     17  C   UNL A   1      31.694  30.663  25.966  1.00  0.00     0.023 C 
BRANCH  17  18
ATOM     18  C   UNL A   1      31.388  31.980  26.683  1.00  0.00     0.023 C 
BRANCH  18  19
ATOM     19  C   UNL A   1      32.594  32.714  27.261  1.00  0.00     0.116 C 
BRANCH  19  20
ATOM     20  N   UNL A   1      32.309  34.098  27.606  1.00  0.00    -0.352 N 
ATOM     21  C   UNL A   1      32.944  34.921  28.505  1.00  0.00     0.251 C 
ATOM     22  H   UNL A   1      31.552  34.504  27.127  1.00  0.00     0.163 HD
ATOM     23  O   UNL A   1      32.480  36.030  28.756  1.00  0.00    -0.269 OA
BRANCH  21  24
ATOM     24  C   UNL A   1      34.167  34.461  29.201  1.00  0.00     0.039 A 
ATOM     25  C   UNL A   1      34.045  33.898  30.474  1.00  0.00     0.014 A 
ATOM     26  C   UNL A   1      35.426  34.575  28.606  1.00  0.00     0.014 A 
ATOM     27  C   UNL A   1      35.172  33.383  31.118  1.00  0.00     0.010 A 
ATOM     28  C   UNL A   1      36.536  33.993  29.214  1.00  0.00     0.010 A 
ATOM     29  C   UNL A   1      36.422  33.388  30.475  1.00  0.00    -0.014 A 
BRANCH  29  30
ATOM     30  C   UNL A   1      37.612  32.757  31.103  1.00  0.00     0.031 A 
ATOM     31  C   UNL A   1      38.239  31.536  30.488  1.00  0.00     0.074 A 
ATOM     32  C   UNL A   1      38.093  33.245  32.263  1.00  0.00     0.049 A 
ATOM     33  N   UNL A   1      39.231  30.804  30.929  1.00  0.00    -0.248 NA
ATOM     34  C   UNL A   1      37.661  31.061  29.221  1.00  0.00     0.031 C 
ATOM     35  C   UNL A   1      37.547  34.393  32.989  1.00  0.00     0.029 A 
ATOM     36  N   UNL A   1      39.143  32.829  33.045  1.00  0.00    -0.354 N 
ATOM     37  C   UNL A   1      39.393  29.785  29.998  1.00  0.00     0.074 A 
ATOM     38  C   UNL A   1      38.357  29.955  29.002  1.00  0.00     0.031 C 
ATOM     39  C   UNL A   1      38.272  34.597  34.101  1.00  0.00     0.029 A 
ATOM     40  C   UNL A   1      39.307  33.573  34.189  1.00  0.00     0.049 A 
ATOM     41  H   UNL A   1      39.722  32.069  32.809  1.00  0.00     0.167 HD
ATOM     42  C   UNL A   1      40.335  28.812  29.960  1.00  0.00     0.037 A 
ATOM     43  C   UNL A   1      40.183  33.436  35.204  1.00  0.00     0.037 A 
ATOM     44  C   UNL A   1      41.369  28.646  30.947  1.00  0.00     0.049 A 
ATOM     45  C   UNL A   1      41.202  32.331  35.151  1.00  0.00     0.074 A 
ATOM     46  C   UNL A   1      42.388  27.710  30.979  1.00  0.00     0.029 A 
ATOM     47  N   UNL A   1      41.514  29.433  32.081  1.00  0.00    -0.354 N 
ATOM     48  N   UNL A   1      41.380  31.412  34.233  1.00  0.00    -0.248 NA
ATOM     49  C   UNL A   1      42.149  32.249  36.273  1.00  0.00     0.031 C 
ATOM     50  C   UNL A   1      43.123  27.900  32.153  1.00  0.00     0.029 A 
ATOM     51  C   UNL A   1      42.596  28.992  32.826  1.00  0.00     0.049 A 
ATOM     52  H   UNL A   1      40.935  30.191  32.319  1.00  0.00     0.167 HD
ATOM     53  C   UNL A   1      42.473  30.664  34.651  1.00  0.00     0.074 A 
ATOM     54  C   UNL A   1      42.929  31.246  35.895  1.00  0.00     0.031 C 
ATOM     55  C   UNL A   1      43.047  29.587  34.057  1.00  0.00     0.037 A 
BRANCH  42  56
ATOM     56  C   UNL A   1      40.296  27.856  28.802  1.00  0.00     0.057 A 
ATOM     57  C   UNL A   1      41.015  28.098  27.623  1.00  0.00     0.134 A 
ATOM     58  C   UNL A   1      39.569  26.661  28.878  1.00  0.00     0.134 A 
ATOM     59  F   UNL A   1      41.723  29.229  27.480  1.00  0.00    -0.206 F 
ATOM     60  C   UNL A   1      40.991  27.202  26.555  1.00  0.00     0.040 A 
ATOM     61  C   UNL A   1      39.561  25.743  27.826  1.00  0.00     0.040 A 
ATOM     62  F   UNL A   1      38.864  26.361  29.980  1.00  0.00    -0.206 F 
ATOM     63  C   UNL A   1      40.269  26.015  26.658  1.00  0.00     0.006 A 
ENDBRANCH  42  56
BRANCH  43  64
ATOM     64  C   UNL A   1      40.137  34.369  36.359  1.00  0.00     0.057 A 
ATOM     65  C   UNL A   1      39.405  34.065  37.513  1.00  0.00     0.134 A 
ATOM     66  C   UNL A   1      40.806  35.599  36.328  1.00  0.00     0.134 A 
ATOM     67  F   UNL A   1      38.726  32.910  37.597  1.00  0.00    -0.206 F 
ATOM     68  C   UNL A   1      39.315  34.960  38.580  1.00  0.00     0.040 A 
ATOM     69  C   UNL A   1      40.750  36.491  37.400  1.00  0.00     0.040 A 
ATOM     70  F   UNL A   1      41.532  35.948  35.256  1.00  0.00    -0.206 F 
ATOM     71  C   UNL A   1      39.993  36.176  38.527  1.00  0.00     0.006 A 
ENDBRANCH  43  64
BRANCH  55  72
ATOM     72  C   UNL A   1      44.256  28.997  34.723  1.00  0.00     0.057 A 
ATOM     73  C   UNL A   1      45.556  29.420  34.415  1.00  0.00     0.134 A 
ATOM     74  C   UNL A   1      44.114  28.016  35.714  1.00  0.00     0.134 A 
ATOM     75  F   UNL A   1      45.762  30.346  33.467  1.00  0.00    -0.206 F 
ATOM     76  C   UNL A   1      46.671  28.872  35.050  1.00  0.00     0.040 A 
ATOM     77  C   UNL A   1      45.220  27.482  36.377  1.00  0.00     0.040 A 
ATOM     78  F   UNL A   1      42.898  27.571  36.064  1.00  0.00    -0.206 F 
ATOM     79  C   UNL A   1      46.504  27.905  36.040  1.00  0.00     0.006 A 
ENDBRANCH  55  72
ENDBRANCH  29  30
ENDBRANCH  21  24
ENDBRANCH  19  20
ENDBRANCH  18  19
ENDBRANCH  17  18
ENDBRANCH   1  17
TORSDOF 15
ENDMDL
MODEL 2
REMARK VINA RESULT:     -10.8      0.561      6.454
REMARK SMILES N#CCc1ccc(OCC(=O)NCCCCNC(=O)c2ccc(-c3c4nc(c(-c5c(F)cccc5F)c5ccc([nH]5)c(-c5c(F)cccc5F)c5nc(c(-c6c(F)cccc6F)c6ccc3[nH]6)C=C5)C=C4)cc2)cc1
REMARK SMILES IDX 13 1 12 2 10 3 11 4 9 6 8 7 7 8 4 9 5 10 75 11 6 12 74 13
REMARK SMILES IDX 3 14 2 15 1 16 14 17 15 18 16 19 17 20 18 21 19 23 20 24
REMARK SMILES IDX 21 25 73 26 22 27 72 28 23 29 24 30 25 31 66 32 26 33 71 34
REMARK SMILES IDX 65 35 67 36 27 37 70 38 64 39 63 40 28 42 54 43 37 44 53 45
REMARK SMILES IDX 38 46 41 47 52 48 68 49 39 50 40 51 51 53 69 54 42 55 29 56
REMARK SMILES IDX 30 57 35 58 31 59 32 60 34 61 36 62 33 63 55 64 56 65 61 66
REMARK SMILES IDX 57 67 58 68 60 69 62 70 59 71 43 72 44 73 49 74 45 75 46 76
REMARK SMILES IDX 48 77 50 78 47 79
REMARK H PARENT 12 5 17 22 67 41 41 52
REMARK Flexibility Score: inf
ROOT
ATOM      1  C   UNL A   1      32.396  29.920  27.021  1.00  0.00     0.116 C 
ENDROOT
BRANCH   1   2
ATOM      2  N   UNL A   1      31.813  28.646  27.387  1.00  0.00    -0.353 N 
ATOM      3  C   UNL A   1      31.934  27.444  26.751  1.00  0.00     0.257 C 
ATOM      4  O   UNL A   1      31.398  26.452  27.250  1.00  0.00    -0.271 OA
ATOM      5  H   UNL A   1      31.257  28.646  28.201  1.00  0.00     0.163 HD
BRANCH   3   6
ATOM      6  C   UNL A   1      32.765  27.343  25.464  1.00  0.00     0.329 C 
BRANCH   6   7
ATOM      7  O   UNL A   1      32.150  26.725  24.343  1.00  0.00    -0.484 OA
BRANCH   7   8
ATOM      8  C   UNL A   1      31.161  27.422  23.705  1.00  0.00     0.120 A 
ATOM      9  C   UNL A   1      29.312  29.119  22.431  1.00  0.00    -0.034 A 
ATOM     10  C   UNL A   1      30.685  29.364  22.325  1.00  0.00     0.008 A 
ATOM     11  C   UNL A   1      28.882  27.977  23.127  1.00  0.00     0.008 A 
ATOM     12  C   UNL A   1      31.599  28.515  22.955  1.00  0.00     0.047 A 
ATOM     13  C   UNL A   1      29.799  27.138  23.761  1.00  0.00     0.047 A 
BRANCH   9  14
ATOM     14  C   UNL A   1      28.301  30.078  21.849  1.00  0.00     0.155 C 
BRANCH  14  15
ATOM     15  C   UNL A   1      27.655  30.896  22.956  1.00  0.00     0.067 C 
ATOM     16  N   UNL A   1      27.120  31.574  23.874  1.00  0.00    -0.198 NA
ENDBRANCH  14  15
ENDBRANCH   9  14
ENDBRANCH   7   8
ENDBRANCH   6   7
ENDBRANCH   3   6
ENDBRANCH   1   2
BRANCH   1  17
ATOM     17  C   UNL A   1      31.481  30.742  26.114  1.00  0.00     0.023 C 
BRANCH  17  18
ATOM     18  C   UNL A   1      31.335  32.216  26.499  1.00  0.00     0.023 C 
BRANCH  18  19
ATOM     19  C   UNL A   1      32.529  32.833  27.220  1.00  0.00     0.116 C 
BRANCH  19  20
ATOM     20  N   UNL A   1      32.296  34.205  27.641  1.00  0.00    -0.352 N 
ATOM     21  C   UNL A   1      32.950  34.947  28.596  1.00  0.00     0.251 C 
ATOM     22  H   UNL A   1      31.564  34.670  27.176  1.00  0.00     0.163 HD
ATOM     23  O   UNL A   1      32.528  36.059  28.905  1.00  0.00    -0.269 OA
BRANCH  21  24
ATOM     24  C   UNL A   1      34.142  34.396  29.281  1.00  0.00     0.039 A 
ATOM     25  C   UNL A   1      33.966  33.699  30.478  1.00  0.00     0.014 A 
ATOM     26  C   UNL A   1      35.423  34.558  28.747  1.00  0.00     0.014 A 
ATOM     27  C   UNL A   1      35.064  33.101  31.101  1.00  0.00     0.010 A 
ATOM     28  C   UNL A   1      36.504  33.898  29.327  1.00  0.00     0.010 A 
ATOM     29  C   UNL A   1      36.336  33.160  30.509  1.00  0.00    -0.014 A 
BRANCH  29  30
ATOM     30  C   UNL A   1      37.497  32.447  31.105  1.00  0.00     0.031 A 
ATOM     31  C   UNL A   1      38.139  32.959  32.365  1.00  0.00     0.074 A 
ATOM     32  C   UNL A   1      38.013  31.371  30.479  1.00  0.00     0.049 A 
ATOM     33  N   UNL A   1      39.201  32.519  32.991  1.00  0.00    -0.248 NA
ATOM     34  C   UNL A   1      37.519  34.137  32.993  1.00  0.00     0.031 C 
ATOM     35  C   UNL A   1      37.515  30.801  29.226  1.00  0.00     0.029 A 
ATOM     36  N   UNL A   1      39.081  30.571  30.804  1.00  0.00    -0.354 N 
ATOM     37  C   UNL A   1      39.377  33.364  34.080  1.00  0.00     0.074 A 
ATOM     38  C   UNL A   1      38.351  34.381  33.994  1.00  0.00     0.031 C 
ATOM     39  C   UNL A   1      38.267  29.738  28.895  1.00  0.00     0.029 A 
ATOM     40  C   UNL A   1      39.323  29.576  29.889  1.00  0.00     0.049 A 
ATOM     41  H   UNL A   1      39.623  30.700  31.616  1.00  0.00     0.167 HD
ATOM     42  C   UNL A   1      40.291  33.285  35.076  1.00  0.00     0.037 A 
ATOM     43  C   UNL A   1      40.297  28.645  29.844  1.00  0.00     0.037 A 
ATOM     44  C   UNL A   1      41.308  32.269  35.165  1.00  0.00     0.049 A 
ATOM     45  C   UNL A   1      41.317  28.594  30.948  1.00  0.00     0.074 A 
ATOM     46  C   UNL A   1      42.261  32.087  36.152  1.00  0.00     0.029 A 
ATOM     47  N   UNL A   1      41.507  31.266  34.228  1.00  0.00    -0.354 N 
ATOM     48  N   UNL A   1      41.432  29.364  32.004  1.00  0.00    -0.248 NA
ATOM     49  C   UNL A   1      42.338  27.540  30.861  1.00  0.00     0.031 C 
ATOM     50  C   UNL A   1      43.065  31.002  35.791  1.00  0.00     0.029 A 
ATOM     51  C   UNL A   1      42.578  30.472  34.607  1.00  0.00     0.049 A 
ATOM     52  H   UNL A   1      40.968  31.137  33.415  1.00  0.00     0.167 HD
ATOM     53  C   UNL A   1      42.517  28.870  32.717  1.00  0.00     0.074 A 
ATOM     54  C   UNL A   1      43.013  27.725  31.985  1.00  0.00     0.031 C 
ATOM     55  C   UNL A   1      43.056  29.327  33.876  1.00  0.00     0.037 A 
BRANCH  42  56
ATOM     56  C   UNL A   1      40.226  34.322  36.160  1.00  0.00     0.057 A 
ATOM     57  C   UNL A   1      39.445  34.136  37.310  1.00  0.00     0.134 A 
ATOM     58  C   UNL A   1      40.979  35.500  36.078  1.00  0.00     0.134 A 
ATOM     59  F   UNL A   1      38.690  33.035  37.448  1.00  0.00    -0.206 F 
ATOM     60  C   UNL A   1      39.397  35.092  38.324  1.00  0.00     0.040 A 
ATOM     61  C   UNL A   1      40.961  36.452  37.099  1.00  0.00     0.040 A 
ATOM     62  F   UNL A   1      41.754  35.740  35.009  1.00  0.00    -0.206 F 
ATOM     63  C   UNL A   1      40.164  36.252  38.224  1.00  0.00     0.006 A 
ENDBRANCH  42  56
BRANCH  43  64
ATOM     64  C   UNL A   1      40.357  27.682  28.714  1.00  0.00     0.057 A 
ATOM     65  C   UNL A   1      39.656  26.471  28.751  1.00  0.00     0.134 A 
ATOM     66  C   UNL A   1      41.137  27.937  27.579  1.00  0.00     0.134 A 
ATOM     67  F   UNL A   1      38.906  26.158  29.820  1.00  0.00    -0.206 F 
ATOM     68  C   UNL A   1      39.748  25.538  27.718  1.00  0.00     0.040 A 
ATOM     69  C   UNL A   1      41.216  27.027  26.524  1.00  0.00     0.040 A 
ATOM     70  F   UNL A   1      41.828  29.082  27.477  1.00  0.00    -0.206 F 
ATOM     71  C   UNL A   1      40.528  25.818  26.597  1.00  0.00     0.006 A 
ENDBRANCH  43  64
BRANCH  55  72
ATOM     72  C   UNL A   1      44.215  28.562  34.445  1.00  0.00     0.057 A 
ATOM     73  C   UNL A   1      45.544  28.903  34.159  1.00  0.00     0.134 A 
ATOM     74  C   UNL A   1      43.998  27.490  35.322  1.00  0.00     0.134 A 
ATOM     75  F   UNL A   1      45.821  29.910  33.317  1.00  0.00    -0.206 F 
ATOM     76  C   UNL A   1      46.613  28.191  34.704  1.00  0.00     0.040 A 
ATOM     77  C   UNL A   1      45.059  26.790  35.896  1.00  0.00     0.040 A 
ATOM     78  F   UNL A   1      42.751  27.116  35.646  1.00  0.00    -0.206 F 
ATOM     79  C   UNL A   1      46.372  27.136  35.582  1.00  0.00     0.006 A 
ENDBRANCH  55  72
ENDBRANCH  29  30
ENDBRANCH  21  24
ENDBRANCH  19  20
ENDBRANCH  18  19
ENDBRANCH  17  18
ENDBRANCH   1  17
TORSDOF 15
ENDMDL
MODEL 3
REMARK VINA RESULT:     -10.5      3.760      8.089
REMARK SMILES N#CCc1ccc(OCC(=O)NCCCCNC(=O)c2ccc(-c3c4nc(c(-c5c(F)cccc5F)c5ccc([nH]5)c(-c5c(F)cccc5F)c5nc(c(-c6c(F)cccc6F)c6ccc3[nH]6)C=C5)C=C4)cc2)cc1
REMARK SMILES IDX 13 1 12 2 10 3 11 4 9 6 8 7 7 8 4 9 5 10 75 11 6 12 74 13
REMARK SMILES IDX 3 14 2 15 1 16 14 17 15 18 16 19 17 20 18 21 19 23 20 24
REMARK SMILES IDX 21 25 73 26 22 27 72 28 23 29 24 30 25 31 66 32 26 33 71 34
REMARK SMILES IDX 65 35 67 36 27 37 70 38 64 39 63 40 28 42 54 43 37 44 53 45
REMARK SMILES IDX 38 46 41 47 52 48 68 49 39 50 40 51 51 53 69 54 42 55 29 56
REMARK SMILES IDX 30 57 35 58 31 59 32 60 34 61 36 62 33 63 55 64 56 65 61 66
REMARK SMILES IDX 57 67 58 68 60 69 62 70 59 71 43 72 44 73 49 74 45 75 46 76
REMARK SMILES IDX 48 77 50 78 47 79
REMARK H PARENT 12 5 17 22 67 41 41 52
REMARK Flexibility Score: inf
ROOT
ATOM      1  C   UNL A   1      31.677  27.945  25.535  1.00  0.00     0.116 C 
ENDROOT
BRANCH   1   2
ATOM      2  N   UNL A   1      31.015  26.869  26.245  1.00  0.00    -0.353 N 
ATOM      3  C   UNL A   1      30.101  25.975  25.766  1.00  0.00     0.257 C 
ATOM      4  O   UNL A   1      29.686  25.092  26.520  1.00  0.00    -0.271 OA
ATOM      5  H   UNL A   1      31.255  26.770  27.195  1.00  0.00     0.163 HD
BRANCH   3   6
ATOM      6  C   UNL A   1      29.648  26.056  24.302  1.00  0.00     0.329 C 
BRANCH   6   7
ATOM      7  O   UNL A   1      28.389  26.663  24.047  1.00  0.00    -0.484 OA
BRANCH   7   8
ATOM      8  C   UNL A   1      28.383  27.817  23.314  1.00  0.00     0.120 A 
ATOM      9  C   UNL A   1      28.686  30.224  21.886  1.00  0.00    -0.034 A 
ATOM     10  C   UNL A   1      29.755  29.328  21.994  1.00  0.00     0.008 A 
ATOM     11  C   UNL A   1      27.448  29.868  22.444  1.00  0.00     0.008 A 
ATOM     12  C   UNL A   1      29.598  28.132  22.700  1.00  0.00     0.047 A 
ATOM     13  C   UNL A   1      27.299  28.676  23.155  1.00  0.00     0.047 A 
BRANCH   9  14
ATOM     14  C   UNL A   1      28.860  31.568  21.220  1.00  0.00     0.155 C 
BRANCH  14  15
ATOM     15  C   UNL A   1      28.685  32.684  22.237  1.00  0.00     0.067 C 
ATOM     16  N   UNL A   1      28.541  33.610  23.081  1.00  0.00    -0.198 NA
ENDBRANCH  14  15
ENDBRANCH   9  14
ENDBRANCH   7   8
ENDBRANCH   6   7
ENDBRANCH   3   6
ENDBRANCH   1   2
BRANCH   1  17
ATOM     17  C   UNL A   1      33.151  27.645  25.265  1.00  0.00     0.023 C 
BRANCH  17  18
ATOM     18  C   UNL A   1      34.145  28.493  26.064  1.00  0.00     0.023 C 
BRANCH  18  19
ATOM     19  C   UNL A   1      33.781  28.739  27.524  1.00  0.00     0.116 C 
BRANCH  19  20
ATOM     20  N   UNL A   1      33.819  30.146  27.893  1.00  0.00    -0.352 N 
ATOM     21  C   UNL A   1      34.852  30.880  28.426  1.00  0.00     0.251 C 
ATOM     22  H   UNL A   1      32.984  30.644  27.739  1.00  0.00     0.163 HD
ATOM     23  O   UNL A   1      34.657  32.036  28.793  1.00  0.00    -0.269 OA
BRANCH  21  24
ATOM     24  C   UNL A   1      36.190  30.269  28.595  1.00  0.00     0.039 A 
ATOM     25  C   UNL A   1      37.080  30.294  27.519  1.00  0.00     0.014 A 
ATOM     26  C   UNL A   1      36.571  29.683  29.804  1.00  0.00     0.014 A 
ATOM     27  C   UNL A   1      38.375  29.797  27.677  1.00  0.00     0.010 A 
ATOM     28  C   UNL A   1      37.885  29.258  29.985  1.00  0.00     0.010 A 
ATOM     29  C   UNL A   1      38.803  29.313  28.925  1.00  0.00    -0.014 A 
BRANCH  29  30
ATOM     30  C   UNL A   1      40.207  28.873  29.139  1.00  0.00     0.031 A 
ATOM     31  C   UNL A   1      41.219  29.816  29.729  1.00  0.00     0.074 A 
ATOM     32  C   UNL A   1      40.588  27.641  28.745  1.00  0.00     0.049 A 
ATOM     33  N   UNL A   1      42.503  29.639  29.920  1.00  0.00    -0.248 NA
ATOM     34  C   UNL A   1      40.730  31.142  30.136  1.00  0.00     0.031 C 
ATOM     35  C   UNL A   1      39.717  26.647  28.115  1.00  0.00     0.029 A 
ATOM     36  N   UNL A   1      41.811  27.020  28.802  1.00  0.00    -0.354 N 
ATOM     37  C   UNL A   1      42.971  30.828  30.466  1.00  0.00     0.074 A 
ATOM     38  C   UNL A   1      41.850  31.740  30.516  1.00  0.00     0.031 C 
ATOM     39  C   UNL A   1      40.429  25.538  27.857  1.00  0.00     0.029 A 
ATOM     40  C   UNL A   1      41.813  25.755  28.264  1.00  0.00     0.049 A 
ATOM     41  H   UNL A   1      42.611  27.440  29.192  1.00  0.00     0.167 HD
ATOM     42  C   UNL A   1      44.216  31.124  30.910  1.00  0.00     0.037 A 
ATOM     43  C   UNL A   1      42.820  24.875  28.100  1.00  0.00     0.037 A 
ATOM     44  C   UNL A   1      45.331  30.214  30.867  1.00  0.00     0.049 A 
ATOM     45  C   UNL A   1      44.199  25.238  28.578  1.00  0.00     0.074 A 
ATOM     46  C   UNL A   1      46.623  30.411  31.322  1.00  0.00     0.029 A 
ATOM     47  N   UNL A   1      45.287  28.935  30.332  1.00  0.00    -0.354 N 
ATOM     48  N   UNL A   1      44.612  26.344  29.148  1.00  0.00    -0.248 NA
ATOM     49  C   UNL A   1      45.250  24.226  28.399  1.00  0.00     0.031 C 
ATOM     50  C   UNL A   1      47.373  29.269  31.023  1.00  0.00     0.029 A 
ATOM     51  C   UNL A   1      46.533  28.338  30.432  1.00  0.00     0.049 A 
ATOM     52  H   UNL A   1      44.489  28.513  29.941  1.00  0.00     0.167 HD
ATOM     53  C   UNL A   1      45.961  26.150  29.420  1.00  0.00     0.074 A 
ATOM     54  C   UNL A   1      46.291  24.815  28.970  1.00  0.00     0.031 C 
ATOM     55  C   UNL A   1      46.848  27.004  29.990  1.00  0.00     0.037 A 
BRANCH  42  56
ATOM     56  C   UNL A   1      44.435  32.489  31.497  1.00  0.00     0.057 A 
ATOM     57  C   UNL A   1      44.261  32.739  32.865  1.00  0.00     0.134 A 
ATOM     58  C   UNL A   1      44.864  33.557  30.698  1.00  0.00     0.134 A 
ATOM     59  F   UNL A   1      43.841  31.764  33.686  1.00  0.00    -0.206 F 
ATOM     60  C   UNL A   1      44.480  34.003  33.412  1.00  0.00     0.040 A 
ATOM     61  C   UNL A   1      45.114  34.820  31.238  1.00  0.00     0.040 A 
ATOM     62  F   UNL A   1      45.058  33.387  29.381  1.00  0.00    -0.206 F 
ATOM     63  C   UNL A   1      44.916  35.047  32.598  1.00  0.00     0.006 A 
ENDBRANCH  42  56
BRANCH  43  64
ATOM     64  C   UNL A   1      42.564  23.561  27.454  1.00  0.00     0.057 A 
ATOM     65  C   UNL A   1      42.243  22.428  28.210  1.00  0.00     0.134 A 
ATOM     66  C   UNL A   1      42.659  23.401  26.066  1.00  0.00     0.134 A 
ATOM     67  F   UNL A   1      42.156  22.511  29.547  1.00  0.00    -0.206 F 
ATOM     68  C   UNL A   1      42.054  21.180  27.616  1.00  0.00     0.040 A 
ATOM     69  C   UNL A   1      42.442  22.166  25.454  1.00  0.00     0.040 A 
ATOM     70  F   UNL A   1      42.955  24.449  25.283  1.00  0.00    -0.206 F 
ATOM     71  C   UNL A   1      42.149  21.047  26.232  1.00  0.00     0.006 A 
ENDBRANCH  43  64
BRANCH  55  72
ATOM     72  C   UNL A   1      48.248  26.505  30.199  1.00  0.00     0.057 A 
ATOM     73  C   UNL A   1      48.624  25.804  31.352  1.00  0.00     0.134 A 
ATOM     74  C   UNL A   1      49.225  26.697  29.213  1.00  0.00     0.134 A 
ATOM     75  F   UNL A   1      47.740  25.597  32.340  1.00  0.00    -0.206 F 
ATOM     76  C   UNL A   1      49.926  25.334  31.529  1.00  0.00     0.040 A 
ATOM     77  C   UNL A   1      50.523  26.206  29.365  1.00  0.00     0.040 A 
ATOM     78  F   UNL A   1      48.931  27.352  28.079  1.00  0.00    -0.206 F 
ATOM     79  C   UNL A   1      50.878  25.529  30.529  1.00  0.00     0.006 A 
ENDBRANCH  55  72
ENDBRANCH  29  30
ENDBRANCH  21  24
ENDBRANCH  19  20
ENDBRANCH  18  19
ENDBRANCH  17  18
ENDBRANCH   1  17
TORSDOF 15
ENDMDL
