MODEL 1
REMARK VINA RESULT:     -12.4      0.000      0.000
REMARK SMILES CC[NH+]1CC[NH+]([C@@H]2CC(=O)N(c3ccc(C(=O)NCCCCNC(=O)c4ccc(-c5c6nc(c(-c7c(F)cccc7F)c7ccc([nH]7)c(-c7c(F)cccc7F)c7nc(c(-c8c(F)cccc8F)c8ccc5[nH]8)C=C7)C=C6)cc4)cc3)C2=O)CC1
REMARK SMILES IDX 20 1 19 2 18 3 16 4 17 5 15 7 12 8 13 9 81 10 14 11 80 12
REMARK SMILES IDX 11 13 7 14 8 15 82 16 9 17 83 18 10 19 6 20 3 21 4 22 85 23
REMARK SMILES IDX 5 25 84 26 2 28 1 29 21 30 22 31 23 32 24 33 25 35 26 36
REMARK SMILES IDX 27 37 79 38 28 39 78 40 29 41 30 42 31 43 72 44 32 45 77 46
REMARK SMILES IDX 71 47 73 48 33 49 76 50 70 51 69 52 34 54 60 55 43 56 59 57
REMARK SMILES IDX 44 58 47 59 58 60 74 61 45 62 46 63 57 65 75 66 48 67 35 68
REMARK SMILES IDX 36 69 41 70 37 71 38 72 40 73 42 74 39 75 61 76 62 77 67 78
REMARK SMILES IDX 63 79 64 80 66 81 68 82 65 83 49 84 50 85 55 86 51 87 52 88
REMARK SMILES IDX 54 89 56 90 53 91
REMARK H PARENT 18 6 3 24 6 27 23 34 73 53 47 64
REMARK Flexibility Score: inf
ROOT
ATOM      1  C   UNL A   1      37.171  20.941  24.658  1.00  0.00     0.023 C 
ENDROOT
BRANCH   1   2
ATOM      2  C   UNL A   1      36.046  21.213  25.664  1.00  0.00     0.116 C 
BRANCH   2   3
ATOM      3  N   UNL A   1      34.902  20.368  25.393  1.00  0.00    -0.352 N 
ATOM      4  C   UNL A   1      33.590  20.667  25.117  1.00  0.00     0.251 C 
ATOM      5  O   UNL A   1      32.833  19.722  24.894  1.00  0.00    -0.269 OA
ATOM      6  H   UNL A   1      35.101  19.404  25.409  1.00  0.00     0.163 HD
BRANCH   4   7
ATOM      7  C   UNL A   1      33.058  22.060  25.040  1.00  0.00     0.039 A 
ATOM      8  C   UNL A   1      32.131  24.707  24.739  1.00  0.00     0.052 A 
ATOM      9  C   UNL A   1      32.601  23.997  23.631  1.00  0.00     0.027 A 
ATOM     10  C   UNL A   1      32.095  24.085  25.981  1.00  0.00     0.027 A 
ATOM     11  C   UNL A   1      33.090  22.693  23.789  1.00  0.00     0.016 A 
ATOM     12  C   UNL A   1      32.505  22.761  26.112  1.00  0.00     0.016 A 
BRANCH   8  13
ATOM     13  N   UNL A   1      31.677  26.031  24.621  1.00  0.00    -0.245 N 
ATOM     14  C   UNL A   1      30.274  27.867  24.242  1.00  0.00     0.285 C 
ATOM     15  C   UNL A   1      31.664  28.366  24.613  1.00  0.00     0.176 C 
ATOM     16  C   UNL A   1      30.359  26.358  24.421  1.00  0.00     0.292 C 
ATOM     17  C   UNL A   1      32.485  27.128  24.769  1.00  0.00     0.240 C 
ATOM     18  O   UNL A   1      29.399  25.598  24.400  1.00  0.00    -0.267 OA
ATOM     19  O   UNL A   1      33.691  27.158  24.978  1.00  0.00    -0.274 OA
BRANCH  14  20
ATOM     20  N   UNL A   1      29.706  28.199  22.926  1.00  0.00    -0.315 N 
ATOM     21  N   UNL A   1      28.278  30.767  22.313  1.00  0.00    -0.326 N 
ATOM     22  C   UNL A   1      27.620  29.677  23.046  1.00  0.00     0.324 C 
ATOM     23  C   UNL A   1      29.739  30.701  22.493  1.00  0.00     0.324 C 
ATOM     24  H   UNL A   1      27.893  31.607  22.746  1.00  0.00     0.348 HD
ATOM     25  C   UNL A   1      28.239  28.267  22.885  1.00  0.00     0.325 C 
ATOM     26  C   UNL A   1      30.319  29.307  22.180  1.00  0.00     0.325 C 
ATOM     27  H   UNL A   1      29.987  27.368  22.405  1.00  0.00     0.349 HD
BRANCH  21  28
ATOM     28  C   UNL A   1      27.926  30.948  20.897  1.00  0.00     0.259 C 
ATOM     29  C   UNL A   1      27.911  32.352  20.305  1.00  0.00     0.071 C 
ENDBRANCH  21  28
ENDBRANCH  14  20
ENDBRANCH   8  13
ENDBRANCH   4   7
ENDBRANCH   2   3
ENDBRANCH   1   2
BRANCH   1  30
ATOM     30  C   UNL A   1      38.051  19.743  25.004  1.00  0.00     0.023 C 
BRANCH  30  31
ATOM     31  C   UNL A   1      39.312  20.098  25.774  1.00  0.00     0.116 C 
BRANCH  31  32
ATOM     32  N   UNL A   1      40.288  19.019  25.817  1.00  0.00    -0.352 N 
ATOM     33  C   UNL A   1      41.630  19.105  26.106  1.00  0.00     0.251 C 
ATOM     34  H   UNL A   1      39.946  18.119  25.614  1.00  0.00     0.163 HD
ATOM     35  O   UNL A   1      42.358  18.132  26.006  1.00  0.00    -0.269 OA
BRANCH  33  36
ATOM     36  C   UNL A   1      42.180  20.420  26.490  1.00  0.00     0.039 A 
ATOM     37  C   UNL A   1      42.636  21.275  25.484  1.00  0.00     0.014 A 
ATOM     38  C   UNL A   1      42.179  20.826  27.827  1.00  0.00     0.014 A 
ATOM     39  C   UNL A   1      43.034  22.569  25.817  1.00  0.00     0.010 A 
ATOM     40  C   UNL A   1      42.501  22.139  28.145  1.00  0.00     0.010 A 
ATOM     41  C   UNL A   1      42.935  23.020  27.144  1.00  0.00    -0.014 A 
BRANCH  41  42
ATOM     42  C   UNL A   1      43.288  24.413  27.504  1.00  0.00     0.031 A 
ATOM     43  C   UNL A   1      44.722  24.855  27.471  1.00  0.00     0.074 A 
ATOM     44  C   UNL A   1      42.324  25.256  27.918  1.00  0.00     0.049 A 
ATOM     45  N   UNL A   1      45.233  26.021  27.775  1.00  0.00    -0.248 NA
ATOM     46  C   UNL A   1      45.716  23.847  27.073  1.00  0.00     0.031 C 
ATOM     47  C   UNL A   1      40.903  24.924  28.043  1.00  0.00     0.029 A 
ATOM     48  N   UNL A   1      42.396  26.567  28.310  1.00  0.00    -0.354 N 
ATOM     49  C   UNL A   1      46.606  25.880  27.619  1.00  0.00     0.074 A 
ATOM     50  C   UNL A   1      46.851  24.503  27.253  1.00  0.00     0.031 C 
ATOM     51  C   UNL A   1      40.232  26.017  28.441  1.00  0.00     0.029 A 
ATOM     52  C   UNL A   1      41.177  27.113  28.630  1.00  0.00     0.049 A 
ATOM     53  H   UNL A   1      43.241  27.071  28.358  1.00  0.00     0.167 HD
ATOM     54  C   UNL A   1      47.573  26.820  27.744  1.00  0.00     0.037 A 
ATOM     55  C   UNL A   1      40.859  28.360  29.022  1.00  0.00     0.037 A 
ATOM     56  C   UNL A   1      47.320  28.196  28.084  1.00  0.00     0.049 A 
ATOM     57  C   UNL A   1      41.949  29.385  29.158  1.00  0.00     0.074 A 
ATOM     58  C   UNL A   1      48.218  29.244  28.165  1.00  0.00     0.029 A 
ATOM     59  N   UNL A   1      46.072  28.710  28.405  1.00  0.00    -0.354 N 
ATOM     60  N   UNL A   1      43.234  29.262  28.932  1.00  0.00    -0.248 NA
ATOM     61  C   UNL A   1      41.540  30.725  29.602  1.00  0.00     0.031 C 
ATOM     62  C   UNL A   1      47.520  30.386  28.576  1.00  0.00     0.029 A 
ATOM     63  C   UNL A   1      46.180  30.057  28.709  1.00  0.00     0.049 A 
ATOM     64  H   UNL A   1      45.233  28.194  28.415  1.00  0.00     0.167 HD
ATOM     65  C   UNL A   1      43.785  30.512  29.177  1.00  0.00     0.074 A 
ATOM     66  C   UNL A   1      42.691  31.382  29.561  1.00  0.00     0.031 C 
ATOM     67  C   UNL A   1      45.079  30.906  29.089  1.00  0.00     0.037 A 
BRANCH  54  68
ATOM     68  C   UNL A   1      48.988  26.378  27.511  1.00  0.00     0.057 A 
ATOM     69  C   UNL A   1      49.812  25.955  28.564  1.00  0.00     0.134 A 
ATOM     70  C   UNL A   1      49.536  26.383  26.224  1.00  0.00     0.134 A 
ATOM     71  F   UNL A   1      49.353  25.941  29.825  1.00  0.00    -0.206 F 
ATOM     72  C   UNL A   1      51.143  25.592  28.349  1.00  0.00     0.040 A 
ATOM     73  C   UNL A   1      50.858  25.995  25.993  1.00  0.00     0.040 A 
ATOM     74  F   UNL A   1      48.803  26.772  25.171  1.00  0.00    -0.206 F 
ATOM     75  C   UNL A   1      51.667  25.608  27.058  1.00  0.00     0.006 A 
ENDBRANCH  54  68
BRANCH  55  76
ATOM     76  C   UNL A   1      39.440  28.723  29.256  1.00  0.00     0.057 A 
ATOM     77  C   UNL A   1      38.863  28.562  30.521  1.00  0.00     0.134 A 
ATOM     78  C   UNL A   1      38.634  29.246  28.239  1.00  0.00     0.134 A 
ATOM     79  F   UNL A   1      39.584  28.051  31.531  1.00  0.00    -0.206 F 
ATOM     80  C   UNL A   1      37.531  28.897  30.765  1.00  0.00     0.040 A 
ATOM     81  C   UNL A   1      37.306  29.604  28.473  1.00  0.00     0.040 A 
ATOM     82  F   UNL A   1      39.132  29.430  27.007  1.00  0.00    -0.206 F 
ATOM     83  C   UNL A   1      36.749  29.426  29.739  1.00  0.00     0.006 A 
ENDBRANCH  55  76
BRANCH  67  84
ATOM     84  C   UNL A   1      45.373  32.347  29.386  1.00  0.00     0.057 A 
ATOM     85  C   UNL A   1      45.736  32.779  30.668  1.00  0.00     0.134 A 
ATOM     86  C   UNL A   1      45.319  33.309  28.369  1.00  0.00     0.134 A 
ATOM     87  F   UNL A   1      45.791  31.908  31.687  1.00  0.00    -0.206 F 
ATOM     88  C   UNL A   1      46.011  34.121  30.933  1.00  0.00     0.040 A 
ATOM     89  C   UNL A   1      45.616  34.649  28.617  1.00  0.00     0.040 A 
ATOM     90  F   UNL A   1      44.985  32.959  27.117  1.00  0.00    -0.206 F 
ATOM     91  C   UNL A   1      45.957  35.060  29.904  1.00  0.00     0.006 A 
ENDBRANCH  67  84
ENDBRANCH  41  42
ENDBRANCH  33  36
ENDBRANCH  31  32
ENDBRANCH  30  31
ENDBRANCH   1  30
TORSDOF 14
ENDMDL
MODEL 2
REMARK VINA RESULT:     -12.4      4.841     10.611
REMARK SMILES CC[NH+]1CC[NH+]([C@@H]2CC(=O)N(c3ccc(C(=O)NCCCCNC(=O)c4ccc(-c5c6nc(c(-c7c(F)cccc7F)c7ccc([nH]7)c(-c7c(F)cccc7F)c7nc(c(-c8c(F)cccc8F)c8ccc5[nH]8)C=C7)C=C6)cc4)cc3)C2=O)CC1
REMARK SMILES IDX 20 1 19 2 18 3 16 4 17 5 15 7 12 8 13 9 81 10 14 11 80 12
REMARK SMILES IDX 11 13 7 14 8 15 82 16 9 17 83 18 10 19 6 20 3 21 4 22 85 23
REMARK SMILES IDX 5 25 84 26 2 28 1 29 21 30 22 31 23 32 24 33 25 35 26 36
REMARK SMILES IDX 27 37 79 38 28 39 78 40 29 41 30 42 31 43 72 44 32 45 77 46
REMARK SMILES IDX 71 47 73 48 33 49 76 50 70 51 69 52 34 54 60 55 43 56 59 57
REMARK SMILES IDX 44 58 47 59 58 60 74 61 45 62 46 63 57 65 75 66 48 67 35 68
REMARK SMILES IDX 36 69 41 70 37 71 38 72 40 73 42 74 39 75 61 76 62 77 67 78
REMARK SMILES IDX 63 79 64 80 66 81 68 82 65 83 49 84 50 85 55 86 51 87 52 88
REMARK SMILES IDX 54 89 56 90 53 91
REMARK H PARENT 18 6 3 24 6 27 23 34 73 53 47 64
REMARK Flexibility Score: inf
ROOT
ATOM      1  C   UNL A   1      31.028  31.690  25.827  1.00  0.00     0.023 C 
ENDROOT
BRANCH   1   2
ATOM      2  C   UNL A   1      31.165  30.269  25.266  1.00  0.00     0.116 C 
BRANCH   2   3
ATOM      3  N   UNL A   1      30.587  30.184  23.941  1.00  0.00    -0.352 N 
ATOM      4  C   UNL A   1      30.594  29.181  23.004  1.00  0.00     0.251 C 
ATOM      5  O   UNL A   1      29.980  29.384  21.956  1.00  0.00    -0.269 OA
ATOM      6  H   UNL A   1      30.100  30.993  23.661  1.00  0.00     0.163 HD
BRANCH   4   7
ATOM      7  C   UNL A   1      31.270  27.865  23.207  1.00  0.00     0.039 A 
ATOM      8  C   UNL A   1      32.391  25.312  23.640  1.00  0.00     0.052 A 
ATOM      9  C   UNL A   1      31.007  25.461  23.518  1.00  0.00     0.027 A 
ATOM     10  C   UNL A   1      33.209  26.429  23.513  1.00  0.00     0.027 A 
ATOM     11  C   UNL A   1      30.451  26.733  23.334  1.00  0.00     0.016 A 
ATOM     12  C   UNL A   1      32.651  27.677  23.246  1.00  0.00     0.016 A 
BRANCH   8  13
ATOM     13  N   UNL A   1      32.976  24.056  23.870  1.00  0.00    -0.245 N 
ATOM     14  C   UNL A   1      33.791  22.160  24.975  1.00  0.00     0.285 C 
ATOM     15  C   UNL A   1      34.024  22.006  23.478  1.00  0.00     0.176 C 
ATOM     16  C   UNL A   1      32.982  23.442  25.097  1.00  0.00     0.292 C 
ATOM     17  C   UNL A   1      33.532  23.285  22.882  1.00  0.00     0.240 C 
ATOM     18  O   UNL A   1      32.432  23.826  26.122  1.00  0.00    -0.267 OA
ATOM     19  O   UNL A   1      33.651  23.548  21.692  1.00  0.00    -0.274 OA
BRANCH  14  20
ATOM     20  N   UNL A   1      34.939  22.183  25.895  1.00  0.00    -0.315 N 
ATOM     21  N   UNL A   1      37.780  22.604  25.022  1.00  0.00    -0.326 N 
ATOM     22  C   UNL A   1      37.109  21.307  24.858  1.00  0.00     0.324 C 
ATOM     23  C   UNL A   1      36.792  23.697  25.045  1.00  0.00     0.324 C 
ATOM     24  H   UNL A   1      38.376  22.666  24.197  1.00  0.00     0.348 HD
ATOM     25  C   UNL A   1      35.869  21.056  25.751  1.00  0.00     0.325 C 
ATOM     26  C   UNL A   1      35.654  23.457  26.057  1.00  0.00     0.325 C 
ATOM     27  H   UNL A   1      34.448  22.063  26.782  1.00  0.00     0.349 HD
BRANCH  21  28
ATOM     28  C   UNL A   1      38.744  22.739  26.124  1.00  0.00     0.259 C 
ATOM     29  C   UNL A   1      39.742  21.617  26.385  1.00  0.00     0.071 C 
ENDBRANCH  21  28
ENDBRANCH  14  20
ENDBRANCH   8  13
ENDBRANCH   4   7
ENDBRANCH   2   3
ENDBRANCH   1   2
BRANCH   1  30
ATOM     30  C   UNL A   1      31.642  31.884  27.210  1.00  0.00     0.023 C 
BRANCH  30  31
ATOM     31  C   UNL A   1      32.812  32.853  27.243  1.00  0.00     0.116 C 
BRANCH  31  32
ATOM     32  N   UNL A   1      32.437  34.203  27.635  1.00  0.00    -0.352 N 
ATOM     33  C   UNL A   1      33.010  34.990  28.607  1.00  0.00     0.251 C 
ATOM     34  H   UNL A   1      31.681  34.601  27.146  1.00  0.00     0.163 HD
ATOM     35  O   UNL A   1      32.529  36.070  28.905  1.00  0.00    -0.269 OA
BRANCH  33  36
ATOM     36  C   UNL A   1      34.193  34.471  29.320  1.00  0.00     0.039 A 
ATOM     37  C   UNL A   1      34.007  33.810  30.536  1.00  0.00     0.014 A 
ATOM     38  C   UNL A   1      35.466  34.579  28.753  1.00  0.00     0.014 A 
ATOM     39  C   UNL A   1      35.096  33.199  31.155  1.00  0.00     0.010 A 
ATOM     40  C   UNL A   1      36.533  33.903  29.331  1.00  0.00     0.010 A 
ATOM     41  C   UNL A   1      36.358  33.212  30.538  1.00  0.00    -0.014 A 
BRANCH  41  42
ATOM     42  C   UNL A   1      37.512  32.509  31.147  1.00  0.00     0.031 A 
ATOM     43  C   UNL A   1      38.057  32.968  32.468  1.00  0.00     0.074 A 
ATOM     44  C   UNL A   1      38.102  31.500  30.480  1.00  0.00     0.049 A 
ATOM     45  N   UNL A   1      39.072  32.501  33.149  1.00  0.00    -0.248 NA
ATOM     46  C   UNL A   1      37.392  34.122  33.092  1.00  0.00     0.031 C 
ATOM     47  C   UNL A   1      37.695  31.001  29.165  1.00  0.00     0.029 A 
ATOM     48  N   UNL A   1      39.171  30.713  30.819  1.00  0.00    -0.354 N 
ATOM     49  C   UNL A   1      39.176  33.313  34.271  1.00  0.00     0.074 A 
ATOM     50  C   UNL A   1      38.160  34.336  34.149  1.00  0.00     0.031 C 
ATOM     51  C   UNL A   1      38.480  29.964  28.828  1.00  0.00     0.029 A 
ATOM     52  C   UNL A   1      39.461  29.748  29.887  1.00  0.00     0.049 A 
ATOM     53  H   UNL A   1      39.684  30.828  31.653  1.00  0.00     0.167 HD
ATOM     54  C   UNL A   1      40.023  33.201  35.322  1.00  0.00     0.037 A 
ATOM     55  C   UNL A   1      40.407  28.791  29.892  1.00  0.00     0.037 A 
ATOM     56  C   UNL A   1      41.015  32.166  35.450  1.00  0.00     0.049 A 
ATOM     57  C   UNL A   1      41.339  28.689  31.065  1.00  0.00     0.074 A 
ATOM     58  C   UNL A   1      41.873  31.919  36.505  1.00  0.00     0.029 A 
ATOM     59  N   UNL A   1      41.281  31.208  34.482  1.00  0.00    -0.354 N 
ATOM     60  N   UNL A   1      41.377  29.412  32.158  1.00  0.00    -0.248 NA
ATOM     61  C   UNL A   1      42.359  27.632  31.006  1.00  0.00     0.031 C 
ATOM     62  C   UNL A   1      42.690  30.835  36.159  1.00  0.00     0.029 A 
ATOM     63  C   UNL A   1      42.309  30.382  34.905  1.00  0.00     0.049 A 
ATOM     64  H   UNL A   1      40.810  31.127  33.621  1.00  0.00     0.167 HD
ATOM     65  C   UNL A   1      42.403  28.883  32.929  1.00  0.00     0.074 A 
ATOM     66  C   UNL A   1      42.955  27.770  32.182  1.00  0.00     0.031 C 
ATOM     67  C   UNL A   1      42.846  29.279  34.148  1.00  0.00     0.037 A 
BRANCH  54  68
ATOM     68  C   UNL A   1      39.905  34.231  36.406  1.00  0.00     0.057 A 
ATOM     69  C   UNL A   1      39.108  34.022  37.542  1.00  0.00     0.134 A 
ATOM     70  C   UNL A   1      40.587  35.450  36.312  1.00  0.00     0.134 A 
ATOM     71  F   UNL A   1      38.416  32.882  37.685  1.00  0.00    -0.206 F 
ATOM     72  C   UNL A   1      38.963  35.004  38.523  1.00  0.00     0.040 A 
ATOM     73  C   UNL A   1      40.471  36.428  37.302  1.00  0.00     0.040 A 
ATOM     74  F   UNL A   1      41.369  35.714  35.256  1.00  0.00    -0.206 F 
ATOM     75  C   UNL A   1      39.650  36.210  38.405  1.00  0.00     0.006 A 
ENDBRANCH  54  68
BRANCH  55  76
ATOM     76  C   UNL A   1      40.481  27.818  28.775  1.00  0.00     0.057 A 
ATOM     77  C   UNL A   1      39.738  26.633  28.812  1.00  0.00     0.134 A 
ATOM     78  C   UNL A   1      41.277  28.048  27.647  1.00  0.00     0.134 A 
ATOM     79  F   UNL A   1      38.970  26.352  29.875  1.00  0.00    -0.206 F 
ATOM     80  C   UNL A   1      39.792  25.703  27.773  1.00  0.00     0.040 A 
ATOM     81  C   UNL A   1      41.325  27.137  26.591  1.00  0.00     0.040 A 
ATOM     82  F   UNL A   1      42.006  29.170  27.550  1.00  0.00    -0.206 F 
ATOM     83  C   UNL A   1      40.584  25.958  26.654  1.00  0.00     0.006 A 
ENDBRANCH  55  76
BRANCH  67  84
ATOM     84  C   UNL A   1      43.962  28.485  34.757  1.00  0.00     0.057 A 
ATOM     85  C   UNL A   1      43.725  27.307  35.476  1.00  0.00     0.134 A 
ATOM     86  C   UNL A   1      45.294  28.890  34.598  1.00  0.00     0.134 A 
ATOM     87  F   UNL A   1      42.471  26.874  35.676  1.00  0.00    -0.206 F 
ATOM     88  C   UNL A   1      44.771  26.573  36.036  1.00  0.00     0.040 A 
ATOM     89  C   UNL A   1      46.349  28.151  35.133  1.00  0.00     0.040 A 
ATOM     90  F   UNL A   1      45.590  30.006  33.914  1.00  0.00    -0.206 F 
ATOM     91  C   UNL A   1      46.089  26.992  35.860  1.00  0.00     0.006 A 
ENDBRANCH  67  84
ENDBRANCH  41  42
ENDBRANCH  33  36
ENDBRANCH  31  32
ENDBRANCH  30  31
ENDBRANCH   1  30
TORSDOF 14
ENDMDL
MODEL 3
REMARK VINA RESULT:     -12.4      2.010      2.918
REMARK SMILES CC[NH+]1CC[NH+]([C@@H]2CC(=O)N(c3ccc(C(=O)NCCCCNC(=O)c4ccc(-c5c6nc(c(-c7c(F)cccc7F)c7ccc([nH]7)c(-c7c(F)cccc7F)c7nc(c(-c8c(F)cccc8F)c8ccc5[nH]8)C=C7)C=C6)cc4)cc3)C2=O)CC1
REMARK SMILES IDX 20 1 19 2 18 3 16 4 17 5 15 7 12 8 13 9 81 10 14 11 80 12
REMARK SMILES IDX 11 13 7 14 8 15 82 16 9 17 83 18 10 19 6 20 3 21 4 22 85 23
REMARK SMILES IDX 5 25 84 26 2 28 1 29 21 30 22 31 23 32 24 33 25 35 26 36
REMARK SMILES IDX 27 37 79 38 28 39 78 40 29 41 30 42 31 43 72 44 32 45 77 46
REMARK SMILES IDX 71 47 73 48 33 49 76 50 70 51 69 52 34 54 60 55 43 56 59 57
REMARK SMILES IDX 44 58 47 59 58 60 74 61 45 62 46 63 57 65 75 66 48 67 35 68
REMARK SMILES IDX 36 69 41 70 37 71 38 72 40 73 42 74 39 75 61 76 62 77 67 78
REMARK SMILES IDX 63 79 64 80 66 81 68 82 65 83 49 84 50 85 55 86 51 87 52 88
REMARK SMILES IDX 54 89 56 90 53 91
REMARK H PARENT 18 6 3 24 6 27 23 34 73 53 47 64
REMARK Flexibility Score: inf
ROOT
ATOM      1  C   UNL A   1      36.166  19.937  25.182  1.00  0.00     0.023 C 
ENDROOT
BRANCH   1   2
ATOM      2  C   UNL A   1      35.606  18.722  24.433  1.00  0.00     0.116 C 
BRANCH   2   3
ATOM      3  N   UNL A   1      34.339  18.311  25.000  1.00  0.00    -0.352 N 
ATOM      4  C   UNL A   1      33.139  18.967  25.130  1.00  0.00     0.251 C 
ATOM      5  O   UNL A   1      32.207  18.342  25.636  1.00  0.00    -0.269 OA
ATOM      6  H   UNL A   1      34.336  17.393  25.357  1.00  0.00     0.163 HD
BRANCH   4   7
ATOM      7  C   UNL A   1      32.907  20.365  24.660  1.00  0.00     0.039 A 
ATOM      8  C   UNL A   1      32.482  22.949  23.609  1.00  0.00     0.052 A 
ATOM      9  C   UNL A   1      32.332  21.824  22.793  1.00  0.00     0.027 A 
ATOM     10  C   UNL A   1      32.809  22.778  24.949  1.00  0.00     0.027 A 
ATOM     11  C   UNL A   1      32.574  20.545  23.309  1.00  0.00     0.016 A 
ATOM     12  C   UNL A   1      32.966  21.498  25.473  1.00  0.00     0.016 A 
BRANCH   8  13
ATOM     13  N   UNL A   1      32.290  24.247  23.109  1.00  0.00    -0.245 N 
ATOM     14  C   UNL A   1      32.736  26.385  22.264  1.00  0.00     0.285 C 
ATOM     15  C   UNL A   1      31.230  26.205  22.403  1.00  0.00     0.176 C 
ATOM     16  C   UNL A   1      33.309  25.018  22.606  1.00  0.00     0.292 C 
ATOM     17  C   UNL A   1      31.062  24.847  23.003  1.00  0.00     0.240 C 
ATOM     18  O   UNL A   1      34.476  24.688  22.436  1.00  0.00    -0.267 OA
ATOM     19  O   UNL A   1      29.971  24.405  23.342  1.00  0.00    -0.274 OA
BRANCH  14  20
ATOM     20  N   UNL A   1      33.419  27.438  23.031  1.00  0.00    -0.315 N 
ATOM     21  N   UNL A   1      32.210  28.851  25.387  1.00  0.00    -0.326 N 
ATOM     22  C   UNL A   1      31.835  29.194  24.008  1.00  0.00     0.324 C 
ATOM     23  C   UNL A   1      32.683  27.458  25.461  1.00  0.00     0.324 C 
ATOM     24  H   UNL A   1      31.340  28.971  25.904  1.00  0.00     0.348 HD
ATOM     25  C   UNL A   1      32.832  28.777  22.899  1.00  0.00     0.325 C 
ATOM     26  C   UNL A   1      33.779  27.140  24.424  1.00  0.00     0.325 C 
ATOM     27  H   UNL A   1      34.316  27.448  22.543  1.00  0.00     0.349 HD
BRANCH  21  28
ATOM     28  C   UNL A   1      33.127  29.760  26.091  1.00  0.00     0.259 C 
ATOM     29  C   UNL A   1      32.556  30.830  27.013  1.00  0.00     0.071 C 
ENDBRANCH  21  28
ENDBRANCH  14  20
ENDBRANCH   8  13
ENDBRANCH   4   7
ENDBRANCH   2   3
ENDBRANCH   1   2
BRANCH   1  30
ATOM     30  C   UNL A   1      37.481  20.472  24.623  1.00  0.00     0.023 C 
BRANCH  30  31
ATOM     31  C   UNL A   1      38.583  20.626  25.658  1.00  0.00     0.116 C 
BRANCH  31  32
ATOM     32  N   UNL A   1      39.570  19.558  25.618  1.00  0.00    -0.352 N 
ATOM     33  C   UNL A   1      40.895  19.619  25.984  1.00  0.00     0.251 C 
ATOM     34  H   UNL A   1      39.252  18.687  25.288  1.00  0.00     0.163 HD
ATOM     35  O   UNL A   1      41.642  18.671  25.802  1.00  0.00    -0.269 OA
BRANCH  33  36
ATOM     36  C   UNL A   1      41.406  20.880  26.555  1.00  0.00     0.039 A 
ATOM     37  C   UNL A   1      41.943  21.838  25.692  1.00  0.00     0.014 A 
ATOM     38  C   UNL A   1      41.290  21.137  27.924  1.00  0.00     0.014 A 
ATOM     39  C   UNL A   1      42.307  23.085  26.196  1.00  0.00     0.010 A 
ATOM     40  C   UNL A   1      41.579  22.406  28.409  1.00  0.00     0.010 A 
ATOM     41  C   UNL A   1      42.094  23.388  27.551  1.00  0.00    -0.014 A 
BRANCH  41  42
ATOM     42  C   UNL A   1      42.411  24.731  28.091  1.00  0.00     0.031 A 
ATOM     43  C   UNL A   1      43.820  25.069  28.482  1.00  0.00     0.074 A 
ATOM     44  C   UNL A   1      41.419  25.620  28.284  1.00  0.00     0.049 A 
ATOM     45  N   UNL A   1      44.291  26.177  28.994  1.00  0.00    -0.248 NA
ATOM     46  C   UNL A   1      44.827  24.013  28.301  1.00  0.00     0.031 C 
ATOM     47  C   UNL A   1      40.003  25.386  27.992  1.00  0.00     0.029 A 
ATOM     48  N   UNL A   1      41.452  26.900  28.771  1.00  0.00    -0.354 N 
ATOM     49  C   UNL A   1      45.643  25.945  29.210  1.00  0.00     0.074 A 
ATOM     50  C   UNL A   1      45.903  24.574  28.830  1.00  0.00     0.031 C 
ATOM     51  C   UNL A   1      39.309  26.503  28.268  1.00  0.00     0.029 A 
ATOM     52  C   UNL A   1      40.224  27.516  28.783  1.00  0.00     0.049 A 
ATOM     53  H   UNL A   1      42.278  27.338  29.083  1.00  0.00     0.167 HD
ATOM     54  C   UNL A   1      46.589  26.804  29.659  1.00  0.00     0.037 A 
ATOM     55  C   UNL A   1      39.881  28.761  29.160  1.00  0.00     0.037 A 
ATOM     56  C   UNL A   1      46.329  28.175  30.013  1.00  0.00     0.049 A 
ATOM     57  C   UNL A   1      40.945  29.695  29.661  1.00  0.00     0.074 A 
ATOM     58  C   UNL A   1      47.226  29.149  30.409  1.00  0.00     0.029 A 
ATOM     59  N   UNL A   1      45.072  28.761  30.016  1.00  0.00    -0.354 N 
ATOM     60  N   UNL A   1      42.234  29.491  29.785  1.00  0.00    -0.248 NA
ATOM     61  C   UNL A   1      40.505  31.037  30.069  1.00  0.00     0.031 C 
ATOM     62  C   UNL A   1      46.506  30.316  30.693  1.00  0.00     0.029 A 
ATOM     63  C   UNL A   1      45.166  30.079  30.432  1.00  0.00     0.049 A 
ATOM     64  H   UNL A   1      44.235  28.308  29.761  1.00  0.00     0.167 HD
ATOM     65  C   UNL A   1      42.765  30.683  30.259  1.00  0.00     0.074 A 
ATOM     66  C   UNL A   1      41.657  31.609  30.389  1.00  0.00     0.031 C 
ATOM     67  C   UNL A   1      44.052  30.986  30.555  1.00  0.00     0.037 A 
BRANCH  54  68
ATOM     68  C   UNL A   1      47.986  26.273  29.792  1.00  0.00     0.057 A 
ATOM     69  C   UNL A   1      48.876  26.254  28.708  1.00  0.00     0.134 A 
ATOM     70  C   UNL A   1      48.445  25.766  31.013  1.00  0.00     0.134 A 
ATOM     71  F   UNL A   1      48.492  26.709  27.506  1.00  0.00    -0.206 F 
ATOM     72  C   UNL A   1      50.157  25.713  28.824  1.00  0.00     0.040 A 
ATOM     73  C   UNL A   1      49.735  25.248  31.149  1.00  0.00     0.040 A 
ATOM     74  F   UNL A   1      47.649  25.758  32.092  1.00  0.00    -0.206 F 
ATOM     75  C   UNL A   1      50.591  25.212  30.050  1.00  0.00     0.006 A 
ENDBRANCH  54  68
BRANCH  55  76
ATOM     76  C   UNL A   1      38.475  29.214  29.023  1.00  0.00     0.057 A 
ATOM     77  C   UNL A   1      37.607  29.187  30.121  1.00  0.00     0.134 A 
ATOM     78  C   UNL A   1      37.968  29.692  27.810  1.00  0.00     0.134 A 
ATOM     79  F   UNL A   1      38.033  28.724  31.306  1.00  0.00    -0.206 F 
ATOM     80  C   UNL A   1      36.282  29.608  30.016  1.00  0.00     0.040 A 
ATOM     81  C   UNL A   1      36.650  30.135  27.694  1.00  0.00     0.040 A 
ATOM     82  F   UNL A   1      38.753  29.749  26.723  1.00  0.00    -0.206 F 
ATOM     83  C   UNL A   1      35.801  30.090  28.799  1.00  0.00     0.006 A 
ENDBRANCH  55  76
BRANCH  67  84
ATOM     84  C   UNL A   1      44.332  32.384  31.021  1.00  0.00     0.057 A 
ATOM     85  C   UNL A   1      44.595  33.425  30.122  1.00  0.00     0.134 A 
ATOM     86  C   UNL A   1      44.311  32.697  32.387  1.00  0.00     0.134 A 
ATOM     87  F   UNL A   1      44.643  33.186  28.802  1.00  0.00    -0.206 F 
ATOM     88  C   UNL A   1      44.851  34.722  30.565  1.00  0.00     0.040 A 
ATOM     89  C   UNL A   1      44.542  33.996  32.840  1.00  0.00     0.040 A 
ATOM     90  F   UNL A   1      44.059  31.747  33.300  1.00  0.00    -0.206 F 
ATOM     91  C   UNL A   1      44.819  35.012  31.928  1.00  0.00     0.006 A 
ENDBRANCH  67  84
ENDBRANCH  41  42
ENDBRANCH  33  36
ENDBRANCH  31  32
ENDBRANCH  30  31
ENDBRANCH   1  30
TORSDOF 14
ENDMDL
