MODEL 1
REMARK VINA RESULT:     -11.6      0.000      0.000
REMARK SMILES Cc1cc(C(=O)N[C@H](CC(C)C)C(=O)NCCCCNC(=O)c2ccc(-c3c4nc(c(-c5c(F)cccc5F)c5ccc([nH]5)c(-c5c(F)cccc5F)c5nc(c(-c6c(F)cccc6F)c6ccc3[nH]6)C=C5)C=C4)cc2)sc1Br
REMARK SMILES IDX 17 1 16 2 15 3 13 4 14 5 8 7 7 8 5 9 6 10 4 12 1 13 2 14
REMARK SMILES IDX 3 15 78 16 77 17 79 18 9 19 10 20 11 21 12 22 18 23 19 24
REMARK SMILES IDX 20 25 21 26 22 28 23 29 24 30 76 31 25 32 75 33 26 34 27 35
REMARK SMILES IDX 28 36 69 37 29 38 74 39 68 40 70 41 30 42 73 43 67 44 66 45
REMARK SMILES IDX 31 47 57 48 40 49 56 50 41 51 44 52 55 53 71 54 42 55 43 56
REMARK SMILES IDX 54 58 72 59 45 60 32 61 33 62 38 63 34 64 35 65 37 66 39 67
REMARK SMILES IDX 36 68 58 69 59 70 64 71 60 72 61 73 63 74 65 75 62 76 46 77
REMARK SMILES IDX 47 78 52 79 48 80 49 81 51 82 53 83 50 84
REMARK H PARENT 15 6 7 11 20 27 70 46 44 57
REMARK Flexibility Score: inf
ROOT
ATOM      1  C   UNL A   1      32.870  28.311  26.348  1.00  0.00     0.023 C 
ENDROOT
BRANCH   1   2
ATOM      2  C   UNL A   1      31.669  28.612  25.453  1.00  0.00     0.116 C 
BRANCH   2   3
ATOM      3  N   UNL A   1      30.927  27.409  25.135  1.00  0.00    -0.354 N 
ATOM      4  C   UNL A   1      30.441  26.900  23.972  1.00  0.00     0.242 C 
ATOM      5  O   UNL A   1      29.714  25.903  24.092  1.00  0.00    -0.273 OA
ATOM      6  H   UNL A   1      30.736  26.846  25.920  1.00  0.00     0.163 HD
BRANCH   4   7
ATOM      7  C   UNL A   1      30.664  27.498  22.554  1.00  0.00     0.171 C 
BRANCH   7   8
ATOM      8  N   UNL A   1      31.603  26.894  21.586  1.00  0.00    -0.340 N 
ATOM      9  C   UNL A   1      32.630  25.989  21.532  1.00  0.00     0.262 C 
ATOM     10  O   UNL A   1      33.144  25.909  20.412  1.00  0.00    -0.268 OA
ATOM     11  H   UNL A   1      31.436  27.261  20.688  1.00  0.00     0.164 HD
BRANCH   9  12
ATOM     12  C   UNL A   1      33.042  25.144  22.642  1.00  0.00     0.093 A 
ATOM     13  C   UNL A   1      33.965  24.420  26.222  1.00  0.00     0.046 C 
ATOM     14  C   UNL A   1      33.616  24.284  24.775  1.00  0.00    -0.025 A 
ATOM     15  C   UNL A   1      33.622  25.399  23.865  1.00  0.00     0.030 A 
ATOM     16  C   UNL A   1      33.205  23.154  24.108  1.00  0.00     0.074 A 
ATOM     17  S   UNL A   1      32.760  23.444  22.499  1.00  0.00    -0.123 S 
ATOM     18  Br  UNL A   1      33.082  21.444  24.869  1.00  0.00    -0.039 Br
ENDBRANCH   9  12
ENDBRANCH   7   8
BRANCH   7  19
ATOM     19  C   UNL A   1      30.408  29.009  22.324  1.00  0.00     0.038 C 
BRANCH  19  20
ATOM     20  C   UNL A   1      29.025  29.682  22.526  1.00  0.00    -0.015 C 
ATOM     21  C   UNL A   1      27.823  28.821  22.914  1.00  0.00     0.007 C 
ATOM     22  C   UNL A   1      29.181  30.765  23.611  1.00  0.00     0.007 C 
ENDBRANCH  19  20
ENDBRANCH   7  19
ENDBRANCH   4   7
ENDBRANCH   2   3
ENDBRANCH   1   2
BRANCH   1  23
ATOM     23  C   UNL A   1      33.461  29.475  27.144  1.00  0.00     0.023 C 
BRANCH  23  24
ATOM     24  C   UNL A   1      34.879  29.208  27.645  1.00  0.00     0.116 C 
BRANCH  24  25
ATOM     25  N   UNL A   1      35.359  30.225  28.590  1.00  0.00    -0.352 N 
ATOM     26  C   UNL A   1      36.545  30.227  29.298  1.00  0.00     0.251 C 
ATOM     27  H   UNL A   1      34.764  30.996  28.737  1.00  0.00     0.163 HD
ATOM     28  O   UNL A   1      36.712  30.930  30.288  1.00  0.00    -0.269 OA
BRANCH  26  29
ATOM     29  C   UNL A   1      37.604  29.327  28.829  1.00  0.00     0.039 A 
ATOM     30  C   UNL A   1      38.318  29.633  27.671  1.00  0.00     0.014 A 
ATOM     31  C   UNL A   1      38.024  28.331  29.708  1.00  0.00     0.014 A 
ATOM     32  C   UNL A   1      39.554  29.025  27.473  1.00  0.00     0.010 A 
ATOM     33  C   UNL A   1      39.297  27.817  29.561  1.00  0.00     0.010 A 
ATOM     34  C   UNL A   1      40.081  28.167  28.456  1.00  0.00    -0.014 A 
BRANCH  34  35
ATOM     35  C   UNL A   1      41.506  27.807  28.405  1.00  0.00     0.031 A 
ATOM     36  C   UNL A   1      41.848  26.547  27.662  1.00  0.00     0.074 A 
ATOM     37  C   UNL A   1      42.524  28.619  28.762  1.00  0.00     0.049 A 
ATOM     38  N   UNL A   1      42.417  25.479  28.119  1.00  0.00    -0.248 NA
ATOM     39  C   UNL A   1      41.461  26.451  26.244  1.00  0.00     0.031 C 
ATOM     40  C   UNL A   1      42.479  30.015  29.206  1.00  0.00     0.029 A 
ATOM     41  N   UNL A   1      43.864  28.366  28.698  1.00  0.00    -0.354 N 
ATOM     42  C   UNL A   1      42.618  24.636  27.023  1.00  0.00     0.074 A 
ATOM     43  C   UNL A   1      41.906  25.234  25.922  1.00  0.00     0.031 C 
ATOM     44  C   UNL A   1      43.719  30.548  29.150  1.00  0.00     0.029 A 
ATOM     45  C   UNL A   1      44.663  29.487  28.858  1.00  0.00     0.049 A 
ATOM     46  H   UNL A   1      44.231  27.466  28.550  1.00  0.00     0.167 HD
ATOM     47  C   UNL A   1      43.507  23.603  27.057  1.00  0.00     0.037 A 
ATOM     48  C   UNL A   1      46.012  29.553  28.769  1.00  0.00     0.037 A 
ATOM     49  C   UNL A   1      43.861  23.248  28.407  1.00  0.00     0.049 A 
ATOM     50  C   UNL A   1      46.543  28.186  28.954  1.00  0.00     0.074 A 
ATOM     51  C   UNL A   1      43.160  22.843  29.527  1.00  0.00     0.029 A 
ATOM     52  N   UNL A   1      45.099  23.612  28.873  1.00  0.00    -0.354 N 
ATOM     53  N   UNL A   1      46.513  27.536  30.082  1.00  0.00    -0.248 NA
ATOM     54  C   UNL A   1      46.774  27.373  27.772  1.00  0.00     0.031 C 
ATOM     55  C   UNL A   1      43.813  23.492  30.620  1.00  0.00     0.029 A 
ATOM     56  C   UNL A   1      44.895  24.200  30.096  1.00  0.00     0.049 A 
ATOM     57  H   UNL A   1      45.963  23.478  28.421  1.00  0.00     0.167 HD
ATOM     58  C   UNL A   1      46.282  26.219  29.724  1.00  0.00     0.074 A 
ATOM     59  C   UNL A   1      46.577  26.160  28.295  1.00  0.00     0.031 C 
ATOM     60  C   UNL A   1      45.610  25.366  30.553  1.00  0.00     0.037 A 
BRANCH  47  61
ATOM     61  C   UNL A   1      44.308  23.119  25.869  1.00  0.00     0.057 A 
ATOM     62  C   UNL A   1      44.350  21.744  25.564  1.00  0.00     0.134 A 
ATOM     63  C   UNL A   1      45.264  23.905  25.197  1.00  0.00     0.134 A 
ATOM     64  F   UNL A   1      43.509  20.882  26.155  1.00  0.00    -0.206 F 
ATOM     65  C   UNL A   1      45.310  21.190  24.706  1.00  0.00     0.040 A 
ATOM     66  C   UNL A   1      46.195  23.370  24.298  1.00  0.00     0.040 A 
ATOM     67  F   UNL A   1      45.415  25.212  25.445  1.00  0.00    -0.206 F 
ATOM     68  C   UNL A   1      46.240  22.004  24.073  1.00  0.00     0.006 A 
ENDBRANCH  47  61
BRANCH  48  69
ATOM     69  C   UNL A   1      46.864  30.683  28.356  1.00  0.00     0.057 A 
ATOM     70  C   UNL A   1      46.812  31.193  27.053  1.00  0.00     0.134 A 
ATOM     71  C   UNL A   1      47.546  31.463  29.305  1.00  0.00     0.134 A 
ATOM     72  F   UNL A   1      46.156  30.532  26.088  1.00  0.00    -0.206 F 
ATOM     73  C   UNL A   1      47.376  32.429  26.718  1.00  0.00     0.040 A 
ATOM     74  C   UNL A   1      48.121  32.695  28.982  1.00  0.00     0.040 A 
ATOM     75  F   UNL A   1      47.598  31.094  30.594  1.00  0.00    -0.206 F 
ATOM     76  C   UNL A   1      48.021  33.191  27.688  1.00  0.00     0.006 A 
ENDBRANCH  48  69
BRANCH  60  77
ATOM     77  C   UNL A   1      45.373  25.808  31.973  1.00  0.00     0.057 A 
ATOM     78  C   UNL A   1      46.296  25.639  33.017  1.00  0.00     0.134 A 
ATOM     79  C   UNL A   1      44.218  26.538  32.270  1.00  0.00     0.134 A 
ATOM     80  F   UNL A   1      47.480  25.052  32.811  1.00  0.00    -0.206 F 
ATOM     81  C   UNL A   1      46.049  26.116  34.309  1.00  0.00     0.040 A 
ATOM     82  C   UNL A   1      43.975  27.054  33.547  1.00  0.00     0.040 A 
ATOM     83  F   UNL A   1      43.315  26.798  31.310  1.00  0.00    -0.206 F 
ATOM     84  C   UNL A   1      44.885  26.828  34.576  1.00  0.00     0.006 A 
ENDBRANCH  60  77
ENDBRANCH  34  35
ENDBRANCH  26  29
ENDBRANCH  24  25
ENDBRANCH  23  24
ENDBRANCH   1  23
TORSDOF 15
ENDMDL
MODEL 2
REMARK VINA RESULT:     -11.5      3.161      7.707
REMARK SMILES Cc1cc(C(=O)N[C@H](CC(C)C)C(=O)NCCCCNC(=O)c2ccc(-c3c4nc(c(-c5c(F)cccc5F)c5ccc([nH]5)c(-c5c(F)cccc5F)c5nc(c(-c6c(F)cccc6F)c6ccc3[nH]6)C=C5)C=C4)cc2)sc1Br
REMARK SMILES IDX 17 1 16 2 15 3 13 4 14 5 8 7 7 8 5 9 6 10 4 12 1 13 2 14
REMARK SMILES IDX 3 15 78 16 77 17 79 18 9 19 10 20 11 21 12 22 18 23 19 24
REMARK SMILES IDX 20 25 21 26 22 28 23 29 24 30 76 31 25 32 75 33 26 34 27 35
REMARK SMILES IDX 28 36 69 37 29 38 74 39 68 40 70 41 30 42 73 43 67 44 66 45
REMARK SMILES IDX 31 47 57 48 40 49 56 50 41 51 44 52 55 53 71 54 42 55 43 56
REMARK SMILES IDX 54 58 72 59 45 60 32 61 33 62 38 63 34 64 35 65 37 66 39 67
REMARK SMILES IDX 36 68 58 69 59 70 64 71 60 72 61 73 63 74 65 75 62 76 46 77
REMARK SMILES IDX 47 78 52 79 48 80 49 81 51 82 53 83 50 84
REMARK H PARENT 15 6 7 11 20 27 70 46 44 57
REMARK Flexibility Score: inf
ROOT
ATOM      1  C   UNL A   1      40.328  22.032  26.515  1.00  0.00     0.023 C 
ENDROOT
BRANCH   1   2
ATOM      2  C   UNL A   1      38.869  22.225  26.105  1.00  0.00     0.116 C 
BRANCH   2   3
ATOM      3  N   UNL A   1      38.308  21.011  25.548  1.00  0.00    -0.354 N 
ATOM      4  C   UNL A   1      37.055  20.670  25.146  1.00  0.00     0.242 C 
ATOM      5  O   UNL A   1      36.900  19.475  24.852  1.00  0.00    -0.273 OA
ATOM      6  H   UNL A   1      38.966  20.287  25.439  1.00  0.00     0.163 HD
BRANCH   4   7
ATOM      7  C   UNL A   1      35.824  21.619  25.097  1.00  0.00     0.171 C 
BRANCH   7   8
ATOM      8  N   UNL A   1      35.502  22.426  23.901  1.00  0.00    -0.340 N 
ATOM      9  C   UNL A   1      34.691  23.457  23.509  1.00  0.00     0.262 C 
ATOM     10  O   UNL A   1      34.778  23.706  22.301  1.00  0.00    -0.268 OA
ATOM     11  H   UNL A   1      36.048  22.124  23.140  1.00  0.00     0.164 HD
BRANCH   9  12
ATOM     12  C   UNL A   1      33.864  24.244  24.410  1.00  0.00     0.093 A 
ATOM     13  C   UNL A   1      33.022  27.246  26.524  1.00  0.00     0.046 C 
ATOM     14  C   UNL A   1      32.956  25.951  25.781  1.00  0.00    -0.025 A 
ATOM     15  C   UNL A   1      34.125  25.285  25.274  1.00  0.00     0.030 A 
ATOM     16  C   UNL A   1      31.835  25.237  25.427  1.00  0.00     0.074 A 
ATOM     17  S   UNL A   1      32.172  23.890  24.457  1.00  0.00    -0.123 S 
ATOM     18  Br  UNL A   1      30.079  25.690  25.904  1.00  0.00    -0.039 Br
ENDBRANCH   9  12
ENDBRANCH   7   8
BRANCH   7  19
ATOM     19  C   UNL A   1      35.273  22.208  26.420  1.00  0.00     0.038 C 
BRANCH  19  20
ATOM     20  C   UNL A   1      34.085  21.586  27.201  1.00  0.00    -0.015 C 
ATOM     21  C   UNL A   1      33.051  22.507  27.850  1.00  0.00     0.007 C 
ATOM     22  C   UNL A   1      33.326  20.650  26.241  1.00  0.00     0.007 C 
ENDBRANCH  19  20
ENDBRANCH   7  19
ENDBRANCH   4   7
ENDBRANCH   2   3
ENDBRANCH   1   2
BRANCH   1  23
ATOM     23  C   UNL A   1      41.032  20.763  26.031  1.00  0.00     0.023 C 
BRANCH  23  24
ATOM     24  C   UNL A   1      42.368  20.509  26.724  1.00  0.00     0.116 C 
BRANCH  24  25
ATOM     25  N   UNL A   1      43.359  19.868  25.851  1.00  0.00    -0.352 N 
ATOM     26  C   UNL A   1      44.258  20.481  25.000  1.00  0.00     0.251 C 
ATOM     27  H   UNL A   1      43.385  18.884  25.874  1.00  0.00     0.163 HD
ATOM     28  O   UNL A   1      44.808  19.876  24.086  1.00  0.00    -0.269 OA
BRANCH  26  29
ATOM     29  C   UNL A   1      44.518  21.908  25.218  1.00  0.00     0.039 A 
ATOM     30  C   UNL A   1      43.755  22.866  24.552  1.00  0.00     0.014 A 
ATOM     31  C   UNL A   1      45.353  22.245  26.281  1.00  0.00     0.014 A 
ATOM     32  C   UNL A   1      43.720  24.160  25.064  1.00  0.00     0.010 A 
ATOM     33  C   UNL A   1      45.227  23.497  26.846  1.00  0.00     0.010 A 
ATOM     34  C   UNL A   1      44.402  24.462  26.257  1.00  0.00    -0.014 A 
BRANCH  34  35
ATOM     35  C   UNL A   1      44.089  25.712  26.966  1.00  0.00     0.031 A 
ATOM     36  C   UNL A   1      44.993  26.879  26.688  1.00  0.00     0.074 A 
ATOM     37  C   UNL A   1      42.948  25.953  27.646  1.00  0.00     0.049 A 
ATOM     38  N   UNL A   1      45.737  27.531  27.522  1.00  0.00    -0.248 NA
ATOM     39  C   UNL A   1      45.119  27.344  25.296  1.00  0.00     0.031 C 
ATOM     40  C   UNL A   1      41.763  25.102  27.792  1.00  0.00     0.029 A 
ATOM     41  N   UNL A   1      42.575  27.100  28.286  1.00  0.00    -0.354 N 
ATOM     42  C   UNL A   1      46.299  28.592  26.808  1.00  0.00     0.074 A 
ATOM     43  C   UNL A   1      45.977  28.358  25.423  1.00  0.00     0.031 C 
ATOM     44  C   UNL A   1      40.734  25.836  28.269  1.00  0.00     0.029 A 
ATOM     45  C   UNL A   1      41.237  27.144  28.643  1.00  0.00     0.049 A 
ATOM     46  H   UNL A   1      43.203  27.834  28.476  1.00  0.00     0.167 HD
ATOM     47  C   UNL A   1      46.831  29.683  27.430  1.00  0.00     0.037 A 
ATOM     48  C   UNL A   1      40.574  28.175  29.216  1.00  0.00     0.037 A 
ATOM     49  C   UNL A   1      47.117  29.419  28.816  1.00  0.00     0.049 A 
ATOM     50  C   UNL A   1      41.577  29.063  29.844  1.00  0.00     0.074 A 
ATOM     51  C   UNL A   1      47.891  28.499  29.498  1.00  0.00     0.029 A 
ATOM     52  N   UNL A   1      46.288  29.960  29.767  1.00  0.00    -0.354 N 
ATOM     53  N   UNL A   1      42.274  28.747  30.897  1.00  0.00    -0.248 NA
ATOM     54  C   UNL A   1      42.090  30.177  29.066  1.00  0.00     0.031 C 
ATOM     55  C   UNL A   1      47.125  28.164  30.656  1.00  0.00     0.029 A 
ATOM     56  C   UNL A   1      45.967  28.941  30.627  1.00  0.00     0.049 A 
ATOM     57  H   UNL A   1      45.984  30.895  29.822  1.00  0.00     0.167 HD
ATOM     58  C   UNL A   1      43.519  29.313  30.677  1.00  0.00     0.074 A 
ATOM     59  C   UNL A   1      43.308  30.281  29.604  1.00  0.00     0.031 C 
ATOM     60  C   UNL A   1      44.653  28.753  31.192  1.00  0.00     0.037 A 
BRANCH  47  61
ATOM     61  C   UNL A   1      46.798  31.090  26.876  1.00  0.00     0.057 A 
ATOM     62  C   UNL A   1      47.966  31.877  26.892  1.00  0.00     0.134 A 
ATOM     63  C   UNL A   1      45.611  31.795  26.599  1.00  0.00     0.134 A 
ATOM     64  F   UNL A   1      49.161  31.333  27.167  1.00  0.00    -0.206 F 
ATOM     65  C   UNL A   1      47.942  33.267  26.710  1.00  0.00     0.040 A 
ATOM     66  C   UNL A   1      45.581  33.175  26.366  1.00  0.00     0.040 A 
ATOM     67  F   UNL A   1      44.408  31.209  26.638  1.00  0.00    -0.206 F 
ATOM     68  C   UNL A   1      46.746  33.921  26.451  1.00  0.00     0.006 A 
ENDBRANCH  47  61
BRANCH  48  69
ATOM     69  C   UNL A   1      39.151  28.545  29.106  1.00  0.00     0.057 A 
ATOM     70  C   UNL A   1      38.304  28.508  30.219  1.00  0.00     0.134 A 
ATOM     71  C   UNL A   1      38.659  29.206  27.968  1.00  0.00     0.134 A 
ATOM     72  F   UNL A   1      38.701  27.925  31.360  1.00  0.00    -0.206 F 
ATOM     73  C   UNL A   1      37.047  29.125  30.216  1.00  0.00     0.040 A 
ATOM     74  C   UNL A   1      37.403  29.820  27.947  1.00  0.00     0.040 A 
ATOM     75  F   UNL A   1      39.417  29.353  26.871  1.00  0.00    -0.206 F 
ATOM     76  C   UNL A   1      36.600  29.796  29.081  1.00  0.00     0.006 A 
ENDBRANCH  48  69
BRANCH  60  77
ATOM     77  C   UNL A   1      44.496  27.672  32.227  1.00  0.00     0.057 A 
ATOM     78  C   UNL A   1      44.312  27.911  33.598  1.00  0.00     0.134 A 
ATOM     79  C   UNL A   1      44.408  26.340  31.807  1.00  0.00     0.134 A 
ATOM     80  F   UNL A   1      44.267  29.155  34.087  1.00  0.00    -0.206 F 
ATOM     81  C   UNL A   1      44.117  26.871  34.513  1.00  0.00     0.040 A 
ATOM     82  C   UNL A   1      44.175  25.293  32.704  1.00  0.00     0.040 A 
ATOM     83  F   UNL A   1      44.509  26.034  30.503  1.00  0.00    -0.206 F 
ATOM     84  C   UNL A   1      44.046  25.556  34.065  1.00  0.00     0.006 A 
ENDBRANCH  60  77
ENDBRANCH  34  35
ENDBRANCH  26  29
ENDBRANCH  24  25
ENDBRANCH  23  24
ENDBRANCH   1  23
TORSDOF 15
ENDMDL
MODEL 3
REMARK VINA RESULT:     -11.2      1.887      6.215
REMARK SMILES Cc1cc(C(=O)N[C@H](CC(C)C)C(=O)NCCCCNC(=O)c2ccc(-c3c4nc(c(-c5c(F)cccc5F)c5ccc([nH]5)c(-c5c(F)cccc5F)c5nc(c(-c6c(F)cccc6F)c6ccc3[nH]6)C=C5)C=C4)cc2)sc1Br
REMARK SMILES IDX 17 1 16 2 15 3 13 4 14 5 8 7 7 8 5 9 6 10 4 12 1 13 2 14
REMARK SMILES IDX 3 15 78 16 77 17 79 18 9 19 10 20 11 21 12 22 18 23 19 24
REMARK SMILES IDX 20 25 21 26 22 28 23 29 24 30 76 31 25 32 75 33 26 34 27 35
REMARK SMILES IDX 28 36 69 37 29 38 74 39 68 40 70 41 30 42 73 43 67 44 66 45
REMARK SMILES IDX 31 47 57 48 40 49 56 50 41 51 44 52 55 53 71 54 42 55 43 56
REMARK SMILES IDX 54 58 72 59 45 60 32 61 33 62 38 63 34 64 35 65 37 66 39 67
REMARK SMILES IDX 36 68 58 69 59 70 64 71 60 72 61 73 63 74 65 75 62 76 46 77
REMARK SMILES IDX 47 78 52 79 48 80 49 81 51 82 53 83 50 84
REMARK H PARENT 15 6 7 11 20 27 70 46 44 57
REMARK Flexibility Score: inf
ROOT
ATOM      1  C   UNL A   1      33.950  28.296  25.650  1.00  0.00     0.023 C 
ENDROOT
BRANCH   1   2
ATOM      2  C   UNL A   1      32.746  28.802  24.857  1.00  0.00     0.116 C 
BRANCH   2   3
ATOM      3  N   UNL A   1      31.615  27.904  24.977  1.00  0.00    -0.354 N 
ATOM      4  C   UNL A   1      30.706  27.435  24.082  1.00  0.00     0.242 C 
ATOM      5  O   UNL A   1      29.768  26.786  24.569  1.00  0.00    -0.273 OA
ATOM      6  H   UNL A   1      31.477  27.565  25.891  1.00  0.00     0.163 HD
BRANCH   4   7
ATOM      7  C   UNL A   1      30.715  27.703  22.550  1.00  0.00     0.171 C 
BRANCH   7   8
ATOM      8  N   UNL A   1      31.646  27.008  21.637  1.00  0.00    -0.340 N 
ATOM      9  C   UNL A   1      32.589  26.014  21.643  1.00  0.00     0.262 C 
ATOM     10  O   UNL A   1      33.152  25.877  20.552  1.00  0.00    -0.268 OA
ATOM     11  H   UNL A   1      31.560  27.378  20.730  1.00  0.00     0.164 HD
BRANCH   9  12
ATOM     12  C   UNL A   1      32.864  25.146  22.778  1.00  0.00     0.093 A 
ATOM     13  C   UNL A   1      34.467  24.226  26.060  1.00  0.00     0.046 C 
ATOM     14  C   UNL A   1      33.618  24.232  24.831  1.00  0.00    -0.025 A 
ATOM     15  C   UNL A   1      33.878  25.095  23.710  1.00  0.00     0.030 A 
ATOM     16  C   UNL A   1      32.480  23.498  24.586  1.00  0.00     0.074 A 
ATOM     17  S   UNL A   1      31.719  23.900  23.128  1.00  0.00    -0.123 S 
ATOM     18  Br  UNL A   1      31.771  22.203  25.743  1.00  0.00    -0.039 Br
ENDBRANCH   9  12
ENDBRANCH   7   8
BRANCH   7  19
ATOM     19  C   UNL A   1      30.220  29.072  22.021  1.00  0.00     0.038 C 
BRANCH  19  20
ATOM     20  C   UNL A   1      28.929  29.768  22.527  1.00  0.00    -0.015 C 
ATOM     21  C   UNL A   1      29.025  30.800  23.651  1.00  0.00     0.007 C 
ATOM     22  C   UNL A   1      28.264  30.462  21.323  1.00  0.00     0.007 C 
ENDBRANCH  19  20
ENDBRANCH   7  19
ENDBRANCH   4   7
ENDBRANCH   2   3
ENDBRANCH   1   2
BRANCH   1  23
ATOM     23  C   UNL A   1      34.025  28.674  27.130  1.00  0.00     0.023 C 
BRANCH  23  24
ATOM     24  C   UNL A   1      35.172  29.627  27.455  1.00  0.00     0.116 C 
BRANCH  24  25
ATOM     25  N   UNL A   1      34.716  30.938  27.935  1.00  0.00    -0.352 N 
ATOM     26  C   UNL A   1      35.091  31.591  29.093  1.00  0.00     0.251 C 
ATOM     27  H   UNL A   1      34.064  31.406  27.364  1.00  0.00     0.163 HD
ATOM     28  O   UNL A   1      34.430  32.507  29.569  1.00  0.00    -0.269 OA
BRANCH  26  29
ATOM     29  C   UNL A   1      36.315  31.127  29.755  1.00  0.00     0.039 A 
ATOM     30  C   UNL A   1      36.352  29.867  30.352  1.00  0.00     0.014 A 
ATOM     31  C   UNL A   1      37.474  31.868  29.536  1.00  0.00     0.014 A 
ATOM     32  C   UNL A   1      37.592  29.283  30.594  1.00  0.00     0.010 A 
ATOM     33  C   UNL A   1      38.694  31.240  29.676  1.00  0.00     0.010 A 
ATOM     34  C   UNL A   1      38.769  29.940  30.190  1.00  0.00    -0.014 A 
BRANCH  34  35
ATOM     35  C   UNL A   1      40.029  29.185  30.135  1.00  0.00     0.031 A 
ATOM     36  C   UNL A   1      40.734  28.970  31.444  1.00  0.00     0.074 A 
ATOM     37  C   UNL A   1      40.469  28.487  29.066  1.00  0.00     0.049 A 
ATOM     38  N   UNL A   1      41.917  29.366  31.790  1.00  0.00    -0.248 NA
ATOM     39  C   UNL A   1      40.008  28.270  32.518  1.00  0.00     0.031 C 
ATOM     40  C   UNL A   1      39.810  28.261  27.777  1.00  0.00     0.029 A 
ATOM     41  N   UNL A   1      41.601  27.732  28.963  1.00  0.00    -0.354 N 
ATOM     42  C   UNL A   1      42.161  28.829  33.056  1.00  0.00     0.074 A 
ATOM     43  C   UNL A   1      40.912  28.265  33.500  1.00  0.00     0.031 C 
ATOM     44  C   UNL A   1      40.432  27.257  27.120  1.00  0.00     0.029 A 
ATOM     45  C   UNL A   1      41.636  26.908  27.848  1.00  0.00     0.049 A 
ATOM     46  H   UNL A   1      42.330  27.767  29.623  1.00  0.00     0.167 HD
ATOM     47  C   UNL A   1      43.421  28.725  33.568  1.00  0.00     0.037 A 
ATOM     48  C   UNL A   1      42.588  26.002  27.527  1.00  0.00     0.037 A 
ATOM     49  C   UNL A   1      44.349  29.580  32.876  1.00  0.00     0.049 A 
ATOM     50  C   UNL A   1      43.816  26.354  28.273  1.00  0.00     0.074 A 
ATOM     51  C   UNL A   1      44.430  30.937  32.624  1.00  0.00     0.029 A 
ATOM     52  N   UNL A   1      45.243  29.003  32.008  1.00  0.00    -0.354 N 
ATOM     53  N   UNL A   1      44.543  27.407  28.031  1.00  0.00    -0.248 NA
ATOM     54  C   UNL A   1      44.037  25.727  29.565  1.00  0.00     0.031 C 
ATOM     55  C   UNL A   1      44.938  31.032  31.293  1.00  0.00     0.029 A 
ATOM     56  C   UNL A   1      45.182  29.732  30.848  1.00  0.00     0.049 A 
ATOM     57  H   UNL A   1      45.816  28.222  32.183  1.00  0.00     0.167 HD
ATOM     58  C   UNL A   1      44.978  27.828  29.276  1.00  0.00     0.074 A 
ATOM     59  C   UNL A   1      44.743  26.691  30.161  1.00  0.00     0.031 C 
ATOM     60  C   UNL A   1      45.230  29.146  29.530  1.00  0.00     0.037 A 
BRANCH  47  61
ATOM     61  C   UNL A   1      43.888  27.616  34.485  1.00  0.00     0.057 A 
ATOM     62  C   UNL A   1      44.522  27.933  35.702  1.00  0.00     0.134 A 
ATOM     63  C   UNL A   1      44.001  26.269  34.090  1.00  0.00     0.134 A 
ATOM     64  F   UNL A   1      44.510  29.187  36.180  1.00  0.00    -0.206 F 
ATOM     65  C   UNL A   1      45.264  26.995  36.433  1.00  0.00     0.040 A 
ATOM     66  C   UNL A   1      44.696  25.312  34.837  1.00  0.00     0.040 A 
ATOM     67  F   UNL A   1      43.533  25.829  32.915  1.00  0.00    -0.206 F 
ATOM     68  C   UNL A   1      45.357  25.680  35.998  1.00  0.00     0.006 A 
ENDBRANCH  47  61
BRANCH  48  69
ATOM     69  C   UNL A   1      42.462  24.749  26.760  1.00  0.00     0.057 A 
ATOM     70  C   UNL A   1      43.047  24.611  25.495  1.00  0.00     0.134 A 
ATOM     71  C   UNL A   1      42.002  23.569  27.368  1.00  0.00     0.134 A 
ATOM     72  F   UNL A   1      43.541  25.678  24.852  1.00  0.00    -0.206 F 
ATOM     73  C   UNL A   1      43.198  23.362  24.881  1.00  0.00     0.040 A 
ATOM     74  C   UNL A   1      42.140  22.317  26.763  1.00  0.00     0.040 A 
ATOM     75  F   UNL A   1      41.485  23.585  28.606  1.00  0.00    -0.206 F 
ATOM     76  C   UNL A   1      42.756  22.208  25.523  1.00  0.00     0.006 A 
ENDBRANCH  48  69
BRANCH  60  77
ATOM     77  C   UNL A   1      45.293  30.088  28.358  1.00  0.00     0.057 A 
ATOM     78  C   UNL A   1      44.184  30.766  27.828  1.00  0.00     0.134 A 
ATOM     79  C   UNL A   1      46.542  30.415  27.819  1.00  0.00     0.134 A 
ATOM     80  F   UNL A   1      42.960  30.609  28.346  1.00  0.00    -0.206 F 
ATOM     81  C   UNL A   1      44.305  31.673  26.770  1.00  0.00     0.040 A 
ATOM     82  C   UNL A   1      46.683  31.347  26.788  1.00  0.00     0.040 A 
ATOM     83  F   UNL A   1      47.660  29.857  28.314  1.00  0.00    -0.206 F 
ATOM     84  C   UNL A   1      45.560  31.968  26.248  1.00  0.00     0.006 A 
ENDBRANCH  60  77
ENDBRANCH  34  35
ENDBRANCH  26  29
ENDBRANCH  24  25
ENDBRANCH  23  24
ENDBRANCH   1  23
TORSDOF 15
ENDMDL
