MODEL 1
REMARK VINA RESULT:     -11.0      0.000      0.000
REMARK SMILES Cn1ncc(C(=O)NCCCCNC(=O)c2ccc(-c3c4nc(c(-c5c(F)cccc5F)c5ccc([nH]5)c(-c5c(F)cccc5F)c5nc(c(-c6c(F)cccc6F)c6ccc3[nH]6)C=C5)C=C4)cc2)c1NS(=O)(=O)[C@@H]1CCS(=O)(=O)C1
REMARK SMILES IDX 10 1 9 2 8 3 6 4 7 5 5 7 1 8 2 9 3 10 70 11 4 12 71 13 72 15
REMARK SMILES IDX 73 16 74 17 75 18 76 19 81 20 77 21 78 22 79 23 80 24 11 25
REMARK SMILES IDX 12 26 13 27 14 28 15 30 16 31 17 32 69 33 18 34 68 35 19 36
REMARK SMILES IDX 20 37 21 38 62 39 22 40 67 41 61 42 63 43 23 44 66 45 60 46
REMARK SMILES IDX 59 47 24 49 50 50 33 51 49 52 34 53 37 54 48 55 64 56 35 57
REMARK SMILES IDX 36 58 47 60 65 61 38 62 25 63 26 64 31 65 27 66 28 67 30 68
REMARK SMILES IDX 32 69 29 70 51 71 52 72 57 73 53 74 54 75 56 76 58 77 55 78
REMARK SMILES IDX 39 79 40 80 45 81 41 82 42 83 44 84 46 85 43 86
REMARK H PARENT 8 6 71 14 13 29 63 48 37 59
REMARK Flexibility Score: inf
ROOT
ATOM      1  C   UNL A   1      37.960  22.484  25.807  1.00  0.00     0.023 C 
ENDROOT
BRANCH   1   2
ATOM      2  C   UNL A   1      36.970  23.680  25.370  1.00  0.00     0.116 C 
BRANCH   2   3
ATOM      3  N   UNL A   1      36.101  23.754  24.152  1.00  0.00    -0.352 N 
ATOM      4  C   UNL A   1      34.969  23.136  23.658  1.00  0.00     0.256 C 
ATOM      5  O   UNL A   1      34.587  23.375  22.516  1.00  0.00    -0.269 OA
ATOM      6  H   UNL A   1      36.431  24.438  23.525  1.00  0.00     0.163 HD
BRANCH   4   7
ATOM      7  C   UNL A   1      34.270  22.262  24.520  1.00  0.00     0.102 A 
ATOM      8  C   UNL A   1      33.269  22.096  27.730  1.00  0.00     0.176 C 
ATOM      9  N   UNL A   1      33.236  21.757  26.321  1.00  0.00    -0.251 N 
ATOM     10  N   UNL A   1      33.841  20.593  25.976  1.00  0.00    -0.179 NA
ATOM     11  C   UNL A   1      33.158  22.624  25.232  1.00  0.00     0.150 A 
ATOM     12  C   UNL A   1      34.510  20.919  24.867  1.00  0.00     0.151 A 
BRANCH  11  13
ATOM     13  N   UNL A   1      32.372  23.759  24.969  1.00  0.00    -0.267 N 
ATOM     14  H   UNL A   1      31.703  23.686  24.251  1.00  0.00     0.181 HD
BRANCH  13  15
ATOM     15  S   UNL A   1      32.478  25.229  25.772  1.00  0.00     0.237 S 
ATOM     16  O   UNL A   1      31.546  25.172  26.881  1.00  0.00    -0.206 OA
ATOM     17  O   UNL A   1      33.893  25.257  26.102  1.00  0.00    -0.206 OA
BRANCH  15  18
ATOM     18  C   UNL A   1      32.175  26.853  24.984  1.00  0.00     0.145 C 
ATOM     19  C   UNL A   1      32.989  27.536  23.888  1.00  0.00     0.039 C 
ATOM     20  C   UNL A   1      31.699  27.918  25.982  1.00  0.00     0.158 C 
ATOM     21  C   UNL A   1      33.130  29.045  24.035  1.00  0.00     0.138 C 
ATOM     22  S   UNL A   1      32.130  29.536  25.381  1.00  0.00     0.151 S 
ATOM     23  O   UNL A   1      32.999  30.173  26.345  1.00  0.00    -0.229 OA
ATOM     24  O   UNL A   1      30.948  30.170  24.848  1.00  0.00    -0.229 OA
ENDBRANCH  15  18
ENDBRANCH  13  15
ENDBRANCH  11  13
ENDBRANCH   4   7
ENDBRANCH   2   3
ENDBRANCH   1   2
BRANCH   1  25
ATOM     25  C   UNL A   1      38.178  21.170  24.975  1.00  0.00     0.023 C 
BRANCH  25  26
ATOM     26  C   UNL A   1      38.344  19.762  25.669  1.00  0.00     0.116 C 
BRANCH  26  27
ATOM     27  N   UNL A   1      39.617  19.060  25.581  1.00  0.00    -0.352 N 
ATOM     28  C   UNL A   1      40.899  19.463  25.962  1.00  0.00     0.251 C 
ATOM     29  H   UNL A   1      39.565  18.158  25.191  1.00  0.00     0.163 HD
ATOM     30  O   UNL A   1      41.824  18.675  25.761  1.00  0.00    -0.269 OA
BRANCH  28  31
ATOM     31  C   UNL A   1      41.244  20.793  26.574  1.00  0.00     0.039 A 
ATOM     32  C   UNL A   1      41.860  21.767  25.770  1.00  0.00     0.014 A 
ATOM     33  C   UNL A   1      41.156  21.054  27.944  1.00  0.00     0.014 A 
ATOM     34  C   UNL A   1      42.287  23.005  26.304  1.00  0.00     0.010 A 
ATOM     35  C   UNL A   1      41.565  22.306  28.477  1.00  0.00     0.010 A 
ATOM     36  C   UNL A   1      42.119  23.314  27.664  1.00  0.00    -0.014 A 
BRANCH  36  37
ATOM     37  C   UNL A   1      42.460  24.685  28.198  1.00  0.00     0.031 A 
ATOM     38  C   UNL A   1      43.861  25.072  28.625  1.00  0.00     0.074 A 
ATOM     39  C   UNL A   1      41.493  25.619  28.330  1.00  0.00     0.049 A 
ATOM     40  N   UNL A   1      44.300  26.213  29.110  1.00  0.00    -0.248 NA
ATOM     41  C   UNL A   1      44.900  24.043  28.501  1.00  0.00     0.031 C 
ATOM     42  C   UNL A   1      40.084  25.422  27.999  1.00  0.00     0.029 A 
ATOM     43  N   UNL A   1      41.544  26.922  28.784  1.00  0.00    -0.354 N 
ATOM     44  C   UNL A   1      45.659  26.040  29.355  1.00  0.00     0.074 A 
ATOM     45  C   UNL A   1      45.963  24.667  28.995  1.00  0.00     0.031 C 
ATOM     46  C   UNL A   1      39.409  26.557  28.243  1.00  0.00     0.029 A 
ATOM     47  C   UNL A   1      40.326  27.561  28.780  1.00  0.00     0.049 A 
ATOM     48  H   UNL A   1      42.377  27.355  29.083  1.00  0.00     0.167 HD
ATOM     49  C   UNL A   1      46.575  26.930  29.820  1.00  0.00     0.037 A 
ATOM     50  C   UNL A   1      39.967  28.804  29.166  1.00  0.00     0.037 A 
ATOM     51  C   UNL A   1      46.306  28.304  30.175  1.00  0.00     0.049 A 
ATOM     52  C   UNL A   1      40.994  29.769  29.697  1.00  0.00     0.074 A 
ATOM     53  C   UNL A   1      47.199  29.278  30.600  1.00  0.00     0.029 A 
ATOM     54  N   UNL A   1      45.057  28.903  30.156  1.00  0.00    -0.354 N 
ATOM     55  N   UNL A   1      42.282  29.598  29.859  1.00  0.00    -0.248 NA
ATOM     56  C   UNL A   1      40.514  31.104  30.093  1.00  0.00     0.031 C 
ATOM     57  C   UNL A   1      46.485  30.448  30.880  1.00  0.00     0.029 A 
ATOM     58  C   UNL A   1      45.153  30.221  30.584  1.00  0.00     0.049 A 
ATOM     59  H   UNL A   1      44.223  28.459  29.879  1.00  0.00     0.167 HD
ATOM     60  C   UNL A   1      42.768  30.805  30.350  1.00  0.00     0.074 A 
ATOM     61  C   UNL A   1      41.641  31.707  30.447  1.00  0.00     0.031 C 
ATOM     62  C   UNL A   1      44.040  31.130  30.685  1.00  0.00     0.037 A 
BRANCH  49  63
ATOM     63  C   UNL A   1      47.992  26.446  29.982  1.00  0.00     0.057 A 
ATOM     64  C   UNL A   1      48.432  25.837  31.165  1.00  0.00     0.134 A 
ATOM     65  C   UNL A   1      48.908  26.532  28.924  1.00  0.00     0.134 A 
ATOM     66  F   UNL A   1      47.606  25.718  32.215  1.00  0.00    -0.206 F 
ATOM     67  C   UNL A   1      49.739  25.364  31.302  1.00  0.00     0.040 A 
ATOM     68  C   UNL A   1      50.210  26.039  29.041  1.00  0.00     0.040 A 
ATOM     69  F   UNL A   1      48.549  27.081  27.754  1.00  0.00    -0.206 F 
ATOM     70  C   UNL A   1      50.631  25.461  30.236  1.00  0.00     0.006 A 
ENDBRANCH  49  63
BRANCH  50  71
ATOM     71  C   UNL A   1      38.546  29.229  29.054  1.00  0.00     0.057 A 
ATOM     72  C   UNL A   1      38.019  29.679  27.838  1.00  0.00     0.134 A 
ATOM     73  C   UNL A   1      37.690  29.212  30.161  1.00  0.00     0.134 A 
ATOM     74  F   UNL A   1      38.799  29.747  26.748  1.00  0.00    -0.206 F 
ATOM     75  C   UNL A   1      36.694  30.105  27.728  1.00  0.00     0.040 A 
ATOM     76  C   UNL A   1      36.357  29.613  30.061  1.00  0.00     0.040 A 
ATOM     77  F   UNL A   1      38.136  28.796  31.356  1.00  0.00    -0.206 F 
ATOM     78  C   UNL A   1      35.857  30.065  28.841  1.00  0.00     0.006 A 
ENDBRANCH  50  71
BRANCH  62  79
ATOM     79  C   UNL A   1      44.299  32.531  31.164  1.00  0.00     0.057 A 
ATOM     80  C   UNL A   1      44.534  33.588  30.275  1.00  0.00     0.134 A 
ATOM     81  C   UNL A   1      44.281  32.835  32.532  1.00  0.00     0.134 A 
ATOM     82  F   UNL A   1      44.578  33.366  28.952  1.00  0.00    -0.206 F 
ATOM     83  C   UNL A   1      44.762  34.890  30.727  1.00  0.00     0.040 A 
ATOM     84  C   UNL A   1      44.486  34.137  32.996  1.00  0.00     0.040 A 
ATOM     85  F   UNL A   1      44.058  31.874  33.440  1.00  0.00    -0.206 F 
ATOM     86  C   UNL A   1      44.732  35.169  32.093  1.00  0.00     0.006 A 
ENDBRANCH  62  79
ENDBRANCH  36  37
ENDBRANCH  28  31
ENDBRANCH  26  27
ENDBRANCH  25  26
ENDBRANCH   1  25
TORSDOF 14
ENDMDL
MODEL 2
REMARK VINA RESULT:     -10.9      0.322      6.057
REMARK SMILES Cn1ncc(C(=O)NCCCCNC(=O)c2ccc(-c3c4nc(c(-c5c(F)cccc5F)c5ccc([nH]5)c(-c5c(F)cccc5F)c5nc(c(-c6c(F)cccc6F)c6ccc3[nH]6)C=C5)C=C4)cc2)c1NS(=O)(=O)[C@@H]1CCS(=O)(=O)C1
REMARK SMILES IDX 10 1 9 2 8 3 6 4 7 5 5 7 1 8 2 9 3 10 70 11 4 12 71 13 72 15
REMARK SMILES IDX 73 16 74 17 75 18 76 19 81 20 77 21 78 22 79 23 80 24 11 25
REMARK SMILES IDX 12 26 13 27 14 28 15 30 16 31 17 32 69 33 18 34 68 35 19 36
REMARK SMILES IDX 20 37 21 38 62 39 22 40 67 41 61 42 63 43 23 44 66 45 60 46
REMARK SMILES IDX 59 47 24 49 50 50 33 51 49 52 34 53 37 54 48 55 64 56 35 57
REMARK SMILES IDX 36 58 47 60 65 61 38 62 25 63 26 64 31 65 27 66 28 67 30 68
REMARK SMILES IDX 32 69 29 70 51 71 52 72 57 73 53 74 54 75 56 76 58 77 55 78
REMARK SMILES IDX 39 79 40 80 45 81 41 82 42 83 44 84 46 85 43 86
REMARK H PARENT 8 6 71 14 13 29 63 48 37 59
REMARK Flexibility Score: inf
ROOT
ATOM      1  C   UNL A   1      37.974  22.521  25.687  1.00  0.00     0.023 C 
ENDROOT
BRANCH   1   2
ATOM      2  C   UNL A   1      36.829  23.614  25.379  1.00  0.00     0.116 C 
BRANCH   2   3
ATOM      3  N   UNL A   1      35.976  23.729  24.152  1.00  0.00    -0.352 N 
ATOM      4  C   UNL A   1      34.834  23.148  23.635  1.00  0.00     0.256 C 
ATOM      5  O   UNL A   1      34.471  23.415  22.493  1.00  0.00    -0.269 OA
ATOM      6  H   UNL A   1      36.330  24.414  23.539  1.00  0.00     0.163 HD
BRANCH   4   7
ATOM      7  C   UNL A   1      34.103  22.279  24.476  1.00  0.00     0.102 A 
ATOM      8  C   UNL A   1      33.071  22.084  27.675  1.00  0.00     0.176 C 
ATOM      9  N   UNL A   1      33.040  21.772  26.260  1.00  0.00    -0.251 N 
ATOM     10  N   UNL A   1      33.614  20.597  25.898  1.00  0.00    -0.179 NA
ATOM     11  C   UNL A   1      32.996  22.660  25.186  1.00  0.00     0.150 A 
ATOM     12  C   UNL A   1      34.302  20.924  24.800  1.00  0.00     0.151 A 
BRANCH  11  13
ATOM     13  N   UNL A   1      32.246  23.822  24.937  1.00  0.00    -0.267 N 
ATOM     14  H   UNL A   1      31.594  23.787  24.201  1.00  0.00     0.181 HD
BRANCH  13  15
ATOM     15  S   UNL A   1      32.365  25.264  25.789  1.00  0.00     0.237 S 
ATOM     16  O   UNL A   1      31.429  25.181  26.893  1.00  0.00    -0.206 OA
ATOM     17  O   UNL A   1      33.780  25.265  26.123  1.00  0.00    -0.206 OA
BRANCH  15  18
ATOM     18  C   UNL A   1      32.082  26.916  25.053  1.00  0.00     0.145 C 
ATOM     19  C   UNL A   1      32.786  27.548  23.855  1.00  0.00     0.039 C 
ATOM     20  C   UNL A   1      31.834  28.001  26.110  1.00  0.00     0.158 C 
ATOM     21  C   UNL A   1      33.063  29.040  23.984  1.00  0.00     0.138 C 
ATOM     22  S   UNL A   1      32.302  29.589  25.457  1.00  0.00     0.151 S 
ATOM     23  O   UNL A   1      33.344  30.145  26.291  1.00  0.00    -0.229 OA
ATOM     24  O   UNL A   1      31.110  30.319  25.096  1.00  0.00    -0.229 OA
ENDBRANCH  15  18
ENDBRANCH  13  15
ENDBRANCH  11  13
ENDBRANCH   4   7
ENDBRANCH   2   3
ENDBRANCH   1   2
BRANCH   1  25
ATOM     25  C   UNL A   1      38.131  21.164  24.912  1.00  0.00     0.023 C 
BRANCH  25  26
ATOM     26  C   UNL A   1      38.271  19.785  25.667  1.00  0.00     0.116 C 
BRANCH  26  27
ATOM     27  N   UNL A   1      39.523  19.046  25.592  1.00  0.00    -0.352 N 
ATOM     28  C   UNL A   1      40.815  19.416  25.975  1.00  0.00     0.251 C 
ATOM     29  H   UNL A   1      39.447  18.141  25.212  1.00  0.00     0.163 HD
ATOM     30  O   UNL A   1      41.717  18.598  25.787  1.00  0.00    -0.269 OA
BRANCH  28  31
ATOM     31  C   UNL A   1      41.197  20.742  26.573  1.00  0.00     0.039 A 
ATOM     32  C   UNL A   1      41.762  21.721  25.739  1.00  0.00     0.014 A 
ATOM     33  C   UNL A   1      41.191  20.994  27.948  1.00  0.00     0.014 A 
ATOM     34  C   UNL A   1      42.221  22.956  26.254  1.00  0.00     0.010 A 
ATOM     35  C   UNL A   1      41.632  22.243  28.463  1.00  0.00     0.010 A 
ATOM     36  C   UNL A   1      42.135  23.256  27.624  1.00  0.00    -0.014 A 
BRANCH  36  37
ATOM     37  C   UNL A   1      42.508  24.624  28.145  1.00  0.00     0.031 A 
ATOM     38  C   UNL A   1      41.489  25.726  28.354  1.00  0.00     0.074 A 
ATOM     39  C   UNL A   1      43.797  24.912  28.428  1.00  0.00     0.049 A 
ATOM     40  N   UNL A   1      41.668  26.954  28.789  1.00  0.00    -0.248 NA
ATOM     41  C   UNL A   1      40.095  25.413  28.022  1.00  0.00     0.031 C 
ATOM     42  C   UNL A   1      44.919  23.989  28.263  1.00  0.00     0.029 A 
ATOM     43  N   UNL A   1      44.387  26.064  28.908  1.00  0.00    -0.354 N 
ATOM     44  C   UNL A   1      40.415  27.562  28.777  1.00  0.00     0.074 A 
ATOM     45  C   UNL A   1      39.491  26.571  28.257  1.00  0.00     0.031 C 
ATOM     46  C   UNL A   1      46.052  24.599  28.647  1.00  0.00     0.029 A 
ATOM     47  C   UNL A   1      45.752  25.969  29.057  1.00  0.00     0.049 A 
ATOM     48  H   UNL A   1      43.878  26.879  29.123  1.00  0.00     0.167 HD
ATOM     49  C   UNL A   1      40.056  28.812  29.170  1.00  0.00     0.037 A 
ATOM     50  C   UNL A   1      46.670  26.871  29.465  1.00  0.00     0.037 A 
ATOM     51  C   UNL A   1      40.950  29.815  29.703  1.00  0.00     0.049 A 
ATOM     52  C   UNL A   1      46.254  28.258  29.878  1.00  0.00     0.074 A 
ATOM     53  C   UNL A   1      40.643  31.084  30.173  1.00  0.00     0.029 A 
ATOM     54  N   UNL A   1      42.322  29.673  29.832  1.00  0.00    -0.354 N 
ATOM     55  N   UNL A   1      45.055  28.784  29.916  1.00  0.00    -0.248 NA
ATOM     56  C   UNL A   1      47.323  29.174  30.311  1.00  0.00     0.031 C 
ATOM     57  C   UNL A   1      41.832  31.723  30.543  1.00  0.00     0.029 A 
ATOM     58  C   UNL A   1      42.875  30.837  30.349  1.00  0.00     0.049 A 
ATOM     59  H   UNL A   1      42.830  28.864  29.592  1.00  0.00     0.167 HD
ATOM     60  C   UNL A   1      45.222  30.078  30.398  1.00  0.00     0.074 A 
ATOM     61  C   UNL A   1      46.635  30.256  30.652  1.00  0.00     0.031 C 
ATOM     62  C   UNL A   1      44.280  31.028  30.610  1.00  0.00     0.037 A 
BRANCH  49  63
ATOM     63  C   UNL A   1      38.604  29.190  29.040  1.00  0.00     0.057 A 
ATOM     64  C   UNL A   1      37.734  29.165  30.138  1.00  0.00     0.134 A 
ATOM     65  C   UNL A   1      38.085  29.643  27.819  1.00  0.00     0.134 A 
ATOM     66  F   UNL A   1      38.166  28.746  31.337  1.00  0.00    -0.206 F 
ATOM     67  C   UNL A   1      36.395  29.543  30.019  1.00  0.00     0.040 A 
ATOM     68  C   UNL A   1      36.754  30.049  27.694  1.00  0.00     0.040 A 
ATOM     69  F   UNL A   1      38.867  29.717  26.731  1.00  0.00    -0.206 F 
ATOM     70  C   UNL A   1      35.902  29.991  28.795  1.00  0.00     0.006 A 
ENDBRANCH  49  63
BRANCH  50  71
ATOM     71  C   UNL A   1      48.106  26.486  29.521  1.00  0.00     0.057 A 
ATOM     72  C   UNL A   1      48.964  26.734  28.442  1.00  0.00     0.134 A 
ATOM     73  C   UNL A   1      48.648  25.848  30.642  1.00  0.00     0.134 A 
ATOM     74  F   UNL A   1      48.496  27.314  27.327  1.00  0.00    -0.206 F 
ATOM     75  C   UNL A   1      50.306  26.353  28.473  1.00  0.00     0.040 A 
ATOM     76  C   UNL A   1      49.993  25.483  30.697  1.00  0.00     0.040 A 
ATOM     77  F   UNL A   1      47.877  25.580  31.706  1.00  0.00    -0.206 F 
ATOM     78  C   UNL A   1      50.826  25.732  29.607  1.00  0.00     0.006 A 
ENDBRANCH  50  71
BRANCH  62  79
ATOM     79  C   UNL A   1      44.732  32.345  31.175  1.00  0.00     0.057 A 
ATOM     80  C   UNL A   1      45.086  33.423  30.352  1.00  0.00     0.134 A 
ATOM     81  C   UNL A   1      44.784  32.551  32.559  1.00  0.00     0.134 A 
ATOM     82  F   UNL A   1      45.073  33.292  29.017  1.00  0.00    -0.206 F 
ATOM     83  C   UNL A   1      45.495  34.649  30.885  1.00  0.00     0.040 A 
ATOM     84  C   UNL A   1      45.169  33.778  33.105  1.00  0.00     0.040 A 
ATOM     85  F   UNL A   1      44.455  31.564  33.407  1.00  0.00    -0.206 F 
ATOM     86  C   UNL A   1      45.530  34.830  32.266  1.00  0.00     0.006 A 
ENDBRANCH  62  79
ENDBRANCH  36  37
ENDBRANCH  28  31
ENDBRANCH  26  27
ENDBRANCH  25  26
ENDBRANCH   1  25
TORSDOF 14
ENDMDL
MODEL 3
REMARK VINA RESULT:     -10.8      0.541      1.455
REMARK SMILES Cn1ncc(C(=O)NCCCCNC(=O)c2ccc(-c3c4nc(c(-c5c(F)cccc5F)c5ccc([nH]5)c(-c5c(F)cccc5F)c5nc(c(-c6c(F)cccc6F)c6ccc3[nH]6)C=C5)C=C4)cc2)c1NS(=O)(=O)[C@@H]1CCS(=O)(=O)C1
REMARK SMILES IDX 10 1 9 2 8 3 6 4 7 5 5 7 1 8 2 9 3 10 70 11 4 12 71 13 72 15
REMARK SMILES IDX 73 16 74 17 75 18 76 19 81 20 77 21 78 22 79 23 80 24 11 25
REMARK SMILES IDX 12 26 13 27 14 28 15 30 16 31 17 32 69 33 18 34 68 35 19 36
REMARK SMILES IDX 20 37 21 38 62 39 22 40 67 41 61 42 63 43 23 44 66 45 60 46
REMARK SMILES IDX 59 47 24 49 50 50 33 51 49 52 34 53 37 54 48 55 64 56 35 57
REMARK SMILES IDX 36 58 47 60 65 61 38 62 25 63 26 64 31 65 27 66 28 67 30 68
REMARK SMILES IDX 32 69 29 70 51 71 52 72 57 73 53 74 54 75 56 76 58 77 55 78
REMARK SMILES IDX 39 79 40 80 45 81 41 82 42 83 44 84 46 85 43 86
REMARK H PARENT 8 6 71 14 13 29 63 48 37 59
REMARK Flexibility Score: inf
ROOT
ATOM      1  C   UNL A   1      37.520  22.475  25.822  1.00  0.00     0.023 C 
ENDROOT
BRANCH   1   2
ATOM      2  C   UNL A   1      36.773  23.741  25.159  1.00  0.00     0.116 C 
BRANCH   2   3
ATOM      3  N   UNL A   1      35.854  23.749  23.975  1.00  0.00    -0.352 N 
ATOM      4  C   UNL A   1      34.757  23.044  23.521  1.00  0.00     0.256 C 
ATOM      5  O   UNL A   1      34.312  23.255  22.396  1.00  0.00    -0.269 OA
ATOM      6  H   UNL A   1      36.103  24.459  23.341  1.00  0.00     0.163 HD
BRANCH   4   7
ATOM      7  C   UNL A   1      34.165  22.113  24.404  1.00  0.00     0.102 A 
ATOM      8  C   UNL A   1      33.410  21.810  27.671  1.00  0.00     0.176 C 
ATOM      9  N   UNL A   1      33.290  21.509  26.258  1.00  0.00    -0.251 N 
ATOM     10  N   UNL A   1      33.922  20.386  25.835  1.00  0.00    -0.179 NA
ATOM     11  C   UNL A   1      33.092  22.400  25.205  1.00  0.00     0.150 A 
ATOM     12  C   UNL A   1      34.493  20.774  24.692  1.00  0.00     0.151 A 
BRANCH  11  13
ATOM     13  N   UNL A   1      32.237  23.501  25.033  1.00  0.00    -0.267 N 
ATOM     14  H   UNL A   1      31.623  23.479  24.265  1.00  0.00     0.181 HD
BRANCH  13  15
ATOM     15  S   UNL A   1      32.172  24.853  26.027  1.00  0.00     0.237 S 
ATOM     16  O   UNL A   1      31.482  24.455  27.238  1.00  0.00    -0.206 OA
ATOM     17  O   UNL A   1      33.586  25.169  26.148  1.00  0.00    -0.206 OA
BRANCH  15  18
ATOM     18  C   UNL A   1      31.404  26.443  25.547  1.00  0.00     0.145 C 
ATOM     19  C   UNL A   1      30.290  26.685  24.531  1.00  0.00     0.039 C 
ATOM     20  C   UNL A   1      32.422  27.587  25.443  1.00  0.00     0.158 C 
ATOM     21  C   UNL A   1      30.443  27.947  23.693  1.00  0.00     0.138 C 
ATOM     22  S   UNL A   1      31.821  28.824  24.315  1.00  0.00     0.151 S 
ATOM     23  O   UNL A   1      32.763  28.959  23.227  1.00  0.00    -0.229 OA
ATOM     24  O   UNL A   1      31.325  29.950  25.070  1.00  0.00    -0.229 OA
ENDBRANCH  15  18
ENDBRANCH  13  15
ENDBRANCH  11  13
ENDBRANCH   4   7
ENDBRANCH   2   3
ENDBRANCH   1   2
BRANCH   1  25
ATOM     25  C   UNL A   1      38.132  21.282  25.002  1.00  0.00     0.023 C 
BRANCH  25  26
ATOM     26  C   UNL A   1      38.217  19.822  25.594  1.00  0.00     0.116 C 
BRANCH  26  27
ATOM     27  N   UNL A   1      39.474  19.090  25.529  1.00  0.00    -0.352 N 
ATOM     28  C   UNL A   1      40.758  19.461  25.935  1.00  0.00     0.251 C 
ATOM     29  H   UNL A   1      39.409  18.190  25.137  1.00  0.00     0.163 HD
ATOM     30  O   UNL A   1      41.668  18.651  25.751  1.00  0.00    -0.269 OA
BRANCH  28  31
ATOM     31  C   UNL A   1      41.124  20.782  26.556  1.00  0.00     0.039 A 
ATOM     32  C   UNL A   1      41.720  21.766  25.749  1.00  0.00     0.014 A 
ATOM     33  C   UNL A   1      41.075  21.024  27.932  1.00  0.00     0.014 A 
ATOM     34  C   UNL A   1      42.165  22.995  26.288  1.00  0.00     0.010 A 
ATOM     35  C   UNL A   1      41.501  22.268  28.471  1.00  0.00     0.010 A 
ATOM     36  C   UNL A   1      42.035  23.286  27.656  1.00  0.00    -0.014 A 
BRANCH  36  37
ATOM     37  C   UNL A   1      42.394  24.648  28.200  1.00  0.00     0.031 A 
ATOM     38  C   UNL A   1      43.800  25.012  28.631  1.00  0.00     0.074 A 
ATOM     39  C   UNL A   1      41.441  25.595  28.336  1.00  0.00     0.049 A 
ATOM     40  N   UNL A   1      44.253  26.144  29.124  1.00  0.00    -0.248 NA
ATOM     41  C   UNL A   1      44.825  23.970  28.502  1.00  0.00     0.031 C 
ATOM     42  C   UNL A   1      40.029  25.419  28.002  1.00  0.00     0.029 A 
ATOM     43  N   UNL A   1      41.509  26.894  28.798  1.00  0.00    -0.354 N 
ATOM     44  C   UNL A   1      45.610  25.951  29.370  1.00  0.00     0.074 A 
ATOM     45  C   UNL A   1      45.895  24.576  29.001  1.00  0.00     0.031 C 
ATOM     46  C   UNL A   1      39.370  26.562  28.252  1.00  0.00     0.029 A 
ATOM     47  C   UNL A   1      40.299  27.550  28.796  1.00  0.00     0.049 A 
ATOM     48  H   UNL A   1      42.347  27.313  29.101  1.00  0.00     0.167 HD
ATOM     49  C   UNL A   1      46.538  26.825  29.842  1.00  0.00     0.037 A 
ATOM     50  C   UNL A   1      39.958  28.795  29.190  1.00  0.00     0.037 A 
ATOM     51  C   UNL A   1      46.287  28.200  30.206  1.00  0.00     0.049 A 
ATOM     52  C   UNL A   1      40.997  29.743  29.728  1.00  0.00     0.074 A 
ATOM     53  C   UNL A   1      47.193  29.159  30.638  1.00  0.00     0.029 A 
ATOM     54  N   UNL A   1      45.047  28.817  30.189  1.00  0.00    -0.354 N 
ATOM     55  N   UNL A   1      42.282  29.552  29.891  1.00  0.00    -0.248 NA
ATOM     56  C   UNL A   1      40.535  31.081  30.132  1.00  0.00     0.031 C 
ATOM     57  C   UNL A   1      46.495  30.337  30.925  1.00  0.00     0.029 A 
ATOM     58  C   UNL A   1      45.161  30.130  30.625  1.00  0.00     0.049 A 
ATOM     59  H   UNL A   1      44.207  28.386  29.907  1.00  0.00     0.167 HD
ATOM     60  C   UNL A   1      42.784  30.750  30.390  1.00  0.00     0.074 A 
ATOM     61  C   UNL A   1      41.670  31.666  30.492  1.00  0.00     0.031 C 
ATOM     62  C   UNL A   1      44.060  31.055  30.730  1.00  0.00     0.037 A 
BRANCH  49  63
ATOM     63  C   UNL A   1      47.948  26.320  30.004  1.00  0.00     0.057 A 
ATOM     64  C   UNL A   1      48.889  26.421  28.971  1.00  0.00     0.134 A 
ATOM     65  C   UNL A   1      48.386  25.785  31.223  1.00  0.00     0.134 A 
ATOM     66  F   UNL A   1      48.538  26.927  27.779  1.00  0.00    -0.206 F 
ATOM     67  C   UNL A   1      50.204  25.978  29.133  1.00  0.00     0.040 A 
ATOM     68  C   UNL A   1      49.705  25.363  31.406  1.00  0.00     0.040 A 
ATOM     69  F   UNL A   1      47.545  25.681  32.263  1.00  0.00    -0.206 F 
ATOM     70  C   UNL A   1      50.616  25.450  30.356  1.00  0.00     0.006 A 
ENDBRANCH  49  63
BRANCH  50  71
ATOM     71  C   UNL A   1      38.543  29.241  29.079  1.00  0.00     0.057 A 
ATOM     72  C   UNL A   1      38.022  29.697  27.862  1.00  0.00     0.134 A 
ATOM     73  C   UNL A   1      37.688  29.238  30.186  1.00  0.00     0.134 A 
ATOM     74  F   UNL A   1      38.801  29.752  26.772  1.00  0.00    -0.206 F 
ATOM     75  C   UNL A   1      36.703  30.142  27.752  1.00  0.00     0.040 A 
ATOM     76  C   UNL A   1      36.360  29.658  30.087  1.00  0.00     0.040 A 
ATOM     77  F   UNL A   1      38.128  28.817  31.381  1.00  0.00    -0.206 F 
ATOM     78  C   UNL A   1      35.866  30.116  28.866  1.00  0.00     0.006 A 
ENDBRANCH  50  71
BRANCH  62  79
ATOM     79  C   UNL A   1      44.337  32.449  31.219  1.00  0.00     0.057 A 
ATOM     80  C   UNL A   1      44.313  32.777  32.581  1.00  0.00     0.134 A 
ATOM     81  C   UNL A   1      44.666  33.471  30.318  1.00  0.00     0.134 A 
ATOM     82  F   UNL A   1      43.992  31.851  33.497  1.00  0.00    -0.206 F 
ATOM     83  C   UNL A   1      44.584  34.073  33.027  1.00  0.00     0.040 A 
ATOM     84  C   UNL A   1      44.961  34.765  30.753  1.00  0.00     0.040 A 
ATOM     85  F   UNL A   1      44.713  33.227  29.000  1.00  0.00    -0.206 F 
ATOM     86  C   UNL A   1      44.916  35.070  32.112  1.00  0.00     0.006 A 
ENDBRANCH  62  79
ENDBRANCH  36  37
ENDBRANCH  28  31
ENDBRANCH  26  27
ENDBRANCH  25  26
ENDBRANCH   1  25
TORSDOF 14
ENDMDL
