MODEL 1
REMARK VINA RESULT:     -10.0      0.000      0.000
REMARK SMILES CC[C@@H]([NH3+])C(=O)NCCOCC(=O)NCCCCNC(=O)c1ccc(-c2c3nc(c(-c4c(F)cccc4F)c4ccc([nH]4)c(-c4c(F)cccc4F)c4nc(c(-c5c(F)cccc5F)c5ccc2[nH]5)C=C4)C=C3)cc1
REMARK SMILES IDX 12 1 13 2 14 3 11 5 10 6 9 7 8 8 7 9 5 10 6 11 3 13 2 14
REMARK SMILES IDX 1 15 4 16 15 20 16 21 17 22 18 23 19 24 20 25 21 27 22 28
REMARK SMILES IDX 23 29 75 30 24 31 74 32 25 33 26 34 27 35 68 36 28 37 73 38
REMARK SMILES IDX 67 39 69 40 29 41 72 42 66 43 65 44 30 46 56 47 39 48 55 49
REMARK SMILES IDX 40 50 43 51 54 52 70 53 41 54 42 55 53 57 71 58 44 59 31 60
REMARK SMILES IDX 32 61 37 62 33 63 34 64 36 65 38 66 35 67 57 68 58 69 63 70
REMARK SMILES IDX 59 71 60 72 62 73 64 74 61 75 45 76 46 77 51 78 47 79 48 80
REMARK SMILES IDX 50 81 52 82 49 83
REMARK H PARENT 14 4 7 12 4 17 4 18 4 19 19 26 69 45 43 56
REMARK Flexibility Score: inf
ROOT
ATOM      1  C   UNL A   1      34.334  22.417  26.767  1.00  0.00     0.245 C 
ATOM      2  O   UNL A   1      33.469  22.309  27.635  1.00  0.00    -0.272 OA
ATOM      3  N   UNL A   1      35.393  21.556  26.777  1.00  0.00    -0.354 N 
ATOM      4  H   UNL A   1      35.388  20.868  27.481  1.00  0.00     0.163 HD
ENDROOT
BRANCH   1   5
ATOM      5  C   UNL A   1      34.268  23.490  25.675  1.00  0.00     0.260 C 
BRANCH   5   6
ATOM      6  O   UNL A   1      33.323  23.286  24.635  1.00  0.00    -0.370 OA
BRANCH   6   7
ATOM      7  C   UNL A   1      33.601  22.180  23.769  1.00  0.00     0.182 C 
BRANCH   7   8
ATOM      8  C   UNL A   1      32.403  21.243  23.560  1.00  0.00     0.144 C 
BRANCH   8   9
ATOM      9  N   UNL A   1      32.272  20.241  24.608  1.00  0.00    -0.349 N 
ATOM     10  C   UNL A   1      32.427  18.890  24.583  1.00  0.00     0.278 C 
ATOM     11  O   UNL A   1      32.247  18.276  25.639  1.00  0.00    -0.268 OA
ATOM     12  H   UNL A   1      32.029  20.606  25.490  1.00  0.00     0.163 HD
BRANCH  10  13
ATOM     13  C   UNL A   1      32.902  18.144  23.321  1.00  0.00     0.270 C 
BRANCH  13  14
ATOM     14  C   UNL A   1      33.578  16.802  23.622  1.00  0.00     0.072 C 
ATOM     15  C   UNL A   1      34.934  16.952  24.301  1.00  0.00     0.011 C 
ENDBRANCH  13  14
BRANCH  13  16
ATOM     16  N   UNL A   1      31.776  18.032  22.369  1.00  0.00    -0.347 N 
ATOM     17  H   UNL A   1      30.926  18.390  22.803  1.00  0.00     0.345 HD
ATOM     18  H   UNL A   1      31.642  17.053  22.115  1.00  0.00     0.345 HD
ATOM     19  H   UNL A   1      31.984  18.575  21.530  1.00  0.00     0.345 HD
ENDBRANCH  13  16
ENDBRANCH  10  13
ENDBRANCH   8   9
ENDBRANCH   7   8
ENDBRANCH   6   7
ENDBRANCH   5   6
ENDBRANCH   1   5
BRANCH   3  20
ATOM     20  C   UNL A   1      36.524  21.538  25.872  1.00  0.00     0.116 C 
BRANCH  20  21
ATOM     21  C   UNL A   1      36.478  20.337  24.931  1.00  0.00     0.023 C 
BRANCH  21  22
ATOM     22  C   UNL A   1      37.816  19.617  24.747  1.00  0.00     0.023 C 
BRANCH  22  23
ATOM     23  C   UNL A   1      38.900  19.996  25.749  1.00  0.00     0.116 C 
BRANCH  23  24
ATOM     24  N   UNL A   1      39.989  19.036  25.799  1.00  0.00    -0.352 N 
ATOM     25  C   UNL A   1      41.325  19.257  26.032  1.00  0.00     0.251 C 
ATOM     26  H   UNL A   1      39.734  18.097  25.647  1.00  0.00     0.163 HD
ATOM     27  O   UNL A   1      42.132  18.344  25.912  1.00  0.00    -0.269 OA
BRANCH  25  28
ATOM     28  C   UNL A   1      41.789  20.613  26.396  1.00  0.00     0.039 A 
ATOM     29  C   UNL A   1      42.104  21.513  25.376  1.00  0.00     0.014 A 
ATOM     30  C   UNL A   1      41.908  20.996  27.735  1.00  0.00     0.014 A 
ATOM     31  C   UNL A   1      42.494  22.815  25.699  1.00  0.00     0.010 A 
ATOM     32  C   UNL A   1      42.216  22.315  28.052  1.00  0.00     0.010 A 
ATOM     33  C   UNL A   1      42.528  23.235  27.039  1.00  0.00    -0.014 A 
BRANCH  33  34
ATOM     34  C   UNL A   1      42.932  24.616  27.404  1.00  0.00     0.031 A 
ATOM     35  C   UNL A   1      44.382  25.013  27.340  1.00  0.00     0.074 A 
ATOM     36  C   UNL A   1      42.008  25.498  27.833  1.00  0.00     0.049 A 
ATOM     37  N   UNL A   1      44.948  26.142  27.684  1.00  0.00    -0.248 NA
ATOM     38  C   UNL A   1      45.326  23.995  26.849  1.00  0.00     0.031 C 
ATOM     39  C   UNL A   1      40.577  25.224  27.983  1.00  0.00     0.029 A 
ATOM     40  N   UNL A   1      42.139  26.804  28.236  1.00  0.00    -0.354 N 
ATOM     41  C   UNL A   1      46.308  25.966  27.459  1.00  0.00     0.074 A 
ATOM     42  C   UNL A   1      46.492  24.602  27.015  1.00  0.00     0.031 C 
ATOM     43  C   UNL A   1      39.962  26.333  28.426  1.00  0.00     0.029 A 
ATOM     44  C   UNL A   1      40.956  27.382  28.629  1.00  0.00     0.049 A 
ATOM     45  H   UNL A   1      43.000  27.282  28.242  1.00  0.00     0.167 HD
ATOM     46  C   UNL A   1      47.311  26.868  27.577  1.00  0.00     0.037 A 
ATOM     47  C   UNL A   1      40.705  28.616  29.107  1.00  0.00     0.037 A 
ATOM     48  C   UNL A   1      47.125  28.231  28.000  1.00  0.00     0.049 A 
ATOM     49  C   UNL A   1      41.839  29.596  29.239  1.00  0.00     0.074 A 
ATOM     50  C   UNL A   1      48.073  29.230  28.129  1.00  0.00     0.029 A 
ATOM     51  N   UNL A   1      45.906  28.786  28.356  1.00  0.00    -0.354 N 
ATOM     52  N   UNL A   1      43.112  29.430  28.976  1.00  0.00    -0.248 NA
ATOM     53  C   UNL A   1      41.498  30.942  29.723  1.00  0.00     0.031 C 
ATOM     54  C   UNL A   1      47.435  30.380  28.601  1.00  0.00     0.029 A 
ATOM     55  C   UNL A   1      46.080  30.114  28.711  1.00  0.00     0.049 A 
ATOM     56  H   UNL A   1      45.046  28.308  28.357  1.00  0.00     0.167 HD
ATOM     57  C   UNL A   1      43.716  30.657  29.220  1.00  0.00     0.074 A 
ATOM     58  C   UNL A   1      42.667  31.561  29.644  1.00  0.00     0.031 C 
ATOM     59  C   UNL A   1      45.020  31.007  29.105  1.00  0.00     0.037 A 
BRANCH  46  60
ATOM     60  C   UNL A   1      48.698  26.412  27.227  1.00  0.00     0.057 A 
ATOM     61  C   UNL A   1      49.548  25.842  28.186  1.00  0.00     0.134 A 
ATOM     62  C   UNL A   1      49.178  26.504  25.916  1.00  0.00     0.134 A 
ATOM     63  F   UNL A   1      49.157  25.736  29.465  1.00  0.00    -0.206 F 
ATOM     64  C   UNL A   1      50.831  25.403  27.857  1.00  0.00     0.040 A 
ATOM     65  C   UNL A   1      50.449  26.041  25.567  1.00  0.00     0.040 A 
ATOM     66  F   UNL A   1      48.415  27.035  24.947  1.00  0.00    -0.206 F 
ATOM     67  C   UNL A   1      51.281  25.494  26.542  1.00  0.00     0.006 A 
ENDBRANCH  46  60
BRANCH  47  68
ATOM     68  C   UNL A   1      39.321  29.007  29.485  1.00  0.00     0.057 A 
ATOM     69  C   UNL A   1      38.854  28.848  30.796  1.00  0.00     0.134 A 
ATOM     70  C   UNL A   1      38.422  29.514  28.540  1.00  0.00     0.134 A 
ATOM     71  F   UNL A   1      39.661  28.351  31.745  1.00  0.00    -0.206 F 
ATOM     72  C   UNL A   1      37.535  29.145  31.144  1.00  0.00     0.040 A 
ATOM     73  C   UNL A   1      37.109  29.843  28.881  1.00  0.00     0.040 A 
ATOM     74  F   UNL A   1      38.809  29.701  27.268  1.00  0.00    -0.206 F 
ATOM     75  C   UNL A   1      36.658  29.647  30.184  1.00  0.00     0.006 A 
ENDBRANCH  47  68
BRANCH  59  76
ATOM     76  C   UNL A   1      45.378  32.440  29.375  1.00  0.00     0.057 A 
ATOM     77  C   UNL A   1      45.773  32.887  30.641  1.00  0.00     0.134 A 
ATOM     78  C   UNL A   1      45.355  33.380  28.335  1.00  0.00     0.134 A 
ATOM     79  F   UNL A   1      45.805  32.041  31.682  1.00  0.00    -0.206 F 
ATOM     80  C   UNL A   1      46.104  34.224  30.871  1.00  0.00     0.040 A 
ATOM     81  C   UNL A   1      45.714  34.711  28.547  1.00  0.00     0.040 A 
ATOM     82  F   UNL A   1      44.998  33.017  27.095  1.00  0.00    -0.206 F 
ATOM     83  C   UNL A   1      46.082  35.138  29.821  1.00  0.00     0.006 A 
ENDBRANCH  59  76
ENDBRANCH  33  34
ENDBRANCH  25  28
ENDBRANCH  23  24
ENDBRANCH  22  23
ENDBRANCH  21  22
ENDBRANCH  20  21
ENDBRANCH   3  20
TORSDOF 18
ENDMDL
MODEL 2
REMARK VINA RESULT:     -10.0      0.363      6.485
REMARK SMILES CC[C@@H]([NH3+])C(=O)NCCOCC(=O)NCCCCNC(=O)c1ccc(-c2c3nc(c(-c4c(F)cccc4F)c4ccc([nH]4)c(-c4c(F)cccc4F)c4nc(c(-c5c(F)cccc5F)c5ccc2[nH]5)C=C4)C=C3)cc1
REMARK SMILES IDX 12 1 13 2 14 3 11 5 10 6 9 7 8 8 7 9 5 10 6 11 3 13 2 14
REMARK SMILES IDX 1 15 4 16 15 20 16 21 17 22 18 23 19 24 20 25 21 27 22 28
REMARK SMILES IDX 23 29 75 30 24 31 74 32 25 33 26 34 27 35 68 36 28 37 73 38
REMARK SMILES IDX 67 39 69 40 29 41 72 42 66 43 65 44 30 46 56 47 39 48 55 49
REMARK SMILES IDX 40 50 43 51 54 52 70 53 41 54 42 55 53 57 71 58 44 59 31 60
REMARK SMILES IDX 32 61 37 62 33 63 34 64 36 65 38 66 35 67 57 68 58 69 63 70
REMARK SMILES IDX 59 71 60 72 62 73 64 74 61 75 45 76 46 77 51 78 47 79 48 80
REMARK SMILES IDX 50 81 52 82 49 83
REMARK H PARENT 14 4 7 12 4 17 4 18 4 19 19 26 69 45 43 56
REMARK Flexibility Score: inf
ROOT
ATOM      1  C   UNL A   1      34.403  22.610  26.767  1.00  0.00     0.245 C 
ATOM      2  O   UNL A   1      33.598  22.559  27.695  1.00  0.00    -0.272 OA
ATOM      3  N   UNL A   1      35.469  21.757  26.767  1.00  0.00    -0.354 N 
ATOM      4  H   UNL A   1      35.516  21.120  27.516  1.00  0.00     0.163 HD
ENDROOT
BRANCH   1   5
ATOM      5  C   UNL A   1      34.257  23.603  25.610  1.00  0.00     0.260 C 
BRANCH   5   6
ATOM      6  O   UNL A   1      33.276  23.302  24.629  1.00  0.00    -0.370 OA
BRANCH   6   7
ATOM      7  C   UNL A   1      33.627  22.252  23.720  1.00  0.00     0.182 C 
BRANCH   7   8
ATOM      8  C   UNL A   1      32.482  21.268  23.439  1.00  0.00     0.144 C 
BRANCH   8   9
ATOM      9  N   UNL A   1      32.294  20.291  24.503  1.00  0.00    -0.349 N 
ATOM     10  C   UNL A   1      32.411  18.936  24.507  1.00  0.00     0.278 C 
ATOM     11  O   UNL A   1      32.186  18.348  25.570  1.00  0.00    -0.268 OA
ATOM     12  H   UNL A   1      32.040  20.681  25.370  1.00  0.00     0.163 HD
BRANCH  10  13
ATOM     13  C   UNL A   1      32.896  18.152  23.272  1.00  0.00     0.270 C 
BRANCH  13  14
ATOM     14  C   UNL A   1      33.555  16.813  23.618  1.00  0.00     0.072 C 
ATOM     15  C   UNL A   1      34.806  16.964  24.477  1.00  0.00     0.011 C 
ENDBRANCH  13  14
BRANCH  13  16
ATOM     16  N   UNL A   1      31.782  18.024  22.308  1.00  0.00    -0.347 N 
ATOM     17  H   UNL A   1      30.968  17.630  22.779  1.00  0.00     0.345 HD
ATOM     18  H   UNL A   1      32.063  17.410  21.543  1.00  0.00     0.345 HD
ATOM     19  H   UNL A   1      31.546  18.944  21.936  1.00  0.00     0.345 HD
ENDBRANCH  13  16
ENDBRANCH  10  13
ENDBRANCH   8   9
ENDBRANCH   7   8
ENDBRANCH   6   7
ENDBRANCH   5   6
ENDBRANCH   1   5
BRANCH   3  20
ATOM     20  C   UNL A   1      36.538  21.680  25.794  1.00  0.00     0.116 C 
BRANCH  20  21
ATOM     21  C   UNL A   1      36.489  20.379  24.999  1.00  0.00     0.023 C 
BRANCH  21  22
ATOM     22  C   UNL A   1      37.857  19.760  24.699  1.00  0.00     0.023 C 
BRANCH  22  23
ATOM     23  C   UNL A   1      38.949  20.078  25.713  1.00  0.00     0.116 C 
BRANCH  23  24
ATOM     24  N   UNL A   1      39.987  19.063  25.768  1.00  0.00    -0.352 N 
ATOM     25  C   UNL A   1      41.330  19.215  26.014  1.00  0.00     0.251 C 
ATOM     26  H   UNL A   1      39.686  18.140  25.607  1.00  0.00     0.163 HD
ATOM     27  O   UNL A   1      42.091  18.263  25.896  1.00  0.00    -0.269 OA
BRANCH  25  28
ATOM     28  C   UNL A   1      41.859  20.544  26.391  1.00  0.00     0.039 A 
ATOM     29  C   UNL A   1      42.214  21.438  25.380  1.00  0.00     0.014 A 
ATOM     30  C   UNL A   1      42.000  20.906  27.733  1.00  0.00     0.014 A 
ATOM     31  C   UNL A   1      42.666  22.717  25.715  1.00  0.00     0.010 A 
ATOM     32  C   UNL A   1      42.370  22.206  28.063  1.00  0.00     0.010 A 
ATOM     33  C   UNL A   1      42.723  23.120  27.059  1.00  0.00    -0.014 A 
BRANCH  33  34
ATOM     34  C   UNL A   1      43.193  24.477  27.437  1.00  0.00     0.031 A 
ATOM     35  C   UNL A   1      42.195  25.530  27.837  1.00  0.00     0.074 A 
ATOM     36  C   UNL A   1      44.505  24.777  27.379  1.00  0.00     0.049 A 
ATOM     37  N   UNL A   1      42.393  26.790  28.131  1.00  0.00    -0.248 NA
ATOM     38  C   UNL A   1      40.782  25.119  27.887  1.00  0.00     0.031 C 
ATOM     39  C   UNL A   1      45.568  23.859  26.963  1.00  0.00     0.029 A 
ATOM     40  N   UNL A   1      45.168  25.947  27.658  1.00  0.00    -0.354 N 
ATOM     41  C   UNL A   1      41.135  27.319  28.392  1.00  0.00     0.074 A 
ATOM     42  C   UNL A   1      40.174  26.265  28.155  1.00  0.00     0.031 C 
ATOM     43  C   UNL A   1      46.750  24.495  27.034  1.00  0.00     0.029 A 
ATOM     44  C   UNL A   1      46.525  25.873  27.460  1.00  0.00     0.049 A 
ATOM     45  H   UNL A   1      44.713  26.761  27.972  1.00  0.00     0.167 HD
ATOM     46  C   UNL A   1      40.809  28.560  28.823  1.00  0.00     0.037 A 
ATOM     47  C   UNL A   1      47.479  26.814  27.598  1.00  0.00     0.037 A 
ATOM     48  C   UNL A   1      41.767  29.603  29.078  1.00  0.00     0.049 A 
ATOM     49  C   UNL A   1      47.089  28.190  28.069  1.00  0.00     0.074 A 
ATOM     50  C   UNL A   1      41.541  30.888  29.540  1.00  0.00     0.029 A 
ATOM     51  N   UNL A   1      43.136  29.478  28.897  1.00  0.00    -0.354 N 
ATOM     52  N   UNL A   1      45.900  28.660  28.358  1.00  0.00    -0.248 NA
ATOM     53  C   UNL A   1      48.178  29.162  28.245  1.00  0.00     0.031 C 
ATOM     54  C   UNL A   1      42.769  31.553  29.602  1.00  0.00     0.029 A 
ATOM     55  C   UNL A   1      43.765  30.665  29.233  1.00  0.00     0.049 A 
ATOM     56  H   UNL A   1      43.592  28.666  28.578  1.00  0.00     0.167 HD
ATOM     57  C   UNL A   1      46.102  29.965  28.790  1.00  0.00     0.074 A 
ATOM     58  C   UNL A   1      47.528  30.208  28.734  1.00  0.00     0.031 C 
ATOM     59  C   UNL A   1      45.190  30.881  29.197  1.00  0.00     0.037 A 
BRANCH  46  60
ATOM     60  C   UNL A   1      39.356  28.852  29.063  1.00  0.00     0.057 A 
ATOM     61  C   UNL A   1      38.763  28.651  30.318  1.00  0.00     0.134 A 
ATOM     62  C   UNL A   1      38.548  29.375  28.047  1.00  0.00     0.134 A 
ATOM     63  F   UNL A   1      39.476  28.139  31.333  1.00  0.00    -0.206 F 
ATOM     64  C   UNL A   1      37.416  28.937  30.545  1.00  0.00     0.040 A 
ATOM     65  C   UNL A   1      37.207  29.694  28.269  1.00  0.00     0.040 A 
ATOM     66  F   UNL A   1      39.052  29.597  26.822  1.00  0.00    -0.206 F 
ATOM     67  C   UNL A   1      36.637  29.469  29.521  1.00  0.00     0.006 A 
ENDBRANCH  46  60
BRANCH  47  68
ATOM     68  C   UNL A   1      48.900  26.492  27.303  1.00  0.00     0.057 A 
ATOM     69  C   UNL A   1      49.435  26.673  26.021  1.00  0.00     0.134 A 
ATOM     70  C   UNL A   1      49.747  25.961  28.283  1.00  0.00     0.134 A 
ATOM     71  F   UNL A   1      48.670  27.162  25.033  1.00  0.00    -0.206 F 
ATOM     72  C   UNL A   1      50.747  26.305  25.717  1.00  0.00     0.040 A 
ATOM     73  C   UNL A   1      51.069  25.618  28.000  1.00  0.00     0.040 A 
ATOM     74  F   UNL A   1      49.300  25.772  29.534  1.00  0.00    -0.206 F 
ATOM     75  C   UNL A   1      51.570  25.778  26.710  1.00  0.00     0.006 A 
ENDBRANCH  47  68
BRANCH  59  76
ATOM     76  C   UNL A   1      45.708  32.206  29.677  1.00  0.00     0.057 A 
ATOM     77  C   UNL A   1      45.889  33.295  28.817  1.00  0.00     0.134 A 
ATOM     78  C   UNL A   1      46.000  32.399  31.035  1.00  0.00     0.134 A 
ATOM     79  F   UNL A   1      45.639  33.174  27.504  1.00  0.00    -0.206 F 
ATOM     80  C   UNL A   1      46.370  34.520  29.283  1.00  0.00     0.040 A 
ATOM     81  C   UNL A   1      46.451  33.627  31.517  1.00  0.00     0.040 A 
ATOM     82  F   UNL A   1      45.838  31.400  31.916  1.00  0.00    -0.206 F 
ATOM     83  C   UNL A   1      46.646  34.690  30.638  1.00  0.00     0.006 A 
ENDBRANCH  59  76
ENDBRANCH  33  34
ENDBRANCH  25  28
ENDBRANCH  23  24
ENDBRANCH  22  23
ENDBRANCH  21  22
ENDBRANCH  20  21
ENDBRANCH   3  20
TORSDOF 18
ENDMDL
MODEL 3
REMARK VINA RESULT:      -9.6      6.278     10.363
REMARK SMILES CC[C@@H]([NH3+])C(=O)NCCOCC(=O)NCCCCNC(=O)c1ccc(-c2c3nc(c(-c4c(F)cccc4F)c4ccc([nH]4)c(-c4c(F)cccc4F)c4nc(c(-c5c(F)cccc5F)c5ccc2[nH]5)C=C4)C=C3)cc1
REMARK SMILES IDX 12 1 13 2 14 3 11 5 10 6 9 7 8 8 7 9 5 10 6 11 3 13 2 14
REMARK SMILES IDX 1 15 4 16 15 20 16 21 17 22 18 23 19 24 20 25 21 27 22 28
REMARK SMILES IDX 23 29 75 30 24 31 74 32 25 33 26 34 27 35 68 36 28 37 73 38
REMARK SMILES IDX 67 39 69 40 29 41 72 42 66 43 65 44 30 46 56 47 39 48 55 49
REMARK SMILES IDX 40 50 43 51 54 52 70 53 41 54 42 55 53 57 71 58 44 59 31 60
REMARK SMILES IDX 32 61 37 62 33 63 34 64 36 65 38 66 35 67 57 68 58 69 63 70
REMARK SMILES IDX 59 71 60 72 62 73 64 74 61 75 45 76 46 77 51 78 47 79 48 80
REMARK SMILES IDX 50 81 52 82 49 83
REMARK H PARENT 14 4 7 12 4 17 4 18 4 19 19 26 69 45 43 56
REMARK Flexibility Score: inf
ROOT
ATOM      1  C   UNL A   1      31.719  27.532  26.523  1.00  0.00     0.245 C 
ATOM      2  O   UNL A   1      31.105  26.572  26.983  1.00  0.00    -0.272 OA
ATOM      3  N   UNL A   1      31.788  28.685  27.250  1.00  0.00    -0.354 N 
ATOM      4  H   UNL A   1      31.352  28.669  28.133  1.00  0.00     0.163 HD
ENDROOT
BRANCH   1   5
ATOM      5  C   UNL A   1      32.408  27.485  25.155  1.00  0.00     0.260 C 
BRANCH   5   6
ATOM      6  O   UNL A   1      31.567  27.322  24.022  1.00  0.00    -0.370 OA
BRANCH   6   7
ATOM      7  C   UNL A   1      31.702  28.332  23.015  1.00  0.00     0.182 C 
BRANCH   7   8
ATOM      8  C   UNL A   1      30.465  29.232  22.875  1.00  0.00     0.144 C 
BRANCH   8   9
ATOM      9  N   UNL A   1      29.216  28.532  23.137  1.00  0.00    -0.349 N 
ATOM     10  C   UNL A   1      27.923  28.943  23.057  1.00  0.00     0.278 C 
ATOM     11  O   UNL A   1      27.045  28.125  23.346  1.00  0.00    -0.268 OA
ATOM     12  H   UNL A   1      29.328  27.596  23.423  1.00  0.00     0.163 HD
BRANCH  10  13
ATOM     13  C   UNL A   1      27.540  30.342  22.534  1.00  0.00     0.270 C 
BRANCH  13  14
ATOM     14  C   UNL A   1      28.019  31.484  23.436  1.00  0.00     0.072 C 
ATOM     15  C   UNL A   1      28.655  32.633  22.662  1.00  0.00     0.011 C 
ENDBRANCH  13  14
BRANCH  13  16
ATOM     16  N   UNL A   1      27.989  30.477  21.131  1.00  0.00    -0.347 N 
ATOM     17  H   UNL A   1      27.231  30.862  20.567  1.00  0.00     0.345 HD
ATOM     18  H   UNL A   1      28.252  29.561  20.768  1.00  0.00     0.345 HD
ATOM     19  H   UNL A   1      28.794  31.103  21.091  1.00  0.00     0.345 HD
ENDBRANCH  13  16
ENDBRANCH  10  13
ENDBRANCH   8   9
ENDBRANCH   7   8
ENDBRANCH   6   7
ENDBRANCH   5   6
ENDBRANCH   1   5
BRANCH   3  20
ATOM     20  C   UNL A   1      32.428  29.929  26.875  1.00  0.00     0.116 C 
BRANCH  20  21
ATOM     21  C   UNL A   1      31.502  30.819  26.052  1.00  0.00     0.023 C 
BRANCH  21  22
ATOM     22  C   UNL A   1      31.270  32.215  26.637  1.00  0.00     0.023 C 
BRANCH  22  23
ATOM     23  C   UNL A   1      32.504  32.882  27.231  1.00  0.00     0.116 C 
BRANCH  23  24
ATOM     24  N   UNL A   1      32.280  34.271  27.593  1.00  0.00    -0.352 N 
ATOM     25  C   UNL A   1      32.944  35.039  28.519  1.00  0.00     0.251 C 
ATOM     26  H   UNL A   1      31.554  34.725  27.108  1.00  0.00     0.163 HD
ATOM     27  O   UNL A   1      32.542  36.163  28.791  1.00  0.00    -0.269 OA
BRANCH  25  28
ATOM     28  C   UNL A   1      34.132  34.490  29.209  1.00  0.00     0.039 A 
ATOM     29  C   UNL A   1      33.964  33.885  30.456  1.00  0.00     0.014 A 
ATOM     30  C   UNL A   1      35.400  34.567  28.628  1.00  0.00     0.014 A 
ATOM     31  C   UNL A   1      35.064  33.314  31.101  1.00  0.00     0.010 A 
ATOM     32  C   UNL A   1      36.477  33.925  29.232  1.00  0.00     0.010 A 
ATOM     33  C   UNL A   1      36.324  33.306  30.482  1.00  0.00    -0.014 A 
BRANCH  33  34
ATOM     34  C   UNL A   1      37.505  32.697  31.145  1.00  0.00     0.031 A 
ATOM     35  C   UNL A   1      38.174  31.498  30.530  1.00  0.00     0.074 A 
ATOM     36  C   UNL A   1      37.948  33.190  32.318  1.00  0.00     0.049 A 
ATOM     37  N   UNL A   1      39.168  30.778  30.986  1.00  0.00    -0.248 NA
ATOM     38  C   UNL A   1      37.636  31.028  29.242  1.00  0.00     0.031 C 
ATOM     39  C   UNL A   1      37.360  34.320  33.041  1.00  0.00     0.029 A 
ATOM     40  N   UNL A   1      38.992  32.793  33.118  1.00  0.00    -0.354 N 
ATOM     41  C   UNL A   1      39.366  29.772  30.048  1.00  0.00     0.074 A 
ATOM     42  C   UNL A   1      38.349  29.931  29.033  1.00  0.00     0.031 C 
ATOM     43  C   UNL A   1      38.063  34.536  34.165  1.00  0.00     0.029 A 
ATOM     44  C   UNL A   1      39.124  33.539  34.263  1.00  0.00     0.049 A 
ATOM     45  H   UNL A   1      39.590  32.045  32.889  1.00  0.00     0.167 HD
ATOM     46  C   UNL A   1      40.330  28.822  30.015  1.00  0.00     0.037 A 
ATOM     47  C   UNL A   1      39.998  33.425  35.282  1.00  0.00     0.037 A 
ATOM     48  C   UNL A   1      41.354  28.676  31.015  1.00  0.00     0.049 A 
ATOM     49  C   UNL A   1      41.053  32.352  35.226  1.00  0.00     0.074 A 
ATOM     50  C   UNL A   1      42.391  27.760  31.060  1.00  0.00     0.029 A 
ATOM     51  N   UNL A   1      41.474  29.473  32.143  1.00  0.00    -0.354 N 
ATOM     52  N   UNL A   1      41.258  31.439  34.308  1.00  0.00    -0.248 NA
ATOM     53  C   UNL A   1      42.008  32.304  36.344  1.00  0.00     0.031 C 
ATOM     54  C   UNL A   1      43.115  27.978  32.236  1.00  0.00     0.029 A 
ATOM     55  C   UNL A   1      42.564  29.065  32.893  1.00  0.00     0.049 A 
ATOM     56  H   UNL A   1      40.874  30.217  32.375  1.00  0.00     0.167 HD
ATOM     57  C   UNL A   1      42.386  30.738  34.714  1.00  0.00     0.074 A 
ATOM     58  C   UNL A   1      42.827  31.337  35.956  1.00  0.00     0.031 C 
ATOM     59  C   UNL A   1      43.005  29.691  34.114  1.00  0.00     0.037 A 
BRANCH  46  60
ATOM     60  C   UNL A   1      40.331  27.875  28.849  1.00  0.00     0.057 A 
ATOM     61  C   UNL A   1      41.056  28.149  27.681  1.00  0.00     0.134 A 
ATOM     62  C   UNL A   1      39.635  26.662  28.905  1.00  0.00     0.134 A 
ATOM     63  F   UNL A   1      41.733  29.300  27.554  1.00  0.00    -0.206 F 
ATOM     64  C   UNL A   1      41.069  27.262  26.603  1.00  0.00     0.040 A 
ATOM     65  C   UNL A   1      39.665  25.752  27.847  1.00  0.00     0.040 A 
ATOM     66  F   UNL A   1      38.924  26.334  29.996  1.00  0.00    -0.206 F 
ATOM     67  C   UNL A   1      40.380  26.055  26.689  1.00  0.00     0.006 A 
ENDBRANCH  46  60
BRANCH  47  68
ATOM     68  C   UNL A   1      39.929  34.356  36.438  1.00  0.00     0.057 A 
ATOM     69  C   UNL A   1      40.566  35.603  36.407  1.00  0.00     0.134 A 
ATOM     70  C   UNL A   1      39.255  34.008  37.616  1.00  0.00     0.134 A 
ATOM     71  F   UNL A   1      41.242  35.988  35.315  1.00  0.00    -0.206 F 
ATOM     72  C   UNL A   1      40.567  36.453  37.515  1.00  0.00     0.040 A 
ATOM     73  C   UNL A   1      39.223  34.861  38.720  1.00  0.00     0.040 A 
ATOM     74  F   UNL A   1      38.615  32.832  37.708  1.00  0.00    -0.206 F 
ATOM     75  C   UNL A   1      39.891  36.083  38.676  1.00  0.00     0.006 A 
ENDBRANCH  47  68
BRANCH  59  76
ATOM     76  C   UNL A   1      44.259  29.170  34.754  1.00  0.00     0.057 A 
ATOM     77  C   UNL A   1      45.529  29.651  34.412  1.00  0.00     0.134 A 
ATOM     78  C   UNL A   1      44.187  28.190  35.754  1.00  0.00     0.134 A 
ATOM     79  F   UNL A   1      45.669  30.582  33.455  1.00  0.00    -0.206 F 
ATOM     80  C   UNL A   1      46.684  29.156  35.020  1.00  0.00     0.040 A 
ATOM     81  C   UNL A   1      45.332  27.710  36.390  1.00  0.00     0.040 A 
ATOM     82  F   UNL A   1      43.002  27.694  36.138  1.00  0.00    -0.206 F 
ATOM     83  C   UNL A   1      46.586  28.188  36.017  1.00  0.00     0.006 A 
ENDBRANCH  59  76
ENDBRANCH  33  34
ENDBRANCH  25  28
ENDBRANCH  23  24
ENDBRANCH  22  23
ENDBRANCH  21  22
ENDBRANCH  20  21
ENDBRANCH   3  20
TORSDOF 18
ENDMDL
