MODEL 1
REMARK VINA RESULT:     -10.4      0.000      0.000
REMARK SMILES C[NH2+]C[C@@H](C)C(=O)N1CC[NH+](CC(=O)NCCCCNC(=O)c2ccc(-c3c4nc(c(-c5c(F)cccc5F)c5ccc([nH]5)c(-c5c(F)cccc5F)c5nc(c(-c6c(F)cccc6F)c6ccc3[nH]6)C=C5)C=C4)cc2)CC1
REMARK SMILES IDX 16 1 15 2 13 3 14 4 12 6 11 7 6 8 7 9 8 10 9 11 78 12 10 13
REMARK SMILES IDX 77 14 4 16 5 17 3 18 2 19 1 20 17 23 18 24 19 25 20 26 21 27
REMARK SMILES IDX 22 29 23 30 24 31 76 32 25 33 75 34 26 35 27 36 28 37 69 38
REMARK SMILES IDX 29 39 74 40 68 41 70 42 30 43 73 44 67 45 66 46 31 48 57 49
REMARK SMILES IDX 40 50 56 51 41 52 44 53 55 54 71 55 42 56 43 57 54 59 72 60
REMARK SMILES IDX 45 61 32 62 33 63 38 64 34 65 35 66 37 67 39 68 36 69 58 70
REMARK SMILES IDX 59 71 64 72 60 73 61 74 63 75 65 76 62 77 46 78 47 79 52 80
REMARK SMILES IDX 48 81 49 82 51 83 53 84 50 85
REMARK H PARENT 15 5 11 15 2 21 2 22 20 28 70 47 44 58
REMARK Flexibility Score: inf
ROOT
ATOM      1  C   UNL A   1      35.608  20.360  24.993  1.00  0.00     0.116 C 
ENDROOT
BRANCH   1   2
ATOM      2  N   UNL A   1      34.326  19.673  24.973  1.00  0.00    -0.351 N 
ATOM      3  C   UNL A   1      33.072  20.033  25.369  1.00  0.00     0.275 C 
ATOM      4  O   UNL A   1      32.166  19.216  25.178  1.00  0.00    -0.269 OA
ATOM      5  H   UNL A   1      34.374  18.763  24.599  1.00  0.00     0.163 HD
BRANCH   3   6
ATOM      6  C   UNL A   1      32.785  21.386  26.013  1.00  0.00     0.363 C 
BRANCH   6   7
ATOM      7  N   UNL A   1      32.290  22.436  25.106  1.00  0.00    -0.324 N 
ATOM      8  C   UNL A   1      31.828  26.576  26.402  1.00  0.00     0.231 C 
ATOM      9  O   UNL A   1      30.912  26.926  27.151  1.00  0.00    -0.274 OA
ATOM     10  N   UNL A   1      31.969  25.249  26.006  1.00  0.00    -0.331 N 
ATOM     11  C   UNL A   1      30.898  24.284  26.296  1.00  0.00     0.181 C 
ATOM     12  C   UNL A   1      33.259  24.635  25.800  1.00  0.00     0.181 C 
ATOM     13  C   UNL A   1      30.962  23.008  25.406  1.00  0.00     0.284 C 
ATOM     14  C   UNL A   1      33.255  23.482  24.803  1.00  0.00     0.284 C 
ATOM     15  H   UNL A   1      32.148  21.888  24.257  1.00  0.00     0.348 HD
BRANCH   8  16
ATOM     16  C   UNL A   1      32.762  27.655  25.801  1.00  0.00     0.130 C 
ATOM     17  C   UNL A   1      33.609  28.263  26.923  1.00  0.00     0.024 C 
BRANCH  16  18
ATOM     18  C   UNL A   1      32.079  28.678  24.868  1.00  0.00     0.273 C 
BRANCH  18  19
ATOM     19  N   UNL A   1      30.727  28.347  24.404  1.00  0.00    -0.348 N 
ATOM     20  C   UNL A   1      30.703  27.760  23.077  1.00  0.00     0.330 C 
ATOM     21  H   UNL A   1      30.315  27.682  25.059  1.00  0.00     0.346 HD
ATOM     22  H   UNL A   1      30.202  29.219  24.357  1.00  0.00     0.346 HD
ENDBRANCH  18  19
ENDBRANCH  16  18
ENDBRANCH   8  16
ENDBRANCH   6   7
ENDBRANCH   3   6
ENDBRANCH   1   2
BRANCH   1  23
ATOM     23  C   UNL A   1      36.837  19.440  24.924  1.00  0.00     0.023 C 
BRANCH  23  24
ATOM     24  C   UNL A   1      38.187  20.137  24.712  1.00  0.00     0.023 C 
BRANCH  24  25
ATOM     25  C   UNL A   1      39.064  20.199  25.948  1.00  0.00     0.116 C 
BRANCH  25  26
ATOM     26  N   UNL A   1      40.191  19.280  25.881  1.00  0.00    -0.352 N 
ATOM     27  C   UNL A   1      41.529  19.496  26.114  1.00  0.00     0.251 C 
ATOM     28  H   UNL A   1      39.958  18.357  25.628  1.00  0.00     0.163 HD
ATOM     29  O   UNL A   1      42.330  18.595  25.916  1.00  0.00    -0.269 OA
BRANCH  27  30
ATOM     30  C   UNL A   1      42.005  20.823  26.570  1.00  0.00     0.039 A 
ATOM     31  C   UNL A   1      42.373  21.766  25.605  1.00  0.00     0.014 A 
ATOM     32  C   UNL A   1      42.081  21.146  27.924  1.00  0.00     0.014 A 
ATOM     33  C   UNL A   1      42.744  23.053  25.999  1.00  0.00     0.010 A 
ATOM     34  C   UNL A   1      42.346  22.454  28.310  1.00  0.00     0.010 A 
ATOM     35  C   UNL A   1      42.687  23.418  27.352  1.00  0.00    -0.014 A 
BRANCH  35  36
ATOM     36  C   UNL A   1      42.976  24.800  27.798  1.00  0.00     0.031 A 
ATOM     37  C   UNL A   1      44.391  25.213  28.090  1.00  0.00     0.074 A 
ATOM     38  C   UNL A   1      41.955  25.646  28.031  1.00  0.00     0.049 A 
ATOM     39  N   UNL A   1      44.841  26.334  28.591  1.00  0.00    -0.248 NA
ATOM     40  C   UNL A   1      45.439  24.214  27.819  1.00  0.00     0.031 C 
ATOM     41  C   UNL A   1      40.536  25.333  27.836  1.00  0.00     0.029 A 
ATOM     42  N   UNL A   1      41.948  26.936  28.497  1.00  0.00    -0.354 N 
ATOM     43  C   UNL A   1      46.214  26.166  28.719  1.00  0.00     0.074 A 
ATOM     44  C   UNL A   1      46.516  24.815  28.299  1.00  0.00     0.031 C 
ATOM     45  C   UNL A   1      39.802  26.412  28.145  1.00  0.00     0.029 A 
ATOM     46  C   UNL A   1      40.689  27.473  28.608  1.00  0.00     0.049 A 
ATOM     47  H   UNL A   1      42.768  27.429  28.729  1.00  0.00     0.167 HD
ATOM     48  C   UNL A   1      47.139  27.064  29.130  1.00  0.00     0.037 A 
ATOM     49  C   UNL A   1      40.297  28.684  29.045  1.00  0.00     0.037 A 
ATOM     50  C   UNL A   1      46.824  28.414  29.516  1.00  0.00     0.049 A 
ATOM     51  C   UNL A   1      41.341  29.660  29.509  1.00  0.00     0.074 A 
ATOM     52  C   UNL A   1      47.688  29.438  29.860  1.00  0.00     0.029 A 
ATOM     53  N   UNL A   1      45.537  28.923  29.616  1.00  0.00    -0.354 N 
ATOM     54  N   UNL A   1      42.645  29.520  29.543  1.00  0.00    -0.248 NA
ATOM     55  C   UNL A   1      40.860  30.958  30.000  1.00  0.00     0.031 C 
ATOM     56  C   UNL A   1      46.921  30.548  30.225  1.00  0.00     0.029 A 
ATOM     57  C   UNL A   1      45.581  30.234  30.059  1.00  0.00     0.049 A 
ATOM     58  H   UNL A   1      44.715  28.426  29.404  1.00  0.00     0.167 HD
ATOM     59  C   UNL A   1      43.142  30.714  30.046  1.00  0.00     0.074 A 
ATOM     60  C   UNL A   1      41.999  31.575  30.281  1.00  0.00     0.031 C 
ATOM     61  C   UNL A   1      44.427  31.066  30.296  1.00  0.00     0.037 A 
BRANCH  48  62
ATOM     62  C   UNL A   1      48.569  26.608  29.187  1.00  0.00     0.057 A 
ATOM     63  C   UNL A   1      49.115  26.008  30.331  1.00  0.00     0.134 A 
ATOM     64  C   UNL A   1      49.414  26.766  28.081  1.00  0.00     0.134 A 
ATOM     65  F   UNL A   1      48.367  25.836  31.432  1.00  0.00    -0.206 F 
ATOM     66  C   UNL A   1      50.456  25.619  30.386  1.00  0.00     0.040 A 
ATOM     67  C   UNL A   1      50.747  26.352  28.112  1.00  0.00     0.040 A 
ATOM     68  F   UNL A   1      48.958  27.327  26.950  1.00  0.00    -0.206 F 
ATOM     69  C   UNL A   1      51.274  25.786  29.271  1.00  0.00     0.006 A 
ENDBRANCH  48  62
BRANCH  49  70
ATOM     70  C   UNL A   1      38.857  29.043  29.038  1.00  0.00     0.057 A 
ATOM     71  C   UNL A   1      38.076  28.898  30.190  1.00  0.00     0.134 A 
ATOM     72  C   UNL A   1      38.232  29.561  27.897  1.00  0.00     0.134 A 
ATOM     73  F   UNL A   1      38.613  28.393  31.310  1.00  0.00    -0.206 F 
ATOM     74  C   UNL A   1      36.724  29.247  30.207  1.00  0.00     0.040 A 
ATOM     75  C   UNL A   1      36.888  29.938  27.907  1.00  0.00     0.040 A 
ATOM     76  F   UNL A   1      38.926  29.732  26.762  1.00  0.00    -0.206 F 
ATOM     77  C   UNL A   1      36.128  29.777  29.064  1.00  0.00     0.006 A 
ENDBRANCH  49  70
BRANCH  61  78
ATOM     78  C   UNL A   1      44.662  32.441  30.850  1.00  0.00     0.057 A 
ATOM     79  C   UNL A   1      44.744  32.672  32.229  1.00  0.00     0.134 A 
ATOM     80  C   UNL A   1      44.850  33.535  29.996  1.00  0.00     0.134 A 
ATOM     81  F   UNL A   1      44.556  31.669  33.099  1.00  0.00    -0.206 F 
ATOM     82  C   UNL A   1      44.989  33.948  32.739  1.00  0.00     0.040 A 
ATOM     83  C   UNL A   1      45.125  34.809  30.494  1.00  0.00     0.040 A 
ATOM     84  F   UNL A   1      44.792  33.378  28.665  1.00  0.00    -0.206 F 
ATOM     85  C   UNL A   1      45.190  35.019  31.869  1.00  0.00     0.006 A 
ENDBRANCH  61  78
ENDBRANCH  35  36
ENDBRANCH  27  30
ENDBRANCH  25  26
ENDBRANCH  24  25
ENDBRANCH  23  24
ENDBRANCH   1  23
TORSDOF 15
ENDMDL
MODEL 2
REMARK VINA RESULT:     -10.4      1.242      1.831
REMARK SMILES C[NH2+]C[C@@H](C)C(=O)N1CC[NH+](CC(=O)NCCCCNC(=O)c2ccc(-c3c4nc(c(-c5c(F)cccc5F)c5ccc([nH]5)c(-c5c(F)cccc5F)c5nc(c(-c6c(F)cccc6F)c6ccc3[nH]6)C=C5)C=C4)cc2)CC1
REMARK SMILES IDX 16 1 15 2 13 3 14 4 12 6 11 7 6 8 7 9 8 10 9 11 78 12 10 13
REMARK SMILES IDX 77 14 4 16 5 17 3 18 2 19 1 20 17 23 18 24 19 25 20 26 21 27
REMARK SMILES IDX 22 29 23 30 24 31 76 32 25 33 75 34 26 35 27 36 28 37 69 38
REMARK SMILES IDX 29 39 74 40 68 41 70 42 30 43 73 44 67 45 66 46 31 48 57 49
REMARK SMILES IDX 40 50 56 51 41 52 44 53 55 54 71 55 42 56 43 57 54 59 72 60
REMARK SMILES IDX 45 61 32 62 33 63 38 64 34 65 35 66 37 67 39 68 36 69 58 70
REMARK SMILES IDX 59 71 64 72 60 73 61 74 63 75 65 76 62 77 46 78 47 79 52 80
REMARK SMILES IDX 48 81 49 82 51 83 53 84 50 85
REMARK H PARENT 15 5 11 15 2 21 2 22 20 28 70 47 44 58
REMARK Flexibility Score: inf
ROOT
ATOM      1  C   UNL A   1      35.669  20.710  24.903  1.00  0.00     0.116 C 
ENDROOT
BRANCH   1   2
ATOM      2  N   UNL A   1      35.192  21.103  26.219  1.00  0.00    -0.351 N 
ATOM      3  C   UNL A   1      34.193  21.932  26.637  1.00  0.00     0.275 C 
ATOM      4  O   UNL A   1      34.014  22.027  27.855  1.00  0.00    -0.269 OA
ATOM      5  H   UNL A   1      35.692  20.688  26.958  1.00  0.00     0.163 HD
BRANCH   3   6
ATOM      6  C   UNL A   1      33.322  22.707  25.653  1.00  0.00     0.363 C 
BRANCH   6   7
ATOM      7  N   UNL A   1      33.607  24.147  25.538  1.00  0.00    -0.324 N 
ATOM      8  C   UNL A   1      31.191  26.789  23.046  1.00  0.00     0.231 C 
ATOM      9  O   UNL A   1      31.269  26.774  21.814  1.00  0.00    -0.274 OA
ATOM     10  N   UNL A   1      31.961  25.932  23.827  1.00  0.00    -0.331 N 
ATOM     11  C   UNL A   1      33.040  25.150  23.206  1.00  0.00     0.181 C 
ATOM     12  C   UNL A   1      31.475  25.365  25.063  1.00  0.00     0.181 C 
ATOM     13  C   UNL A   1      34.092  24.632  24.230  1.00  0.00     0.284 C 
ATOM     14  C   UNL A   1      32.568  25.016  26.067  1.00  0.00     0.284 C 
ATOM     15  H   UNL A   1      34.417  24.219  26.155  1.00  0.00     0.348 HD
BRANCH   8  16
ATOM     16  C   UNL A   1      30.309  27.862  23.731  1.00  0.00     0.130 C 
ATOM     17  C   UNL A   1      28.836  27.546  23.457  1.00  0.00     0.024 C 
BRANCH  16  18
ATOM     18  C   UNL A   1      30.725  29.325  23.472  1.00  0.00     0.273 C 
BRANCH  18  19
ATOM     19  N   UNL A   1      30.862  29.734  22.069  1.00  0.00    -0.348 N 
ATOM     20  C   UNL A   1      29.637  30.271  21.505  1.00  0.00     0.330 C 
ATOM     21  H   UNL A   1      31.586  30.449  22.010  1.00  0.00     0.346 HD
ATOM     22  H   UNL A   1      31.099  28.899  21.533  1.00  0.00     0.346 HD
ENDBRANCH  18  19
ENDBRANCH  16  18
ENDBRANCH   8  16
ENDBRANCH   6   7
ENDBRANCH   3   6
ENDBRANCH   1   2
BRANCH   1  23
ATOM     23  C   UNL A   1      37.145  21.035  24.625  1.00  0.00     0.023 C 
BRANCH  23  24
ATOM     24  C   UNL A   1      38.140  19.888  24.846  1.00  0.00     0.023 C 
BRANCH  24  25
ATOM     25  C   UNL A   1      39.155  20.138  25.945  1.00  0.00     0.116 C 
BRANCH  25  26
ATOM     26  N   UNL A   1      40.297  19.240  25.866  1.00  0.00    -0.352 N 
ATOM     27  C   UNL A   1      41.630  19.473  26.116  1.00  0.00     0.251 C 
ATOM     28  H   UNL A   1      40.083  18.320  25.589  1.00  0.00     0.163 HD
ATOM     29  O   UNL A   1      42.448  18.591  25.903  1.00  0.00    -0.269 OA
BRANCH  27  30
ATOM     30  C   UNL A   1      42.078  20.797  26.606  1.00  0.00     0.039 A 
ATOM     31  C   UNL A   1      42.558  21.725  25.676  1.00  0.00     0.014 A 
ATOM     32  C   UNL A   1      42.023  21.132  27.959  1.00  0.00     0.014 A 
ATOM     33  C   UNL A   1      42.909  23.010  26.095  1.00  0.00     0.010 A 
ATOM     34  C   UNL A   1      42.269  22.439  28.359  1.00  0.00     0.010 A 
ATOM     35  C   UNL A   1      42.721  23.389  27.433  1.00  0.00    -0.014 A 
BRANCH  35  36
ATOM     36  C   UNL A   1      42.986  24.770  27.895  1.00  0.00     0.031 A 
ATOM     37  C   UNL A   1      44.384  25.183  28.261  1.00  0.00     0.074 A 
ATOM     38  C   UNL A   1      41.954  25.615  28.076  1.00  0.00     0.049 A 
ATOM     39  N   UNL A   1      44.807  26.304  28.786  1.00  0.00    -0.248 NA
ATOM     40  C   UNL A   1      45.445  24.185  28.044  1.00  0.00     0.031 C 
ATOM     41  C   UNL A   1      40.548  25.303  27.806  1.00  0.00     0.029 A 
ATOM     42  N   UNL A   1      41.923  26.905  28.542  1.00  0.00    -0.354 N 
ATOM     43  C   UNL A   1      46.171  26.135  28.986  1.00  0.00     0.074 A 
ATOM     44  C   UNL A   1      46.496  24.785  28.580  1.00  0.00     0.031 C 
ATOM     45  C   UNL A   1      39.798  26.381  28.078  1.00  0.00     0.029 A 
ATOM     46  C   UNL A   1      40.660  27.442  28.587  1.00  0.00     0.049 A 
ATOM     47  H   UNL A   1      42.729  27.398  28.817  1.00  0.00     0.167 HD
ATOM     48  C   UNL A   1      47.074  27.034  29.444  1.00  0.00     0.037 A 
ATOM     49  C   UNL A   1      40.245  28.652  29.005  1.00  0.00     0.037 A 
ATOM     50  C   UNL A   1      46.739  28.383  29.815  1.00  0.00     0.049 A 
ATOM     51  C   UNL A   1      41.263  29.628  29.523  1.00  0.00     0.074 A 
ATOM     52  C   UNL A   1      47.584  29.406  30.205  1.00  0.00     0.029 A 
ATOM     53  N   UNL A   1      45.448  28.892  29.849  1.00  0.00    -0.354 N 
ATOM     54  N   UNL A   1      42.563  29.488  29.625  1.00  0.00    -0.248 NA
ATOM     55  C   UNL A   1      40.757  30.925  29.990  1.00  0.00     0.031 C 
ATOM     56  C   UNL A   1      46.798  30.516  30.531  1.00  0.00     0.029 A 
ATOM     57  C   UNL A   1      45.468  30.202  30.294  1.00  0.00     0.049 A 
ATOM     58  H   UNL A   1      44.638  28.395  29.594  1.00  0.00     0.167 HD
ATOM     59  C   UNL A   1      43.034  30.681  30.155  1.00  0.00     0.074 A 
ATOM     60  C   UNL A   1      41.880  31.542  30.331  1.00  0.00     0.031 C 
ATOM     61  C   UNL A   1      44.304  31.034  30.472  1.00  0.00     0.037 A 
BRANCH  48  62
ATOM     62  C   UNL A   1      48.499  26.577  29.576  1.00  0.00     0.057 A 
ATOM     63  C   UNL A   1      49.415  26.674  28.519  1.00  0.00     0.134 A 
ATOM     64  C   UNL A   1      48.966  26.035  30.781  1.00  0.00     0.134 A 
ATOM     65  F   UNL A   1      49.033  27.172  27.333  1.00  0.00    -0.206 F 
ATOM     66  C   UNL A   1      50.728  26.214  28.641  1.00  0.00     0.040 A 
ATOM     67  C   UNL A   1      50.285  25.601  30.926  1.00  0.00     0.040 A 
ATOM     68  F   UNL A   1      48.147  25.916  31.837  1.00  0.00    -0.206 F 
ATOM     69  C   UNL A   1      51.167  25.681  29.851  1.00  0.00     0.006 A 
ENDBRANCH  48  62
BRANCH  49  70
ATOM     70  C   UNL A   1      38.807  29.011  28.923  1.00  0.00     0.057 A 
ATOM     71  C   UNL A   1      37.962  28.841  30.025  1.00  0.00     0.134 A 
ATOM     72  C   UNL A   1      38.248  29.554  27.760  1.00  0.00     0.134 A 
ATOM     73  F   UNL A   1      38.435  28.312  31.163  1.00  0.00    -0.206 F 
ATOM     74  C   UNL A   1      36.611  29.190  29.972  1.00  0.00     0.040 A 
ATOM     75  C   UNL A   1      36.905  29.930  27.700  1.00  0.00     0.040 A 
ATOM     76  F   UNL A   1      39.006  29.749  26.670  1.00  0.00    -0.206 F 
ATOM     77  C   UNL A   1      36.081  29.744  28.809  1.00  0.00     0.006 A 
ENDBRANCH  49  70
BRANCH  61  78
ATOM     78  C   UNL A   1      44.509  32.408  31.039  1.00  0.00     0.057 A 
ATOM     79  C   UNL A   1      44.523  32.637  32.420  1.00  0.00     0.134 A 
ATOM     80  C   UNL A   1      44.738  33.503  30.197  1.00  0.00     0.134 A 
ATOM     81  F   UNL A   1      44.294  31.632  33.279  1.00  0.00    -0.206 F 
ATOM     82  C   UNL A   1      44.741  33.912  32.944  1.00  0.00     0.040 A 
ATOM     83  C   UNL A   1      44.986  34.777  30.710  1.00  0.00     0.040 A 
ATOM     84  F   UNL A   1      44.746  33.349  28.864  1.00  0.00    -0.206 F 
ATOM     85  C   UNL A   1      44.983  34.985  32.087  1.00  0.00     0.006 A 
ENDBRANCH  61  78
ENDBRANCH  35  36
ENDBRANCH  27  30
ENDBRANCH  25  26
ENDBRANCH  24  25
ENDBRANCH  23  24
ENDBRANCH   1  23
TORSDOF 15
ENDMDL
MODEL 3
REMARK VINA RESULT:     -10.4      1.664      6.503
REMARK SMILES C[NH2+]C[C@@H](C)C(=O)N1CC[NH+](CC(=O)NCCCCNC(=O)c2ccc(-c3c4nc(c(-c5c(F)cccc5F)c5ccc([nH]5)c(-c5c(F)cccc5F)c5nc(c(-c6c(F)cccc6F)c6ccc3[nH]6)C=C5)C=C4)cc2)CC1
REMARK SMILES IDX 16 1 15 2 13 3 14 4 12 6 11 7 6 8 7 9 8 10 9 11 78 12 10 13
REMARK SMILES IDX 77 14 4 16 5 17 3 18 2 19 1 20 17 23 18 24 19 25 20 26 21 27
REMARK SMILES IDX 22 29 23 30 24 31 76 32 25 33 75 34 26 35 27 36 28 37 69 38
REMARK SMILES IDX 29 39 74 40 68 41 70 42 30 43 73 44 67 45 66 46 31 48 57 49
REMARK SMILES IDX 40 50 56 51 41 52 44 53 55 54 71 55 42 56 43 57 54 59 72 60
REMARK SMILES IDX 45 61 32 62 33 63 38 64 34 65 35 66 37 67 39 68 36 69 58 70
REMARK SMILES IDX 59 71 64 72 60 73 61 74 63 75 65 76 62 77 46 78 47 79 52 80
REMARK SMILES IDX 48 81 49 82 51 83 53 84 50 85
REMARK H PARENT 15 5 11 15 2 21 2 22 20 28 70 47 44 58
REMARK Flexibility Score: inf
ROOT
ATOM      1  C   UNL A   1      35.631  20.686  24.612  1.00  0.00     0.116 C 
ENDROOT
BRANCH   1   2
ATOM      2  N   UNL A   1      34.963  20.742  25.903  1.00  0.00    -0.351 N 
ATOM      3  C   UNL A   1      34.602  21.773  26.718  1.00  0.00     0.275 C 
ATOM      4  O   UNL A   1      33.999  21.484  27.756  1.00  0.00    -0.269 OA
ATOM      5  H   UNL A   1      34.723  19.856  26.260  1.00  0.00     0.163 HD
BRANCH   3   6
ATOM      6  C   UNL A   1      34.915  23.226  26.371  1.00  0.00     0.363 C 
BRANCH   6   7
ATOM      7  N   UNL A   1      33.989  23.874  25.427  1.00  0.00    -0.324 N 
ATOM      8  C   UNL A   1      31.724  27.445  26.499  1.00  0.00     0.231 C 
ATOM      9  O   UNL A   1      30.757  27.398  27.264  1.00  0.00    -0.274 OA
ATOM     10  N   UNL A   1      32.443  26.299  26.175  1.00  0.00    -0.331 N 
ATOM     11  C   UNL A   1      31.926  24.978  26.565  1.00  0.00     0.181 C 
ATOM     12  C   UNL A   1      33.869  26.317  25.952  1.00  0.00     0.181 C 
ATOM     13  C   UNL A   1      32.549  23.808  25.748  1.00  0.00     0.284 C 
ATOM     14  C   UNL A   1      34.375  25.218  25.024  1.00  0.00     0.284 C 
ATOM     15  H   UNL A   1      34.100  23.263  24.618  1.00  0.00     0.348 HD
BRANCH   8  16
ATOM     16  C   UNL A   1      32.064  28.784  25.798  1.00  0.00     0.130 C 
ATOM     17  C   UNL A   1      32.200  29.881  26.858  1.00  0.00     0.024 C 
BRANCH  16  18
ATOM     18  C   UNL A   1      31.172  29.145  24.592  1.00  0.00     0.273 C 
BRANCH  18  19
ATOM     19  N   UNL A   1      31.857  29.420  23.324  1.00  0.00    -0.348 N 
ATOM     20  C   UNL A   1      33.167  28.801  23.232  1.00  0.00     0.330 C 
ATOM     21  H   UNL A   1      31.279  29.068  22.561  1.00  0.00     0.346 HD
ATOM     22  H   UNL A   1      31.997  30.429  23.268  1.00  0.00     0.346 HD
ENDBRANCH  18  19
ENDBRANCH  16  18
ENDBRANCH   8  16
ENDBRANCH   6   7
ENDBRANCH   3   6
ENDBRANCH   1   2
BRANCH   1  23
ATOM     23  C   UNL A   1      37.135  20.998  24.648  1.00  0.00     0.023 C 
BRANCH  23  24
ATOM     24  C   UNL A   1      38.059  19.820  24.982  1.00  0.00     0.023 C 
BRANCH  24  25
ATOM     25  C   UNL A   1      39.264  20.185  25.827  1.00  0.00     0.116 C 
BRANCH  25  26
ATOM     26  N   UNL A   1      40.259  19.124  25.872  1.00  0.00    -0.352 N 
ATOM     27  C   UNL A   1      41.609  19.180  26.130  1.00  0.00     0.251 C 
ATOM     28  H   UNL A   1      39.911  18.222  25.686  1.00  0.00     0.163 HD
ATOM     29  O   UNL A   1      42.287  18.169  26.031  1.00  0.00    -0.269 OA
BRANCH  27  30
ATOM     30  C   UNL A   1      42.247  20.467  26.492  1.00  0.00     0.039 A 
ATOM     31  C   UNL A   1      42.837  21.228  25.478  1.00  0.00     0.014 A 
ATOM     32  C   UNL A   1      42.262  20.930  27.808  1.00  0.00     0.014 A 
ATOM     33  C   UNL A   1      43.372  22.484  25.773  1.00  0.00     0.010 A 
ATOM     34  C   UNL A   1      42.697  22.221  28.082  1.00  0.00     0.010 A 
ATOM     35  C   UNL A   1      43.262  23.007  27.069  1.00  0.00    -0.014 A 
BRANCH  35  36
ATOM     36  C   UNL A   1      43.726  24.374  27.399  1.00  0.00     0.031 A 
ATOM     37  C   UNL A   1      42.735  25.420  27.824  1.00  0.00     0.074 A 
ATOM     38  C   UNL A   1      45.023  24.692  27.222  1.00  0.00     0.049 A 
ATOM     39  N   UNL A   1      42.920  26.695  28.051  1.00  0.00    -0.248 NA
ATOM     40  C   UNL A   1      41.337  24.981  27.976  1.00  0.00     0.031 C 
ATOM     41  C   UNL A   1      46.064  23.770  26.760  1.00  0.00     0.029 A 
ATOM     42  N   UNL A   1      45.685  25.880  27.394  1.00  0.00    -0.354 N 
ATOM     43  C   UNL A   1      41.665  27.212  28.344  1.00  0.00     0.074 A 
ATOM     44  C   UNL A   1      40.717  26.127  28.210  1.00  0.00     0.031 C 
ATOM     45  C   UNL A   1      47.237  24.418  26.719  1.00  0.00     0.029 A 
ATOM     46  C   UNL A   1      47.025  25.809  27.102  1.00  0.00     0.049 A 
ATOM     47  H   UNL A   1      45.242  26.704  27.698  1.00  0.00     0.167 HD
ATOM     48  C   UNL A   1      41.337  28.472  28.713  1.00  0.00     0.037 A 
ATOM     49  C   UNL A   1      47.972  26.764  27.130  1.00  0.00     0.037 A 
ATOM     50  C   UNL A   1      42.297  29.533  28.871  1.00  0.00     0.049 A 
ATOM     51  C   UNL A   1      47.583  28.159  27.529  1.00  0.00     0.074 A 
ATOM     52  C   UNL A   1      42.093  30.821  29.328  1.00  0.00     0.029 A 
ATOM     53  N   UNL A   1      43.647  29.423  28.565  1.00  0.00    -0.354 N 
ATOM     54  N   UNL A   1      46.407  28.617  27.889  1.00  0.00    -0.248 NA
ATOM     55  C   UNL A   1      48.647  29.171  27.520  1.00  0.00     0.031 C 
ATOM     56  C   UNL A   1      43.308  31.509  29.243  1.00  0.00     0.029 A 
ATOM     57  C   UNL A   1      44.280  30.635  28.783  1.00  0.00     0.049 A 
ATOM     58  H   UNL A   1      44.088  28.606  28.242  1.00  0.00     0.167 HD
ATOM     59  C   UNL A   1      46.591  29.965  28.162  1.00  0.00     0.074 A 
ATOM     60  C   UNL A   1      47.998  30.245  27.947  1.00  0.00     0.031 C 
ATOM     61  C   UNL A   1      45.680  30.891  28.550  1.00  0.00     0.037 A 
BRANCH  48  62
ATOM     62  C   UNL A   1      39.885  28.766  28.959  1.00  0.00     0.057 A 
ATOM     63  C   UNL A   1      39.295  28.611  30.221  1.00  0.00     0.134 A 
ATOM     64  C   UNL A   1      39.062  29.216  27.918  1.00  0.00     0.134 A 
ATOM     65  F   UNL A   1      40.021  28.172  31.261  1.00  0.00    -0.206 F 
ATOM     66  C   UNL A   1      37.936  28.852  30.431  1.00  0.00     0.040 A 
ATOM     67  C   UNL A   1      37.708  29.492  28.122  1.00  0.00     0.040 A 
ATOM     68  F   UNL A   1      39.558  29.393  26.684  1.00  0.00    -0.206 F 
ATOM     69  C   UNL A   1      37.140  29.300  29.379  1.00  0.00     0.006 A 
ENDBRANCH  48  62
BRANCH  49  70
ATOM     70  C   UNL A   1      49.378  26.424  26.796  1.00  0.00     0.057 A 
ATOM     71  C   UNL A   1      49.876  26.622  25.504  1.00  0.00     0.134 A 
ATOM     72  C   UNL A   1      50.263  25.919  27.757  1.00  0.00     0.134 A 
ATOM     73  F   UNL A   1      49.074  27.089  24.536  1.00  0.00    -0.206 F 
ATOM     74  C   UNL A   1      51.200  26.325  25.176  1.00  0.00     0.040 A 
ATOM     75  C   UNL A   1      51.595  25.641  27.449  1.00  0.00     0.040 A 
ATOM     76  F   UNL A   1      49.850  25.713  29.016  1.00  0.00    -0.206 F 
ATOM     77  C   UNL A   1      52.067  25.840  26.153  1.00  0.00     0.006 A 
ENDBRANCH  49  70
BRANCH  61  78
ATOM     78  C   UNL A   1      46.179  32.289  28.769  1.00  0.00     0.057 A 
ATOM     79  C   UNL A   1      46.696  32.698  30.004  1.00  0.00     0.134 A 
ATOM     80  C   UNL A   1      46.182  33.220  27.723  1.00  0.00     0.134 A 
ATOM     81  F   UNL A   1      46.706  31.858  31.050  1.00  0.00    -0.206 F 
ATOM     82  C   UNL A   1      47.184  33.991  30.196  1.00  0.00     0.040 A 
ATOM     83  C   UNL A   1      46.694  34.506  27.895  1.00  0.00     0.040 A 
ATOM     84  F   UNL A   1      45.708  32.888  26.513  1.00  0.00    -0.206 F 
ATOM     85  C   UNL A   1      47.193  34.896  29.135  1.00  0.00     0.006 A 
ENDBRANCH  61  78
ENDBRANCH  35  36
ENDBRANCH  27  30
ENDBRANCH  25  26
ENDBRANCH  24  25
ENDBRANCH  23  24
ENDBRANCH   1  23
TORSDOF 15
ENDMDL
