MODEL 1
REMARK VINA RESULT:     -11.8      0.000      0.000
REMARK SMILES CC[C@@H](C)[C@H](NC(=O)N1CCn2c1nc1ccccc12)C(=O)N[C@H](C)C(=O)NCCCCNC(=O)c1ccc(-c2c3nc(c(-c4c(F)cccc4F)c4ccc([nH]4)c(-c4c(F)cccc4F)c4nc(c(-c5c(F)cccc5F)c5ccc2[nH]5)C=C4)C=C3)cc1
REMARK SMILES IDX 29 1 28 2 26 3 27 4 24 6 25 7 23 8 21 9 22 10 5 12 3 13 4 14
REMARK SMILES IDX 2 15 1 16 6 17 7 18 8 20 9 21 10 22 13 23 11 24 12 25 14 26
REMARK SMILES IDX 20 27 15 28 19 29 16 30 18 31 17 32 30 33 31 34 32 35 33 36
REMARK SMILES IDX 34 37 35 39 36 40 37 41 89 42 38 43 88 44 39 45 40 46 41 47
REMARK SMILES IDX 82 48 42 49 87 50 81 51 83 52 43 53 86 54 80 55 79 56 44 58
REMARK SMILES IDX 70 59 53 60 69 61 54 62 57 63 68 64 84 65 55 66 56 67 67 69
REMARK SMILES IDX 85 70 58 71 45 72 46 73 51 74 47 75 48 76 50 77 52 78 49 79
REMARK SMILES IDX 71 80 72 81 77 82 73 83 74 84 76 85 78 86 75 87 59 88 60 89
REMARK SMILES IDX 65 90 61 91 62 92 64 93 66 94 63 95
REMARK H PARENT 28 5 23 11 6 19 33 38 83 57 57 68
REMARK Flexibility Score: inf
ROOT
ATOM      1  C   UNL A   1      39.175  23.850  26.944  1.00  0.00     0.116 C 
ENDROOT
BRANCH   1   2
ATOM      2  N   UNL A   1      38.792  22.550  26.422  1.00  0.00    -0.354 N 
ATOM      3  C   UNL A   1      37.852  22.223  25.476  1.00  0.00     0.242 C 
ATOM      4  O   UNL A   1      37.700  21.022  25.226  1.00  0.00    -0.273 OA
ATOM      5  H   UNL A   1      39.279  21.786  26.806  1.00  0.00     0.163 HD
BRANCH   3   6
ATOM      6  C   UNL A   1      36.949  23.287  24.776  1.00  0.00     0.168 C 
ATOM      7  C   UNL A   1      36.775  22.918  23.317  1.00  0.00     0.041 C 
BRANCH   6   8
ATOM      8  N   UNL A   1      35.814  23.625  25.621  1.00  0.00    -0.343 N 
ATOM      9  C   UNL A   1      34.496  23.875  25.674  1.00  0.00     0.243 C 
ATOM     10  O   UNL A   1      34.005  23.790  26.816  1.00  0.00    -0.273 OA
ATOM     11  H   UNL A   1      36.155  23.701  26.542  1.00  0.00     0.164 HD
BRANCH   9  12
ATOM     12  C   UNL A   1      33.564  24.108  24.511  1.00  0.00     0.176 C 
BRANCH  12  13
ATOM     13  C   UNL A   1      33.318  22.798  23.647  1.00  0.00     0.018 C 
ATOM     14  C   UNL A   1      32.928  23.075  22.184  1.00  0.00     0.010 C 
BRANCH  13  15
ATOM     15  C   UNL A   1      32.473  21.664  24.287  1.00  0.00     0.002 C 
ATOM     16  C   UNL A   1      31.346  22.034  25.243  1.00  0.00     0.004 C 
ENDBRANCH  13  15
ENDBRANCH  12  13
BRANCH  12  17
ATOM     17  N   UNL A   1      33.826  25.283  23.681  1.00  0.00    -0.326 N 
ATOM     18  C   UNL A   1      33.244  26.479  23.481  1.00  0.00     0.324 C 
ATOM     19  H   UNL A   1      34.633  25.170  23.130  1.00  0.00     0.166 HD
ATOM     20  O   UNL A   1      33.348  26.873  22.306  1.00  0.00    -0.248 OA
BRANCH  18  21
ATOM     21  N   UNL A   1      32.824  27.356  24.432  1.00  0.00    -0.262 N 
ATOM     22  C   UNL A   1      31.504  28.002  24.224  1.00  0.00     0.152 C 
ATOM     23  C   UNL A   1      33.381  27.916  25.557  1.00  0.00     0.214 A 
ATOM     24  C   UNL A   1      31.549  29.296  25.041  1.00  0.00     0.148 C 
ATOM     25  N   UNL A   1      32.673  29.038  25.914  1.00  0.00    -0.308 N 
ATOM     26  N   UNL A   1      34.377  27.750  26.384  1.00  0.00    -0.212 NA
ATOM     27  C   UNL A   1      33.415  29.811  26.742  1.00  0.00     0.070 A 
ATOM     28  C   UNL A   1      34.476  28.963  27.065  1.00  0.00     0.091 A 
ATOM     29  C   UNL A   1      33.321  31.131  27.189  1.00  0.00     0.028 A 
ATOM     30  C   UNL A   1      35.515  29.455  27.875  1.00  0.00     0.031 A 
ATOM     31  C   UNL A   1      34.385  31.611  27.963  1.00  0.00     0.002 A 
ATOM     32  C   UNL A   1      35.467  30.792  28.298  1.00  0.00     0.002 A 
ENDBRANCH  18  21
ENDBRANCH  12  17
ENDBRANCH   9  12
ENDBRANCH   6   8
ENDBRANCH   3   6
ENDBRANCH   1   2
BRANCH   1  33
ATOM     33  C   UNL A   1      40.627  23.977  27.346  1.00  0.00     0.023 C 
BRANCH  33  34
ATOM     34  C   UNL A   1      40.946  25.374  27.831  1.00  0.00     0.023 C 
BRANCH  34  35
ATOM     35  C   UNL A   1      42.343  25.878  27.422  1.00  0.00     0.116 C 
BRANCH  35  36
ATOM     36  N   UNL A   1      42.445  26.537  26.125  1.00  0.00    -0.352 N 
ATOM     37  C   UNL A   1      42.135  27.832  25.763  1.00  0.00     0.251 C 
ATOM     38  H   UNL A   1      42.788  25.971  25.396  1.00  0.00     0.163 HD
ATOM     39  O   UNL A   1      42.381  28.256  24.647  1.00  0.00    -0.269 OA
BRANCH  37  40
ATOM     40  C   UNL A   1      41.397  28.662  26.731  1.00  0.00     0.039 A 
ATOM     41  C   UNL A   1      42.047  29.204  27.843  1.00  0.00     0.014 A 
ATOM     42  C   UNL A   1      40.004  28.704  26.613  1.00  0.00     0.014 A 
ATOM     43  C   UNL A   1      41.291  29.653  28.915  1.00  0.00     0.010 A 
ATOM     44  C   UNL A   1      39.248  29.203  27.669  1.00  0.00     0.010 A 
ATOM     45  C   UNL A   1      39.892  29.637  28.837  1.00  0.00    -0.014 A 
BRANCH  45  46
ATOM     46  C   UNL A   1      39.167  30.282  29.936  1.00  0.00     0.031 A 
ATOM     47  C   UNL A   1      39.495  29.659  31.246  1.00  0.00     0.074 A 
ATOM     48  C   UNL A   1      38.729  31.557  29.933  1.00  0.00     0.049 A 
ATOM     49  N   UNL A   1      40.563  29.995  31.906  1.00  0.00    -0.248 NA
ATOM     50  C   UNL A   1      38.861  28.430  31.712  1.00  0.00     0.031 C 
ATOM     51  C   UNL A   1      39.302  32.644  29.134  1.00  0.00     0.029 A 
ATOM     52  N   UNL A   1      37.859  32.185  30.794  1.00  0.00    -0.354 N 
ATOM     53  C   UNL A   1      40.817  28.975  32.798  1.00  0.00     0.074 A 
ATOM     54  C   UNL A   1      39.715  28.045  32.674  1.00  0.00     0.031 C 
ATOM     55  C   UNL A   1      38.928  33.818  29.685  1.00  0.00     0.029 A 
ATOM     56  C   UNL A   1      37.957  33.570  30.749  1.00  0.00     0.049 A 
ATOM     57  H   UNL A   1      37.233  31.702  31.382  1.00  0.00     0.167 HD
ATOM     58  C   UNL A   1      41.949  28.925  33.544  1.00  0.00     0.037 A 
ATOM     59  C   UNL A   1      37.744  34.397  31.809  1.00  0.00     0.037 A 
ATOM     60  C   UNL A   1      42.875  30.000  33.357  1.00  0.00     0.049 A 
ATOM     61  C   UNL A   1      38.890  34.039  32.717  1.00  0.00     0.074 A 
ATOM     62  C   UNL A   1      44.016  30.225  32.617  1.00  0.00     0.029 A 
ATOM     63  N   UNL A   1      42.619  31.193  33.988  1.00  0.00    -0.354 N 
ATOM     64  N   UNL A   1      40.111  34.494  32.620  1.00  0.00    -0.248 NA
ATOM     65  C   UNL A   1      38.745  32.869  33.587  1.00  0.00     0.031 C 
ATOM     66  C   UNL A   1      44.125  31.646  32.502  1.00  0.00     0.029 A 
ATOM     67  C   UNL A   1      43.008  32.192  33.129  1.00  0.00     0.049 A 
ATOM     68  H   UNL A   1      42.232  31.311  34.886  1.00  0.00     0.167 HD
ATOM     69  C   UNL A   1      40.918  33.508  33.192  1.00  0.00     0.074 A 
ATOM     70  C   UNL A   1      40.014  32.561  33.809  1.00  0.00     0.031 C 
ATOM     71  C   UNL A   1      42.259  33.415  32.962  1.00  0.00     0.037 A 
BRANCH  58  72
ATOM     72  C   UNL A   1      42.226  27.902  34.561  1.00  0.00     0.057 A 
ATOM     73  C   UNL A   1      41.712  27.963  35.855  1.00  0.00     0.134 A 
ATOM     74  C   UNL A   1      42.857  26.721  34.153  1.00  0.00     0.134 A 
ATOM     75  F   UNL A   1      41.092  29.070  36.291  1.00  0.00    -0.206 F 
ATOM     76  C   UNL A   1      41.788  26.860  36.707  1.00  0.00     0.040 A 
ATOM     77  C   UNL A   1      42.934  25.612  34.990  1.00  0.00     0.040 A 
ATOM     78  F   UNL A   1      43.363  26.620  32.912  1.00  0.00    -0.206 F 
ATOM     79  C   UNL A   1      42.385  25.677  36.268  1.00  0.00     0.006 A 
ENDBRANCH  58  72
BRANCH  59  80
ATOM     80  C   UNL A   1      36.322  34.490  32.271  1.00  0.00     0.057 A 
ATOM     81  C   UNL A   1      35.184  34.327  31.471  1.00  0.00     0.134 A 
ATOM     82  C   UNL A   1      36.074  34.740  33.636  1.00  0.00     0.134 A 
ATOM     83  F   UNL A   1      35.279  33.961  30.186  1.00  0.00    -0.206 F 
ATOM     84  C   UNL A   1      33.890  34.537  31.962  1.00  0.00     0.040 A 
ATOM     85  C   UNL A   1      34.786  34.928  34.146  1.00  0.00     0.040 A 
ATOM     86  F   UNL A   1      37.090  34.800  34.512  1.00  0.00    -0.206 F 
ATOM     87  C   UNL A   1      33.688  34.856  33.300  1.00  0.00     0.006 A 
ENDBRANCH  59  80
BRANCH  71  88
ATOM     88  C   UNL A   1      42.860  34.573  32.245  1.00  0.00     0.057 A 
ATOM     89  C   UNL A   1      43.420  35.662  32.924  1.00  0.00     0.134 A 
ATOM     90  C   UNL A   1      42.877  34.603  30.846  1.00  0.00     0.134 A 
ATOM     91  F   UNL A   1      43.462  35.693  34.266  1.00  0.00    -0.206 F 
ATOM     92  C   UNL A   1      43.941  36.759  32.237  1.00  0.00     0.040 A 
ATOM     93  C   UNL A   1      43.419  35.682  30.148  1.00  0.00     0.040 A 
ATOM     94  F   UNL A   1      42.352  33.590  30.137  1.00  0.00    -0.206 F 
ATOM     95  C   UNL A   1      43.943  36.770  30.843  1.00  0.00     0.006 A 
ENDBRANCH  71  88
ENDBRANCH  45  46
ENDBRANCH  37  40
ENDBRANCH  35  36
ENDBRANCH  34  35
ENDBRANCH  33  34
ENDBRANCH   1  33
TORSDOF 17
ENDMDL
MODEL 2
REMARK VINA RESULT:     -11.6      3.610      9.378
REMARK SMILES CC[C@@H](C)[C@H](NC(=O)N1CCn2c1nc1ccccc12)C(=O)N[C@H](C)C(=O)NCCCCNC(=O)c1ccc(-c2c3nc(c(-c4c(F)cccc4F)c4ccc([nH]4)c(-c4c(F)cccc4F)c4nc(c(-c5c(F)cccc5F)c5ccc2[nH]5)C=C4)C=C3)cc1
REMARK SMILES IDX 29 1 28 2 26 3 27 4 24 6 25 7 23 8 21 9 22 10 5 12 3 13 4 14
REMARK SMILES IDX 2 15 1 16 6 17 7 18 8 20 9 21 10 22 13 23 11 24 12 25 14 26
REMARK SMILES IDX 20 27 15 28 19 29 16 30 18 31 17 32 30 33 31 34 32 35 33 36
REMARK SMILES IDX 34 37 35 39 36 40 37 41 89 42 38 43 88 44 39 45 40 46 41 47
REMARK SMILES IDX 82 48 42 49 87 50 81 51 83 52 43 53 86 54 80 55 79 56 44 58
REMARK SMILES IDX 70 59 53 60 69 61 54 62 57 63 68 64 84 65 55 66 56 67 67 69
REMARK SMILES IDX 85 70 58 71 45 72 46 73 51 74 47 75 48 76 50 77 52 78 49 79
REMARK SMILES IDX 71 80 72 81 77 82 73 83 74 84 76 85 78 86 75 87 59 88 60 89
REMARK SMILES IDX 65 90 61 91 62 92 64 93 66 94 63 95
REMARK H PARENT 28 5 23 11 6 19 33 38 83 57 57 68
REMARK Flexibility Score: inf
ROOT
ATOM      1  C   UNL A   1      35.863  29.384  27.748  1.00  0.00     0.116 C 
ENDROOT
BRANCH   1   2
ATOM      2  N   UNL A   1      34.806  30.118  27.075  1.00  0.00    -0.354 N 
ATOM      3  C   UNL A   1      33.537  29.720  26.735  1.00  0.00     0.242 C 
ATOM      4  O   UNL A   1      32.832  30.539  26.135  1.00  0.00    -0.273 OA
ATOM      5  H   UNL A   1      35.034  31.042  26.823  1.00  0.00     0.163 HD
BRANCH   3   6
ATOM      6  C   UNL A   1      32.997  28.281  27.013  1.00  0.00     0.168 C 
ATOM      7  C   UNL A   1      31.627  28.373  27.652  1.00  0.00     0.041 C 
BRANCH   6   8
ATOM      8  N   UNL A   1      33.255  27.412  25.875  1.00  0.00    -0.343 N 
ATOM      9  C   UNL A   1      32.730  26.571  24.970  1.00  0.00     0.243 C 
ATOM     10  O   UNL A   1      33.458  26.364  23.981  1.00  0.00    -0.273 OA
ATOM     11  H   UNL A   1      34.221  27.464  25.689  1.00  0.00     0.164 HD
BRANCH   9  12
ATOM     12  C   UNL A   1      31.342  25.981  24.971  1.00  0.00     0.176 C 
BRANCH  12  13
ATOM     13  C   UNL A   1      30.236  27.008  24.478  1.00  0.00     0.018 C 
ATOM     14  C   UNL A   1      28.930  26.346  24.002  1.00  0.00     0.010 C 
BRANCH  13  15
ATOM     15  C   UNL A   1      30.693  28.165  23.549  1.00  0.00     0.002 C 
ATOM     16  C   UNL A   1      30.320  29.595  23.915  1.00  0.00     0.004 C 
ENDBRANCH  13  15
ENDBRANCH  12  13
BRANCH  12  17
ATOM     17  N   UNL A   1      30.935  25.256  26.174  1.00  0.00    -0.326 N 
ATOM     18  C   UNL A   1      30.959  23.977  26.591  1.00  0.00     0.324 C 
ATOM     19  H   UNL A   1      30.544  25.855  26.849  1.00  0.00     0.166 HD
ATOM     20  O   UNL A   1      29.982  23.686  27.303  1.00  0.00    -0.248 OA
BRANCH  18  21
ATOM     21  N   UNL A   1      32.012  23.117  26.539  1.00  0.00    -0.262 N 
ATOM     22  C   UNL A   1      32.354  22.386  27.783  1.00  0.00     0.152 C 
ATOM     23  C   UNL A   1      32.970  22.803  25.603  1.00  0.00     0.214 A 
ATOM     24  C   UNL A   1      33.828  21.997  27.638  1.00  0.00     0.148 C 
ATOM     25  N   UNL A   1      34.026  22.173  26.216  1.00  0.00    -0.308 N 
ATOM     26  N   UNL A   1      33.219  22.930  24.328  1.00  0.00    -0.212 NA
ATOM     27  C   UNL A   1      35.119  22.220  25.419  1.00  0.00     0.070 A 
ATOM     28  C   UNL A   1      34.584  22.665  24.209  1.00  0.00     0.091 A 
ATOM     29  C   UNL A   1      36.482  21.990  25.620  1.00  0.00     0.028 A 
ATOM     30  C   UNL A   1      35.453  22.905  23.130  1.00  0.00     0.031 A 
ATOM     31  C   UNL A   1      37.333  22.272  24.544  1.00  0.00     0.002 A 
ATOM     32  C   UNL A   1      36.832  22.727  23.321  1.00  0.00     0.002 A 
ENDBRANCH  18  21
ENDBRANCH  12  17
ENDBRANCH   9  12
ENDBRANCH   6   8
ENDBRANCH   3   6
ENDBRANCH   1   2
BRANCH   1  33
ATOM     33  C   UNL A   1      35.991  29.658  29.229  1.00  0.00     0.023 C 
BRANCH  33  34
ATOM     34  C   UNL A   1      36.775  30.924  29.492  1.00  0.00     0.023 C 
BRANCH  34  35
ATOM     35  C   UNL A   1      37.786  30.809  30.649  1.00  0.00     0.116 C 
BRANCH  35  36
ATOM     36  N   UNL A   1      37.400  29.959  31.769  1.00  0.00    -0.352 N 
ATOM     37  C   UNL A   1      37.978  28.797  32.240  1.00  0.00     0.251 C 
ATOM     38  H   UNL A   1      36.606  30.259  32.266  1.00  0.00     0.163 HD
ATOM     39  O   UNL A   1      37.587  28.262  33.262  1.00  0.00    -0.269 OA
BRANCH  37  40
ATOM     40  C   UNL A   1      39.015  28.157  31.412  1.00  0.00     0.039 A 
ATOM     41  C   UNL A   1      40.353  28.550  31.519  1.00  0.00     0.014 A 
ATOM     42  C   UNL A   1      38.587  27.314  30.381  1.00  0.00     0.014 A 
ATOM     43  C   UNL A   1      41.236  28.222  30.501  1.00  0.00     0.010 A 
ATOM     44  C   UNL A   1      39.489  26.942  29.388  1.00  0.00     0.010 A 
ATOM     45  C   UNL A   1      40.801  27.434  29.427  1.00  0.00    -0.014 A 
BRANCH  45  46
ATOM     46  C   UNL A   1      41.832  26.989  28.483  1.00  0.00     0.031 A 
ATOM     47  C   UNL A   1      42.536  28.142  27.861  1.00  0.00     0.074 A 
ATOM     48  C   UNL A   1      42.478  25.808  28.541  1.00  0.00     0.049 A 
ATOM     49  N   UNL A   1      43.515  28.743  28.468  1.00  0.00    -0.248 NA
ATOM     50  C   UNL A   1      41.987  28.878  26.726  1.00  0.00     0.031 C 
ATOM     51  C   UNL A   1      42.673  25.012  29.756  1.00  0.00     0.029 A 
ATOM     52  N   UNL A   1      43.279  25.202  27.601  1.00  0.00    -0.354 N 
ATOM     53  C   UNL A   1      43.646  29.983  27.880  1.00  0.00     0.074 A 
ATOM     54  C   UNL A   1      42.708  30.010  26.778  1.00  0.00     0.031 C 
ATOM     55  C   UNL A   1      43.696  24.157  29.543  1.00  0.00     0.029 A 
ATOM     56  C   UNL A   1      44.100  24.219  28.140  1.00  0.00     0.049 A 
ATOM     57  H   UNL A   1      43.272  25.442  26.646  1.00  0.00     0.167 HD
ATOM     58  C   UNL A   1      44.476  30.937  28.370  1.00  0.00     0.037 A 
ATOM     59  C   UNL A   1      45.342  23.909  27.679  1.00  0.00     0.037 A 
ATOM     60  C   UNL A   1      45.220  30.584  29.541  1.00  0.00     0.049 A 
ATOM     61  C   UNL A   1      46.115  25.160  27.999  1.00  0.00     0.074 A 
ATOM     62  C   UNL A   1      45.091  30.760  30.902  1.00  0.00     0.029 A 
ATOM     63  N   UNL A   1      46.345  29.812  29.387  1.00  0.00    -0.354 N 
ATOM     64  N   UNL A   1      46.632  25.462  29.159  1.00  0.00    -0.248 NA
ATOM     65  C   UNL A   1      46.035  26.281  27.059  1.00  0.00     0.031 C 
ATOM     66  C   UNL A   1      45.884  29.730  31.499  1.00  0.00     0.029 A 
ATOM     67  C   UNL A   1      46.395  28.956  30.459  1.00  0.00     0.049 A 
ATOM     68  H   UNL A   1      46.995  29.864  28.648  1.00  0.00     0.167 HD
ATOM     69  C   UNL A   1      46.685  26.858  29.188  1.00  0.00     0.074 A 
ATOM     70  C   UNL A   1      46.350  27.297  27.851  1.00  0.00     0.031 C 
ATOM     71  C   UNL A   1      46.805  27.577  30.340  1.00  0.00     0.037 A 
BRANCH  58  72
ATOM     72  C   UNL A   1      44.706  32.242  27.735  1.00  0.00     0.057 A 
ATOM     73  C   UNL A   1      45.577  32.416  26.661  1.00  0.00     0.134 A 
ATOM     74  C   UNL A   1      43.865  33.303  28.086  1.00  0.00     0.134 A 
ATOM     75  F   UNL A   1      46.398  31.426  26.279  1.00  0.00    -0.206 F 
ATOM     76  C   UNL A   1      45.580  33.605  25.929  1.00  0.00     0.040 A 
ATOM     77  C   UNL A   1      43.854  34.491  27.362  1.00  0.00     0.040 A 
ATOM     78  F   UNL A   1      43.009  33.174  29.114  1.00  0.00    -0.206 F 
ATOM     79  C   UNL A   1      44.704  34.638  26.269  1.00  0.00     0.006 A 
ENDBRANCH  58  72
BRANCH  59  80
ATOM     80  C   UNL A   1      45.377  23.235  26.342  1.00  0.00     0.057 A 
ATOM     81  C   UNL A   1      46.327  23.450  25.336  1.00  0.00     0.134 A 
ATOM     82  C   UNL A   1      44.390  22.273  26.048  1.00  0.00     0.134 A 
ATOM     83  F   UNL A   1      47.388  24.243  25.534  1.00  0.00    -0.206 F 
ATOM     84  C   UNL A   1      46.224  22.857  24.072  1.00  0.00     0.040 A 
ATOM     85  C   UNL A   1      44.288  21.654  24.798  1.00  0.00     0.040 A 
ATOM     86  F   UNL A   1      43.498  21.907  26.982  1.00  0.00    -0.206 F 
ATOM     87  C   UNL A   1      45.193  21.968  23.793  1.00  0.00     0.006 A 
ENDBRANCH  59  80
BRANCH  71  88
ATOM     88  C   UNL A   1      47.112  26.776  31.557  1.00  0.00     0.057 A 
ATOM     89  C   UNL A   1      46.108  26.190  32.338  1.00  0.00     0.134 A 
ATOM     90  C   UNL A   1      48.439  26.588  31.960  1.00  0.00     0.134 A 
ATOM     91  F   UNL A   1      44.813  26.306  32.001  1.00  0.00    -0.206 F 
ATOM     92  C   UNL A   1      46.411  25.477  33.499  1.00  0.00     0.040 A 
ATOM     93  C   UNL A   1      48.756  25.855  33.104  1.00  0.00     0.040 A 
ATOM     94  F   UNL A   1      49.447  27.128  31.255  1.00  0.00    -0.206 F 
ATOM     95  C   UNL A   1      47.739  25.307  33.884  1.00  0.00     0.006 A 
ENDBRANCH  71  88
ENDBRANCH  45  46
ENDBRANCH  37  40
ENDBRANCH  35  36
ENDBRANCH  34  35
ENDBRANCH  33  34
ENDBRANCH   1  33
TORSDOF 17
ENDMDL
MODEL 3
REMARK VINA RESULT:     -11.2      2.979      7.289
REMARK SMILES CC[C@@H](C)[C@H](NC(=O)N1CCn2c1nc1ccccc12)C(=O)N[C@H](C)C(=O)NCCCCNC(=O)c1ccc(-c2c3nc(c(-c4c(F)cccc4F)c4ccc([nH]4)c(-c4c(F)cccc4F)c4nc(c(-c5c(F)cccc5F)c5ccc2[nH]5)C=C4)C=C3)cc1
REMARK SMILES IDX 29 1 28 2 26 3 27 4 24 6 25 7 23 8 21 9 22 10 5 12 3 13 4 14
REMARK SMILES IDX 2 15 1 16 6 17 7 18 8 20 9 21 10 22 13 23 11 24 12 25 14 26
REMARK SMILES IDX 20 27 15 28 19 29 16 30 18 31 17 32 30 33 31 34 32 35 33 36
REMARK SMILES IDX 34 37 35 39 36 40 37 41 89 42 38 43 88 44 39 45 40 46 41 47
REMARK SMILES IDX 82 48 42 49 87 50 81 51 83 52 43 53 86 54 80 55 79 56 44 58
REMARK SMILES IDX 70 59 53 60 69 61 54 62 57 63 68 64 84 65 55 66 56 67 67 69
REMARK SMILES IDX 85 70 58 71 45 72 46 73 51 74 47 75 48 76 50 77 52 78 49 79
REMARK SMILES IDX 71 80 72 81 77 82 73 83 74 84 76 85 78 86 75 87 59 88 60 89
REMARK SMILES IDX 65 90 61 91 62 92 64 93 66 94 63 95
REMARK H PARENT 28 5 23 11 6 19 33 38 83 57 57 68
REMARK Flexibility Score: inf
ROOT
ATOM      1  C   UNL A   1      34.776  22.321  23.937  1.00  0.00     0.116 C 
ENDROOT
BRANCH   1   2
ATOM      2  N   UNL A   1      34.411  21.035  24.506  1.00  0.00    -0.354 N 
ATOM      3  C   UNL A   1      33.395  20.711  25.369  1.00  0.00     0.242 C 
ATOM      4  O   UNL A   1      33.315  19.531  25.727  1.00  0.00    -0.273 OA
ATOM      5  H   UNL A   1      34.981  20.281  24.231  1.00  0.00     0.163 HD
BRANCH   3   6
ATOM      6  C   UNL A   1      32.406  21.771  25.950  1.00  0.00     0.168 C 
ATOM      7  C   UNL A   1      33.118  22.603  26.997  1.00  0.00     0.041 C 
BRANCH   6   8
ATOM      8  N   UNL A   1      31.633  22.384  24.880  1.00  0.00    -0.343 N 
ATOM      9  C   UNL A   1      31.346  23.515  24.216  1.00  0.00     0.243 C 
ATOM     10  O   UNL A   1      30.798  23.335  23.112  1.00  0.00    -0.273 OA
ATOM     11  H   UNL A   1      31.094  21.669  24.470  1.00  0.00     0.164 HD
BRANCH   9  12
ATOM     12  C   UNL A   1      31.729  24.922  24.602  1.00  0.00     0.176 C 
BRANCH  12  13
ATOM     13  C   UNL A   1      30.468  25.860  24.836  1.00  0.00     0.018 C 
ATOM     14  C   UNL A   1      29.757  25.632  26.182  1.00  0.00     0.010 C 
BRANCH  13  15
ATOM     15  C   UNL A   1      29.474  26.034  23.656  1.00  0.00     0.002 C 
ATOM     16  C   UNL A   1      28.197  26.832  23.881  1.00  0.00     0.004 C 
ENDBRANCH  13  15
ENDBRANCH  12  13
BRANCH  12  17
ATOM     17  N   UNL A   1      32.764  25.569  23.796  1.00  0.00    -0.326 N 
ATOM     18  C   UNL A   1      32.841  26.656  23.006  1.00  0.00     0.324 C 
ATOM     19  H   UNL A   1      33.620  25.087  23.843  1.00  0.00     0.166 HD
ATOM     20  O   UNL A   1      33.605  26.492  22.040  1.00  0.00    -0.248 OA
BRANCH  18  21
ATOM     21  N   UNL A   1      32.408  27.912  23.296  1.00  0.00    -0.262 N 
ATOM     22  C   UNL A   1      32.998  28.575  24.485  1.00  0.00     0.152 C 
ATOM     23  C   UNL A   1      31.430  28.745  22.806  1.00  0.00     0.214 A 
ATOM     24  C   UNL A   1      31.975  29.631  24.914  1.00  0.00     0.148 C 
ATOM     25  N   UNL A   1      31.157  29.729  23.725  1.00  0.00    -0.308 N 
ATOM     26  N   UNL A   1      30.656  28.894  21.766  1.00  0.00    -0.212 NA
ATOM     27  C   UNL A   1      29.957  30.296  23.454  1.00  0.00     0.070 A 
ATOM     28  C   UNL A   1      29.670  29.786  22.186  1.00  0.00     0.091 A 
ATOM     29  C   UNL A   1      29.087  31.122  24.169  1.00  0.00     0.028 A 
ATOM     30  C   UNL A   1      28.438  30.110  21.590  1.00  0.00     0.031 A 
ATOM     31  C   UNL A   1      27.851  31.399  23.571  1.00  0.00     0.002 A 
ATOM     32  C   UNL A   1      27.526  30.899  22.307  1.00  0.00     0.002 A 
ENDBRANCH  18  21
ENDBRANCH  12  17
ENDBRANCH   9  12
ENDBRANCH   6   8
ENDBRANCH   3   6
ENDBRANCH   1   2
BRANCH   1  33
ATOM     33  C   UNL A   1      36.243  22.671  24.031  1.00  0.00     0.023 C 
BRANCH  33  34
ATOM     34  C   UNL A   1      36.939  21.854  25.096  1.00  0.00     0.023 C 
BRANCH  34  35
ATOM     35  C   UNL A   1      38.149  22.558  25.739  1.00  0.00     0.116 C 
BRANCH  35  36
ATOM     36  N   UNL A   1      39.070  21.715  26.492  1.00  0.00    -0.352 N 
ATOM     37  C   UNL A   1      40.134  22.064  27.298  1.00  0.00     0.251 C 
ATOM     38  H   UNL A   1      38.908  20.747  26.413  1.00  0.00     0.163 HD
ATOM     39  O   UNL A   1      40.744  21.230  27.944  1.00  0.00    -0.269 OA
BRANCH  37  40
ATOM     40  C   UNL A   1      40.586  23.467  27.275  1.00  0.00     0.039 A 
ATOM     41  C   UNL A   1      41.814  23.808  26.699  1.00  0.00     0.014 A 
ATOM     42  C   UNL A   1      39.856  24.391  28.029  1.00  0.00     0.014 A 
ATOM     43  C   UNL A   1      42.386  25.032  27.009  1.00  0.00     0.010 A 
ATOM     44  C   UNL A   1      40.410  25.640  28.295  1.00  0.00     0.010 A 
ATOM     45  C   UNL A   1      41.695  25.941  27.820  1.00  0.00    -0.014 A 
BRANCH  45  46
ATOM     46  C   UNL A   1      42.288  27.275  27.961  1.00  0.00     0.031 A 
ATOM     47  C   UNL A   1      41.270  28.346  27.785  1.00  0.00     0.074 A 
ATOM     48  C   UNL A   1      43.390  27.561  28.682  1.00  0.00     0.049 A 
ATOM     49  N   UNL A   1      40.498  28.712  28.764  1.00  0.00    -0.248 NA
ATOM     50  C   UNL A   1      40.839  28.811  26.470  1.00  0.00     0.031 C 
ATOM     51  C   UNL A   1      43.879  26.779  29.821  1.00  0.00     0.029 A 
ATOM     52  N   UNL A   1      44.150  28.707  28.700  1.00  0.00    -0.354 N 
ATOM     53  C   UNL A   1      39.418  29.356  28.198  1.00  0.00     0.074 A 
ATOM     54  C   UNL A   1      39.689  29.432  26.779  1.00  0.00     0.031 C 
ATOM     55  C   UNL A   1      44.706  27.560  30.548  1.00  0.00     0.029 A 
ATOM     56  C   UNL A   1      44.942  28.815  29.837  1.00  0.00     0.049 A 
ATOM     57  H   UNL A   1      44.134  29.381  27.982  1.00  0.00     0.167 HD
ATOM     58  C   UNL A   1      38.336  29.736  28.923  1.00  0.00     0.037 A 
ATOM     59  C   UNL A   1      45.284  29.989  30.434  1.00  0.00     0.037 A 
ATOM     60  C   UNL A   1      38.376  29.433  30.321  1.00  0.00     0.049 A 
ATOM     61  C   UNL A   1      43.955  30.479  30.941  1.00  0.00     0.074 A 
ATOM     62  C   UNL A   1      37.904  28.434  31.146  1.00  0.00     0.029 A 
ATOM     63  N   UNL A   1      39.104  30.259  31.143  1.00  0.00    -0.354 N 
ATOM     64  N   UNL A   1      43.372  30.099  32.046  1.00  0.00    -0.248 NA
ATOM     65  C   UNL A   1      43.081  31.196  30.009  1.00  0.00     0.031 C 
ATOM     66  C   UNL A   1      38.730  28.477  32.312  1.00  0.00     0.029 A 
ATOM     67  C   UNL A   1      39.692  29.461  32.093  1.00  0.00     0.049 A 
ATOM     68  H   UNL A   1      39.187  31.237  31.067  1.00  0.00     0.167 HD
ATOM     69  C   UNL A   1      42.005  30.285  31.825  1.00  0.00     0.074 A 
ATOM     70  C   UNL A   1      41.898  31.006  30.576  1.00  0.00     0.031 C 
ATOM     71  C   UNL A   1      41.039  29.673  32.568  1.00  0.00     0.037 A 
BRANCH  58  72
ATOM     72  C   UNL A   1      37.199  30.491  28.380  1.00  0.00     0.057 A 
ATOM     73  C   UNL A   1      36.061  29.875  27.862  1.00  0.00     0.134 A 
ATOM     74  C   UNL A   1      37.170  31.876  28.581  1.00  0.00     0.134 A 
ATOM     75  F   UNL A   1      36.035  28.549  27.658  1.00  0.00    -0.206 F 
ATOM     76  C   UNL A   1      34.908  30.615  27.590  1.00  0.00     0.040 A 
ATOM     77  C   UNL A   1      36.027  32.624  28.320  1.00  0.00     0.040 A 
ATOM     78  F   UNL A   1      38.246  32.507  29.081  1.00  0.00    -0.206 F 
ATOM     79  C   UNL A   1      34.886  31.989  27.836  1.00  0.00     0.006 A 
ENDBRANCH  58  72
BRANCH  59  80
ATOM     80  C   UNL A   1      46.240  30.844  29.661  1.00  0.00     0.057 A 
ATOM     81  C   UNL A   1      45.988  31.448  28.423  1.00  0.00     0.134 A 
ATOM     82  C   UNL A   1      47.510  31.104  30.216  1.00  0.00     0.134 A 
ATOM     83  F   UNL A   1      44.780  31.387  27.848  1.00  0.00    -0.206 F 
ATOM     84  C   UNL A   1      46.976  32.145  27.717  1.00  0.00     0.040 A 
ATOM     85  C   UNL A   1      48.499  31.818  29.533  1.00  0.00     0.040 A 
ATOM     86  F   UNL A   1      47.816  30.668  31.447  1.00  0.00    -0.206 F 
ATOM     87  C   UNL A   1      48.242  32.318  28.263  1.00  0.00     0.006 A 
ENDBRANCH  59  80
BRANCH  71  88
ATOM     88  C   UNL A   1      41.527  28.970  33.786  1.00  0.00     0.057 A 
ATOM     89  C   UNL A   1      42.060  27.676  33.738  1.00  0.00     0.134 A 
ATOM     90  C   UNL A   1      41.460  29.597  35.035  1.00  0.00     0.134 A 
ATOM     91  F   UNL A   1      42.179  27.020  32.572  1.00  0.00    -0.206 F 
ATOM     92  C   UNL A   1      42.475  27.015  34.895  1.00  0.00     0.040 A 
ATOM     93  C   UNL A   1      41.896  28.956  36.195  1.00  0.00     0.040 A 
ATOM     94  F   UNL A   1      40.955  30.836  35.148  1.00  0.00    -0.206 F 
ATOM     95  C   UNL A   1      42.394  27.657  36.129  1.00  0.00     0.006 A 
ENDBRANCH  71  88
ENDBRANCH  45  46
ENDBRANCH  37  40
ENDBRANCH  35  36
ENDBRANCH  34  35
ENDBRANCH  33  34
ENDBRANCH   1  33
TORSDOF 17
ENDMDL
