MODEL 1
REMARK VINA RESULT:     -12.3      0.000      0.000
REMARK SMILES Cc1cc(F)ccc1OC1(C(=O)NCCCCNC(=O)c2ccc(-c3c4nc(c(-c5c(F)cccc5F)c5ccc([nH]5)c(-c5c(F)cccc5F)c5nc(c(-c6c(F)cccc6F)c6ccc3[nH]6)C=C5)C=C4)cc2)CCN(C(=O)[C@H]2CCOC2)CC1
REMARK SMILES IDX 15 1 14 2 13 3 11 4 12 5 10 7 75 8 86 9 76 10 85 11 77 12
REMARK SMILES IDX 78 13 79 14 9 15 8 16 1 17 2 18 3 19 4 20 7 21 5 22 6 23
REMARK SMILES IDX 80 24 81 25 84 26 82 27 83 28 16 29 17 30 18 31 19 32 20 34
REMARK SMILES IDX 21 35 22 36 74 37 23 38 73 39 24 40 25 41 26 42 67 43 27 44
REMARK SMILES IDX 72 45 66 46 68 47 28 48 71 49 65 50 64 51 29 53 55 54 38 55
REMARK SMILES IDX 54 56 39 57 42 58 53 59 69 60 40 61 41 62 52 64 70 65 43 66
REMARK SMILES IDX 30 67 31 68 36 69 32 70 33 71 35 72 37 73 34 74 56 75 57 76
REMARK SMILES IDX 62 77 58 78 59 79 61 80 63 81 60 82 44 83 45 84 50 85 46 86
REMARK SMILES IDX 47 87 49 88 51 89 48 90
REMARK H PARENT 13 6 18 33 68 52 42 63
REMARK Flexibility Score: inf
ROOT
ATOM      1  C   UNL A   1      38.896  22.745  25.993  1.00  0.00     0.023 C 
ENDROOT
BRANCH   1   2
ATOM      2  C   UNL A   1      37.590  23.525  25.859  1.00  0.00     0.116 C 
BRANCH   2   3
ATOM      3  N   UNL A   1      37.068  23.506  24.509  1.00  0.00    -0.353 N 
ATOM      4  C   UNL A   1      35.858  23.120  23.998  1.00  0.00     0.264 C 
ATOM      5  O   UNL A   1      35.735  23.299  22.780  1.00  0.00    -0.270 OA
ATOM      6  H   UNL A   1      37.702  23.834  23.831  1.00  0.00     0.163 HD
BRANCH   4   7
ATOM      7  C   UNL A   1      34.707  22.499  24.889  1.00  0.00     0.190 C 
ATOM      8  C   UNL A   1      33.501  22.289  23.988  1.00  0.00     0.080 C 
ATOM      9  C   UNL A   1      35.314  21.311  25.637  1.00  0.00     0.080 C 
ATOM     10  C   UNL A   1      33.094  20.855  23.702  1.00  0.00     0.124 C 
ATOM     11  C   UNL A   1      34.519  20.019  25.643  1.00  0.00     0.124 C 
ATOM     12  N   UNL A   1      33.666  19.764  24.487  1.00  0.00    -0.342 N 
ATOM     13  C   UNL A   1      33.174  18.496  24.155  1.00  0.00     0.228 C 
ATOM     14  O   UNL A   1      32.523  18.328  23.121  1.00  0.00    -0.274 OA
BRANCH   7  15
ATOM     15  O   UNL A   1      34.475  23.587  25.811  1.00  0.00    -0.477 OA
BRANCH  15  16
ATOM     16  C   UNL A   1      33.532  24.551  25.940  1.00  0.00     0.124 A 
ATOM     17  C   UNL A   1      31.384  23.380  26.832  1.00  0.00     0.048 C 
ATOM     18  C   UNL A   1      32.201  24.545  26.384  1.00  0.00    -0.006 A 
ATOM     19  C   UNL A   1      31.463  25.754  26.349  1.00  0.00     0.046 A 
ATOM     20  C   UNL A   1      32.025  26.938  25.898  1.00  0.00     0.123 A 
ATOM     21  C   UNL A   1      34.070  25.778  25.487  1.00  0.00     0.050 A 
ATOM     22  F   UNL A   1      31.287  28.055  25.878  1.00  0.00    -0.207 F 
ATOM     23  C   UNL A   1      33.332  26.963  25.464  1.00  0.00     0.043 A 
ENDBRANCH  15  16
ENDBRANCH   7  15
BRANCH  13  24
ATOM     24  C   UNL A   1      33.374  17.355  25.140  1.00  0.00     0.107 C 
ATOM     25  C   UNL A   1      32.155  16.453  25.191  1.00  0.00     0.044 C 
ATOM     26  C   UNL A   1      34.458  16.395  24.684  1.00  0.00     0.173 C 
ATOM     27  C   UNL A   1      32.723  15.083  25.506  1.00  0.00     0.161 C 
ATOM     28  O   UNL A   1      34.125  15.111  25.227  1.00  0.00    -0.381 OA
ENDBRANCH  13  24
ENDBRANCH   4   7
ENDBRANCH   2   3
ENDBRANCH   1   2
BRANCH   1  29
ATOM     29  C   UNL A   1      38.882  21.346  25.387  1.00  0.00     0.023 C 
BRANCH  29  30
ATOM     30  C   UNL A   1      39.203  20.216  26.355  1.00  0.00     0.116 C 
BRANCH  30  31
ATOM     31  N   UNL A   1      40.321  19.389  25.930  1.00  0.00    -0.352 N 
ATOM     32  C   UNL A   1      41.667  19.674  25.938  1.00  0.00     0.251 C 
ATOM     33  H   UNL A   1      40.080  18.497  25.586  1.00  0.00     0.163 HD
ATOM     34  O   UNL A   1      42.467  18.897  25.446  1.00  0.00    -0.269 OA
BRANCH  32  35
ATOM     35  C   UNL A   1      42.131  20.955  26.515  1.00  0.00     0.039 A 
ATOM     36  C   UNL A   1      42.535  21.970  25.646  1.00  0.00     0.014 A 
ATOM     37  C   UNL A   1      42.132  21.166  27.896  1.00  0.00     0.014 A 
ATOM     38  C   UNL A   1      42.869  23.223  26.161  1.00  0.00     0.010 A 
ATOM     39  C   UNL A   1      42.382  22.438  28.400  1.00  0.00     0.010 A 
ATOM     40  C   UNL A   1      42.752  23.479  27.537  1.00  0.00    -0.014 A 
BRANCH  40  41
ATOM     41  C   UNL A   1      42.994  24.840  28.081  1.00  0.00     0.031 A 
ATOM     42  C   UNL A   1      44.380  25.264  28.478  1.00  0.00     0.074 A 
ATOM     43  C   UNL A   1      41.952  25.674  28.261  1.00  0.00     0.049 A 
ATOM     44  N   UNL A   1      44.780  26.400  28.990  1.00  0.00    -0.248 NA
ATOM     45  C   UNL A   1      45.456  24.275  28.303  1.00  0.00     0.031 C 
ATOM     46  C   UNL A   1      40.551  25.357  27.972  1.00  0.00     0.029 A 
ATOM     47  N   UNL A   1      41.907  26.963  28.732  1.00  0.00    -0.354 N 
ATOM     48  C   UNL A   1      46.146  26.262  29.197  1.00  0.00     0.074 A 
ATOM     49  C   UNL A   1      46.497  24.911  28.817  1.00  0.00     0.031 C 
ATOM     50  C   UNL A   1      39.791  26.430  28.239  1.00  0.00     0.029 A 
ATOM     51  C   UNL A   1      40.642  27.499  28.752  1.00  0.00     0.049 A 
ATOM     52  H   UNL A   1      42.706  27.456  29.028  1.00  0.00     0.167 HD
ATOM     53  C   UNL A   1      47.034  27.185  29.638  1.00  0.00     0.037 A 
ATOM     54  C   UNL A   1      40.217  28.715  29.143  1.00  0.00     0.037 A 
ATOM     55  C   UNL A   1      46.684  28.534  30.000  1.00  0.00     0.049 A 
ATOM     56  C   UNL A   1      41.224  29.718  29.634  1.00  0.00     0.074 A 
ATOM     57  C   UNL A   1      47.518  29.561  30.407  1.00  0.00     0.029 A 
ATOM     58  N   UNL A   1      45.394  29.043  29.997  1.00  0.00    -0.354 N 
ATOM     59  N   UNL A   1      42.524  29.596  29.752  1.00  0.00    -0.248 NA
ATOM     60  C   UNL A   1      40.704  31.031  30.037  1.00  0.00     0.031 C 
ATOM     61  C   UNL A   1      46.728  30.678  30.694  1.00  0.00     0.029 A 
ATOM     62  C   UNL A   1      45.408  30.363  30.416  1.00  0.00     0.049 A 
ATOM     63  H   UNL A   1      44.589  28.542  29.735  1.00  0.00     0.167 HD
ATOM     64  C   UNL A   1      42.979  30.823  30.218  1.00  0.00     0.074 A 
ATOM     65  C   UNL A   1      41.820  31.681  30.336  1.00  0.00     0.031 C 
ATOM     66  C   UNL A   1      44.243  31.204  30.526  1.00  0.00     0.037 A 
BRANCH  53  67
ATOM     67  C   UNL A   1      48.473  26.772  29.741  1.00  0.00     0.057 A 
ATOM     68  C   UNL A   1      49.380  26.995  28.695  1.00  0.00     0.134 A 
ATOM     69  C   UNL A   1      48.972  26.190  30.913  1.00  0.00     0.134 A 
ATOM     70  F   UNL A   1      48.964  27.537  27.540  1.00  0.00    -0.206 F 
ATOM     71  C   UNL A   1      50.724  26.638  28.804  1.00  0.00     0.040 A 
ATOM     72  C   UNL A   1      50.320  25.853  31.044  1.00  0.00     0.040 A 
ATOM     73  F   UNL A   1      48.160  25.951  31.954  1.00  0.00    -0.206 F 
ATOM     74  C   UNL A   1      51.200  26.073  29.986  1.00  0.00     0.006 A 
ENDBRANCH  53  67
BRANCH  54  75
ATOM     75  C   UNL A   1      38.775  29.065  29.070  1.00  0.00     0.057 A 
ATOM     76  C   UNL A   1      38.199  29.512  27.875  1.00  0.00     0.134 A 
ATOM     77  C   UNL A   1      37.946  28.994  30.196  1.00  0.00     0.134 A 
ATOM     78  F   UNL A   1      38.946  29.619  26.765  1.00  0.00    -0.206 F 
ATOM     79  C   UNL A   1      36.861  29.903  27.807  1.00  0.00     0.040 A 
ATOM     80  C   UNL A   1      36.600  29.355  30.137  1.00  0.00     0.040 A 
ATOM     81  F   UNL A   1      38.435  28.566  31.370  1.00  0.00    -0.206 F 
ATOM     82  C   UNL A   1      36.056  29.822  28.942  1.00  0.00     0.006 A 
ENDBRANCH  54  75
BRANCH  66  83
ATOM     83  C   UNL A   1      44.433  32.618  30.992  1.00  0.00     0.057 A 
ATOM     84  C   UNL A   1      44.659  33.670  30.094  1.00  0.00     0.134 A 
ATOM     85  C   UNL A   1      44.373  32.934  32.355  1.00  0.00     0.134 A 
ATOM     86  F   UNL A   1      44.741  33.432  28.776  1.00  0.00    -0.206 F 
ATOM     87  C   UNL A   1      44.855  34.978  30.538  1.00  0.00     0.040 A 
ATOM     88  C   UNL A   1      44.537  34.243  32.809  1.00  0.00     0.040 A 
ATOM     89  F   UNL A   1      44.149  31.977  33.268  1.00  0.00    -0.206 F 
ATOM     90  C   UNL A   1      44.787  35.269  31.899  1.00  0.00     0.006 A 
ENDBRANCH  66  83
ENDBRANCH  40  41
ENDBRANCH  32  35
ENDBRANCH  30  31
ENDBRANCH  29  30
ENDBRANCH   1  29
TORSDOF 14
ENDMDL
MODEL 2
REMARK VINA RESULT:     -12.1      4.579      9.678
REMARK SMILES Cc1cc(F)ccc1OC1(C(=O)NCCCCNC(=O)c2ccc(-c3c4nc(c(-c5c(F)cccc5F)c5ccc([nH]5)c(-c5c(F)cccc5F)c5nc(c(-c6c(F)cccc6F)c6ccc3[nH]6)C=C5)C=C4)cc2)CCN(C(=O)[C@H]2CCOC2)CC1
REMARK SMILES IDX 15 1 14 2 13 3 11 4 12 5 10 7 75 8 86 9 76 10 85 11 77 12
REMARK SMILES IDX 78 13 79 14 9 15 8 16 1 17 2 18 3 19 4 20 7 21 5 22 6 23
REMARK SMILES IDX 80 24 81 25 84 26 82 27 83 28 16 29 17 30 18 31 19 32 20 34
REMARK SMILES IDX 21 35 22 36 74 37 23 38 73 39 24 40 25 41 26 42 67 43 27 44
REMARK SMILES IDX 72 45 66 46 68 47 28 48 71 49 65 50 64 51 29 53 55 54 38 55
REMARK SMILES IDX 54 56 39 57 42 58 53 59 69 60 40 61 41 62 52 64 70 65 43 66
REMARK SMILES IDX 30 67 31 68 36 69 32 70 33 71 35 72 37 73 34 74 56 75 57 76
REMARK SMILES IDX 62 77 58 78 59 79 61 80 63 81 60 82 44 83 45 84 50 85 46 86
REMARK SMILES IDX 47 87 49 88 51 89 48 90
REMARK H PARENT 13 6 18 33 68 52 42 63
REMARK Flexibility Score: inf
ROOT
ATOM      1  C   UNL A   1      34.218  30.382  27.820  1.00  0.00     0.023 C 
ENDROOT
BRANCH   1   2
ATOM      2  C   UNL A   1      34.126  29.008  27.158  1.00  0.00     0.116 C 
BRANCH   2   3
ATOM      3  N   UNL A   1      32.895  28.317  27.481  1.00  0.00    -0.353 N 
ATOM      4  C   UNL A   1      31.932  27.743  26.696  1.00  0.00     0.264 C 
ATOM      5  O   UNL A   1      31.029  27.177  27.324  1.00  0.00    -0.270 OA
ATOM      6  H   UNL A   1      32.719  28.246  28.447  1.00  0.00     0.163 HD
BRANCH   4   7
ATOM      7  C   UNL A   1      31.969  27.791  25.115  1.00  0.00     0.190 C 
ATOM      8  C   UNL A   1      30.818  26.937  24.609  1.00  0.00     0.080 C 
ATOM      9  C   UNL A   1      32.056  29.265  24.716  1.00  0.00     0.080 C 
ATOM     10  C   UNL A   1      29.681  27.657  23.906  1.00  0.00     0.124 C 
ATOM     11  C   UNL A   1      31.121  29.740  23.619  1.00  0.00     0.124 C 
ATOM     12  N   UNL A   1      29.841  29.050  23.499  1.00  0.00    -0.342 N 
ATOM     13  C   UNL A   1      28.738  29.582  22.820  1.00  0.00     0.228 C 
ATOM     14  O   UNL A   1      27.657  28.988  22.819  1.00  0.00    -0.274 OA
BRANCH   7  15
ATOM     15  O   UNL A   1      33.237  27.145  24.863  1.00  0.00    -0.477 OA
BRANCH  15  16
ATOM     16  C   UNL A   1      33.619  25.933  24.392  1.00  0.00     0.124 A 
ATOM     17  C   UNL A   1      33.013  25.893  21.860  1.00  0.00     0.048 C 
ATOM     18  C   UNL A   1      33.574  25.334  23.124  1.00  0.00    -0.006 A 
ATOM     19  C   UNL A   1      34.031  24.000  22.981  1.00  0.00     0.046 A 
ATOM     20  C   UNL A   1      34.527  23.281  24.057  1.00  0.00     0.123 A 
ATOM     21  C   UNL A   1      34.132  25.168  25.464  1.00  0.00     0.050 A 
ATOM     22  F   UNL A   1      34.942  22.021  23.876  1.00  0.00    -0.207 F 
ATOM     23  C   UNL A   1      34.583  23.856  25.308  1.00  0.00     0.043 A 
ENDBRANCH  15  16
ENDBRANCH   7  15
BRANCH  13  24
ATOM     24  C   UNL A   1      28.925  30.853  22.006  1.00  0.00     0.107 C 
ATOM     25  C   UNL A   1      28.028  30.859  20.783  1.00  0.00     0.044 C 
ATOM     26  C   UNL A   1      28.445  32.082  22.755  1.00  0.00     0.173 C 
ATOM     27  C   UNL A   1      27.718  32.325  20.560  1.00  0.00     0.161 C 
ATOM     28  O   UNL A   1      28.028  33.031  21.765  1.00  0.00    -0.381 OA
ENDBRANCH  13  24
ENDBRANCH   4   7
ENDBRANCH   2   3
ENDBRANCH   1   2
BRANCH   1  29
ATOM     29  C   UNL A   1      33.000  31.279  27.626  1.00  0.00     0.023 C 
BRANCH  29  30
ATOM     30  C   UNL A   1      33.269  32.589  26.901  1.00  0.00     0.116 C 
BRANCH  30  31
ATOM     31  N   UNL A   1      32.716  33.751  27.579  1.00  0.00    -0.352 N 
ATOM     32  C   UNL A   1      33.178  34.406  28.698  1.00  0.00     0.251 C 
ATOM     33  H   UNL A   1      31.894  34.120  27.182  1.00  0.00     0.163 HD
ATOM     34  O   UNL A   1      32.528  35.310  29.197  1.00  0.00    -0.269 OA
BRANCH  32  35
ATOM     35  C   UNL A   1      34.452  33.976  29.314  1.00  0.00     0.039 A 
ATOM     36  C   UNL A   1      34.403  33.169  30.452  1.00  0.00     0.014 A 
ATOM     37  C   UNL A   1      35.681  34.334  28.754  1.00  0.00     0.014 A 
ATOM     38  C   UNL A   1      35.588  32.658  30.984  1.00  0.00     0.010 A 
ATOM     39  C   UNL A   1      36.852  33.757  29.233  1.00  0.00     0.010 A 
ATOM     40  C   UNL A   1      36.817  32.912  30.352  1.00  0.00    -0.014 A 
BRANCH  40  41
ATOM     41  C   UNL A   1      38.069  32.281  30.842  1.00  0.00     0.031 A 
ATOM     42  C   UNL A   1      38.586  31.022  30.206  1.00  0.00     0.074 A 
ATOM     43  C   UNL A   1      38.711  32.823  31.895  1.00  0.00     0.049 A 
ATOM     44  N   UNL A   1      39.647  30.319  30.512  1.00  0.00    -0.248 NA
ATOM     45  C   UNL A   1      37.796  30.463  29.097  1.00  0.00     0.031 C 
ATOM     46  C   UNL A   1      38.275  34.009  32.637  1.00  0.00     0.029 A 
ATOM     47  N   UNL A   1      39.870  32.447  32.528  1.00  0.00    -0.354 N 
ATOM     48  C   UNL A   1      39.650  29.239  29.639  1.00  0.00     0.074 A 
ATOM     49  C   UNL A   1      38.453  29.343  28.833  1.00  0.00     0.031 C 
ATOM     50  C   UNL A   1      39.171  34.281  33.599  1.00  0.00     0.029 A 
ATOM     51  C   UNL A   1      40.224  33.271  33.568  1.00  0.00     0.049 A 
ATOM     52  H   UNL A   1      40.398  31.659  32.261  1.00  0.00     0.167 HD
ATOM     53  C   UNL A   1      40.580  28.264  29.501  1.00  0.00     0.037 A 
ATOM     54  C   UNL A   1      41.278  33.217  34.403  1.00  0.00     0.037 A 
ATOM     55  C   UNL A   1      41.778  28.173  30.293  1.00  0.00     0.049 A 
ATOM     56  C   UNL A   1      42.291  32.121  34.231  1.00  0.00     0.074 A 
ATOM     57  C   UNL A   1      42.808  27.254  30.195  1.00  0.00     0.029 A 
ATOM     58  N   UNL A   1      42.107  29.033  31.330  1.00  0.00    -0.354 N 
ATOM     59  N   UNL A   1      42.319  31.150  33.350  1.00  0.00    -0.248 NA
ATOM     60  C   UNL A   1      43.426  32.117  35.164  1.00  0.00     0.031 C 
ATOM     61  C   UNL A   1      43.739  27.531  31.202  1.00  0.00     0.029 A 
ATOM     62  C   UNL A   1      43.314  28.652  31.894  1.00  0.00     0.049 A 
ATOM     63  H   UNL A   1      41.564  29.801  31.622  1.00  0.00     0.167 HD
ATOM     64  C   UNL A   1      43.483  30.438  33.607  1.00  0.00     0.074 A 
ATOM     65  C   UNL A   1      44.146  31.103  34.708  1.00  0.00     0.031 C 
ATOM     66  C   UNL A   1      43.960  29.329  32.990  1.00  0.00     0.037 A 
BRANCH  53  67
ATOM     67  C   UNL A   1      40.345  27.224  28.444  1.00  0.00     0.057 A 
ATOM     68  C   UNL A   1      40.968  27.295  27.191  1.00  0.00     0.134 A 
ATOM     69  C   UNL A   1      39.528  26.116  28.697  1.00  0.00     0.134 A 
ATOM     70  F   UNL A   1      41.753  28.338  26.880  1.00  0.00    -0.206 F 
ATOM     71  C   UNL A   1      40.772  26.311  26.221  1.00  0.00     0.040 A 
ATOM     72  C   UNL A   1      39.346  25.112  27.745  1.00  0.00     0.040 A 
ATOM     73  F   UNL A   1      38.903  25.983  29.877  1.00  0.00    -0.206 F 
ATOM     74  C   UNL A   1      39.965  25.210  26.501  1.00  0.00     0.006 A 
ENDBRANCH  53  67
BRANCH  54  75
ATOM     75  C   UNL A   1      41.445  34.241  35.468  1.00  0.00     0.057 A 
ATOM     76  C   UNL A   1      40.940  34.033  36.756  1.00  0.00     0.134 A 
ATOM     77  C   UNL A   1      42.085  35.461  35.216  1.00  0.00     0.134 A 
ATOM     78  F   UNL A   1      40.301  32.892  37.055  1.00  0.00    -0.206 F 
ATOM     79  C   UNL A   1      41.036  35.012  37.748  1.00  0.00     0.040 A 
ATOM     80  C   UNL A   1      42.214  36.437  36.205  1.00  0.00     0.040 A 
ATOM     81  F   UNL A   1      42.598  35.718  34.004  1.00  0.00    -0.206 F 
ATOM     82  C   UNL A   1      41.678  36.218  37.473  1.00  0.00     0.006 A 
ENDBRANCH  54  75
BRANCH  66  83
ATOM     83  C   UNL A   1      45.273  28.789  33.479  1.00  0.00     0.057 A 
ATOM     84  C   UNL A   1      46.495  29.223  32.950  1.00  0.00     0.134 A 
ATOM     85  C   UNL A   1      45.314  27.833  34.502  1.00  0.00     0.134 A 
ATOM     86  F   UNL A   1      46.524  30.127  31.959  1.00  0.00    -0.206 F 
ATOM     87  C   UNL A   1      47.709  28.701  33.397  1.00  0.00     0.040 A 
ATOM     88  C   UNL A   1      46.523  27.325  34.978  1.00  0.00     0.040 A 
ATOM     89  F   UNL A   1      44.180  27.381  35.059  1.00  0.00    -0.206 F 
ATOM     90  C   UNL A   1      47.725  27.753  34.419  1.00  0.00     0.006 A 
ENDBRANCH  66  83
ENDBRANCH  40  41
ENDBRANCH  32  35
ENDBRANCH  30  31
ENDBRANCH  29  30
ENDBRANCH   1  29
TORSDOF 14
ENDMDL
MODEL 3
REMARK VINA RESULT:     -12.1      2.286      4.679
REMARK SMILES Cc1cc(F)ccc1OC1(C(=O)NCCCCNC(=O)c2ccc(-c3c4nc(c(-c5c(F)cccc5F)c5ccc([nH]5)c(-c5c(F)cccc5F)c5nc(c(-c6c(F)cccc6F)c6ccc3[nH]6)C=C5)C=C4)cc2)CCN(C(=O)[C@H]2CCOC2)CC1
REMARK SMILES IDX 15 1 14 2 13 3 11 4 12 5 10 7 75 8 86 9 76 10 85 11 77 12
REMARK SMILES IDX 78 13 79 14 9 15 8 16 1 17 2 18 3 19 4 20 7 21 5 22 6 23
REMARK SMILES IDX 80 24 81 25 84 26 82 27 83 28 16 29 17 30 18 31 19 32 20 34
REMARK SMILES IDX 21 35 22 36 74 37 23 38 73 39 24 40 25 41 26 42 67 43 27 44
REMARK SMILES IDX 72 45 66 46 68 47 28 48 71 49 65 50 64 51 29 53 55 54 38 55
REMARK SMILES IDX 54 56 39 57 42 58 53 59 69 60 40 61 41 62 52 64 70 65 43 66
REMARK SMILES IDX 30 67 31 68 36 69 32 70 33 71 35 72 37 73 34 74 56 75 57 76
REMARK SMILES IDX 62 77 58 78 59 79 61 80 63 81 60 82 44 83 45 84 50 85 46 86
REMARK SMILES IDX 47 87 49 88 51 89 48 90
REMARK H PARENT 13 6 18 33 68 52 42 63
REMARK Flexibility Score: inf
ROOT
ATOM      1  C   UNL A   1      37.250  21.215  24.443  1.00  0.00     0.023 C 
ENDROOT
BRANCH   1   2
ATOM      2  C   UNL A   1      37.081  22.366  25.432  1.00  0.00     0.116 C 
BRANCH   2   3
ATOM      3  N   UNL A   1      36.154  22.050  26.499  1.00  0.00    -0.353 N 
ATOM      4  C   UNL A   1      34.791  22.133  26.585  1.00  0.00     0.264 C 
ATOM      5  O   UNL A   1      34.318  21.714  27.649  1.00  0.00    -0.270 OA
ATOM      6  H   UNL A   1      36.587  21.713  27.317  1.00  0.00     0.163 HD
BRANCH   4   7
ATOM      7  C   UNL A   1      33.889  22.709  25.419  1.00  0.00     0.190 C 
ATOM      8  C   UNL A   1      32.443  22.611  25.876  1.00  0.00     0.080 C 
ATOM      9  C   UNL A   1      34.476  24.067  25.032  1.00  0.00     0.080 C 
ATOM     10  C   UNL A   1      31.712  23.916  26.139  1.00  0.00     0.124 C 
ATOM     11  C   UNL A   1      33.502  25.220  24.877  1.00  0.00     0.124 C 
ATOM     12  N   UNL A   1      32.295  25.180  25.697  1.00  0.00    -0.342 N 
ATOM     13  C   UNL A   1      31.502  26.303  25.958  1.00  0.00     0.228 C 
ATOM     14  O   UNL A   1      30.538  26.225  26.723  1.00  0.00    -0.274 OA
BRANCH   7  15
ATOM     15  O   UNL A   1      34.163  21.746  24.377  1.00  0.00    -0.477 OA
BRANCH  15  16
ATOM     16  C   UNL A   1      33.630  20.558  24.004  1.00  0.00     0.124 A 
ATOM     17  C   UNL A   1      31.778  21.087  22.251  1.00  0.00     0.048 C 
ATOM     18  C   UNL A   1      32.626  20.195  23.094  1.00  0.00    -0.006 A 
ATOM     19  C   UNL A   1      32.273  18.827  22.974  1.00  0.00     0.046 A 
ATOM     20  C   UNL A   1      32.900  17.845  23.724  1.00  0.00     0.123 A 
ATOM     21  C   UNL A   1      34.245  19.527  24.751  1.00  0.00     0.050 A 
ATOM     22  F   UNL A   1      32.529  16.566  23.582  1.00  0.00    -0.207 F 
ATOM     23  C   UNL A   1      33.891  18.184  24.619  1.00  0.00     0.043 A 
ENDBRANCH  15  16
ENDBRANCH   7  15
BRANCH  13  24
ATOM     24  C   UNL A   1      31.793  27.593  25.208  1.00  0.00     0.107 C 
ATOM     25  C   UNL A   1      30.669  27.937  24.248  1.00  0.00     0.044 C 
ATOM     26  C   UNL A   1      31.799  28.798  26.131  1.00  0.00     0.173 C 
ATOM     27  C   UNL A   1      30.671  29.452  24.206  1.00  0.00     0.161 C 
ATOM     28  O   UNL A   1      31.403  29.926  25.339  1.00  0.00    -0.381 OA
ENDBRANCH  13  24
ENDBRANCH   4   7
ENDBRANCH   2   3
ENDBRANCH   1   2
BRANCH   1  29
ATOM     29  C   UNL A   1      37.938  19.974  25.001  1.00  0.00     0.023 C 
BRANCH  29  30
ATOM     30  C   UNL A   1      39.152  20.245  25.878  1.00  0.00     0.116 C 
BRANCH  30  31
ATOM     31  N   UNL A   1      40.147  19.185  25.833  1.00  0.00    -0.352 N 
ATOM     32  C   UNL A   1      41.508  19.261  26.018  1.00  0.00     0.251 C 
ATOM     33  H   UNL A   1      39.796  18.284  25.642  1.00  0.00     0.163 HD
ATOM     34  O   UNL A   1      42.212  18.281  25.842  1.00  0.00    -0.269 OA
BRANCH  32  35
ATOM     35  C   UNL A   1      42.116  20.557  26.393  1.00  0.00     0.039 A 
ATOM     36  C   UNL A   1      42.506  21.429  25.375  1.00  0.00     0.014 A 
ATOM     37  C   UNL A   1      42.265  20.923  27.733  1.00  0.00     0.014 A 
ATOM     38  C   UNL A   1      42.976  22.701  25.703  1.00  0.00     0.010 A 
ATOM     39  C   UNL A   1      42.653  22.219  28.055  1.00  0.00     0.010 A 
ATOM     40  C   UNL A   1      43.011  23.121  27.043  1.00  0.00    -0.014 A 
BRANCH  40  41
ATOM     41  C   UNL A   1      43.401  24.510  27.396  1.00  0.00     0.031 A 
ATOM     42  C   UNL A   1      44.842  24.933  27.335  1.00  0.00     0.074 A 
ATOM     43  C   UNL A   1      42.457  25.374  27.817  1.00  0.00     0.049 A 
ATOM     44  N   UNL A   1      45.373  26.094  27.626  1.00  0.00    -0.248 NA
ATOM     45  C   UNL A   1      45.819  23.915  26.919  1.00  0.00     0.031 C 
ATOM     46  C   UNL A   1      41.034  25.064  27.977  1.00  0.00     0.029 A 
ATOM     47  N   UNL A   1      42.551  26.692  28.189  1.00  0.00    -0.354 N 
ATOM     48  C   UNL A   1      46.740  25.944  27.430  1.00  0.00     0.074 A 
ATOM     49  C   UNL A   1      46.965  24.564  27.058  1.00  0.00     0.031 C 
ATOM     50  C   UNL A   1      40.386  26.168  28.381  1.00  0.00     0.029 A 
ATOM     51  C   UNL A   1      41.348  27.252  28.545  1.00  0.00     0.049 A 
ATOM     52  H   UNL A   1      43.401  27.189  28.201  1.00  0.00     0.167 HD
ATOM     53  C   UNL A   1      47.717  26.877  27.524  1.00  0.00     0.037 A 
ATOM     54  C   UNL A   1      41.056  28.499  28.958  1.00  0.00     0.037 A 
ATOM     55  C   UNL A   1      47.487  28.254  27.878  1.00  0.00     0.049 A 
ATOM     56  C   UNL A   1      42.161  29.514  29.059  1.00  0.00     0.074 A 
ATOM     57  C   UNL A   1      48.403  29.290  27.949  1.00  0.00     0.029 A 
ATOM     58  N   UNL A   1      46.253  28.786  28.220  1.00  0.00    -0.354 N 
ATOM     59  N   UNL A   1      43.438  29.376  28.796  1.00  0.00    -0.248 NA
ATOM     60  C   UNL A   1      41.781  30.861  29.505  1.00  0.00     0.031 C 
ATOM     61  C   UNL A   1      47.730  30.439  28.378  1.00  0.00     0.029 A 
ATOM     62  C   UNL A   1      46.388  30.131  28.525  1.00  0.00     0.049 A 
ATOM     63  H   UNL A   1      45.407  28.283  28.243  1.00  0.00     0.167 HD
ATOM     64  C   UNL A   1      44.008  30.622  29.021  1.00  0.00     0.074 A 
ATOM     65  C   UNL A   1      42.934  31.508  29.416  1.00  0.00     0.031 C 
ATOM     66  C   UNL A   1      45.306  30.999  28.914  1.00  0.00     0.037 A 
BRANCH  53  67
ATOM     67  C   UNL A   1      49.123  26.445  27.226  1.00  0.00     0.057 A 
ATOM     68  C   UNL A   1      49.629  26.437  25.919  1.00  0.00     0.134 A 
ATOM     69  C   UNL A   1      49.996  26.079  28.257  1.00  0.00     0.134 A 
ATOM     70  F   UNL A   1      48.840  26.764  24.883  1.00  0.00    -0.206 F 
ATOM     71  C   UNL A   1      50.945  26.064  25.647  1.00  0.00     0.040 A 
ATOM     72  C   UNL A   1      51.322  25.730  28.001  1.00  0.00     0.040 A 
ATOM     73  F   UNL A   1      49.578  26.068  29.533  1.00  0.00    -0.206 F 
ATOM     74  C   UNL A   1      51.800  25.717  26.692  1.00  0.00     0.006 A 
ENDBRANCH  53  67
BRANCH  54  75
ATOM     75  C   UNL A   1      39.656  28.871  29.289  1.00  0.00     0.057 A 
ATOM     76  C   UNL A   1      39.153  28.712  30.586  1.00  0.00     0.134 A 
ATOM     77  C   UNL A   1      38.779  29.364  28.316  1.00  0.00     0.134 A 
ATOM     78  F   UNL A   1      39.939  28.227  31.559  1.00  0.00    -0.206 F 
ATOM     79  C   UNL A   1      37.823  28.999  30.897  1.00  0.00     0.040 A 
ATOM     80  C   UNL A   1      37.454  29.682  28.618  1.00  0.00     0.040 A 
ATOM     81  F   UNL A   1      39.201  29.548  27.056  1.00  0.00    -0.206 F 
ATOM     82  C   UNL A   1      36.970  29.489  29.910  1.00  0.00     0.006 A 
ENDBRANCH  54  75
BRANCH  66  83
ATOM     83  C   UNL A   1      45.623  32.438  29.204  1.00  0.00     0.057 A 
ATOM     84  C   UNL A   1      45.591  33.419  28.204  1.00  0.00     0.134 A 
ATOM     85  C   UNL A   1      45.949  32.849  30.503  1.00  0.00     0.134 A 
ATOM     86  F   UNL A   1      45.300  33.088  26.937  1.00  0.00    -0.206 F 
ATOM     87  C   UNL A   1      45.907  34.750  28.479  1.00  0.00     0.040 A 
ATOM     88  C   UNL A   1      46.236  34.182  30.796  1.00  0.00     0.040 A 
ATOM     89  F   UNL A   1      45.987  31.962  31.510  1.00  0.00    -0.206 F 
ATOM     90  C   UNL A   1      46.224  35.135  29.780  1.00  0.00     0.006 A 
ENDBRANCH  66  83
ENDBRANCH  40  41
ENDBRANCH  32  35
ENDBRANCH  30  31
ENDBRANCH  29  30
ENDBRANCH   1  29
TORSDOF 14
ENDMDL
