MODEL 1
REMARK VINA RESULT:     -12.4      0.000      0.000
REMARK SMILES COc1ccc([C@@H](CC(=O)NCCCCNC(=O)c2ccc(-c3c4nc(c(-c5c(F)cccc5F)c5ccc([nH]5)c(-c5c(F)cccc5F)c5nc(c(-c6c(F)cccc6F)c6ccc3[nH]6)C=C5)C=C4)cc2)NC(=O)c2ccc(Cl)c([N+](=O)[O-])c2)cc1
REMARK SMILES IDX 12 1 11 2 9 3 10 4 8 6 7 7 6 8 3 9 4 10 87 11 5 12 86 13
REMARK SMILES IDX 2 14 1 15 73 16 74 17 75 19 76 20 77 21 85 22 78 23 81 24
REMARK SMILES IDX 79 25 80 26 82 27 83 28 84 29 13 30 14 31 15 32 16 33 17 34
REMARK SMILES IDX 18 36 19 37 20 38 72 39 21 40 71 41 22 42 23 43 24 44 65 45
REMARK SMILES IDX 25 46 70 47 64 48 66 49 26 50 69 51 63 52 62 53 27 55 53 56
REMARK SMILES IDX 36 57 52 58 37 59 40 60 51 61 67 62 38 63 39 64 50 66 68 67
REMARK SMILES IDX 41 68 28 69 29 70 34 71 30 72 31 73 33 74 35 75 32 76 54 77
REMARK SMILES IDX 55 78 60 79 56 80 57 81 59 82 61 83 58 84 42 85 43 86 48 87
REMARK SMILES IDX 44 88 45 89 47 90 49 91 46 92
REMARK H PARENT 11 5 73 18 16 35 66 54 40 65
REMARK Flexibility Score: inf
ROOT
ATOM      1  C   UNL A   1      32.507  30.165  26.016  1.00  0.00     0.116 C 
ENDROOT
BRANCH   1   2
ATOM      2  N   UNL A   1      32.277  29.393  27.217  1.00  0.00    -0.356 N 
ATOM      3  C   UNL A   1      32.095  28.044  27.308  1.00  0.00     0.222 C 
ATOM      4  O   UNL A   1      31.515  27.601  28.301  1.00  0.00    -0.275 OA
ATOM      5  H   UNL A   1      32.249  29.897  28.062  1.00  0.00     0.163 HD
BRANCH   3   6
ATOM      6  C   UNL A   1      32.650  27.116  26.243  1.00  0.00     0.129 C 
BRANCH   6   7
ATOM      7  C   UNL A   1      31.642  26.174  25.554  1.00  0.00     0.122 C 
BRANCH   7   8
ATOM      8  C   UNL A   1      30.785  26.814  24.465  1.00  0.00    -0.025 A 
ATOM      9  C   UNL A   1      29.202  28.351  22.715  1.00  0.00     0.118 A 
ATOM     10  C   UNL A   1      28.624  27.340  23.480  1.00  0.00     0.047 A 
ATOM     11  C   UNL A   1      30.585  28.519  22.718  1.00  0.00     0.047 A 
ATOM     12  C   UNL A   1      29.411  26.558  24.334  1.00  0.00     0.010 A 
ATOM     13  C   UNL A   1      31.370  27.749  23.587  1.00  0.00     0.010 A 
BRANCH   9  14
ATOM     14  O   UNL A   1      28.341  29.296  22.232  1.00  0.00    -0.497 OA
ATOM     15  C   UNL A   1      27.674  30.076  23.214  1.00  0.00     0.278 C 
ENDBRANCH   9  14
ENDBRANCH   7   8
BRANCH   7  16
ATOM     16  N   UNL A   1      30.861  25.398  26.519  1.00  0.00    -0.345 N 
ATOM     17  C   UNL A   1      30.844  24.042  26.728  1.00  0.00     0.252 C 
ATOM     18  H   UNL A   1      30.265  25.923  27.100  1.00  0.00     0.164 HD
ATOM     19  O   UNL A   1      29.943  23.500  27.350  1.00  0.00    -0.269 OA
BRANCH  17  20
ATOM     20  C   UNL A   1      31.946  23.228  26.180  1.00  0.00     0.046 A 
ATOM     21  C   UNL A   1      33.258  23.501  26.564  1.00  0.00     0.016 A 
ATOM     22  C   UNL A   1      31.668  22.175  25.307  1.00  0.00     0.101 A 
ATOM     23  C   UNL A   1      34.291  22.662  26.133  1.00  0.00     0.028 A 
ATOM     24  C   UNL A   1      32.703  21.313  24.920  1.00  0.00     0.288 A 
ATOM     25  C   UNL A   1      34.019  21.543  25.332  1.00  0.00     0.118 A 
ATOM     26  Cl  UNL A   1      35.347  20.501  24.979  1.00  0.00    -0.077 Cl
BRANCH  24  27
ATOM     27  N   UNL A   1      32.322  20.128  24.167  1.00  0.00     0.064 N 
ATOM     28  O   UNL A   1      32.174  20.228  22.944  1.00  0.00    -0.258 OA
ATOM     29  O   UNL A   1      32.131  19.094  24.826  1.00  0.00    -0.258 OA
ENDBRANCH  24  27
ENDBRANCH  17  20
ENDBRANCH   7  16
ENDBRANCH   6   7
ENDBRANCH   3   6
ENDBRANCH   1   2
BRANCH   1  30
ATOM     30  C   UNL A   1      31.258  30.972  25.704  1.00  0.00     0.023 C 
BRANCH  30  31
ATOM     31  C   UNL A   1      31.074  32.269  26.460  1.00  0.00     0.023 C 
BRANCH  31  32
ATOM     32  C   UNL A   1      32.381  32.965  26.778  1.00  0.00     0.116 C 
BRANCH  32  33
ATOM     33  N   UNL A   1      32.250  34.150  27.624  1.00  0.00    -0.352 N 
ATOM     34  C   UNL A   1      33.101  34.610  28.603  1.00  0.00     0.251 C 
ATOM     35  H   UNL A   1      31.443  34.693  27.472  1.00  0.00     0.163 HD
ATOM     36  O   UNL A   1      32.840  35.621  29.246  1.00  0.00    -0.269 OA
BRANCH  34  37
ATOM     37  C   UNL A   1      34.304  33.813  28.922  1.00  0.00     0.039 A 
ATOM     38  C   UNL A   1      35.561  34.392  28.748  1.00  0.00     0.014 A 
ATOM     39  C   UNL A   1      34.176  32.567  29.533  1.00  0.00     0.014 A 
ATOM     40  C   UNL A   1      36.683  33.763  29.287  1.00  0.00     0.010 A 
ATOM     41  C   UNL A   1      35.264  32.028  30.200  1.00  0.00     0.010 A 
ATOM     42  C   UNL A   1      36.534  32.609  30.072  1.00  0.00    -0.014 A 
BRANCH  42  43
ATOM     43  C   UNL A   1      37.687  31.970  30.755  1.00  0.00     0.031 A 
ATOM     44  C   UNL A   1      38.470  30.898  30.045  1.00  0.00     0.074 A 
ATOM     45  C   UNL A   1      37.971  32.277  32.036  1.00  0.00     0.049 A 
ATOM     46  N   UNL A   1      39.439  30.143  30.495  1.00  0.00    -0.248 NA
ATOM     47  C   UNL A   1      38.069  30.596  28.661  1.00  0.00     0.031 C 
ATOM     48  C   UNL A   1      37.234  33.233  32.865  1.00  0.00     0.029 A 
ATOM     49  N   UNL A   1      38.952  31.804  32.870  1.00  0.00    -0.354 N 
ATOM     50  C   UNL A   1      39.732  29.260  29.464  1.00  0.00     0.074 A 
ATOM     51  C   UNL A   1      38.782  29.512  28.404  1.00  0.00     0.031 C 
ATOM     52  C   UNL A   1      37.808  33.300  34.077  1.00  0.00     0.029 A 
ATOM     53  C   UNL A   1      38.926  32.364  34.125  1.00  0.00     0.049 A 
ATOM     54  H   UNL A   1      39.612  31.127  32.596  1.00  0.00     0.167 HD
ATOM     55  C   UNL A   1      40.726  28.346  29.386  1.00  0.00     0.037 A 
ATOM     56  C   UNL A   1      39.712  32.143  35.196  1.00  0.00     0.037 A 
ATOM     57  C   UNL A   1      41.695  28.132  30.427  1.00  0.00     0.049 A 
ATOM     58  C   UNL A   1      40.839  31.155  35.081  1.00  0.00     0.074 A 
ATOM     59  C   UNL A   1      42.799  27.300  30.420  1.00  0.00     0.029 A 
ATOM     60  N   UNL A   1      41.669  28.759  31.665  1.00  0.00    -0.354 N 
ATOM     61  N   UNL A   1      41.168  30.392  34.066  1.00  0.00    -0.248 NA
ATOM     62  C   UNL A   1      41.710  31.004  36.254  1.00  0.00     0.031 C 
ATOM     63  C   UNL A   1      43.412  27.384  31.675  1.00  0.00     0.029 A 
ATOM     64  C   UNL A   1      42.723  28.310  32.443  1.00  0.00     0.049 A 
ATOM     65  H   UNL A   1      41.000  29.423  31.948  1.00  0.00     0.167 HD
ATOM     66  C   UNL A   1      42.292  29.683  34.469  1.00  0.00     0.074 A 
ATOM     67  C   UNL A   1      42.599  30.122  35.815  1.00  0.00     0.031 C 
ATOM     68  C   UNL A   1      43.008  28.755  33.785  1.00  0.00     0.037 A 
BRANCH  55  69
ATOM     69  C   UNL A   1      40.802  27.521  28.131  1.00  0.00     0.057 A 
ATOM     70  C   UNL A   1      40.170  26.273  28.019  1.00  0.00     0.134 A 
ATOM     71  C   UNL A   1      41.544  27.966  27.030  1.00  0.00     0.134 A 
ATOM     72  F   UNL A   1      39.456  25.778  29.041  1.00  0.00    -0.206 F 
ATOM     73  C   UNL A   1      40.318  25.477  26.883  1.00  0.00     0.040 A 
ATOM     74  C   UNL A   1      41.668  27.194  25.872  1.00  0.00     0.040 A 
ATOM     75  F   UNL A   1      42.170  29.152  27.062  1.00  0.00    -0.206 F 
ATOM     76  C   UNL A   1      41.067  25.939  25.803  1.00  0.00     0.006 A 
ENDBRANCH  55  69
BRANCH  56  77
ATOM     77  C   UNL A   1      39.473  32.901  36.449  1.00  0.00     0.057 A 
ATOM     78  C   UNL A   1      40.113  34.122  36.692  1.00  0.00     0.134 A 
ATOM     79  C   UNL A   1      38.568  32.445  37.416  1.00  0.00     0.134 A 
ATOM     80  F   UNL A   1      41.002  34.604  35.811  1.00  0.00    -0.206 F 
ATOM     81  C   UNL A   1      39.868  34.859  37.851  1.00  0.00     0.040 A 
ATOM     82  C   UNL A   1      38.294  33.184  38.568  1.00  0.00     0.040 A 
ATOM     83  F   UNL A   1      37.913  31.289  37.238  1.00  0.00    -0.206 F 
ATOM     84  C   UNL A   1      38.949  34.395  38.790  1.00  0.00     0.006 A 
ENDBRANCH  56  77
BRANCH  68  85
ATOM     85  C   UNL A   1      44.203  28.165  34.475  1.00  0.00     0.057 A 
ATOM     86  C   UNL A   1      44.122  26.976  35.210  1.00  0.00     0.134 A 
ATOM     87  C   UNL A   1      45.462  28.769  34.358  1.00  0.00     0.134 A 
ATOM     88  F   UNL A   1      42.944  26.353  35.368  1.00  0.00    -0.206 F 
ATOM     89  C   UNL A   1      45.245  26.420  35.822  1.00  0.00     0.040 A 
ATOM     90  C   UNL A   1      46.597  28.208  34.941  1.00  0.00     0.040 A 
ATOM     91  F   UNL A   1      45.610  29.904  33.658  1.00  0.00    -0.206 F 
ATOM     92  C   UNL A   1      46.490  27.033  35.681  1.00  0.00     0.006 A 
ENDBRANCH  68  85
ENDBRANCH  42  43
ENDBRANCH  34  37
ENDBRANCH  32  33
ENDBRANCH  31  32
ENDBRANCH  30  31
ENDBRANCH   1  30
TORSDOF 17
ENDMDL
MODEL 2
REMARK VINA RESULT:     -12.2      0.512      5.980
REMARK SMILES COc1ccc([C@@H](CC(=O)NCCCCNC(=O)c2ccc(-c3c4nc(c(-c5c(F)cccc5F)c5ccc([nH]5)c(-c5c(F)cccc5F)c5nc(c(-c6c(F)cccc6F)c6ccc3[nH]6)C=C5)C=C4)cc2)NC(=O)c2ccc(Cl)c([N+](=O)[O-])c2)cc1
REMARK SMILES IDX 12 1 11 2 9 3 10 4 8 6 7 7 6 8 3 9 4 10 87 11 5 12 86 13
REMARK SMILES IDX 2 14 1 15 73 16 74 17 75 19 76 20 77 21 85 22 78 23 81 24
REMARK SMILES IDX 79 25 80 26 82 27 83 28 84 29 13 30 14 31 15 32 16 33 17 34
REMARK SMILES IDX 18 36 19 37 20 38 72 39 21 40 71 41 22 42 23 43 24 44 65 45
REMARK SMILES IDX 25 46 70 47 64 48 66 49 26 50 69 51 63 52 62 53 27 55 53 56
REMARK SMILES IDX 36 57 52 58 37 59 40 60 51 61 67 62 38 63 39 64 50 66 68 67
REMARK SMILES IDX 41 68 28 69 29 70 34 71 30 72 31 73 33 74 35 75 32 76 54 77
REMARK SMILES IDX 55 78 60 79 56 80 57 81 59 82 61 83 58 84 42 85 43 86 48 87
REMARK SMILES IDX 44 88 45 89 47 90 49 91 46 92
REMARK H PARENT 11 5 73 18 16 35 66 54 40 65
REMARK Flexibility Score: inf
ROOT
ATOM      1  C   UNL A   1      32.597  30.154  26.151  1.00  0.00     0.116 C 
ENDROOT
BRANCH   1   2
ATOM      2  N   UNL A   1      32.269  29.387  27.333  1.00  0.00    -0.356 N 
ATOM      3  C   UNL A   1      32.056  28.041  27.409  1.00  0.00     0.222 C 
ATOM      4  O   UNL A   1      31.400  27.610  28.360  1.00  0.00    -0.275 OA
ATOM      5  H   UNL A   1      32.191  29.891  28.175  1.00  0.00     0.163 HD
BRANCH   3   6
ATOM      6  C   UNL A   1      32.667  27.102  26.386  1.00  0.00     0.129 C 
BRANCH   6   7
ATOM      7  C   UNL A   1      31.691  26.184  25.622  1.00  0.00     0.122 C 
BRANCH   7   8
ATOM      8  C   UNL A   1      30.901  26.854  24.501  1.00  0.00    -0.025 A 
ATOM      9  C   UNL A   1      29.441  28.445  22.693  1.00  0.00     0.118 A 
ATOM     10  C   UNL A   1      28.800  27.450  23.430  1.00  0.00     0.047 A 
ATOM     11  C   UNL A   1      30.827  28.569  22.755  1.00  0.00     0.047 A 
ATOM     12  C   UNL A   1      29.526  26.642  24.313  1.00  0.00     0.010 A 
ATOM     13  C   UNL A   1      31.551  27.772  23.652  1.00  0.00     0.010 A 
BRANCH   9  14
ATOM     14  O   UNL A   1      28.632  29.419  22.179  1.00  0.00    -0.497 OA
ATOM     15  C   UNL A   1      28.092  30.330  23.125  1.00  0.00     0.278 C 
ENDBRANCH   9  14
ENDBRANCH   7   8
BRANCH   7  16
ATOM     16  N   UNL A   1      30.852  25.395  26.526  1.00  0.00    -0.345 N 
ATOM     17  C   UNL A   1      30.800  24.034  26.692  1.00  0.00     0.252 C 
ATOM     18  H   UNL A   1      30.239  25.915  27.094  1.00  0.00     0.164 HD
ATOM     19  O   UNL A   1      29.862  23.492  27.255  1.00  0.00    -0.269 OA
BRANCH  17  20
ATOM     20  C   UNL A   1      31.912  23.215  26.172  1.00  0.00     0.046 A 
ATOM     21  C   UNL A   1      33.159  23.275  26.793  1.00  0.00     0.016 A 
ATOM     22  C   UNL A   1      31.703  22.367  25.082  1.00  0.00     0.101 A 
ATOM     23  C   UNL A   1      34.181  22.419  26.370  1.00  0.00     0.028 A 
ATOM     24  C   UNL A   1      32.718  21.480  24.699  1.00  0.00     0.288 A 
ATOM     25  C   UNL A   1      33.961  21.493  25.339  1.00  0.00     0.118 A 
ATOM     26  Cl  UNL A   1      35.244  20.392  24.998  1.00  0.00    -0.077 Cl
BRANCH  24  27
ATOM     27  N   UNL A   1      32.377  20.493  23.686  1.00  0.00     0.064 N 
ATOM     28  O   UNL A   1      32.370  19.299  24.005  1.00  0.00    -0.258 OA
ATOM     29  O   UNL A   1      32.154  20.928  22.545  1.00  0.00    -0.258 OA
ENDBRANCH  24  27
ENDBRANCH  17  20
ENDBRANCH   7  16
ENDBRANCH   6   7
ENDBRANCH   3   6
ENDBRANCH   1   2
BRANCH   1  30
ATOM     30  C   UNL A   1      31.385  30.980  25.751  1.00  0.00     0.023 C 
BRANCH  30  31
ATOM     31  C   UNL A   1      31.152  32.266  26.512  1.00  0.00     0.023 C 
BRANCH  31  32
ATOM     32  C   UNL A   1      32.400  33.112  26.651  1.00  0.00     0.116 C 
BRANCH  32  33
ATOM     33  N   UNL A   1      32.295  34.196  27.625  1.00  0.00    -0.352 N 
ATOM     34  C   UNL A   1      33.149  34.515  28.657  1.00  0.00     0.251 C 
ATOM     35  H   UNL A   1      31.507  34.778  27.531  1.00  0.00     0.163 HD
ATOM     36  O   UNL A   1      32.911  35.454  29.409  1.00  0.00    -0.269 OA
BRANCH  34  37
ATOM     37  C   UNL A   1      34.323  33.650  28.893  1.00  0.00     0.039 A 
ATOM     38  C   UNL A   1      35.599  34.206  28.800  1.00  0.00     0.014 A 
ATOM     39  C   UNL A   1      34.150  32.346  29.353  1.00  0.00     0.014 A 
ATOM     40  C   UNL A   1      36.695  33.484  29.272  1.00  0.00     0.010 A 
ATOM     41  C   UNL A   1      35.213  31.700  29.964  1.00  0.00     0.010 A 
ATOM     42  C   UNL A   1      36.501  32.252  29.916  1.00  0.00    -0.014 A 
BRANCH  42  43
ATOM     43  C   UNL A   1      37.626  31.503  30.531  1.00  0.00     0.031 A 
ATOM     44  C   UNL A   1      38.008  31.777  31.961  1.00  0.00     0.074 A 
ATOM     45  C   UNL A   1      38.364  30.657  29.785  1.00  0.00     0.049 A 
ATOM     46  N   UNL A   1      39.017  31.315  32.653  1.00  0.00    -0.248 NA
ATOM     47  C   UNL A   1      37.174  32.745  32.692  1.00  0.00     0.031 C 
ATOM     48  C   UNL A   1      38.155  30.371  28.364  1.00  0.00     0.029 A 
ATOM     49  N   UNL A   1      39.450  29.889  30.120  1.00  0.00    -0.354 N 
ATOM     50  C   UNL A   1      38.955  31.963  33.880  1.00  0.00     0.074 A 
ATOM     51  C   UNL A   1      37.868  32.913  33.805  1.00  0.00     0.031 C 
ATOM     52  C   UNL A   1      39.060  29.467  27.958  1.00  0.00     0.029 A 
ATOM     53  C   UNL A   1      39.940  29.141  29.076  1.00  0.00     0.049 A 
ATOM     54  H   UNL A   1      39.843  29.875  31.023  1.00  0.00     0.167 HD
ATOM     55  C   UNL A   1      39.708  31.762  34.986  1.00  0.00     0.037 A 
ATOM     56  C   UNL A   1      40.983  28.291  29.025  1.00  0.00     0.037 A 
ATOM     57  C   UNL A   1      40.759  30.784  35.066  1.00  0.00     0.049 A 
ATOM     58  C   UNL A   1      41.785  28.046  30.272  1.00  0.00     0.074 A 
ATOM     59  C   UNL A   1      41.525  30.428  36.161  1.00  0.00     0.029 A 
ATOM     60  N   UNL A   1      41.190  30.005  34.002  1.00  0.00    -0.354 N 
ATOM     61  N   UNL A   1      41.658  28.595  31.457  1.00  0.00    -0.248 NA
ATOM     62  C   UNL A   1      42.867  27.058  30.180  1.00  0.00     0.031 C 
ATOM     63  C   UNL A   1      42.456  29.471  35.746  1.00  0.00     0.029 A 
ATOM     64  C   UNL A   1      42.233  29.189  34.407  1.00  0.00     0.049 A 
ATOM     65  H   UNL A   1      40.811  30.029  33.094  1.00  0.00     0.167 HD
ATOM     66  C   UNL A   1      42.630  28.008  32.256  1.00  0.00     0.074 A 
ATOM     67  C   UNL A   1      43.326  27.047  31.425  1.00  0.00     0.031 C 
ATOM     68  C   UNL A   1      42.919  28.242  33.561  1.00  0.00     0.037 A 
BRANCH  55  69
ATOM     69  C   UNL A   1      39.411  32.621  36.182  1.00  0.00     0.057 A 
ATOM     70  C   UNL A   1      40.081  33.831  36.418  1.00  0.00     0.134 A 
ATOM     71  C   UNL A   1      38.463  32.217  37.131  1.00  0.00     0.134 A 
ATOM     72  F   UNL A   1      41.013  34.271  35.559  1.00  0.00    -0.206 F 
ATOM     73  C   UNL A   1      39.860  34.577  37.577  1.00  0.00     0.040 A 
ATOM     74  C   UNL A   1      38.206  32.976  38.276  1.00  0.00     0.040 A 
ATOM     75  F   UNL A   1      37.779  31.075  36.970  1.00  0.00    -0.206 F 
ATOM     76  C   UNL A   1      38.917  34.151  38.508  1.00  0.00     0.006 A 
ENDBRANCH  55  69
BRANCH  56  77
ATOM     77  C   UNL A   1      41.297  27.593  27.753  1.00  0.00     0.057 A 
ATOM     78  C   UNL A   1      42.144  28.169  26.799  1.00  0.00     0.134 A 
ATOM     79  C   UNL A   1      40.794  26.315  27.479  1.00  0.00     0.134 A 
ATOM     80  F   UNL A   1      42.646  29.397  26.998  1.00  0.00    -0.206 F 
ATOM     81  C   UNL A   1      42.474  27.505  25.617  1.00  0.00     0.040 A 
ATOM     82  C   UNL A   1      41.135  25.629  26.311  1.00  0.00     0.040 A 
ATOM     83  F   UNL A   1      39.986  25.703  28.357  1.00  0.00    -0.206 F 
ATOM     84  C   UNL A   1      41.976  26.227  25.375  1.00  0.00     0.006 A 
ENDBRANCH  56  77
BRANCH  68  85
ATOM     85  C   UNL A   1      44.022  27.432  34.176  1.00  0.00     0.057 A 
ATOM     86  C   UNL A   1      43.793  26.164  34.724  1.00  0.00     0.134 A 
ATOM     87  C   UNL A   1      45.341  27.908  34.173  1.00  0.00     0.134 A 
ATOM     88  F   UNL A   1      42.552  25.655  34.766  1.00  0.00    -0.206 F 
ATOM     89  C   UNL A   1      44.831  25.406  35.266  1.00  0.00     0.040 A 
ATOM     90  C   UNL A   1      46.391  27.148  34.687  1.00  0.00     0.040 A 
ATOM     91  F   UNL A   1      45.629  29.110  33.654  1.00  0.00    -0.206 F 
ATOM     92  C   UNL A   1      46.137  25.895  35.241  1.00  0.00     0.006 A 
ENDBRANCH  68  85
ENDBRANCH  42  43
ENDBRANCH  34  37
ENDBRANCH  32  33
ENDBRANCH  31  32
ENDBRANCH  30  31
ENDBRANCH   1  30
TORSDOF 17
ENDMDL
MODEL 3
REMARK VINA RESULT:     -12.1      1.398      5.941
REMARK SMILES COc1ccc([C@@H](CC(=O)NCCCCNC(=O)c2ccc(-c3c4nc(c(-c5c(F)cccc5F)c5ccc([nH]5)c(-c5c(F)cccc5F)c5nc(c(-c6c(F)cccc6F)c6ccc3[nH]6)C=C5)C=C4)cc2)NC(=O)c2ccc(Cl)c([N+](=O)[O-])c2)cc1
REMARK SMILES IDX 12 1 11 2 9 3 10 4 8 6 7 7 6 8 3 9 4 10 87 11 5 12 86 13
REMARK SMILES IDX 2 14 1 15 73 16 74 17 75 19 76 20 77 21 85 22 78 23 81 24
REMARK SMILES IDX 79 25 80 26 82 27 83 28 84 29 13 30 14 31 15 32 16 33 17 34
REMARK SMILES IDX 18 36 19 37 20 38 72 39 21 40 71 41 22 42 23 43 24 44 65 45
REMARK SMILES IDX 25 46 70 47 64 48 66 49 26 50 69 51 63 52 62 53 27 55 53 56
REMARK SMILES IDX 36 57 52 58 37 59 40 60 51 61 67 62 38 63 39 64 50 66 68 67
REMARK SMILES IDX 41 68 28 69 29 70 34 71 30 72 31 73 33 74 35 75 32 76 54 77
REMARK SMILES IDX 55 78 60 79 56 80 57 81 59 82 61 83 58 84 42 85 43 86 48 87
REMARK SMILES IDX 44 88 45 89 47 90 49 91 46 92
REMARK H PARENT 11 5 73 18 16 35 66 54 40 65
REMARK Flexibility Score: inf
ROOT
ATOM      1  C   UNL A   1      34.303  29.210  27.130  1.00  0.00     0.116 C 
ENDROOT
BRANCH   1   2
ATOM      2  N   UNL A   1      33.135  28.665  27.786  1.00  0.00    -0.356 N 
ATOM      3  C   UNL A   1      32.229  27.789  27.264  1.00  0.00     0.222 C 
ATOM      4  O   UNL A   1      31.106  27.743  27.770  1.00  0.00    -0.275 OA
ATOM      5  H   UNL A   1      32.976  28.960  28.712  1.00  0.00     0.163 HD
BRANCH   3   6
ATOM      6  C   UNL A   1      32.620  26.854  26.135  1.00  0.00     0.129 C 
BRANCH   6   7
ATOM      7  C   UNL A   1      31.498  25.975  25.546  1.00  0.00     0.122 C 
BRANCH   7   8
ATOM      8  C   UNL A   1      30.543  26.684  24.589  1.00  0.00    -0.025 A 
ATOM      9  C   UNL A   1      28.704  28.267  23.159  1.00  0.00     0.118 A 
ATOM     10  C   UNL A   1      28.334  27.007  23.626  1.00  0.00     0.047 A 
ATOM     11  C   UNL A   1      30.024  28.693  23.288  1.00  0.00     0.047 A 
ATOM     12  C   UNL A   1      29.252  26.207  24.317  1.00  0.00     0.010 A 
ATOM     13  C   UNL A   1      30.938  27.901  23.996  1.00  0.00     0.010 A 
BRANCH   9  14
ATOM     14  O   UNL A   1      27.676  29.117  22.863  1.00  0.00    -0.497 OA
ATOM     15  C   UNL A   1      28.024  30.490  22.765  1.00  0.00     0.278 C 
ENDBRANCH   9  14
ENDBRANCH   7   8
BRANCH   7  16
ATOM     16  N   UNL A   1      30.808  25.196  26.575  1.00  0.00    -0.345 N 
ATOM     17  C   UNL A   1      30.863  23.847  26.822  1.00  0.00     0.252 C 
ATOM     18  H   UNL A   1      30.223  25.712  27.175  1.00  0.00     0.164 HD
ATOM     19  O   UNL A   1      30.024  23.287  27.509  1.00  0.00    -0.269 OA
BRANCH  17  20
ATOM     20  C   UNL A   1      31.968  23.065  26.235  1.00  0.00     0.046 A 
ATOM     21  C   UNL A   1      33.283  23.352  26.599  1.00  0.00     0.016 A 
ATOM     22  C   UNL A   1      31.691  22.027  25.343  1.00  0.00     0.101 A 
ATOM     23  C   UNL A   1      34.321  22.541  26.129  1.00  0.00     0.028 A 
ATOM     24  C   UNL A   1      32.732  21.192  24.916  1.00  0.00     0.288 A 
ATOM     25  C   UNL A   1      34.052  21.436  25.308  1.00  0.00     0.118 A 
ATOM     26  Cl  UNL A   1      35.390  20.425  24.906  1.00  0.00    -0.077 Cl
BRANCH  24  27
ATOM     27  N   UNL A   1      32.356  20.018  24.144  1.00  0.00     0.064 N 
ATOM     28  O   UNL A   1      32.191  20.142  22.925  1.00  0.00    -0.258 OA
ATOM     29  O   UNL A   1      32.188  18.968  24.784  1.00  0.00    -0.258 OA
ENDBRANCH  24  27
ENDBRANCH  17  20
ENDBRANCH   7  16
ENDBRANCH   6   7
ENDBRANCH   3   6
ENDBRANCH   1   2
BRANCH   1  30
ATOM     30  C   UNL A   1      34.572  30.601  27.682  1.00  0.00     0.023 C 
BRANCH  30  31
ATOM     31  C   UNL A   1      33.374  31.504  27.876  1.00  0.00     0.023 C 
BRANCH  31  32
ATOM     32  C   UNL A   1      33.521  32.845  27.189  1.00  0.00     0.116 C 
BRANCH  32  33
ATOM     33  N   UNL A   1      32.874  33.958  27.882  1.00  0.00    -0.352 N 
ATOM     34  C   UNL A   1      33.314  34.664  28.979  1.00  0.00     0.251 C 
ATOM     35  H   UNL A   1      32.007  34.241  27.514  1.00  0.00     0.163 HD
ATOM     36  O   UNL A   1      32.642  35.569  29.462  1.00  0.00    -0.269 OA
BRANCH  34  37
ATOM     37  C   UNL A   1      34.583  34.256  29.618  1.00  0.00     0.039 A 
ATOM     38  C   UNL A   1      34.535  33.482  30.777  1.00  0.00     0.014 A 
ATOM     39  C   UNL A   1      35.798  34.507  28.983  1.00  0.00     0.014 A 
ATOM     40  C   UNL A   1      35.700  32.870  31.239  1.00  0.00     0.010 A 
ATOM     41  C   UNL A   1      36.915  33.775  29.351  1.00  0.00     0.010 A 
ATOM     42  C   UNL A   1      36.886  32.961  30.493  1.00  0.00    -0.014 A 
BRANCH  42  43
ATOM     43  C   UNL A   1      38.119  32.236  30.890  1.00  0.00     0.031 A 
ATOM     44  C   UNL A   1      38.994  32.799  31.976  1.00  0.00     0.074 A 
ATOM     45  C   UNL A   1      38.504  31.135  30.215  1.00  0.00     0.049 A 
ATOM     46  N   UNL A   1      40.161  32.385  32.401  1.00  0.00    -0.248 NA
ATOM     47  C   UNL A   1      38.520  34.027  32.635  1.00  0.00     0.031 C 
ATOM     48  C   UNL A   1      37.792  30.537  29.083  1.00  0.00     0.029 A 
ATOM     49  N   UNL A   1      39.601  30.328  30.377  1.00  0.00    -0.354 N 
ATOM     50  C   UNL A   1      40.568  33.320  33.343  1.00  0.00     0.074 A 
ATOM     51  C   UNL A   1      39.571  34.366  33.363  1.00  0.00     0.031 C 
ATOM     52  C   UNL A   1      38.452  29.442  28.676  1.00  0.00     0.029 A 
ATOM     53  C   UNL A   1      39.654  29.282  29.487  1.00  0.00     0.049 A 
ATOM     54  H   UNL A   1      40.287  30.483  31.067  1.00  0.00     0.167 HD
ATOM     55  C   UNL A   1      41.654  33.295  34.150  1.00  0.00     0.037 A 
ATOM     56  C   UNL A   1      40.571  28.307  29.339  1.00  0.00     0.037 A 
ATOM     57  C   UNL A   1      42.618  32.229  34.155  1.00  0.00     0.049 A 
ATOM     58  C   UNL A   1      41.750  28.268  30.270  1.00  0.00     0.074 A 
ATOM     59  C   UNL A   1      43.704  32.051  34.991  1.00  0.00     0.029 A 
ATOM     60  N   UNL A   1      42.607  31.156  33.274  1.00  0.00    -0.354 N 
ATOM     61  N   UNL A   1      42.077  29.107  31.224  1.00  0.00    -0.248 NA
ATOM     62  C   UNL A   1      42.682  27.144  30.112  1.00  0.00     0.031 C 
ATOM     63  C   UNL A   1      44.383  30.898  34.582  1.00  0.00     0.029 A 
ATOM     64  C   UNL A   1      43.687  30.327  33.528  1.00  0.00     0.049 A 
ATOM     65  H   UNL A   1      41.933  31.008  32.572  1.00  0.00     0.167 HD
ATOM     66  C   UNL A   1      43.240  28.605  31.792  1.00  0.00     0.074 A 
ATOM     67  C   UNL A   1      43.552  27.378  31.086  1.00  0.00     0.031 C 
ATOM     68  C   UNL A   1      43.983  29.112  32.808  1.00  0.00     0.037 A 
BRANCH  55  69
ATOM     69  C   UNL A   1      41.840  34.458  35.084  1.00  0.00     0.057 A 
ATOM     70  C   UNL A   1      41.289  34.475  36.374  1.00  0.00     0.134 A 
ATOM     71  C   UNL A   1      42.554  35.592  34.677  1.00  0.00     0.134 A 
ATOM     72  F   UNL A   1      40.579  33.429  36.824  1.00  0.00    -0.206 F 
ATOM     73  C   UNL A   1      41.393  35.594  37.201  1.00  0.00     0.040 A 
ATOM     74  C   UNL A   1      42.697  36.704  35.511  1.00  0.00     0.040 A 
ATOM     75  F   UNL A   1      43.115  35.646  33.459  1.00  0.00    -0.206 F 
ATOM     76  C   UNL A   1      42.103  36.712  36.771  1.00  0.00     0.006 A 
ENDBRANCH  55  69
BRANCH  56  77
ATOM     77  C   UNL A   1      40.381  27.277  28.288  1.00  0.00     0.057 A 
ATOM     78  C   UNL A   1      41.001  27.394  27.038  1.00  0.00     0.134 A 
ATOM     79  C   UNL A   1      39.610  26.130  28.519  1.00  0.00     0.134 A 
ATOM     80  F   UNL A   1      41.740  28.475  26.751  1.00  0.00    -0.206 F 
ATOM     81  C   UNL A   1      40.859  26.413  26.055  1.00  0.00     0.040 A 
ATOM     82  C   UNL A   1      39.478  25.130  27.554  1.00  0.00     0.040 A 
ATOM     83  F   UNL A   1      38.999  25.953  29.699  1.00  0.00    -0.206 F 
ATOM     84  C   UNL A   1      40.102  25.272  26.315  1.00  0.00     0.006 A 
ENDBRANCH  56  77
BRANCH  68  85
ATOM     85  C   UNL A   1      45.194  28.332  33.230  1.00  0.00     0.057 A 
ATOM     86  C   UNL A   1      45.118  27.302  34.175  1.00  0.00     0.134 A 
ATOM     87  C   UNL A   1      46.442  28.583  32.643  1.00  0.00     0.134 A 
ATOM     88  F   UNL A   1      43.956  27.018  34.781  1.00  0.00    -0.206 F 
ATOM     89  C   UNL A   1      46.245  26.563  34.538  1.00  0.00     0.040 A 
ATOM     90  C   UNL A   1      47.569  27.832  32.977  1.00  0.00     0.040 A 
ATOM     91  F   UNL A   1      46.580  29.549  31.723  1.00  0.00    -0.206 F 
ATOM     92  C   UNL A   1      47.474  26.822  33.932  1.00  0.00     0.006 A 
ENDBRANCH  68  85
ENDBRANCH  42  43
ENDBRANCH  34  37
ENDBRANCH  32  33
ENDBRANCH  31  32
ENDBRANCH  30  31
ENDBRANCH   1  30
TORSDOF 17
ENDMDL
