MODEL 1
REMARK VINA RESULT:     -11.6      0.000      0.000
REMARK SMILES Cc1onc(-c2ccccc2)c1C(=O)N1CCC[C@@H]1C(=O)NCCCCNC(=O)c1ccc(-c2c3nc(c(-c4c(F)cccc4F)c4ccc([nH]4)c(-c4c(F)cccc4F)c4nc(c(-c5c(F)cccc5F)c5ccc2[nH]5)C=C4)C=C3)cc1
REMARK SMILES IDX 24 1 23 2 22 3 20 4 21 5 19 7 15 8 16 9 17 10 18 11 13 12
REMARK SMILES IDX 14 13 12 14 1 15 2 16 3 17 4 18 5 19 6 20 7 21 11 22 8 23
REMARK SMILES IDX 10 24 9 25 25 26 26 27 27 28 28 29 29 31 30 32 31 33 83 34
REMARK SMILES IDX 32 35 82 36 33 37 34 38 35 39 76 40 36 41 81 42 75 43 77 44
REMARK SMILES IDX 37 45 80 46 74 47 73 48 38 50 64 51 47 52 63 53 48 54 51 55
REMARK SMILES IDX 62 56 78 57 49 58 50 59 61 61 79 62 52 63 39 64 40 65 45 66
REMARK SMILES IDX 41 67 42 68 44 69 46 70 43 71 65 72 66 73 71 74 67 75 68 76
REMARK SMILES IDX 70 77 72 78 69 79 53 80 54 81 59 82 55 83 56 84 58 85 60 86
REMARK SMILES IDX 57 87
REMARK H PARENT 22 6 27 30 77 49 51 60
REMARK Flexibility Score: inf
ROOT
ATOM      1  C   UNL A   1      33.225  27.571  25.033  1.00  0.00     0.023 C 
ENDROOT
BRANCH   1   2
ATOM      2  C   UNL A   1      33.993  26.284  24.757  1.00  0.00     0.116 C 
BRANCH   2   3
ATOM      3  N   UNL A   1      34.017  25.401  25.897  1.00  0.00    -0.354 N 
ATOM      4  C   UNL A   1      34.760  24.274  26.104  1.00  0.00     0.242 C 
ATOM      5  O   UNL A   1      34.448  23.576  27.075  1.00  0.00    -0.273 OA
ATOM      6  H   UNL A   1      33.412  25.645  26.632  1.00  0.00     0.163 HD
BRANCH   4   7
ATOM      7  C   UNL A   1      35.801  23.768  25.078  1.00  0.00     0.174 C 
ATOM      8  N   UNL A   1      35.602  22.422  24.531  1.00  0.00    -0.326 N 
ATOM      9  C   UNL A   1      36.896  21.833  24.245  1.00  0.00     0.121 C 
ATOM     10  C   UNL A   1      37.772  22.347  25.375  1.00  0.00     0.024 C 
ATOM     11  C   UNL A   1      37.218  23.744  25.676  1.00  0.00     0.037 C 
BRANCH   8  12
ATOM     12  C   UNL A   1      34.465  22.185  23.774  1.00  0.00     0.260 C 
ATOM     13  O   UNL A   1      34.294  22.809  22.725  1.00  0.00    -0.269 OA
BRANCH  12  14
ATOM     14  C   UNL A   1      33.427  21.295  24.281  1.00  0.00     0.110 A 
ATOM     15  C   UNL A   1      34.389  18.806  24.521  1.00  0.00     0.092 C 
ATOM     16  C   UNL A   1      33.449  19.942  24.588  1.00  0.00     0.147 A 
ATOM     17  O   UNL A   1      32.271  19.595  25.172  1.00  0.00    -0.360 OA
ATOM     18  N   UNL A   1      31.454  20.684  25.278  1.00  0.00    -0.079 NA
ATOM     19  C   UNL A   1      32.127  21.710  24.742  1.00  0.00     0.126 A 
BRANCH  19  20
ATOM     20  C   UNL A   1      31.502  23.025  24.700  1.00  0.00     0.004 A 
ATOM     21  C   UNL A   1      31.096  23.653  25.885  1.00  0.00     0.010 A 
ATOM     22  C   UNL A   1      31.253  23.646  23.471  1.00  0.00     0.010 A 
ATOM     23  C   UNL A   1      30.450  24.891  25.839  1.00  0.00     0.001 A 
ATOM     24  C   UNL A   1      30.602  24.879  23.427  1.00  0.00     0.001 A 
ATOM     25  C   UNL A   1      30.200  25.500  24.610  1.00  0.00     0.000 A 
ENDBRANCH  19  20
ENDBRANCH  12  14
ENDBRANCH   8  12
ENDBRANCH   4   7
ENDBRANCH   2   3
ENDBRANCH   1   2
BRANCH   1  26
ATOM     26  C   UNL A   1      33.996  28.625  25.824  1.00  0.00     0.023 C 
BRANCH  26  27
ATOM     27  C   UNL A   1      33.617  28.752  27.298  1.00  0.00     0.116 C 
BRANCH  27  28
ATOM     28  N   UNL A   1      33.695  30.113  27.809  1.00  0.00    -0.352 N 
ATOM     29  C   UNL A   1      34.769  30.757  28.375  1.00  0.00     0.251 C 
ATOM     30  H   UNL A   1      32.867  30.643  27.740  1.00  0.00     0.163 HD
ATOM     31  O   UNL A   1      34.649  31.894  28.824  1.00  0.00    -0.269 OA
BRANCH  29  32
ATOM     32  C   UNL A   1      36.056  30.043  28.491  1.00  0.00     0.039 A 
ATOM     33  C   UNL A   1      36.938  30.068  27.408  1.00  0.00     0.014 A 
ATOM     34  C   UNL A   1      36.418  29.425  29.690  1.00  0.00     0.014 A 
ATOM     35  C   UNL A   1      38.229  29.562  27.561  1.00  0.00     0.010 A 
ATOM     36  C   UNL A   1      37.721  28.967  29.858  1.00  0.00     0.010 A 
ATOM     37  C   UNL A   1      38.644  29.057  28.804  1.00  0.00    -0.014 A 
BRANCH  37  38
ATOM     38  C   UNL A   1      40.054  28.670  29.047  1.00  0.00     0.031 A 
ATOM     39  C   UNL A   1      41.017  29.656  29.637  1.00  0.00     0.074 A 
ATOM     40  C   UNL A   1      40.486  27.460  28.642  1.00  0.00     0.049 A 
ATOM     41  N   UNL A   1      42.311  29.547  29.801  1.00  0.00    -0.248 NA
ATOM     42  C   UNL A   1      40.457  30.941  30.078  1.00  0.00     0.031 C 
ATOM     43  C   UNL A   1      39.657  26.428  28.015  1.00  0.00     0.029 A 
ATOM     44  N   UNL A   1      41.738  26.900  28.683  1.00  0.00    -0.354 N 
ATOM     45  C   UNL A   1      42.724  30.758  30.337  1.00  0.00     0.074 A 
ATOM     46  C   UNL A   1      41.547  31.596  30.451  1.00  0.00     0.031 C 
ATOM     47  C   UNL A   1      40.420  25.358  27.740  1.00  0.00     0.029 A 
ATOM     48  C   UNL A   1      41.794  25.640  28.141  1.00  0.00     0.049 A 
ATOM     49  H   UNL A   1      42.521  27.359  29.063  1.00  0.00     0.167 HD
ATOM     50  C   UNL A   1      43.969  31.135  30.709  1.00  0.00     0.037 A 
ATOM     51  C   UNL A   1      42.840  24.808  27.975  1.00  0.00     0.037 A 
ATOM     52  C   UNL A   1      45.133  30.293  30.632  1.00  0.00     0.049 A 
ATOM     53  C   UNL A   1      44.207  25.243  28.415  1.00  0.00     0.074 A 
ATOM     54  C   UNL A   1      46.425  30.567  31.047  1.00  0.00     0.029 A 
ATOM     55  N   UNL A   1      45.144  29.012  30.105  1.00  0.00    -0.354 N 
ATOM     56  N   UNL A   1      44.576  26.376  28.959  1.00  0.00    -0.248 NA
ATOM     57  C   UNL A   1      45.303  24.283  28.217  1.00  0.00     0.031 C 
ATOM     58  C   UNL A   1      47.223  29.453  30.755  1.00  0.00     0.029 A 
ATOM     59  C   UNL A   1      46.421  28.482  30.177  1.00  0.00     0.049 A 
ATOM     60  H   UNL A   1      44.358  28.546  29.736  1.00  0.00     0.167 HD
ATOM     61  C   UNL A   1      45.941  26.264  29.182  1.00  0.00     0.074 A 
ATOM     62  C   UNL A   1      46.335  24.947  28.722  1.00  0.00     0.031 C 
ATOM     63  C   UNL A   1      46.791  27.170  29.718  1.00  0.00     0.037 A 
BRANCH  50  64
ATOM     64  C   UNL A   1      44.131  32.526  31.240  1.00  0.00     0.057 A 
ATOM     65  C   UNL A   1      44.420  33.603  30.394  1.00  0.00     0.134 A 
ATOM     66  C   UNL A   1      43.981  32.792  32.605  1.00  0.00     0.134 A 
ATOM     67  F   UNL A   1      44.591  33.408  29.078  1.00  0.00    -0.206 F 
ATOM     68  C   UNL A   1      44.574  34.898  30.892  1.00  0.00     0.040 A 
ATOM     69  C   UNL A   1      44.114  34.085  33.113  1.00  0.00     0.040 A 
ATOM     70  F   UNL A   1      43.702  31.801  33.466  1.00  0.00    -0.206 F 
ATOM     71  C   UNL A   1      44.417  35.141  32.256  1.00  0.00     0.006 A 
ENDBRANCH  50  64
BRANCH  51  72
ATOM     72  C   UNL A   1      42.630  23.470  27.377  1.00  0.00     0.057 A 
ATOM     73  C   UNL A   1      42.248  22.384  28.173  1.00  0.00     0.134 A 
ATOM     74  C   UNL A   1      42.801  23.244  26.008  1.00  0.00     0.134 A 
ATOM     75  F   UNL A   1      42.088  22.540  29.495  1.00  0.00    -0.206 F 
ATOM     76  C   UNL A   1      42.053  21.114  27.628  1.00  0.00     0.040 A 
ATOM     77  C   UNL A   1      42.595  21.982  25.447  1.00  0.00     0.040 A 
ATOM     78  F   UNL A   1      43.161  24.248  25.196  1.00  0.00    -0.206 F 
ATOM     79  C   UNL A   1      42.224  20.912  26.260  1.00  0.00     0.006 A 
ENDBRANCH  51  72
BRANCH  63  80
ATOM     80  C   UNL A   1      48.224  26.758  29.857  1.00  0.00     0.057 A 
ATOM     81  C   UNL A   1      49.167  27.050  28.866  1.00  0.00     0.134 A 
ATOM     82  C   UNL A   1      48.668  26.097  31.008  1.00  0.00     0.134 A 
ATOM     83  F   UNL A   1      48.795  27.668  27.735  1.00  0.00    -0.206 F 
ATOM     84  C   UNL A   1      50.507  26.687  29.010  1.00  0.00     0.040 A 
ATOM     85  C   UNL A   1      50.007  25.742  31.170  1.00  0.00     0.040 A 
ATOM     86  F   UNL A   1      47.809  25.792  31.993  1.00  0.00    -0.206 F 
ATOM     87  C   UNL A   1      50.930  26.036  30.168  1.00  0.00     0.006 A 
ENDBRANCH  63  80
ENDBRANCH  37  38
ENDBRANCH  29  32
ENDBRANCH  27  28
ENDBRANCH  26  27
ENDBRANCH   1  26
TORSDOF 14
ENDMDL
MODEL 2
REMARK VINA RESULT:     -11.5      1.152      2.619
REMARK SMILES Cc1onc(-c2ccccc2)c1C(=O)N1CCC[C@@H]1C(=O)NCCCCNC(=O)c1ccc(-c2c3nc(c(-c4c(F)cccc4F)c4ccc([nH]4)c(-c4c(F)cccc4F)c4nc(c(-c5c(F)cccc5F)c5ccc2[nH]5)C=C4)C=C3)cc1
REMARK SMILES IDX 24 1 23 2 22 3 20 4 21 5 19 7 15 8 16 9 17 10 18 11 13 12
REMARK SMILES IDX 14 13 12 14 1 15 2 16 3 17 4 18 5 19 6 20 7 21 11 22 8 23
REMARK SMILES IDX 10 24 9 25 25 26 26 27 27 28 28 29 29 31 30 32 31 33 83 34
REMARK SMILES IDX 32 35 82 36 33 37 34 38 35 39 76 40 36 41 81 42 75 43 77 44
REMARK SMILES IDX 37 45 80 46 74 47 73 48 38 50 64 51 47 52 63 53 48 54 51 55
REMARK SMILES IDX 62 56 78 57 49 58 50 59 61 61 79 62 52 63 39 64 40 65 45 66
REMARK SMILES IDX 41 67 42 68 44 69 46 70 43 71 65 72 66 73 71 74 67 75 68 76
REMARK SMILES IDX 70 77 72 78 69 79 53 80 54 81 59 82 55 83 56 84 58 85 60 86
REMARK SMILES IDX 57 87
REMARK H PARENT 22 6 27 30 77 49 51 60
REMARK Flexibility Score: inf
ROOT
ATOM      1  C   UNL A   1      31.588  27.651  27.038  1.00  0.00     0.023 C 
ENDROOT
BRANCH   1   2
ATOM      2  C   UNL A   1      32.027  26.285  26.522  1.00  0.00     0.116 C 
BRANCH   2   3
ATOM      3  N   UNL A   1      31.133  25.229  26.924  1.00  0.00    -0.354 N 
ATOM      4  C   UNL A   1      31.358  23.884  26.999  1.00  0.00     0.242 C 
ATOM      5  O   UNL A   1      30.367  23.166  27.172  1.00  0.00    -0.273 OA
ATOM      6  H   UNL A   1      30.229  25.518  27.184  1.00  0.00     0.163 HD
BRANCH   4   7
ATOM      7  C   UNL A   1      32.733  23.256  26.678  1.00  0.00     0.174 C 
ATOM      8  N   UNL A   1      32.761  22.176  25.685  1.00  0.00    -0.326 N 
ATOM      9  C   UNL A   1      33.827  21.252  26.024  1.00  0.00     0.121 C 
ATOM     10  C   UNL A   1      33.803  21.231  27.543  1.00  0.00     0.024 C 
ATOM     11  C   UNL A   1      33.387  22.653  27.933  1.00  0.00     0.037 C 
BRANCH   8  12
ATOM     12  C   UNL A   1      32.384  22.472  24.385  1.00  0.00     0.260 C 
ATOM     13  O   UNL A   1      31.858  21.598  23.692  1.00  0.00    -0.269 OA
BRANCH  12  14
ATOM     14  C   UNL A   1      32.719  23.769  23.809  1.00  0.00     0.110 A 
ATOM     15  C   UNL A   1      30.487  25.040  23.047  1.00  0.00     0.092 C 
ATOM     16  C   UNL A   1      31.918  24.782  23.302  1.00  0.00     0.147 A 
ATOM     17  O   UNL A   1      32.690  25.864  23.015  1.00  0.00    -0.360 OA
ATOM     18  N   UNL A   1      33.996  25.611  23.326  1.00  0.00    -0.079 NA
ATOM     19  C   UNL A   1      34.034  24.359  23.796  1.00  0.00     0.126 A 
BRANCH  19  20
ATOM     20  C   UNL A   1      35.311  23.792  24.208  1.00  0.00     0.004 A 
ATOM     21  C   UNL A   1      35.900  22.762  23.463  1.00  0.00     0.010 A 
ATOM     22  C   UNL A   1      35.929  24.235  25.383  1.00  0.00     0.010 A 
ATOM     23  C   UNL A   1      37.099  22.184  23.888  1.00  0.00     0.001 A 
ATOM     24  C   UNL A   1      37.123  23.652  25.809  1.00  0.00     0.001 A 
ATOM     25  C   UNL A   1      37.706  22.627  25.063  1.00  0.00     0.000 A 
ENDBRANCH  19  20
ENDBRANCH  12  14
ENDBRANCH   8  12
ENDBRANCH   4   7
ENDBRANCH   2   3
ENDBRANCH   1   2
BRANCH   1  26
ATOM     26  C   UNL A   1      32.351  28.837  26.453  1.00  0.00     0.023 C 
BRANCH  26  27
ATOM     27  C   UNL A   1      33.707  29.129  27.091  1.00  0.00     0.116 C 
BRANCH  27  28
ATOM     28  N   UNL A   1      33.767  30.408  27.784  1.00  0.00    -0.352 N 
ATOM     29  C   UNL A   1      34.811  30.950  28.496  1.00  0.00     0.251 C 
ATOM     30  H   UNL A   1      32.952  30.958  27.736  1.00  0.00     0.163 HD
ATOM     31  O   UNL A   1      34.676  32.020  29.084  1.00  0.00    -0.269 OA
BRANCH  29  32
ATOM     32  C   UNL A   1      36.080  30.202  28.593  1.00  0.00     0.039 A 
ATOM     33  C   UNL A   1      36.949  30.209  27.499  1.00  0.00     0.014 A 
ATOM     34  C   UNL A   1      36.440  29.569  29.785  1.00  0.00     0.014 A 
ATOM     35  C   UNL A   1      38.228  29.669  27.635  1.00  0.00     0.010 A 
ATOM     36  C   UNL A   1      37.732  29.077  29.936  1.00  0.00     0.010 A 
ATOM     37  C   UNL A   1      38.645  29.147  28.870  1.00  0.00    -0.014 A 
BRANCH  37  38
ATOM     38  C   UNL A   1      40.048  28.722  29.095  1.00  0.00     0.031 A 
ATOM     39  C   UNL A   1      41.044  29.682  29.673  1.00  0.00     0.074 A 
ATOM     40  C   UNL A   1      40.441  27.502  28.684  1.00  0.00     0.049 A 
ATOM     41  N   UNL A   1      42.336  29.538  29.820  1.00  0.00    -0.248 NA
ATOM     42  C   UNL A   1      40.524  30.981  30.122  1.00  0.00     0.031 C 
ATOM     43  C   UNL A   1      39.577  26.493  28.067  1.00  0.00     0.029 A 
ATOM     44  N   UNL A   1      41.679  26.908  28.708  1.00  0.00    -0.354 N 
ATOM     45  C   UNL A   1      42.789  30.738  30.351  1.00  0.00     0.074 A 
ATOM     46  C   UNL A   1      41.637  31.606  30.480  1.00  0.00     0.031 C 
ATOM     47  C   UNL A   1      40.308  25.403  27.782  1.00  0.00     0.029 A 
ATOM     48  C   UNL A   1      41.694  25.648  28.164  1.00  0.00     0.049 A 
ATOM     49  H   UNL A   1      42.479  27.346  29.078  1.00  0.00     0.167 HD
ATOM     50  C   UNL A   1      44.048  31.081  30.707  1.00  0.00     0.037 A 
ATOM     51  C   UNL A   1      42.715  24.789  27.985  1.00  0.00     0.037 A 
ATOM     52  C   UNL A   1      45.188  30.208  30.614  1.00  0.00     0.049 A 
ATOM     53  C   UNL A   1      44.098  25.186  28.408  1.00  0.00     0.074 A 
ATOM     54  C   UNL A   1      46.492  30.447  31.012  1.00  0.00     0.029 A 
ATOM     55  N   UNL A   1      45.157  28.927  30.087  1.00  0.00    -0.354 N 
ATOM     56  N   UNL A   1      44.505  26.309  28.947  1.00  0.00    -0.248 NA
ATOM     57  C   UNL A   1      45.166  24.198  28.194  1.00  0.00     0.031 C 
ATOM     58  C   UNL A   1      47.256  29.312  30.709  1.00  0.00     0.029 A 
ATOM     59  C   UNL A   1      46.421  28.364  30.141  1.00  0.00     0.049 A 
ATOM     60  H   UNL A   1      44.355  28.483  29.728  1.00  0.00     0.167 HD
ATOM     61  C   UNL A   1      45.869  26.160  29.152  1.00  0.00     0.074 A 
ATOM     62  C   UNL A   1      46.221  24.833  28.686  1.00  0.00     0.031 C 
ATOM     63  C   UNL A   1      46.750  27.042  29.678  1.00  0.00     0.037 A 
BRANCH  50  64
ATOM     64  C   UNL A   1      44.254  32.466  31.236  1.00  0.00     0.057 A 
ATOM     65  C   UNL A   1      44.558  33.537  30.387  1.00  0.00     0.134 A 
ATOM     66  C   UNL A   1      44.131  32.735  32.604  1.00  0.00     0.134 A 
ATOM     67  F   UNL A   1      44.705  33.338  29.069  1.00  0.00    -0.206 F 
ATOM     68  C   UNL A   1      44.753  34.826  30.884  1.00  0.00     0.040 A 
ATOM     69  C   UNL A   1      44.305  34.023  33.111  1.00  0.00     0.040 A 
ATOM     70  F   UNL A   1      43.839  31.750  33.468  1.00  0.00    -0.206 F 
ATOM     71  C   UNL A   1      44.624  35.072  32.250  1.00  0.00     0.006 A 
ENDBRANCH  50  64
BRANCH  51  72
ATOM     72  C   UNL A   1      42.461  23.456  27.389  1.00  0.00     0.057 A 
ATOM     73  C   UNL A   1      42.074  22.378  28.191  1.00  0.00     0.134 A 
ATOM     74  C   UNL A   1      42.596  23.231  26.016  1.00  0.00     0.134 A 
ATOM     75  F   UNL A   1      41.948  22.533  29.517  1.00  0.00    -0.206 F 
ATOM     76  C   UNL A   1      41.838  21.114  27.649  1.00  0.00     0.040 A 
ATOM     77  C   UNL A   1      42.348  21.976  25.457  1.00  0.00     0.040 A 
ATOM     78  F   UNL A   1      42.959  24.229  25.198  1.00  0.00    -0.206 F 
ATOM     79  C   UNL A   1      41.972  20.912  26.276  1.00  0.00     0.006 A 
ENDBRANCH  51  72
BRANCH  63  80
ATOM     80  C   UNL A   1      48.172  26.592  29.797  1.00  0.00     0.057 A 
ATOM     81  C   UNL A   1      49.111  26.862  28.795  1.00  0.00     0.134 A 
ATOM     82  C   UNL A   1      48.613  25.915  30.941  1.00  0.00     0.134 A 
ATOM     83  F   UNL A   1      48.742  27.494  27.671  1.00  0.00    -0.206 F 
ATOM     84  C   UNL A   1      50.443  26.464  28.922  1.00  0.00     0.040 A 
ATOM     85  C   UNL A   1      49.945  25.524  31.085  1.00  0.00     0.040 A 
ATOM     86  F   UNL A   1      47.758  25.630  31.935  1.00  0.00    -0.206 F 
ATOM     87  C   UNL A   1      50.863  25.798  30.073  1.00  0.00     0.006 A 
ENDBRANCH  63  80
ENDBRANCH  37  38
ENDBRANCH  29  32
ENDBRANCH  27  28
ENDBRANCH  26  27
ENDBRANCH   1  26
TORSDOF 14
ENDMDL
MODEL 3
REMARK VINA RESULT:     -11.5      1.926      7.142
REMARK SMILES Cc1onc(-c2ccccc2)c1C(=O)N1CCC[C@@H]1C(=O)NCCCCNC(=O)c1ccc(-c2c3nc(c(-c4c(F)cccc4F)c4ccc([nH]4)c(-c4c(F)cccc4F)c4nc(c(-c5c(F)cccc5F)c5ccc2[nH]5)C=C4)C=C3)cc1
REMARK SMILES IDX 24 1 23 2 22 3 20 4 21 5 19 7 15 8 16 9 17 10 18 11 13 12
REMARK SMILES IDX 14 13 12 14 1 15 2 16 3 17 4 18 5 19 6 20 7 21 11 22 8 23
REMARK SMILES IDX 10 24 9 25 25 26 26 27 27 28 28 29 29 31 30 32 31 33 83 34
REMARK SMILES IDX 32 35 82 36 33 37 34 38 35 39 76 40 36 41 81 42 75 43 77 44
REMARK SMILES IDX 37 45 80 46 74 47 73 48 38 50 64 51 47 52 63 53 48 54 51 55
REMARK SMILES IDX 62 56 78 57 49 58 50 59 61 61 79 62 52 63 39 64 40 65 45 66
REMARK SMILES IDX 41 67 42 68 44 69 46 70 43 71 65 72 66 73 71 74 67 75 68 76
REMARK SMILES IDX 70 77 72 78 69 79 53 80 54 81 59 82 55 83 56 84 58 85 60 86
REMARK SMILES IDX 57 87
REMARK H PARENT 22 6 27 30 77 49 51 60
REMARK Flexibility Score: inf
ROOT
ATOM      1  C   UNL A   1      37.212  21.904  24.251  1.00  0.00     0.023 C 
ENDROOT
BRANCH   1   2
ATOM      2  C   UNL A   1      35.696  22.066  24.250  1.00  0.00     0.116 C 
BRANCH   2   3
ATOM      3  N   UNL A   1      35.265  23.218  23.498  1.00  0.00    -0.354 N 
ATOM      4  C   UNL A   1      34.001  23.610  23.160  1.00  0.00     0.242 C 
ATOM      5  O   UNL A   1      33.907  24.523  22.333  1.00  0.00    -0.273 OA
ATOM      6  H   UNL A   1      35.986  23.809  23.183  1.00  0.00     0.163 HD
BRANCH   4   7
ATOM      7  C   UNL A   1      32.745  22.830  23.613  1.00  0.00     0.174 C 
ATOM      8  N   UNL A   1      32.683  22.419  25.020  1.00  0.00    -0.326 N 
ATOM      9  C   UNL A   1      31.948  21.172  25.114  1.00  0.00     0.121 C 
ATOM     10  C   UNL A   1      32.363  20.425  23.858  1.00  0.00     0.024 C 
ATOM     11  C   UNL A   1      32.570  21.527  22.815  1.00  0.00     0.037 C 
BRANCH   8  12
ATOM     12  C   UNL A   1      32.646  23.409  25.990  1.00  0.00     0.260 C 
ATOM     13  O   UNL A   1      33.612  23.558  26.741  1.00  0.00    -0.269 OA
BRANCH  12  14
ATOM     14  C   UNL A   1      31.426  24.181  26.193  1.00  0.00     0.110 A 
ATOM     15  C   UNL A   1      29.508  22.615  27.217  1.00  0.00     0.092 C 
ATOM     16  C   UNL A   1      30.190  23.823  26.713  1.00  0.00     0.147 A 
ATOM     17  O   UNL A   1      29.416  24.935  26.838  1.00  0.00    -0.360 OA
ATOM     18  N   UNL A   1      30.104  26.041  26.424  1.00  0.00    -0.079 NA
ATOM     19  C   UNL A   1      31.307  25.607  26.028  1.00  0.00     0.126 A 
BRANCH  19  20
ATOM     20  C   UNL A   1      32.275  26.568  25.518  1.00  0.00     0.004 A 
ATOM     21  C   UNL A   1      33.121  27.255  26.399  1.00  0.00     0.010 A 
ATOM     22  C   UNL A   1      32.329  26.852  24.149  1.00  0.00     0.010 A 
ATOM     23  C   UNL A   1      34.013  28.214  25.914  1.00  0.00     0.001 A 
ATOM     24  C   UNL A   1      33.216  27.815  23.666  1.00  0.00     0.001 A 
ATOM     25  C   UNL A   1      34.056  28.496  24.549  1.00  0.00     0.000 A 
ENDBRANCH  19  20
ENDBRANCH  12  14
ENDBRANCH   8  12
ENDBRANCH   4   7
ENDBRANCH   2   3
ENDBRANCH   1   2
BRANCH   1  26
ATOM     26  C   UNL A   1      37.722  20.618  24.899  1.00  0.00     0.023 C 
BRANCH  26  27
ATOM     27  C   UNL A   1      38.924  20.780  25.826  1.00  0.00     0.116 C 
BRANCH  27  28
ATOM     28  N   UNL A   1      39.879  19.684  25.746  1.00  0.00    -0.352 N 
ATOM     29  C   UNL A   1      41.217  19.685  26.064  1.00  0.00     0.251 C 
ATOM     30  H   UNL A   1      39.518  18.827  25.421  1.00  0.00     0.163 HD
ATOM     31  O   UNL A   1      41.904  18.685  25.872  1.00  0.00    -0.269 OA
BRANCH  29  32
ATOM     32  C   UNL A   1      41.830  20.922  26.586  1.00  0.00     0.039 A 
ATOM     33  C   UNL A   1      42.365  21.840  25.680  1.00  0.00     0.014 A 
ATOM     34  C   UNL A   1      41.801  21.205  27.954  1.00  0.00     0.014 A 
ATOM     35  C   UNL A   1      42.778  23.093  26.135  1.00  0.00     0.010 A 
ATOM     36  C   UNL A   1      42.165  22.471  28.399  1.00  0.00     0.010 A 
ATOM     37  C   UNL A   1      42.631  23.434  27.489  1.00  0.00    -0.014 A 
BRANCH  37  38
ATOM     38  C   UNL A   1      42.901  24.809  27.972  1.00  0.00     0.031 A 
ATOM     39  C   UNL A   1      44.284  25.203  28.397  1.00  0.00     0.074 A 
ATOM     40  C   UNL A   1      41.876  25.670  28.121  1.00  0.00     0.049 A 
ATOM     41  N   UNL A   1      44.687  26.309  28.967  1.00  0.00    -0.248 NA
ATOM     42  C   UNL A   1      45.348  24.214  28.174  1.00  0.00     0.031 C 
ATOM     43  C   UNL A   1      40.477  25.392  27.785  1.00  0.00     0.029 A 
ATOM     44  N   UNL A   1      41.851  26.952  28.610  1.00  0.00    -0.354 N 
ATOM     45  C   UNL A   1      46.045  26.140  29.197  1.00  0.00     0.074 A 
ATOM     46  C   UNL A   1      46.393  24.815  28.725  1.00  0.00     0.031 C 
ATOM     47  C   UNL A   1      39.734  26.474  28.068  1.00  0.00     0.029 A 
ATOM     48  C   UNL A   1      40.595  27.506  28.634  1.00  0.00     0.049 A 
ATOM     49  H   UNL A   1      42.656  27.427  28.918  1.00  0.00     0.167 HD
ATOM     50  C   UNL A   1      46.923  27.012  29.743  1.00  0.00     0.037 A 
ATOM     51  C   UNL A   1      40.182  28.710  29.073  1.00  0.00     0.037 A 
ATOM     52  C   UNL A   1      46.589  28.341  30.179  1.00  0.00     0.049 A 
ATOM     53  C   UNL A   1      41.181  29.666  29.656  1.00  0.00     0.074 A 
ATOM     54  C   UNL A   1      47.426  29.320  30.685  1.00  0.00     0.029 A 
ATOM     55  N   UNL A   1      45.311  28.878  30.157  1.00  0.00    -0.354 N 
ATOM     56  N   UNL A   1      42.470  29.508  29.830  1.00  0.00    -0.248 NA
ATOM     57  C   UNL A   1      40.666  30.968  30.106  1.00  0.00     0.031 C 
ATOM     58  C   UNL A   1      46.650  30.446  30.986  1.00  0.00     0.029 A 
ATOM     59  C   UNL A   1      45.335  30.172  30.649  1.00  0.00     0.049 A 
ATOM     60  H   UNL A   1      44.507  28.408  29.839  1.00  0.00     0.167 HD
ATOM     61  C   UNL A   1      42.925  30.691  30.394  1.00  0.00     0.074 A 
ATOM     62  C   UNL A   1      41.775  31.563  30.527  1.00  0.00     0.031 C 
ATOM     63  C   UNL A   1      44.182  31.024  30.769  1.00  0.00     0.037 A 
BRANCH  50  64
ATOM     64  C   UNL A   1      48.339  26.549  29.894  1.00  0.00     0.057 A 
ATOM     65  C   UNL A   1      49.304  26.811  28.915  1.00  0.00     0.134 A 
ATOM     66  C   UNL A   1      48.744  25.848  31.035  1.00  0.00     0.134 A 
ATOM     67  F   UNL A   1      48.973  27.465  27.792  1.00  0.00    -0.206 F 
ATOM     68  C   UNL A   1      50.622  26.375  29.057  1.00  0.00     0.040 A 
ATOM     69  C   UNL A   1      50.063  25.422  31.198  1.00  0.00     0.040 A 
ATOM     70  F   UNL A   1      47.865  25.566  32.010  1.00  0.00    -0.206 F 
ATOM     71  C   UNL A   1      51.005  25.680  30.203  1.00  0.00     0.006 A 
ENDBRANCH  50  64
BRANCH  51  72
ATOM     72  C   UNL A   1      38.753  29.085  28.963  1.00  0.00     0.057 A 
ATOM     73  C   UNL A   1      37.899  28.973  30.064  1.00  0.00     0.134 A 
ATOM     74  C   UNL A   1      38.212  29.563  27.766  1.00  0.00     0.134 A 
ATOM     75  F   UNL A   1      38.361  28.503  31.232  1.00  0.00    -0.206 F 
ATOM     76  C   UNL A   1      36.549  29.314  29.978  1.00  0.00     0.040 A 
ATOM     77  C   UNL A   1      36.867  29.923  27.668  1.00  0.00     0.040 A 
ATOM     78  F   UNL A   1      38.985  29.697  26.679  1.00  0.00    -0.206 F 
ATOM     79  C   UNL A   1      36.030  29.794  28.776  1.00  0.00     0.006 A 
ENDBRANCH  51  72
BRANCH  63  80
ATOM     80  C   UNL A   1      44.380  32.395  31.335  1.00  0.00     0.057 A 
ATOM     81  C   UNL A   1      44.638  33.497  30.511  1.00  0.00     0.134 A 
ATOM     82  C   UNL A   1      44.276  32.620  32.714  1.00  0.00     0.134 A 
ATOM     83  F   UNL A   1      44.764  33.338  29.185  1.00  0.00    -0.206 F 
ATOM     84  C   UNL A   1      44.797  34.778  31.041  1.00  0.00     0.040 A 
ATOM     85  C   UNL A   1      44.418  33.899  33.253  1.00  0.00     0.040 A 
ATOM     86  F   UNL A   1      44.028  31.603  33.552  1.00  0.00    -0.206 F 
ATOM     87  C   UNL A   1      44.681  34.981  32.416  1.00  0.00     0.006 A 
ENDBRANCH  63  80
ENDBRANCH  37  38
ENDBRANCH  29  32
ENDBRANCH  27  28
ENDBRANCH  26  27
ENDBRANCH   1  26
TORSDOF 14
ENDMDL
