MODEL 1
REMARK VINA RESULT:     -13.1      0.000      0.000
REMARK SMILES COc1cccc(/C=C2/C(=O)N(c3cccc(C(=O)NCCCCNC(=O)c4ccc(-c5c6nc(c(-c7c(F)cccc7F)c7ccc([nH]7)c(-c7c(F)cccc7F)c7nc(c(-c8c(F)cccc8F)c8ccc5[nH]8)C=C7)C=C6)cc4)c3)N=C2C)c1
REMARK SMILES IDX 22 1 21 2 20 3 18 4 19 5 17 7 13 8 14 9 82 10 15 11 16 12
REMARK SMILES IDX 12 13 8 14 9 15 10 16 84 17 11 18 83 19 85 20 7 21 3 22 4 23
REMARK SMILES IDX 86 24 5 25 6 26 2 27 1 28 23 29 24 30 25 31 26 32 27 34
REMARK SMILES IDX 28 35 29 36 81 37 30 38 80 39 31 40 32 41 33 42 74 43 34 44
REMARK SMILES IDX 79 45 73 46 75 47 35 48 78 49 72 50 71 51 36 53 62 54 45 55
REMARK SMILES IDX 61 56 46 57 49 58 60 59 76 60 47 61 48 62 59 64 77 65 50 66
REMARK SMILES IDX 37 67 38 68 43 69 39 70 40 71 42 72 44 73 41 74 63 75 64 76
REMARK SMILES IDX 69 77 65 78 66 79 68 80 70 81 67 82 51 83 52 84 57 85 53 86
REMARK SMILES IDX 54 87 56 88 58 89 55 90
REMARK H PARENT 20 6 25 33 75 52 49 63
REMARK Flexibility Score: inf
ROOT
ATOM      1  C   UNL A   1      31.432  30.516  26.226  1.00  0.00     0.023 C 
ENDROOT
BRANCH   1   2
ATOM      2  C   UNL A   1      32.808  29.914  25.967  1.00  0.00     0.116 C 
BRANCH   2   3
ATOM      3  N   UNL A   1      33.127  29.703  24.561  1.00  0.00    -0.352 N 
ATOM      4  C   UNL A   1      32.554  28.888  23.604  1.00  0.00     0.251 C 
ATOM      5  O   UNL A   1      33.023  28.900  22.467  1.00  0.00    -0.269 OA
ATOM      6  H   UNL A   1      33.886  30.238  24.234  1.00  0.00     0.163 HD
BRANCH   4   7
ATOM      7  C   UNL A   1      31.463  27.930  23.931  1.00  0.00     0.041 A 
ATOM      8  C   UNL A   1      30.776  25.663  24.405  1.00  0.00     0.069 A 
ATOM      9  C   UNL A   1      29.484  25.976  23.958  1.00  0.00     0.028 A 
ATOM     10  C   UNL A   1      31.709  26.693  24.527  1.00  0.00     0.042 A 
ATOM     11  C   UNL A   1      29.159  27.281  23.579  1.00  0.00     0.003 A 
ATOM     12  C   UNL A   1      30.161  28.246  23.521  1.00  0.00     0.014 A 
BRANCH   8  13
ATOM     13  N   UNL A   1      31.178  24.311  24.546  1.00  0.00    -0.196 N 
ATOM     14  C   UNL A   1      32.995  21.541  25.794  1.00  0.00     0.024 C 
ATOM     15  C   UNL A   1      32.333  22.437  25.049  1.00  0.00     0.065 C 
ATOM     16  C   UNL A   1      31.910  23.748  25.604  1.00  0.00     0.280 C 
ATOM     17  C   UNL A   1      31.845  22.453  23.659  1.00  0.00     0.071 C 
ATOM     18  O   UNL A   1      32.203  24.177  26.702  1.00  0.00    -0.267 OA
ATOM     19  N   UNL A   1      31.141  23.524  23.397  1.00  0.00    -0.169 NA
ATOM     20  C   UNL A   1      32.171  21.436  22.617  1.00  0.00     0.069 C 
BRANCH  14  21
ATOM     21  C   UNL A   1      33.408  20.212  25.351  1.00  0.00    -0.021 A 
ATOM     22  C   UNL A   1      32.971  17.840  25.112  1.00  0.00     0.119 A 
ATOM     23  C   UNL A   1      34.279  17.658  24.656  1.00  0.00     0.046 A 
ATOM     24  C   UNL A   1      32.532  19.122  25.443  1.00  0.00     0.054 A 
ATOM     25  C   UNL A   1      35.138  18.747  24.510  1.00  0.00     0.004 A 
ATOM     26  C   UNL A   1      34.705  20.024  24.861  1.00  0.00     0.008 A 
BRANCH  22  27
ATOM     27  O   UNL A   1      32.245  16.689  25.248  1.00  0.00    -0.497 OA
ATOM     28  C   UNL A   1      32.967  15.467  25.173  1.00  0.00     0.278 C 
ENDBRANCH  22  27
ENDBRANCH  14  21
ENDBRANCH   8  13
ENDBRANCH   4   7
ENDBRANCH   2   3
ENDBRANCH   1   2
BRANCH   1  29
ATOM     29  C   UNL A   1      31.391  32.010  26.513  1.00  0.00     0.023 C 
BRANCH  29  30
ATOM     30  C   UNL A   1      32.649  32.598  27.136  1.00  0.00     0.116 C 
BRANCH  30  31
ATOM     31  N   UNL A   1      32.485  33.964  27.615  1.00  0.00    -0.352 N 
ATOM     32  C   UNL A   1      33.193  34.643  28.579  1.00  0.00     0.251 C 
ATOM     33  H   UNL A   1      31.762  34.476  27.186  1.00  0.00     0.163 HD
ATOM     34  O   UNL A   1      32.837  35.765  28.929  1.00  0.00    -0.269 OA
BRANCH  32  35
ATOM     35  C   UNL A   1      34.365  34.007  29.220  1.00  0.00     0.039 A 
ATOM     36  C   UNL A   1      34.160  32.939  30.098  1.00  0.00     0.014 A 
ATOM     37  C   UNL A   1      35.661  34.448  28.946  1.00  0.00     0.014 A 
ATOM     38  C   UNL A   1      35.258  32.273  30.645  1.00  0.00     0.010 A 
ATOM     39  C   UNL A   1      36.752  33.720  29.409  1.00  0.00     0.010 A 
ATOM     40  C   UNL A   1      36.566  32.635  30.276  1.00  0.00    -0.014 A 
BRANCH  40  41
ATOM     41  C   UNL A   1      37.745  31.907  30.811  1.00  0.00     0.031 A 
ATOM     42  C   UNL A   1      38.274  32.233  32.183  1.00  0.00     0.074 A 
ATOM     43  C   UNL A   1      38.370  30.986  30.050  1.00  0.00     0.049 A 
ATOM     44  N   UNL A   1      39.306  31.731  32.813  1.00  0.00    -0.248 NA
ATOM     45  C   UNL A   1      37.567  33.282  32.935  1.00  0.00     0.031 C 
ATOM     46  C   UNL A   1      37.990  30.617  28.684  1.00  0.00     0.029 A 
ATOM     47  N   UNL A   1      39.457  30.194  30.316  1.00  0.00    -0.354 N 
ATOM     48  C   UNL A   1      39.375  32.410  34.024  1.00  0.00     0.074 A 
ATOM     49  C   UNL A   1      38.329  33.405  34.011  1.00  0.00     0.031 C 
ATOM     50  C   UNL A   1      38.808  29.646  28.247  1.00  0.00     0.029 A 
ATOM     51  C   UNL A   1      39.792  29.351  29.284  1.00  0.00     0.049 A 
ATOM     52  H   UNL A   1      39.951  30.225  31.167  1.00  0.00     0.167 HD
ATOM     53  C   UNL A   1      40.213  32.202  35.067  1.00  0.00     0.037 A 
ATOM     54  C   UNL A   1      40.783  28.444  29.184  1.00  0.00     0.037 A 
ATOM     55  C   UNL A   1      41.245  31.198  35.085  1.00  0.00     0.049 A 
ATOM     56  C   UNL A   1      41.709  28.238  30.353  1.00  0.00     0.074 A 
ATOM     57  C   UNL A   1      42.117  30.876  36.110  1.00  0.00     0.029 A 
ATOM     58  N   UNL A   1      41.544  30.356  34.024  1.00  0.00    -0.354 N 
ATOM     59  N   UNL A   1      41.716  28.838  31.520  1.00  0.00    -0.248 NA
ATOM     60  C   UNL A   1      42.755  27.220  30.195  1.00  0.00     0.031 C 
ATOM     61  C   UNL A   1      42.979  29.875  35.650  1.00  0.00     0.029 A 
ATOM     62  C   UNL A   1      42.602  29.528  34.363  1.00  0.00     0.049 A 
ATOM     63  H   UNL A   1      41.075  30.349  33.158  1.00  0.00     0.167 HD
ATOM     64  C   UNL A   1      42.741  28.243  32.246  1.00  0.00     0.074 A 
ATOM     65  C   UNL A   1      43.320  27.227  31.393  1.00  0.00     0.031 C 
ATOM     66  C   UNL A   1      43.162  28.512  33.507  1.00  0.00     0.037 A 
BRANCH  53  67
ATOM     67  C   UNL A   1      40.043  33.077  36.276  1.00  0.00     0.057 A 
ATOM     68  C   UNL A   1      40.786  34.255  36.448  1.00  0.00     0.134 A 
ATOM     69  C   UNL A   1      39.110  32.756  37.270  1.00  0.00     0.134 A 
ATOM     70  F   UNL A   1      41.707  34.617  35.543  1.00  0.00    -0.206 F 
ATOM     71  C   UNL A   1      40.630  35.061  37.578  1.00  0.00     0.040 A 
ATOM     72  C   UNL A   1      38.921  33.572  38.387  1.00  0.00     0.040 A 
ATOM     73  F   UNL A   1      38.360  31.648  37.168  1.00  0.00    -0.206 F 
ATOM     74  C   UNL A   1      39.689  34.723  38.548  1.00  0.00     0.006 A 
ENDBRANCH  53  67
BRANCH  54  75
ATOM     75  C   UNL A   1      40.936  27.634  27.947  1.00  0.00     0.057 A 
ATOM     76  C   UNL A   1      40.281  26.404  27.802  1.00  0.00     0.134 A 
ATOM     77  C   UNL A   1      41.753  28.056  26.893  1.00  0.00     0.134 A 
ATOM     78  F   UNL A   1      39.497  25.936  28.784  1.00  0.00    -0.206 F 
ATOM     79  C   UNL A   1      40.456  25.611  26.666  1.00  0.00     0.040 A 
ATOM     80  C   UNL A   1      41.914  27.286  25.738  1.00  0.00     0.040 A 
ATOM     81  F   UNL A   1      42.401  29.227  26.963  1.00  0.00    -0.206 F 
ATOM     82  C   UNL A   1      41.272  26.054  25.628  1.00  0.00     0.006 A 
ENDBRANCH  54  75
BRANCH  66  83
ATOM     83  C   UNL A   1      44.264  27.655  34.061  1.00  0.00     0.057 A 
ATOM     84  C   UNL A   1      44.013  26.440  34.710  1.00  0.00     0.134 A 
ATOM     85  C   UNL A   1      45.603  28.046  33.920  1.00  0.00     0.134 A 
ATOM     86  F   UNL A   1      42.755  26.011  34.889  1.00  0.00    -0.206 F 
ATOM     87  C   UNL A   1      45.050  25.662  35.230  1.00  0.00     0.040 A 
ATOM     88  C   UNL A   1      46.649  27.261  34.405  1.00  0.00     0.040 A 
ATOM     89  F   UNL A   1      45.917  29.193  33.298  1.00  0.00    -0.206 F 
ATOM     90  C   UNL A   1      46.373  26.070  35.072  1.00  0.00     0.006 A 
ENDBRANCH  66  83
ENDBRANCH  40  41
ENDBRANCH  32  35
ENDBRANCH  30  31
ENDBRANCH  29  30
ENDBRANCH   1  29
TORSDOF 14
ENDMDL
MODEL 2
REMARK VINA RESULT:     -12.9      1.014      6.196
REMARK SMILES COc1cccc(/C=C2/C(=O)N(c3cccc(C(=O)NCCCCNC(=O)c4ccc(-c5c6nc(c(-c7c(F)cccc7F)c7ccc([nH]7)c(-c7c(F)cccc7F)c7nc(c(-c8c(F)cccc8F)c8ccc5[nH]8)C=C7)C=C6)cc4)c3)N=C2C)c1
REMARK SMILES IDX 22 1 21 2 20 3 18 4 19 5 17 7 13 8 14 9 82 10 15 11 16 12
REMARK SMILES IDX 12 13 8 14 9 15 10 16 84 17 11 18 83 19 85 20 7 21 3 22 4 23
REMARK SMILES IDX 86 24 5 25 6 26 2 27 1 28 23 29 24 30 25 31 26 32 27 34
REMARK SMILES IDX 28 35 29 36 81 37 30 38 80 39 31 40 32 41 33 42 74 43 34 44
REMARK SMILES IDX 79 45 73 46 75 47 35 48 78 49 72 50 71 51 36 53 62 54 45 55
REMARK SMILES IDX 61 56 46 57 49 58 60 59 76 60 47 61 48 62 59 64 77 65 50 66
REMARK SMILES IDX 37 67 38 68 43 69 39 70 40 71 42 72 44 73 41 74 63 75 64 76
REMARK SMILES IDX 69 77 65 78 66 79 68 80 70 81 67 82 51 83 52 84 57 85 53 86
REMARK SMILES IDX 54 87 56 88 58 89 55 90
REMARK H PARENT 20 6 25 33 75 52 49 63
REMARK Flexibility Score: inf
ROOT
ATOM      1  C   UNL A   1      31.481  30.617  26.456  1.00  0.00     0.023 C 
ENDROOT
BRANCH   1   2
ATOM      2  C   UNL A   1      32.823  29.943  26.202  1.00  0.00     0.116 C 
BRANCH   2   3
ATOM      3  N   UNL A   1      33.169  29.783  24.796  1.00  0.00    -0.352 N 
ATOM      4  C   UNL A   1      32.610  29.008  23.798  1.00  0.00     0.251 C 
ATOM      5  O   UNL A   1      33.101  29.059  22.671  1.00  0.00    -0.269 OA
ATOM      6  H   UNL A   1      33.939  30.323  24.505  1.00  0.00     0.163 HD
BRANCH   4   7
ATOM      7  C   UNL A   1      31.505  28.048  24.066  1.00  0.00     0.041 A 
ATOM      8  C   UNL A   1      30.795  25.772  24.459  1.00  0.00     0.069 A 
ATOM      9  C   UNL A   1      29.518  26.104  23.983  1.00  0.00     0.028 A 
ATOM     10  C   UNL A   1      31.728  26.794  24.637  1.00  0.00     0.042 A 
ATOM     11  C   UNL A   1      29.210  27.419  23.630  1.00  0.00     0.003 A 
ATOM     12  C   UNL A   1      30.218  28.381  23.627  1.00  0.00     0.014 A 
BRANCH   8  13
ATOM     13  N   UNL A   1      31.187  24.415  24.575  1.00  0.00    -0.196 N 
ATOM     14  C   UNL A   1      32.949  21.602  25.807  1.00  0.00     0.024 C 
ATOM     15  C   UNL A   1      32.317  22.522  25.065  1.00  0.00     0.065 C 
ATOM     16  C   UNL A   1      31.879  23.818  25.642  1.00  0.00     0.280 C 
ATOM     17  C   UNL A   1      31.879  22.580  23.660  1.00  0.00     0.071 C 
ATOM     18  O   UNL A   1      32.134  24.215  26.761  1.00  0.00    -0.267 OA
ATOM     19  N   UNL A   1      31.189  23.661  23.403  1.00  0.00    -0.169 NA
ATOM     20  C   UNL A   1      32.238  21.592  22.601  1.00  0.00     0.069 C 
BRANCH  14  21
ATOM     21  C   UNL A   1      33.373  20.285  25.340  1.00  0.00    -0.021 A 
ATOM     22  C   UNL A   1      32.930  17.925  25.003  1.00  0.00     0.119 A 
ATOM     23  C   UNL A   1      34.257  17.746  24.605  1.00  0.00     0.046 A 
ATOM     24  C   UNL A   1      32.485  19.200  25.354  1.00  0.00     0.054 A 
ATOM     25  C   UNL A   1      35.131  18.831  24.537  1.00  0.00     0.004 A 
ATOM     26  C   UNL A   1      34.691  20.101  24.908  1.00  0.00     0.008 A 
BRANCH  22  27
ATOM     27  O   UNL A   1      32.189  16.778  25.066  1.00  0.00    -0.497 OA
ATOM     28  C   UNL A   1      32.901  15.572  25.313  1.00  0.00     0.278 C 
ENDBRANCH  22  27
ENDBRANCH  14  21
ENDBRANCH   8  13
ENDBRANCH   4   7
ENDBRANCH   2   3
ENDBRANCH   1   2
BRANCH   1  29
ATOM     29  C   UNL A   1      31.480  32.138  26.472  1.00  0.00     0.023 C 
BRANCH  29  30
ATOM     30  C   UNL A   1      32.585  32.792  27.290  1.00  0.00     0.116 C 
BRANCH  30  31
ATOM     31  N   UNL A   1      32.326  34.186  27.622  1.00  0.00    -0.352 N 
ATOM     32  C   UNL A   1      32.950  34.996  28.541  1.00  0.00     0.251 C 
ATOM     33  H   UNL A   1      31.597  34.610  27.114  1.00  0.00     0.163 HD
ATOM     34  O   UNL A   1      32.518  36.124  28.762  1.00  0.00    -0.269 OA
BRANCH  32  35
ATOM     35  C   UNL A   1      34.124  34.495  29.291  1.00  0.00     0.039 A 
ATOM     36  C   UNL A   1      33.933  33.954  30.564  1.00  0.00     0.014 A 
ATOM     37  C   UNL A   1      35.405  34.542  28.736  1.00  0.00     0.014 A 
ATOM     38  C   UNL A   1      35.016  33.399  31.250  1.00  0.00     0.010 A 
ATOM     39  C   UNL A   1      36.459  33.899  29.374  1.00  0.00     0.010 A 
ATOM     40  C   UNL A   1      36.283  33.333  30.644  1.00  0.00    -0.014 A 
BRANCH  40  41
ATOM     41  C   UNL A   1      37.435  32.704  31.339  1.00  0.00     0.031 A 
ATOM     42  C   UNL A   1      38.117  31.505  30.733  1.00  0.00     0.074 A 
ATOM     43  C   UNL A   1      37.842  33.177  32.533  1.00  0.00     0.049 A 
ATOM     44  N   UNL A   1      39.117  30.800  31.197  1.00  0.00    -0.248 NA
ATOM     45  C   UNL A   1      37.587  31.018  29.449  1.00  0.00     0.031 C 
ATOM     46  C   UNL A   1      37.232  34.298  33.253  1.00  0.00     0.029 A 
ATOM     47  N   UNL A   1      38.865  32.775  33.353  1.00  0.00    -0.354 N 
ATOM     48  C   UNL A   1      39.324  29.785  30.269  1.00  0.00     0.074 A 
ATOM     49  C   UNL A   1      38.304  29.922  29.256  1.00  0.00     0.031 C 
ATOM     50  C   UNL A   1      37.915  34.515  34.389  1.00  0.00     0.029 A 
ATOM     51  C   UNL A   1      38.984  33.527  34.497  1.00  0.00     0.049 A 
ATOM     52  H   UNL A   1      39.458  32.018  33.143  1.00  0.00     0.167 HD
ATOM     53  C   UNL A   1      40.297  28.842  30.246  1.00  0.00     0.037 A 
ATOM     54  C   UNL A   1      39.857  33.431  35.519  1.00  0.00     0.037 A 
ATOM     55  C   UNL A   1      41.323  28.717  31.248  1.00  0.00     0.049 A 
ATOM     56  C   UNL A   1      40.921  32.369  35.475  1.00  0.00     0.074 A 
ATOM     57  C   UNL A   1      42.380  27.825  31.292  1.00  0.00     0.029 A 
ATOM     58  N   UNL A   1      41.416  29.506  32.384  1.00  0.00    -0.354 N 
ATOM     59  N   UNL A   1      41.149  31.460  34.556  1.00  0.00    -0.248 NA
ATOM     60  C   UNL A   1      41.859  32.326  36.605  1.00  0.00     0.031 C 
ATOM     61  C   UNL A   1      43.082  28.041  32.482  1.00  0.00     0.029 A 
ATOM     62  C   UNL A   1      42.502  29.109  33.147  1.00  0.00     0.049 A 
ATOM     63  H   UNL A   1      40.800  30.240  32.615  1.00  0.00     0.167 HD
ATOM     64  C   UNL A   1      42.277  30.766  34.978  1.00  0.00     0.074 A 
ATOM     65  C   UNL A   1      42.692  31.368  36.227  1.00  0.00     0.031 C 
ATOM     66  C   UNL A   1      42.912  29.726  34.383  1.00  0.00     0.037 A 
BRANCH  53  67
ATOM     67  C   UNL A   1      40.295  27.875  29.095  1.00  0.00     0.057 A 
ATOM     68  C   UNL A   1      39.535  26.697  29.119  1.00  0.00     0.134 A 
ATOM     69  C   UNL A   1      41.041  28.134  27.939  1.00  0.00     0.134 A 
ATOM     70  F   UNL A   1      38.806  26.379  30.201  1.00  0.00    -0.206 F 
ATOM     71  C   UNL A   1      39.543  25.798  28.051  1.00  0.00     0.040 A 
ATOM     72  C   UNL A   1      41.031  27.260  26.851  1.00  0.00     0.040 A 
ATOM     73  F   UNL A   1      41.787  29.246  27.844  1.00  0.00    -0.206 F 
ATOM     74  C   UNL A   1      40.288  26.083  26.909  1.00  0.00     0.006 A 
ENDBRANCH  53  67
BRANCH  54  75
ATOM     75  C   UNL A   1      39.787  34.385  36.656  1.00  0.00     0.057 A 
ATOM     76  C   UNL A   1      40.428  35.629  36.598  1.00  0.00     0.134 A 
ATOM     77  C   UNL A   1      39.099  34.071  37.834  1.00  0.00     0.134 A 
ATOM     78  F   UNL A   1      41.119  35.982  35.504  1.00  0.00    -0.206 F 
ATOM     79  C   UNL A   1      40.412  36.513  37.679  1.00  0.00     0.040 A 
ATOM     80  C   UNL A   1      39.050  34.958  38.911  1.00  0.00     0.040 A 
ATOM     81  F   UNL A   1      38.455  32.901  37.952  1.00  0.00    -0.206 F 
ATOM     82  C   UNL A   1      39.717  36.179  38.839  1.00  0.00     0.006 A 
ENDBRANCH  54  75
BRANCH  66  83
ATOM     83  C   UNL A   1      44.158  29.211  35.047  1.00  0.00     0.057 A 
ATOM     84  C   UNL A   1      45.429  29.712  34.741  1.00  0.00     0.134 A 
ATOM     85  C   UNL A   1      44.077  28.212  36.027  1.00  0.00     0.134 A 
ATOM     86  F   UNL A   1      45.580  30.662  33.806  1.00  0.00    -0.206 F 
ATOM     87  C   UNL A   1      46.578  29.213  35.359  1.00  0.00     0.040 A 
ATOM     88  C   UNL A   1      45.214  27.730  36.675  1.00  0.00     0.040 A 
ATOM     89  F   UNL A   1      42.889  27.695  36.378  1.00  0.00    -0.206 F 
ATOM     90  C   UNL A   1      46.471  28.223  36.334  1.00  0.00     0.006 A 
ENDBRANCH  66  83
ENDBRANCH  40  41
ENDBRANCH  32  35
ENDBRANCH  30  31
ENDBRANCH  29  30
ENDBRANCH   1  29
TORSDOF 14
ENDMDL
MODEL 3
REMARK VINA RESULT:     -12.8      3.436      4.628
REMARK SMILES COc1cccc(/C=C2/C(=O)N(c3cccc(C(=O)NCCCCNC(=O)c4ccc(-c5c6nc(c(-c7c(F)cccc7F)c7ccc([nH]7)c(-c7c(F)cccc7F)c7nc(c(-c8c(F)cccc8F)c8ccc5[nH]8)C=C7)C=C6)cc4)c3)N=C2C)c1
REMARK SMILES IDX 22 1 21 2 20 3 18 4 19 5 17 7 13 8 14 9 82 10 15 11 16 12
REMARK SMILES IDX 12 13 8 14 9 15 10 16 84 17 11 18 83 19 85 20 7 21 3 22 4 23
REMARK SMILES IDX 86 24 5 25 6 26 2 27 1 28 23 29 24 30 25 31 26 32 27 34
REMARK SMILES IDX 28 35 29 36 81 37 30 38 80 39 31 40 32 41 33 42 74 43 34 44
REMARK SMILES IDX 79 45 73 46 75 47 35 48 78 49 72 50 71 51 36 53 62 54 45 55
REMARK SMILES IDX 61 56 46 57 49 58 60 59 76 60 47 61 48 62 59 64 77 65 50 66
REMARK SMILES IDX 37 67 38 68 43 69 39 70 40 71 42 72 44 73 41 74 63 75 64 76
REMARK SMILES IDX 69 77 65 78 66 79 68 80 70 81 67 82 51 83 52 84 57 85 53 86
REMARK SMILES IDX 54 87 56 88 58 89 55 90
REMARK H PARENT 20 6 25 33 75 52 49 63
REMARK Flexibility Score: inf
ROOT
ATOM      1  C   UNL A   1      33.131  29.439  24.645  1.00  0.00     0.023 C 
ENDROOT
BRANCH   1   2
ATOM      2  C   UNL A   1      32.981  28.767  23.286  1.00  0.00     0.116 C 
BRANCH   2   3
ATOM      3  N   UNL A   1      32.017  29.400  22.396  1.00  0.00    -0.352 N 
ATOM      4  C   UNL A   1      30.645  29.269  22.290  1.00  0.00     0.251 C 
ATOM      5  O   UNL A   1      30.057  29.933  21.438  1.00  0.00    -0.269 OA
ATOM      6  H   UNL A   1      32.413  30.034  21.756  1.00  0.00     0.163 HD
BRANCH   4   7
ATOM      7  C   UNL A   1      29.879  28.283  23.100  1.00  0.00     0.041 A 
ATOM      8  C   UNL A   1      29.731  26.075  24.070  1.00  0.00     0.069 A 
ATOM      9  C   UNL A   1      28.333  26.186  24.072  1.00  0.00     0.028 A 
ATOM     10  C   UNL A   1      30.489  27.194  23.724  1.00  0.00     0.042 A 
ATOM     11  C   UNL A   1      27.712  27.370  23.670  1.00  0.00     0.003 A 
ATOM     12  C   UNL A   1      28.484  28.401  23.139  1.00  0.00     0.014 A 
BRANCH   8  13
ATOM     13  N   UNL A   1      30.351  24.811  24.231  1.00  0.00    -0.196 N 
ATOM     14  C   UNL A   1      32.178  22.231  25.824  1.00  0.00     0.024 C 
ATOM     15  C   UNL A   1      31.642  23.111  24.967  1.00  0.00     0.065 C 
ATOM     16  C   UNL A   1      30.763  24.213  25.433  1.00  0.00     0.280 C 
ATOM     17  C   UNL A   1      31.694  23.277  23.504  1.00  0.00     0.071 C 
ATOM     18  O   UNL A   1      30.538  24.493  26.594  1.00  0.00    -0.267 OA
ATOM     19  N   UNL A   1      30.908  24.237  23.090  1.00  0.00    -0.169 NA
ATOM     20  C   UNL A   1      32.592  22.526  22.580  1.00  0.00     0.069 C 
BRANCH  14  21
ATOM     21  C   UNL A   1      33.012  21.090  25.455  1.00  0.00    -0.021 A 
ATOM     22  C   UNL A   1      35.197  20.120  25.053  1.00  0.00     0.119 A 
ATOM     23  C   UNL A   1      34.580  18.958  24.583  1.00  0.00     0.046 A 
ATOM     24  C   UNL A   1      34.410  21.180  25.504  1.00  0.00     0.054 A 
ATOM     25  C   UNL A   1      33.191  18.842  24.583  1.00  0.00     0.004 A 
ATOM     26  C   UNL A   1      32.405  19.909  25.015  1.00  0.00     0.008 A 
BRANCH  22  27
ATOM     27  O   UNL A   1      36.562  20.123  24.963  1.00  0.00    -0.497 OA
ATOM     28  C   UNL A   1      37.212  21.368  25.183  1.00  0.00     0.278 C 
ENDBRANCH  22  27
ENDBRANCH  14  21
ENDBRANCH   8  13
ENDBRANCH   4   7
ENDBRANCH   2   3
ENDBRANCH   1   2
BRANCH   1  29
ATOM     29  C   UNL A   1      32.927  28.552  25.864  1.00  0.00     0.023 C 
BRANCH  29  30
ATOM     30  C   UNL A   1      33.930  28.738  26.994  1.00  0.00     0.116 C 
BRANCH  30  31
ATOM     31  N   UNL A   1      33.837  30.032  27.656  1.00  0.00    -0.352 N 
ATOM     32  C   UNL A   1      34.779  30.702  28.402  1.00  0.00     0.251 C 
ATOM     33  H   UNL A   1      32.975  30.495  27.555  1.00  0.00     0.163 HD
ATOM     34  O   UNL A   1      34.480  31.744  28.979  1.00  0.00    -0.269 OA
BRANCH  32  35
ATOM     35  C   UNL A   1      36.144  30.148  28.537  1.00  0.00     0.039 A 
ATOM     36  C   UNL A   1      37.027  30.252  27.459  1.00  0.00     0.014 A 
ATOM     37  C   UNL A   1      36.560  29.545  29.726  1.00  0.00     0.014 A 
ATOM     38  C   UNL A   1      38.345  29.811  27.600  1.00  0.00     0.010 A 
ATOM     39  C   UNL A   1      37.897  29.202  29.898  1.00  0.00     0.010 A 
ATOM     40  C   UNL A   1      38.802  29.316  28.833  1.00  0.00    -0.014 A 
BRANCH  40  41
ATOM     41  C   UNL A   1      40.212  28.887  29.015  1.00  0.00     0.031 A 
ATOM     42  C   UNL A   1      41.210  29.824  29.646  1.00  0.00     0.074 A 
ATOM     43  C   UNL A   1      40.611  27.677  28.574  1.00  0.00     0.049 A 
ATOM     44  N   UNL A   1      42.488  29.647  29.864  1.00  0.00    -0.248 NA
ATOM     45  C   UNL A   1      40.710  31.145  30.059  1.00  0.00     0.031 C 
ATOM     46  C   UNL A   1      39.756  26.698  27.898  1.00  0.00     0.029 A 
ATOM     47  N   UNL A   1      41.837  27.065  28.629  1.00  0.00    -0.354 N 
ATOM     48  C   UNL A   1      42.941  30.834  30.428  1.00  0.00     0.074 A 
ATOM     49  C   UNL A   1      41.822  31.746  30.451  1.00  0.00     0.031 C 
ATOM     50  C   UNL A   1      40.475  25.596  27.633  1.00  0.00     0.029 A 
ATOM     51  C   UNL A   1      41.848  25.803  28.084  1.00  0.00     0.049 A 
ATOM     52  H   UNL A   1      42.634  27.489  29.021  1.00  0.00     0.167 HD
ATOM     53  C   UNL A   1      44.172  31.128  30.913  1.00  0.00     0.037 A 
ATOM     54  C   UNL A   1      42.852  24.914  27.962  1.00  0.00     0.037 A 
ATOM     55  C   UNL A   1      45.282  30.211  30.904  1.00  0.00     0.049 A 
ATOM     56  C   UNL A   1      44.213  25.267  28.498  1.00  0.00     0.074 A 
ATOM     57  C   UNL A   1      46.556  30.395  31.411  1.00  0.00     0.029 A 
ATOM     58  N   UNL A   1      45.249  28.938  30.355  1.00  0.00    -0.354 N 
ATOM     59  N   UNL A   1      44.610  26.368  29.094  1.00  0.00    -0.248 NA
ATOM     60  C   UNL A   1      45.264  24.250  28.357  1.00  0.00     0.031 C 
ATOM     61  C   UNL A   1      47.309  29.253  31.122  1.00  0.00     0.029 A 
ATOM     62  C   UNL A   1      46.487  28.332  30.493  1.00  0.00     0.049 A 
ATOM     63  H   UNL A   1      44.462  28.526  29.928  1.00  0.00     0.167 HD
ATOM     64  C   UNL A   1      45.941  26.158  29.432  1.00  0.00     0.074 A 
ATOM     65  C   UNL A   1      46.279  24.823  28.988  1.00  0.00     0.031 C 
ATOM     66  C   UNL A   1      46.806  26.996  30.057  1.00  0.00     0.037 A 
BRANCH  53  67
ATOM     67  C   UNL A   1      44.376  32.497  31.496  1.00  0.00     0.057 A 
ATOM     68  C   UNL A   1      44.811  33.578  30.715  1.00  0.00     0.134 A 
ATOM     69  C   UNL A   1      44.112  32.748  32.849  1.00  0.00     0.134 A 
ATOM     70  F   UNL A   1      45.096  33.407  29.415  1.00  0.00    -0.206 F 
ATOM     71  C   UNL A   1      45.008  34.846  31.264  1.00  0.00     0.040 A 
ATOM     72  C   UNL A   1      44.272  34.020  33.402  1.00  0.00     0.040 A 
ATOM     73  F   UNL A   1      43.686  31.762  33.654  1.00  0.00    -0.206 F 
ATOM     74  C   UNL A   1      44.730  35.071  32.611  1.00  0.00     0.006 A 
ENDBRANCH  53  67
BRANCH  54  75
ATOM     75  C   UNL A   1      42.608  23.588  27.335  1.00  0.00     0.057 A 
ATOM     76  C   UNL A   1      42.251  22.477  28.108  1.00  0.00     0.134 A 
ATOM     77  C   UNL A   1      42.746  23.395  25.956  1.00  0.00     0.134 A 
ATOM     78  F   UNL A   1      42.120  22.593  29.438  1.00  0.00    -0.206 F 
ATOM     79  C   UNL A   1      42.067  21.215  27.538  1.00  0.00     0.040 A 
ATOM     80  C   UNL A   1      42.536  22.145  25.368  1.00  0.00     0.040 A 
ATOM     81  F   UNL A   1      43.076  24.419  25.156  1.00  0.00    -0.206 F 
ATOM     82  C   UNL A   1      42.206  21.049  26.162  1.00  0.00     0.006 A 
ENDBRANCH  54  75
BRANCH  66  83
ATOM     83  C   UNL A   1      48.182  26.470  30.349  1.00  0.00     0.057 A 
ATOM     84  C   UNL A   1      48.487  25.788  31.534  1.00  0.00     0.134 A 
ATOM     85  C   UNL A   1      49.214  26.631  29.415  1.00  0.00     0.134 A 
ATOM     86  F   UNL A   1      47.548  25.608  32.476  1.00  0.00    -0.206 F 
ATOM     87  C   UNL A   1      49.774  25.317  31.794  1.00  0.00     0.040 A 
ATOM     88  C   UNL A   1      50.497  26.135  29.649  1.00  0.00     0.040 A 
ATOM     89  F   UNL A   1      48.991  27.264  28.253  1.00  0.00    -0.206 F 
ATOM     90  C   UNL A   1      50.783  25.485  30.847  1.00  0.00     0.006 A 
ENDBRANCH  66  83
ENDBRANCH  40  41
ENDBRANCH  32  35
ENDBRANCH  30  31
ENDBRANCH  29  30
ENDBRANCH   1  29
TORSDOF 14
ENDMDL
