MODEL 1
REMARK VINA RESULT:     -12.3      0.000      0.000
REMARK SMILES O=C(NCCCCNC(=O)[C@@H]1CCC[N@@H+](Cc2cccc3ccccc23)C1)c1ccc(-c2c3nc(c(-c4c(F)cccc4F)c4ccc([nH]4)c(-c4c(F)cccc4F)c4nc(c(-c5c(F)cccc5F)c5ccc2[nH]5)C=C4)C=C3)cc1
REMARK SMILES IDX 5 1 4 2 3 3 1 4 2 5 28 7 29 8 81 9 30 10 80 11 31 12 32 13
REMARK SMILES IDX 33 14 74 15 34 16 79 17 73 18 75 19 35 20 78 21 72 22 71 23
REMARK SMILES IDX 36 25 62 26 45 27 61 28 46 29 49 30 60 31 76 32 47 33 48 34
REMARK SMILES IDX 59 36 77 37 50 38 37 39 38 40 43 41 39 42 40 43 42 44 44 45
REMARK SMILES IDX 41 46 63 47 64 48 69 49 65 50 66 51 68 52 70 53 67 54 51 55
REMARK SMILES IDX 52 56 57 57 53 58 54 59 56 60 58 61 55 62 6 63 7 64 8 65
REMARK SMILES IDX 9 66 10 68 11 69 12 70 27 71 13 72 15 73 14 74 16 76 17 77
REMARK SMILES IDX 18 78 26 79 19 80 21 81 25 82 20 83 22 84 24 85 23 86
REMARK H PARENT 3 6 75 24 49 35 8 67 15 75
REMARK Flexibility Score: inf
ROOT
ATOM      1  C   UNL A   1      37.389  21.191  24.642  1.00  0.00     0.023 C 
ENDROOT
BRANCH   1   2
ATOM      2  C   UNL A   1      38.472  21.089  25.717  1.00  0.00     0.116 C 
BRANCH   2   3
ATOM      3  N   UNL A   1      39.436  20.006  25.541  1.00  0.00    -0.352 N 
ATOM      4  O   UNL A   1      41.372  18.848  25.701  1.00  0.00    -0.269 OA
ATOM      5  C   UNL A   1      40.753  19.883  25.935  1.00  0.00     0.251 C 
ATOM      6  H   UNL A   1      39.085  19.226  25.054  1.00  0.00     0.163 HD
BRANCH   5   7
ATOM      7  C   UNL A   1      41.453  21.020  26.567  1.00  0.00     0.039 A 
ATOM      8  C   UNL A   1      41.469  21.171  27.948  1.00  0.00     0.014 A 
ATOM      9  C   UNL A   1      42.042  21.994  25.753  1.00  0.00     0.014 A 
ATOM     10  C   UNL A   1      41.793  22.406  28.489  1.00  0.00     0.010 A 
ATOM     11  C   UNL A   1      42.505  23.187  26.319  1.00  0.00     0.010 A 
ATOM     12  C   UNL A   1      42.307  23.436  27.685  1.00  0.00    -0.014 A 
BRANCH  12  13
ATOM     13  C   UNL A   1      42.615  24.751  28.310  1.00  0.00     0.031 A 
ATOM     14  C   UNL A   1      44.031  25.146  28.649  1.00  0.00     0.074 A 
ATOM     15  C   UNL A   1      41.612  25.633  28.488  1.00  0.00     0.049 A 
ATOM     16  N   UNL A   1      44.472  26.271  29.156  1.00  0.00    -0.248 NA
ATOM     17  C   UNL A   1      45.090  24.155  28.397  1.00  0.00     0.031 C 
ATOM     18  C   UNL A   1      40.199  25.367  28.203  1.00  0.00     0.029 A 
ATOM     19  N   UNL A   1      41.624  26.939  28.901  1.00  0.00    -0.354 N 
ATOM     20  C   UNL A   1      45.845  26.111  29.314  1.00  0.00     0.074 A 
ATOM     21  C   UNL A   1      46.166  24.775  28.863  1.00  0.00     0.031 C 
ATOM     22  C   UNL A   1      39.495  26.495  28.368  1.00  0.00     0.029 A 
ATOM     23  C   UNL A   1      40.390  27.540  28.849  1.00  0.00     0.049 A 
ATOM     24  H   UNL A   1      42.438  27.403  29.205  1.00  0.00     0.167 HD
ATOM     25  C   UNL A   1      46.751  27.000  29.787  1.00  0.00     0.037 A 
ATOM     26  C   UNL A   1      40.010  28.791  29.168  1.00  0.00     0.037 A 
ATOM     27  C   UNL A   1      46.434  28.344  30.200  1.00  0.00     0.049 A 
ATOM     28  C   UNL A   1      41.039  29.755  29.675  1.00  0.00     0.074 A 
ATOM     29  C   UNL A   1      47.287  29.323  30.680  1.00  0.00     0.029 A 
ATOM     30  N   UNL A   1      45.165  28.900  30.169  1.00  0.00    -0.354 N 
ATOM     31  N   UNL A   1      42.328  29.578  29.832  1.00  0.00    -0.248 NA
ATOM     32  C   UNL A   1      40.559  31.088  30.063  1.00  0.00     0.031 C 
ATOM     33  C   UNL A   1      46.529  30.464  30.967  1.00  0.00     0.029 A 
ATOM     34  C   UNL A   1      45.210  30.207  30.630  1.00  0.00     0.049 A 
ATOM     35  H   UNL A   1      44.352  28.438  29.863  1.00  0.00     0.167 HD
ATOM     36  C   UNL A   1      42.812  30.772  30.344  1.00  0.00     0.074 A 
ATOM     37  C   UNL A   1      41.686  31.678  30.434  1.00  0.00     0.031 C 
ATOM     38  C   UNL A   1      44.075  31.086  30.722  1.00  0.00     0.037 A 
BRANCH  25  39
ATOM     39  C   UNL A   1      48.181  26.552  29.900  1.00  0.00     0.057 A 
ATOM     40  C   UNL A   1      48.649  25.839  31.009  1.00  0.00     0.134 A 
ATOM     41  C   UNL A   1      49.081  26.776  28.849  1.00  0.00     0.134 A 
ATOM     42  F   UNL A   1      47.841  25.600  32.054  1.00  0.00    -0.206 F 
ATOM     43  C   UNL A   1      49.963  25.370  31.074  1.00  0.00     0.040 A 
ATOM     44  C   UNL A   1      50.392  26.295  28.894  1.00  0.00     0.040 A 
ATOM     45  F   UNL A   1      48.696  27.447  27.753  1.00  0.00    -0.206 F 
ATOM     46  C   UNL A   1      50.835  25.591  30.010  1.00  0.00     0.006 A 
ENDBRANCH  25  39
BRANCH  26  47
ATOM     47  C   UNL A   1      38.586  29.184  29.038  1.00  0.00     0.057 A 
ATOM     48  C   UNL A   1      37.718  29.139  30.134  1.00  0.00     0.134 A 
ATOM     49  C   UNL A   1      38.066  29.632  27.818  1.00  0.00     0.134 A 
ATOM     50  F   UNL A   1      38.153  28.703  31.324  1.00  0.00    -0.206 F 
ATOM     51  C   UNL A   1      36.379  29.518  30.018  1.00  0.00     0.040 A 
ATOM     52  C   UNL A   1      36.738  30.040  27.695  1.00  0.00     0.040 A 
ATOM     53  F   UNL A   1      38.850  29.706  26.733  1.00  0.00    -0.206 F 
ATOM     54  C   UNL A   1      35.888  29.978  28.797  1.00  0.00     0.006 A 
ENDBRANCH  26  47
BRANCH  38  55
ATOM     55  C   UNL A   1      44.287  32.466  31.264  1.00  0.00     0.057 A 
ATOM     56  C   UNL A   1      44.193  32.736  32.634  1.00  0.00     0.134 A 
ATOM     57  C   UNL A   1      44.586  33.533  30.409  1.00  0.00     0.134 A 
ATOM     58  F   UNL A   1      43.893  31.756  33.501  1.00  0.00    -0.206 F 
ATOM     59  C   UNL A   1      44.359  34.027  33.135  1.00  0.00     0.040 A 
ATOM     60  C   UNL A   1      44.777  34.825  30.900  1.00  0.00     0.040 A 
ATOM     61  F   UNL A   1      44.695  33.338  29.086  1.00  0.00    -0.206 F 
ATOM     62  C   UNL A   1      44.656  35.075  32.265  1.00  0.00     0.006 A 
ENDBRANCH  38  55
ENDBRANCH  12  13
ENDBRANCH   5   7
ENDBRANCH   2   3
ENDBRANCH   1   2
BRANCH   1  63
ATOM     63  C   UNL A   1      35.990  20.697  25.006  1.00  0.00     0.023 C 
BRANCH  63  64
ATOM     64  C   UNL A   1      35.285  21.428  26.140  1.00  0.00     0.116 C 
BRANCH  64  65
ATOM     65  N   UNL A   1      34.957  22.816  25.967  1.00  0.00    -0.356 N 
ATOM     66  C   UNL A   1      33.727  23.394  25.830  1.00  0.00     0.228 C 
ATOM     67  H   UNL A   1      35.723  23.436  25.945  1.00  0.00     0.163 HD
ATOM     68  O   UNL A   1      33.728  24.633  25.806  1.00  0.00    -0.275 OA
BRANCH  66  69
ATOM     69  C   UNL A   1      32.381  22.640  25.625  1.00  0.00     0.133 C 
ATOM     70  C   UNL A   1      32.346  21.983  24.225  1.00  0.00     0.025 C 
ATOM     71  C   UNL A   1      31.022  23.312  25.851  1.00  0.00     0.276 C 
ATOM     72  C   UNL A   1      31.941  22.986  23.137  1.00  0.00     0.062 C 
ATOM     73  N   UNL A   1      30.774  24.304  24.822  1.00  0.00    -0.331 N 
ATOM     74  C   UNL A   1      30.660  23.759  23.482  1.00  0.00     0.262 C 
ATOM     75  H   UNL A   1      31.661  24.807  24.785  1.00  0.00     0.348 HD
BRANCH  73  76
ATOM     76  C   UNL A   1      29.966  25.465  25.159  1.00  0.00     0.299 C 
BRANCH  76  77
ATOM     77  C   UNL A   1      30.336  26.834  24.650  1.00  0.00     0.014 A 
ATOM     78  C   UNL A   1      29.719  27.280  23.467  1.00  0.00     0.010 A 
ATOM     79  C   UNL A   1      31.107  27.744  25.438  1.00  0.00    -0.010 A 
ATOM     80  C   UNL A   1      29.842  28.599  23.052  1.00  0.00     0.001 A 
ATOM     81  C   UNL A   1      31.210  29.089  25.004  1.00  0.00    -0.018 A 
ATOM     82  C   UNL A   1      31.752  27.411  26.657  1.00  0.00     0.009 A 
ATOM     83  C   UNL A   1      30.579  29.495  23.818  1.00  0.00     0.009 A 
ATOM     84  C   UNL A   1      31.916  30.028  25.774  1.00  0.00     0.009 A 
ATOM     85  C   UNL A   1      32.442  28.358  27.417  1.00  0.00     0.001 A 
ATOM     86  C   UNL A   1      32.524  29.668  26.975  1.00  0.00     0.001 A 
ENDBRANCH  76  77
ENDBRANCH  73  76
ENDBRANCH  66  69
ENDBRANCH  64  65
ENDBRANCH  63  64
ENDBRANCH   1  63
TORSDOF 13
ENDMDL
MODEL 2
REMARK VINA RESULT:     -12.2      2.798      7.970
REMARK SMILES O=C(NCCCCNC(=O)[C@@H]1CCC[N@@H+](Cc2cccc3ccccc23)C1)c1ccc(-c2c3nc(c(-c4c(F)cccc4F)c4ccc([nH]4)c(-c4c(F)cccc4F)c4nc(c(-c5c(F)cccc5F)c5ccc2[nH]5)C=C4)C=C3)cc1
REMARK SMILES IDX 5 1 4 2 3 3 1 4 2 5 28 7 29 8 81 9 30 10 80 11 31 12 32 13
REMARK SMILES IDX 33 14 74 15 34 16 79 17 73 18 75 19 35 20 78 21 72 22 71 23
REMARK SMILES IDX 36 25 62 26 45 27 61 28 46 29 49 30 60 31 76 32 47 33 48 34
REMARK SMILES IDX 59 36 77 37 50 38 37 39 38 40 43 41 39 42 40 43 42 44 44 45
REMARK SMILES IDX 41 46 63 47 64 48 69 49 65 50 66 51 68 52 70 53 67 54 51 55
REMARK SMILES IDX 52 56 57 57 53 58 54 59 56 60 58 61 55 62 6 63 7 64 8 65
REMARK SMILES IDX 9 66 10 68 11 69 12 70 27 71 13 72 15 73 14 74 16 76 17 77
REMARK SMILES IDX 18 78 26 79 19 80 21 81 25 82 20 83 22 84 24 85 23 86
REMARK H PARENT 3 6 75 24 49 35 8 67 15 75
REMARK Flexibility Score: inf
ROOT
ATOM      1  C   UNL A   1      33.203  30.084  26.639  1.00  0.00     0.023 C 
ENDROOT
BRANCH   1   2
ATOM      2  C   UNL A   1      34.465  29.707  27.416  1.00  0.00     0.116 C 
BRANCH   2   3
ATOM      3  N   UNL A   1      34.732  30.504  28.611  1.00  0.00    -0.352 N 
ATOM      4  O   UNL A   1      35.878  31.423  30.330  1.00  0.00    -0.269 OA
ATOM      5  C   UNL A   1      35.877  30.662  29.365  1.00  0.00     0.251 C 
ATOM      6  H   UNL A   1      33.958  31.018  28.936  1.00  0.00     0.163 HD
BRANCH   5   7
ATOM      7  C   UNL A   1      37.082  29.859  29.072  1.00  0.00     0.039 A 
ATOM      8  C   UNL A   1      37.711  29.127  30.071  1.00  0.00     0.014 A 
ATOM      9  C   UNL A   1      37.634  29.903  27.787  1.00  0.00     0.014 A 
ATOM     10  C   UNL A   1      39.016  28.698  29.874  1.00  0.00     0.010 A 
ATOM     11  C   UNL A   1      38.893  29.341  27.551  1.00  0.00     0.010 A 
ATOM     12  C   UNL A   1      39.631  28.806  28.616  1.00  0.00    -0.014 A 
BRANCH  12  13
ATOM     13  C   UNL A   1      41.041  28.354  28.464  1.00  0.00     0.031 A 
ATOM     14  C   UNL A   1      41.373  26.937  28.069  1.00  0.00     0.074 A 
ATOM     15  C   UNL A   1      42.027  29.263  28.595  1.00  0.00     0.049 A 
ATOM     16  N   UNL A   1      42.547  26.397  27.852  1.00  0.00    -0.248 NA
ATOM     17  C   UNL A   1      40.250  26.000  27.902  1.00  0.00     0.031 C 
ATOM     18  C   UNL A   1      41.835  30.664  28.980  1.00  0.00     0.029 A 
ATOM     19  N   UNL A   1      43.377  29.164  28.377  1.00  0.00    -0.354 N 
ATOM     20  C   UNL A   1      42.308  25.059  27.559  1.00  0.00     0.074 A 
ATOM     21  C   UNL A   1      40.877  24.861  27.638  1.00  0.00     0.031 C 
ATOM     22  C   UNL A   1      43.003  31.312  28.889  1.00  0.00     0.029 A 
ATOM     23  C   UNL A   1      44.042  30.357  28.521  1.00  0.00     0.049 A 
ATOM     24  H   UNL A   1      43.826  28.321  28.140  1.00  0.00     0.167 HD
ATOM     25  C   UNL A   1      43.200  24.088  27.247  1.00  0.00     0.037 A 
ATOM     26  C   UNL A   1      45.347  30.655  28.388  1.00  0.00     0.037 A 
ATOM     27  C   UNL A   1      44.622  24.297  27.131  1.00  0.00     0.049 A 
ATOM     28  C   UNL A   1      46.308  29.563  28.029  1.00  0.00     0.074 A 
ATOM     29  C   UNL A   1      45.605  23.378  26.806  1.00  0.00     0.029 A 
ATOM     30  N   UNL A   1      45.259  25.512  27.323  1.00  0.00    -0.354 N 
ATOM     31  N   UNL A   1      46.063  28.301  27.773  1.00  0.00    -0.248 NA
ATOM     32  C   UNL A   1      47.728  29.931  27.955  1.00  0.00     0.031 C 
ATOM     33  C   UNL A   1      46.842  24.032  26.830  1.00  0.00     0.029 A 
ATOM     34  C   UNL A   1      46.625  25.366  27.133  1.00  0.00     0.049 A 
ATOM     35  H   UNL A   1      44.810  26.356  27.558  1.00  0.00     0.167 HD
ATOM     36  C   UNL A   1      47.296  27.722  27.515  1.00  0.00     0.074 A 
ATOM     37  C   UNL A   1      48.283  28.779  27.608  1.00  0.00     0.031 C 
ATOM     38  C   UNL A   1      47.589  26.428  27.242  1.00  0.00     0.037 A 
BRANCH  25  39
ATOM     39  C   UNL A   1      42.676  22.699  27.018  1.00  0.00     0.057 A 
ATOM     40  C   UNL A   1      42.642  22.121  25.744  1.00  0.00     0.134 A 
ATOM     41  C   UNL A   1      42.270  21.906  28.099  1.00  0.00     0.134 A 
ATOM     42  F   UNL A   1      43.007  22.830  24.665  1.00  0.00    -0.206 F 
ATOM     43  C   UNL A   1      42.214  20.805  25.551  1.00  0.00     0.040 A 
ATOM     44  C   UNL A   1      41.859  20.582  27.922  1.00  0.00     0.040 A 
ATOM     45  F   UNL A   1      42.284  22.396  29.348  1.00  0.00    -0.206 F 
ATOM     46  C   UNL A   1      41.829  20.030  26.644  1.00  0.00     0.006 A 
ENDBRANCH  25  39
BRANCH  26  47
ATOM     47  C   UNL A   1      45.815  32.043  28.625  1.00  0.00     0.057 A 
ATOM     48  C   UNL A   1      46.211  32.469  29.896  1.00  0.00     0.134 A 
ATOM     49  C   UNL A   1      45.894  32.969  27.577  1.00  0.00     0.134 A 
ATOM     50  F   UNL A   1      46.142  31.633  30.942  1.00  0.00    -0.206 F 
ATOM     51  C   UNL A   1      46.661  33.771  30.121  1.00  0.00     0.040 A 
ATOM     52  C   UNL A   1      46.368  34.264  27.782  1.00  0.00     0.040 A 
ATOM     53  F   UNL A   1      45.536  32.618  26.334  1.00  0.00    -0.206 F 
ATOM     54  C   UNL A   1      46.748  34.671  29.059  1.00  0.00     0.006 A 
ENDBRANCH  26  47
BRANCH  38  55
ATOM     55  C   UNL A   1      49.034  26.100  27.027  1.00  0.00     0.057 A 
ATOM     56  C   UNL A   1      49.859  25.706  28.087  1.00  0.00     0.134 A 
ATOM     57  C   UNL A   1      49.605  26.181  25.752  1.00  0.00     0.134 A 
ATOM     58  F   UNL A   1      49.373  25.625  29.335  1.00  0.00    -0.206 F 
ATOM     59  C   UNL A   1      51.213  25.431  27.891  1.00  0.00     0.040 A 
ATOM     60  C   UNL A   1      50.953  25.887  25.540  1.00  0.00     0.040 A 
ATOM     61  F   UNL A   1      48.866  26.548  24.695  1.00  0.00    -0.206 F 
ATOM     62  C   UNL A   1      51.762  25.519  26.613  1.00  0.00     0.006 A 
ENDBRANCH  38  55
ENDBRANCH  12  13
ENDBRANCH   5   7
ENDBRANCH   2   3
ENDBRANCH   1   2
BRANCH   1  63
ATOM     63  C   UNL A   1      31.907  29.366  27.013  1.00  0.00     0.023 C 
BRANCH  63  64
ATOM     64  C   UNL A   1      32.044  27.937  27.520  1.00  0.00     0.116 C 
BRANCH  64  65
ATOM     65  N   UNL A   1      31.316  26.895  26.850  1.00  0.00    -0.356 N 
ATOM     66  C   UNL A   1      31.549  26.341  25.623  1.00  0.00     0.228 C 
ATOM     67  H   UNL A   1      30.546  26.529  27.342  1.00  0.00     0.163 HD
ATOM     68  O   UNL A   1      30.827  25.376  25.336  1.00  0.00    -0.275 OA
BRANCH  66  69
ATOM     69  C   UNL A   1      32.560  26.865  24.562  1.00  0.00     0.133 C 
ATOM     70  C   UNL A   1      31.849  27.820  23.573  1.00  0.00     0.025 C 
ATOM     71  C   UNL A   1      33.442  25.923  23.735  1.00  0.00     0.276 C 
ATOM     72  C   UNL A   1      31.105  27.050  22.475  1.00  0.00     0.062 C 
ATOM     73  N   UNL A   1      32.633  25.177  22.788  1.00  0.00    -0.331 N 
ATOM     74  C   UNL A   1      31.983  25.997  21.783  1.00  0.00     0.262 C 
ATOM     75  H   UNL A   1      31.851  24.868  23.366  1.00  0.00     0.348 HD
BRANCH  73  76
ATOM     76  C   UNL A   1      33.066  23.842  22.408  1.00  0.00     0.299 C 
BRANCH  76  77
ATOM     77  C   UNL A   1      33.247  22.767  23.448  1.00  0.00     0.014 A 
ATOM     78  C   UNL A   1      32.109  22.037  23.838  1.00  0.00     0.010 A 
ATOM     79  C   UNL A   1      34.545  22.341  23.867  1.00  0.00    -0.010 A 
ATOM     80  C   UNL A   1      32.228  20.899  24.624  1.00  0.00     0.001 A 
ATOM     81  C   UNL A   1      34.645  21.170  24.658  1.00  0.00    -0.018 A 
ATOM     82  C   UNL A   1      35.760  22.985  23.515  1.00  0.00     0.009 A 
ATOM     83  C   UNL A   1      33.487  20.469  25.027  1.00  0.00     0.009 A 
ATOM     84  C   UNL A   1      35.905  20.687  25.051  1.00  0.00     0.009 A 
ATOM     85  C   UNL A   1      37.006  22.488  23.904  1.00  0.00     0.001 A 
ATOM     86  C   UNL A   1      37.078  21.338  24.673  1.00  0.00     0.001 A 
ENDBRANCH  76  77
ENDBRANCH  73  76
ENDBRANCH  66  69
ENDBRANCH  64  65
ENDBRANCH  63  64
ENDBRANCH   1  63
TORSDOF 13
ENDMDL
MODEL 3
REMARK VINA RESULT:     -12.2      0.299      6.106
REMARK SMILES O=C(NCCCCNC(=O)[C@@H]1CCC[N@@H+](Cc2cccc3ccccc23)C1)c1ccc(-c2c3nc(c(-c4c(F)cccc4F)c4ccc([nH]4)c(-c4c(F)cccc4F)c4nc(c(-c5c(F)cccc5F)c5ccc2[nH]5)C=C4)C=C3)cc1
REMARK SMILES IDX 5 1 4 2 3 3 1 4 2 5 28 7 29 8 81 9 30 10 80 11 31 12 32 13
REMARK SMILES IDX 33 14 74 15 34 16 79 17 73 18 75 19 35 20 78 21 72 22 71 23
REMARK SMILES IDX 36 25 62 26 45 27 61 28 46 29 49 30 60 31 76 32 47 33 48 34
REMARK SMILES IDX 59 36 77 37 50 38 37 39 38 40 43 41 39 42 40 43 42 44 44 45
REMARK SMILES IDX 41 46 63 47 64 48 69 49 65 50 66 51 68 52 70 53 67 54 51 55
REMARK SMILES IDX 52 56 57 57 53 58 54 59 56 60 58 61 55 62 6 63 7 64 8 65
REMARK SMILES IDX 9 66 10 68 11 69 12 70 27 71 13 72 15 73 14 74 16 76 17 77
REMARK SMILES IDX 18 78 26 79 19 80 21 81 25 82 20 83 22 84 24 85 23 86
REMARK H PARENT 3 6 75 24 49 35 8 67 15 75
REMARK Flexibility Score: inf
ROOT
ATOM      1  C   UNL A   1      37.459  21.104  24.628  1.00  0.00     0.023 C 
ENDROOT
BRANCH   1   2
ATOM      2  C   UNL A   1      38.530  21.047  25.718  1.00  0.00     0.116 C 
BRANCH   2   3
ATOM      3  N   UNL A   1      39.487  19.949  25.605  1.00  0.00    -0.352 N 
ATOM      4  O   UNL A   1      41.417  18.792  25.826  1.00  0.00    -0.269 OA
ATOM      5  C   UNL A   1      40.806  19.843  25.998  1.00  0.00     0.251 C 
ATOM      6  H   UNL A   1      39.128  19.141  25.171  1.00  0.00     0.163 HD
BRANCH   5   7
ATOM      7  C   UNL A   1      41.517  21.015  26.551  1.00  0.00     0.039 A 
ATOM      8  C   UNL A   1      41.544  21.252  27.920  1.00  0.00     0.014 A 
ATOM      9  C   UNL A   1      42.104  21.932  25.673  1.00  0.00     0.014 A 
ATOM     10  C   UNL A   1      41.878  22.517  28.380  1.00  0.00     0.010 A 
ATOM     11  C   UNL A   1      42.577  23.156  26.160  1.00  0.00     0.010 A 
ATOM     12  C   UNL A   1      42.391  23.492  27.508  1.00  0.00    -0.014 A 
BRANCH  12  13
ATOM     13  C   UNL A   1      42.711  24.841  28.047  1.00  0.00     0.031 A 
ATOM     14  C   UNL A   1      41.628  25.858  28.310  1.00  0.00     0.074 A 
ATOM     15  C   UNL A   1      43.985  25.115  28.390  1.00  0.00     0.049 A 
ATOM     16  N   UNL A   1      41.735  27.061  28.819  1.00  0.00    -0.248 NA
ATOM     17  C   UNL A   1      40.249  25.488  27.951  1.00  0.00     0.031 C 
ATOM     18  C   UNL A   1      45.124  24.215  28.181  1.00  0.00     0.029 A 
ATOM     19  N   UNL A   1      44.534  26.198  29.025  1.00  0.00    -0.354 N 
ATOM     20  C   UNL A   1      40.453  27.600  28.809  1.00  0.00     0.074 A 
ATOM     21  C   UNL A   1      39.583  26.600  28.231  1.00  0.00     0.031 C 
ATOM     22  C   UNL A   1      46.214  24.743  28.752  1.00  0.00     0.029 A 
ATOM     23  C   UNL A   1      45.874  26.053  29.293  1.00  0.00     0.049 A 
ATOM     24  H   UNL A   1      44.019  27.001  29.267  1.00  0.00     0.167 HD
ATOM     25  C   UNL A   1      40.042  28.814  29.247  1.00  0.00     0.037 A 
ATOM     26  C   UNL A   1      46.742  26.886  29.894  1.00  0.00     0.037 A 
ATOM     27  C   UNL A   1      40.905  29.794  29.858  1.00  0.00     0.049 A 
ATOM     28  C   UNL A   1      46.255  28.216  30.381  1.00  0.00     0.074 A 
ATOM     29  C   UNL A   1      40.578  31.047  30.347  1.00  0.00     0.029 A 
ATOM     30  N   UNL A   1      42.263  29.623  30.075  1.00  0.00    -0.354 N 
ATOM     31  N   UNL A   1      45.042  28.712  30.347  1.00  0.00    -0.248 NA
ATOM     32  C   UNL A   1      47.257  29.109  30.976  1.00  0.00     0.031 C 
ATOM     33  C   UNL A   1      41.744  31.647  30.833  1.00  0.00     0.029 A 
ATOM     34  C   UNL A   1      42.791  30.752  30.682  1.00  0.00     0.049 A 
ATOM     35  H   UNL A   1      42.777  28.818  29.836  1.00  0.00     0.167 HD
ATOM     36  C   UNL A   1      45.136  29.976  30.907  1.00  0.00     0.074 A 
ATOM     37  C   UNL A   1      46.516  30.156  31.308  1.00  0.00     0.031 C 
ATOM     38  C   UNL A   1      44.169  30.913  31.062  1.00  0.00     0.037 A 
BRANCH  25  39
ATOM     39  C   UNL A   1      38.592  29.169  29.076  1.00  0.00     0.057 A 
ATOM     40  C   UNL A   1      37.687  29.124  30.142  1.00  0.00     0.134 A 
ATOM     41  C   UNL A   1      38.115  29.632  27.842  1.00  0.00     0.134 A 
ATOM     42  F   UNL A   1      38.077  28.679  31.347  1.00  0.00    -0.206 F 
ATOM     43  C   UNL A   1      36.356  29.519  29.987  1.00  0.00     0.040 A 
ATOM     44  C   UNL A   1      36.791  30.048  27.680  1.00  0.00     0.040 A 
ATOM     45  F   UNL A   1      38.931  29.706  26.780  1.00  0.00    -0.206 F 
ATOM     46  C   UNL A   1      35.908  29.991  28.755  1.00  0.00     0.006 A 
ENDBRANCH  25  39
BRANCH  26  47
ATOM     47  C   UNL A   1      48.164  26.488  30.040  1.00  0.00     0.057 A 
ATOM     48  C   UNL A   1      48.609  25.784  31.163  1.00  0.00     0.134 A 
ATOM     49  C   UNL A   1      49.106  26.787  29.048  1.00  0.00     0.134 A 
ATOM     50  F   UNL A   1      47.758  25.484  32.155  1.00  0.00    -0.206 F 
ATOM     51  C   UNL A   1      49.944  25.399  31.300  1.00  0.00     0.040 A 
ATOM     52  C   UNL A   1      50.436  26.383  29.157  1.00  0.00     0.040 A 
ATOM     53  F   UNL A   1      48.738  27.451  27.943  1.00  0.00    -0.206 F 
ATOM     54  C   UNL A   1      50.861  25.692  30.290  1.00  0.00     0.006 A 
ENDBRANCH  26  47
BRANCH  38  55
ATOM     55  C   UNL A   1      44.586  32.207  31.691  1.00  0.00     0.057 A 
ATOM     56  C   UNL A   1      44.539  32.393  33.078  1.00  0.00     0.134 A 
ATOM     57  C   UNL A   1      45.036  33.273  30.905  1.00  0.00     0.134 A 
ATOM     58  F   UNL A   1      44.101  31.412  33.882  1.00  0.00    -0.206 F 
ATOM     59  C   UNL A   1      44.897  33.609  33.660  1.00  0.00     0.040 A 
ATOM     60  C   UNL A   1      45.418  34.487  31.478  1.00  0.00     0.040 A 
ATOM     61  F   UNL A   1      45.109  33.155  29.571  1.00  0.00    -0.206 F 
ATOM     62  C   UNL A   1      45.341  34.659  32.859  1.00  0.00     0.006 A 
ENDBRANCH  38  55
ENDBRANCH  12  13
ENDBRANCH   5   7
ENDBRANCH   2   3
ENDBRANCH   1   2
BRANCH   1  63
ATOM     63  C   UNL A   1      36.037  20.707  25.019  1.00  0.00     0.023 C 
BRANCH  63  64
ATOM     64  C   UNL A   1      35.402  21.489  26.160  1.00  0.00     0.116 C 
BRANCH  64  65
ATOM     65  N   UNL A   1      35.067  22.870  25.947  1.00  0.00    -0.356 N 
ATOM     66  C   UNL A   1      33.833  23.438  25.800  1.00  0.00     0.228 C 
ATOM     67  H   UNL A   1      35.830  23.492  25.902  1.00  0.00     0.163 HD
ATOM     68  O   UNL A   1      33.828  24.676  25.738  1.00  0.00    -0.275 OA
BRANCH  66  69
ATOM     69  C   UNL A   1      32.490  22.672  25.625  1.00  0.00     0.133 C 
ATOM     70  C   UNL A   1      32.439  21.994  24.235  1.00  0.00     0.025 C 
ATOM     71  C   UNL A   1      31.130  23.338  25.860  1.00  0.00     0.276 C 
ATOM     72  C   UNL A   1      32.012  22.978  23.138  1.00  0.00     0.062 C 
ATOM     73  N   UNL A   1      30.860  24.314  24.820  1.00  0.00    -0.331 N 
ATOM     74  C   UNL A   1      30.731  23.748  23.490  1.00  0.00     0.262 C 
ATOM     75  H   UNL A   1      31.743  24.821  24.763  1.00  0.00     0.348 HD
BRANCH  73  76
ATOM     76  C   UNL A   1      30.049  25.474  25.152  1.00  0.00     0.299 C 
BRANCH  76  77
ATOM     77  C   UNL A   1      30.425  26.844  24.650  1.00  0.00     0.014 A 
ATOM     78  C   UNL A   1      29.831  27.288  23.454  1.00  0.00     0.010 A 
ATOM     79  C   UNL A   1      31.176  27.757  25.454  1.00  0.00    -0.010 A 
ATOM     80  C   UNL A   1      29.959  28.607  23.042  1.00  0.00     0.001 A 
ATOM     81  C   UNL A   1      31.283  29.102  25.022  1.00  0.00    -0.018 A 
ATOM     82  C   UNL A   1      31.797  27.426  26.687  1.00  0.00     0.009 A 
ATOM     83  C   UNL A   1      30.676  29.506  23.823  1.00  0.00     0.009 A 
ATOM     84  C   UNL A   1      31.970  30.044  25.806  1.00  0.00     0.009 A 
ATOM     85  C   UNL A   1      32.468  28.375  27.460  1.00  0.00     0.001 A 
ATOM     86  C   UNL A   1      32.555  29.686  27.019  1.00  0.00     0.001 A 
ENDBRANCH  76  77
ENDBRANCH  73  76
ENDBRANCH  66  69
ENDBRANCH  64  65
ENDBRANCH  63  64
ENDBRANCH   1  63
TORSDOF 13
ENDMDL
