MODEL 1
REMARK VINA RESULT:     -12.3      0.000      0.000
REMARK SMILES Cc1ccc(F)c(-c2ncccc2C(=O)NCCCCNC(=O)c2ccc(-c3c4nc(c(-c5c(F)cccc5F)c5ccc([nH]5)c(-c5c(F)cccc5F)c5nc(c(-c6c(F)cccc6F)c6ccc3[nH]6)C=C5)C=C4)cc2)c1
REMARK SMILES IDX 19 1 18 2 17 3 16 4 14 5 15 6 13 8 8 9 9 10 10 11 12 12
REMARK SMILES IDX 11 13 7 14 1 15 2 16 3 17 78 18 4 19 5 20 6 21 20 22 21 23
REMARK SMILES IDX 22 24 23 26 24 27 25 28 77 29 26 30 76 31 27 32 28 33 29 34
REMARK SMILES IDX 70 35 30 36 75 37 69 38 71 39 31 40 74 41 68 42 67 43 32 45
REMARK SMILES IDX 58 46 41 47 57 48 42 49 45 50 56 51 72 52 43 53 44 54 55 56
REMARK SMILES IDX 73 57 46 58 33 59 34 60 39 61 35 62 36 63 38 64 40 65 37 66
REMARK SMILES IDX 59 67 60 68 65 69 61 70 62 71 64 72 66 73 63 74 47 75 48 76
REMARK SMILES IDX 53 77 49 78 50 79 52 80 54 81 51 82
REMARK H PARENT 16 7 21 25 71 44 45 55
REMARK Flexibility Score: inf
ROOT
ATOM      1  C   UNL A   1      31.399  31.891  26.503  1.00  0.00     0.023 C 
ENDROOT
BRANCH   1   2
ATOM      2  C   UNL A   1      31.586  30.501  25.876  1.00  0.00     0.023 C 
BRANCH   2   3
ATOM      3  C   UNL A   1      32.206  29.468  26.818  1.00  0.00     0.116 C 
BRANCH   3   4
ATOM      4  N   UNL A   1      31.416  28.257  26.841  1.00  0.00    -0.352 N 
ATOM      5  C   UNL A   1      31.208  27.200  25.993  1.00  0.00     0.253 C 
ATOM      6  O   UNL A   1      30.429  26.364  26.453  1.00  0.00    -0.269 OA
ATOM      7  H   UNL A   1      30.899  28.170  27.673  1.00  0.00     0.163 HD
BRANCH   5   8
ATOM      8  C   UNL A   1      31.858  27.002  24.651  1.00  0.00     0.066 A 
ATOM      9  C   UNL A   1      31.168  27.324  23.461  1.00  0.00     0.086 A 
ATOM     10  N   UNL A   1      31.669  27.047  22.216  1.00  0.00    -0.255 NA
ATOM     11  C   UNL A   1      32.874  26.460  22.123  1.00  0.00     0.112 A 
ATOM     12  C   UNL A   1      33.149  26.484  24.487  1.00  0.00     0.018 A 
ATOM     13  C   UNL A   1      33.656  26.186  23.221  1.00  0.00     0.021 A 
BRANCH   9  14
ATOM     14  C   UNL A   1      29.909  28.079  23.380  1.00  0.00     0.037 A 
ATOM     15  C   UNL A   1      28.770  31.711  23.013  1.00  0.00     0.044 C 
ATOM     16  C   UNL A   1      28.731  30.216  23.132  1.00  0.00    -0.050 A 
ATOM     17  C   UNL A   1      27.507  29.549  23.242  1.00  0.00     0.006 A 
ATOM     18  C   UNL A   1      29.918  29.472  23.168  1.00  0.00     0.016 A 
ATOM     19  C   UNL A   1      27.476  28.165  23.409  1.00  0.00     0.040 A 
ATOM     20  C   UNL A   1      28.667  27.445  23.487  1.00  0.00     0.132 A 
ATOM     21  F   UNL A   1      28.594  26.119  23.685  1.00  0.00    -0.206 F 
ENDBRANCH   9  14
ENDBRANCH   5   8
ENDBRANCH   3   4
ENDBRANCH   2   3
ENDBRANCH   1   2
BRANCH   1  22
ATOM     22  C   UNL A   1      32.652  32.498  27.131  1.00  0.00     0.116 C 
BRANCH  22  23
ATOM     23  N   UNL A   1      32.468  33.870  27.572  1.00  0.00    -0.352 N 
ATOM     24  C   UNL A   1      33.178  34.579  28.512  1.00  0.00     0.251 C 
ATOM     25  H   UNL A   1      31.732  34.359  27.137  1.00  0.00     0.163 HD
ATOM     26  O   UNL A   1      32.824  35.702  28.834  1.00  0.00    -0.269 OA
BRANCH  24  27
ATOM     27  C   UNL A   1      34.351  33.953  29.159  1.00  0.00     0.039 A 
ATOM     28  C   UNL A   1      34.131  33.017  30.172  1.00  0.00     0.014 A 
ATOM     29  C   UNL A   1      35.650  34.277  28.762  1.00  0.00     0.014 A 
ATOM     30  C   UNL A   1      35.218  32.358  30.749  1.00  0.00     0.010 A 
ATOM     31  C   UNL A   1      36.728  33.574  29.294  1.00  0.00     0.010 A 
ATOM     32  C   UNL A   1      36.521  32.610  30.292  1.00  0.00    -0.014 A 
BRANCH  32  33
ATOM     33  C   UNL A   1      37.681  31.871  30.849  1.00  0.00     0.031 A 
ATOM     34  C   UNL A   1      38.183  32.184  32.230  1.00  0.00     0.074 A 
ATOM     35  C   UNL A   1      38.318  30.962  30.087  1.00  0.00     0.049 A 
ATOM     36  N   UNL A   1      39.209  31.682  32.869  1.00  0.00    -0.248 NA
ATOM     37  C   UNL A   1      37.452  33.216  32.981  1.00  0.00     0.031 C 
ATOM     38  C   UNL A   1      37.957  30.609  28.712  1.00  0.00     0.029 A 
ATOM     39  N   UNL A   1      39.406  30.174  30.358  1.00  0.00    -0.354 N 
ATOM     40  C   UNL A   1      39.254  32.347  34.088  1.00  0.00     0.074 A 
ATOM     41  C   UNL A   1      38.187  33.323  34.078  1.00  0.00     0.031 C 
ATOM     42  C   UNL A   1      38.794  29.656  28.269  1.00  0.00     0.029 A 
ATOM     43  C   UNL A   1      39.767  29.355  29.316  1.00  0.00     0.049 A 
ATOM     44  H   UNL A   1      39.884  30.192  31.219  1.00  0.00     0.167 HD
ATOM     45  C   UNL A   1      40.094  32.144  35.131  1.00  0.00     0.037 A 
ATOM     46  C   UNL A   1      40.768  28.462  29.216  1.00  0.00     0.037 A 
ATOM     47  C   UNL A   1      41.139  31.155  35.148  1.00  0.00     0.049 A 
ATOM     48  C   UNL A   1      41.681  28.248  30.391  1.00  0.00     0.074 A 
ATOM     49  C   UNL A   1      42.006  30.832  36.178  1.00  0.00     0.029 A 
ATOM     50  N   UNL A   1      41.459  30.328  34.082  1.00  0.00    -0.354 N 
ATOM     51  N   UNL A   1      41.670  28.834  31.563  1.00  0.00    -0.248 NA
ATOM     52  C   UNL A   1      42.741  27.243  30.231  1.00  0.00     0.031 C 
ATOM     53  C   UNL A   1      42.873  29.833  35.721  1.00  0.00     0.029 A 
ATOM     54  C   UNL A   1      42.519  29.505  34.423  1.00  0.00     0.049 A 
ATOM     55  H   UNL A   1      40.998  30.326  33.211  1.00  0.00     0.167 HD
ATOM     56  C   UNL A   1      42.699  28.251  32.291  1.00  0.00     0.074 A 
ATOM     57  C   UNL A   1      43.306  27.255  31.431  1.00  0.00     0.031 C 
ATOM     58  C   UNL A   1      43.105  28.514  33.557  1.00  0.00     0.037 A 
BRANCH  45  59
ATOM     59  C   UNL A   1      39.909  33.011  36.343  1.00  0.00     0.057 A 
ATOM     60  C   UNL A   1      40.640  34.193  36.522  1.00  0.00     0.134 A 
ATOM     61  C   UNL A   1      38.977  32.673  37.331  1.00  0.00     0.134 A 
ATOM     62  F   UNL A   1      41.560  34.568  35.619  1.00  0.00    -0.206 F 
ATOM     63  C   UNL A   1      40.472  34.991  37.655  1.00  0.00     0.040 A 
ATOM     64  C   UNL A   1      38.780  33.477  38.455  1.00  0.00     0.040 A 
ATOM     65  F   UNL A   1      38.239  31.557  37.219  1.00  0.00    -0.206 F 
ATOM     66  C   UNL A   1      39.535  34.637  38.623  1.00  0.00     0.006 A 
ENDBRANCH  45  59
BRANCH  46  67
ATOM     67  C   UNL A   1      40.939  27.674  27.970  1.00  0.00     0.057 A 
ATOM     68  C   UNL A   1      40.312  26.431  27.814  1.00  0.00     0.134 A 
ATOM     69  C   UNL A   1      41.727  28.137  26.911  1.00  0.00     0.134 A 
ATOM     70  F   UNL A   1      39.558  25.928  28.801  1.00  0.00    -0.206 F 
ATOM     71  C   UNL A   1      40.480  25.668  26.657  1.00  0.00     0.040 A 
ATOM     72  C   UNL A   1      41.886  27.396  25.740  1.00  0.00     0.040 A 
ATOM     73  F   UNL A   1      42.347  29.323  26.997  1.00  0.00    -0.206 F 
ATOM     74  C   UNL A   1      41.266  26.153  25.613  1.00  0.00     0.006 A 
ENDBRANCH  46  67
BRANCH  58  75
ATOM     75  C   UNL A   1      44.234  27.689  34.099  1.00  0.00     0.057 A 
ATOM     76  C   UNL A   1      45.564  28.122  34.031  1.00  0.00     0.134 A 
ATOM     77  C   UNL A   1      43.982  26.462  34.726  1.00  0.00     0.134 A 
ATOM     78  F   UNL A   1      45.873  29.281  33.431  1.00  0.00    -0.206 F 
ATOM     79  C   UNL A   1      46.607  27.352  34.550  1.00  0.00     0.040 A 
ATOM     80  C   UNL A   1      45.013  25.697  35.271  1.00  0.00     0.040 A 
ATOM     81  F   UNL A   1      42.728  25.995  34.829  1.00  0.00    -0.206 F 
ATOM     82  C   UNL A   1      46.332  26.139  35.177  1.00  0.00     0.006 A 
ENDBRANCH  58  75
ENDBRANCH  32  33
ENDBRANCH  24  27
ENDBRANCH  22  23
ENDBRANCH   1  22
TORSDOF 12
ENDMDL
MODEL 2
REMARK VINA RESULT:     -12.2      5.627     10.343
REMARK SMILES Cc1ccc(F)c(-c2ncccc2C(=O)NCCCCNC(=O)c2ccc(-c3c4nc(c(-c5c(F)cccc5F)c5ccc([nH]5)c(-c5c(F)cccc5F)c5nc(c(-c6c(F)cccc6F)c6ccc3[nH]6)C=C5)C=C4)cc2)c1
REMARK SMILES IDX 19 1 18 2 17 3 16 4 14 5 15 6 13 8 8 9 9 10 10 11 12 12
REMARK SMILES IDX 11 13 7 14 1 15 2 16 3 17 78 18 4 19 5 20 6 21 20 22 21 23
REMARK SMILES IDX 22 24 23 26 24 27 25 28 77 29 26 30 76 31 27 32 28 33 29 34
REMARK SMILES IDX 70 35 30 36 75 37 69 38 71 39 31 40 74 41 68 42 67 43 32 45
REMARK SMILES IDX 58 46 41 47 57 48 42 49 45 50 56 51 72 52 43 53 44 54 55 56
REMARK SMILES IDX 73 57 46 58 33 59 34 60 39 61 35 62 36 63 38 64 40 65 37 66
REMARK SMILES IDX 59 67 60 68 65 69 61 70 62 71 64 72 66 73 63 74 47 75 48 76
REMARK SMILES IDX 53 77 49 78 50 79 52 80 54 81 51 82
REMARK H PARENT 16 7 21 25 71 44 45 55
REMARK Flexibility Score: inf
ROOT
ATOM      1  C   UNL A   1      37.811  19.621  24.944  1.00  0.00     0.023 C 
ENDROOT
BRANCH   1   2
ATOM      2  C   UNL A   1      36.606  20.572  24.997  1.00  0.00     0.023 C 
BRANCH   2   3
ATOM      3  C   UNL A   1      36.930  22.015  24.605  1.00  0.00     0.116 C 
BRANCH   3   4
ATOM      4  N   UNL A   1      36.048  22.470  23.554  1.00  0.00    -0.352 N 
ATOM      5  C   UNL A   1      34.730  22.836  23.462  1.00  0.00     0.253 C 
ATOM      6  O   UNL A   1      34.405  23.173  22.324  1.00  0.00    -0.269 OA
ATOM      7  H   UNL A   1      36.509  22.533  22.687  1.00  0.00     0.163 HD
BRANCH   5   8
ATOM      8  C   UNL A   1      33.744  22.879  24.598  1.00  0.00     0.066 A 
ATOM      9  C   UNL A   1      32.823  21.827  24.795  1.00  0.00     0.086 A 
ATOM     10  N   UNL A   1      31.829  21.878  25.736  1.00  0.00    -0.255 NA
ATOM     11  C   UNL A   1      31.736  22.969  26.515  1.00  0.00     0.112 A 
ATOM     12  C   UNL A   1      33.657  23.944  25.505  1.00  0.00     0.018 A 
ATOM     13  C   UNL A   1      32.636  24.007  26.454  1.00  0.00     0.021 A 
BRANCH   9  14
ATOM     14  C   UNL A   1      32.864  20.518  24.124  1.00  0.00     0.037 A 
ATOM     15  C   UNL A   1      34.457  17.082  24.650  1.00  0.00     0.044 C 
ATOM     16  C   UNL A   1      33.635  18.191  24.063  1.00  0.00    -0.050 A 
ATOM     17  C   UNL A   1      32.972  18.008  22.845  1.00  0.00     0.006 A 
ATOM     18  C   UNL A   1      33.547  19.432  24.707  1.00  0.00     0.016 A 
ATOM     19  C   UNL A   1      32.255  19.059  22.274  1.00  0.00     0.040 A 
ATOM     20  C   UNL A   1      32.213  20.300  22.906  1.00  0.00     0.132 A 
ATOM     21  F   UNL A   1      31.543  21.296  22.305  1.00  0.00    -0.206 F 
ENDBRANCH   9  14
ENDBRANCH   5   8
ENDBRANCH   3   4
ENDBRANCH   2   3
ENDBRANCH   1   2
BRANCH   1  22
ATOM     22  C   UNL A   1      39.023  20.056  25.765  1.00  0.00     0.116 C 
BRANCH  22  23
ATOM     23  N   UNL A   1      40.080  19.059  25.804  1.00  0.00    -0.352 N 
ATOM     24  C   UNL A   1      41.415  19.224  26.088  1.00  0.00     0.251 C 
ATOM     25  H   UNL A   1      39.801  18.138  25.596  1.00  0.00     0.163 HD
ATOM     26  O   UNL A   1      42.190  18.287  25.979  1.00  0.00    -0.269 OA
BRANCH  24  27
ATOM     27  C   UNL A   1      41.911  20.558  26.489  1.00  0.00     0.039 A 
ATOM     28  C   UNL A   1      42.290  21.455  25.488  1.00  0.00     0.014 A 
ATOM     29  C   UNL A   1      41.989  20.923  27.835  1.00  0.00     0.014 A 
ATOM     30  C   UNL A   1      42.693  22.746  25.836  1.00  0.00     0.010 A 
ATOM     31  C   UNL A   1      42.330  22.228  28.177  1.00  0.00     0.010 A 
ATOM     32  C   UNL A   1      42.686  23.150  27.181  1.00  0.00    -0.014 A 
BRANCH  32  33
ATOM     33  C   UNL A   1      43.049  24.537  27.562  1.00  0.00     0.031 A 
ATOM     34  C   UNL A   1      44.490  24.964  27.580  1.00  0.00     0.074 A 
ATOM     35  C   UNL A   1      42.085  25.394  27.949  1.00  0.00     0.049 A 
ATOM     36  N   UNL A   1      45.007  26.113  27.931  1.00  0.00    -0.248 NA
ATOM     37  C   UNL A   1      45.483  23.955  27.178  1.00  0.00     0.031 C 
ATOM     38  C   UNL A   1      40.656  25.082  28.023  1.00  0.00     0.029 A 
ATOM     39  N   UNL A   1      42.162  26.699  28.359  1.00  0.00    -0.354 N 
ATOM     40  C   UNL A   1      46.382  25.961  27.804  1.00  0.00     0.074 A 
ATOM     41  C   UNL A   1      46.621  24.595  27.397  1.00  0.00     0.031 C 
ATOM     42  C   UNL A   1      39.989  26.174  28.430  1.00  0.00     0.029 A 
ATOM     43  C   UNL A   1      40.944  27.251  28.673  1.00  0.00     0.049 A 
ATOM     44  H   UNL A   1      43.010  27.196  28.423  1.00  0.00     0.167 HD
ATOM     45  C   UNL A   1      47.355  26.886  27.988  1.00  0.00     0.037 A 
ATOM     46  C   UNL A   1      40.633  28.486  29.108  1.00  0.00     0.037 A 
ATOM     47  C   UNL A   1      47.111  28.252  28.369  1.00  0.00     0.049 A 
ATOM     48  C   UNL A   1      41.730  29.497  29.295  1.00  0.00     0.074 A 
ATOM     49  C   UNL A   1      48.025  29.280  28.524  1.00  0.00     0.029 A 
ATOM     50  N   UNL A   1      45.862  28.780  28.655  1.00  0.00    -0.354 N 
ATOM     51  N   UNL A   1      43.019  29.361  29.105  1.00  0.00    -0.248 NA
ATOM     52  C   UNL A   1      41.326  30.835  29.748  1.00  0.00     0.031 C 
ATOM     53  C   UNL A   1      47.330  30.422  28.939  1.00  0.00     0.029 A 
ATOM     54  C   UNL A   1      45.981  30.115  29.000  1.00  0.00     0.049 A 
ATOM     55  H   UNL A   1      45.015  28.278  28.617  1.00  0.00     0.167 HD
ATOM     56  C   UNL A   1      43.579  30.600  29.387  1.00  0.00     0.074 A 
ATOM     57  C   UNL A   1      42.485  31.479  29.749  1.00  0.00     0.031 C 
ATOM     58  C   UNL A   1      44.880  30.977  29.350  1.00  0.00     0.037 A 
BRANCH  45  59
ATOM     59  C   UNL A   1      48.773  26.443  27.772  1.00  0.00     0.057 A 
ATOM     60  C   UNL A   1      49.563  25.960  28.824  1.00  0.00     0.134 A 
ATOM     61  C   UNL A   1      49.351  26.482  26.498  1.00  0.00     0.134 A 
ATOM     62  F   UNL A   1      49.075  25.911  30.074  1.00  0.00    -0.206 F 
ATOM     63  C   UNL A   1      50.885  25.560  28.621  1.00  0.00     0.040 A 
ATOM     64  C   UNL A   1      50.662  26.059  26.276  1.00  0.00     0.040 A 
ATOM     65  F   UNL A   1      48.648  26.929  25.444  1.00  0.00    -0.206 F 
ATOM     66  C   UNL A   1      51.436  25.603  27.342  1.00  0.00     0.006 A 
ENDBRANCH  45  59
BRANCH  46  67
ATOM     67  C   UNL A   1      39.216  28.849  29.361  1.00  0.00     0.057 A 
ATOM     68  C   UNL A   1      38.430  29.423  28.354  1.00  0.00     0.134 A 
ATOM     69  C   UNL A   1      38.616  28.635  30.607  1.00  0.00     0.134 A 
ATOM     70  F   UNL A   1      38.956  29.667  27.145  1.00  0.00    -0.206 F 
ATOM     71  C   UNL A   1      37.103  29.790  28.583  1.00  0.00     0.040 A 
ATOM     72  C   UNL A   1      37.283  28.976  30.843  1.00  0.00     0.040 A 
ATOM     73  F   UNL A   1      39.313  28.082  31.609  1.00  0.00    -0.206 F 
ATOM     74  C   UNL A   1      36.524  29.561  29.830  1.00  0.00     0.006 A 
ENDBRANCH  46  67
BRANCH  58  75
ATOM     75  C   UNL A   1      45.187  32.410  29.673  1.00  0.00     0.057 A 
ATOM     76  C   UNL A   1      45.161  33.410  28.694  1.00  0.00     0.134 A 
ATOM     77  C   UNL A   1      45.476  32.796  30.988  1.00  0.00     0.134 A 
ATOM     78  F   UNL A   1      44.904  33.102  27.414  1.00  0.00    -0.206 F 
ATOM     79  C   UNL A   1      45.435  34.742  29.007  1.00  0.00     0.040 A 
ATOM     80  C   UNL A   1      45.726  34.128  31.317  1.00  0.00     0.040 A 
ATOM     81  F   UNL A   1      45.509  31.886  31.974  1.00  0.00    -0.206 F 
ATOM     82  C   UNL A   1      45.713  35.105  30.324  1.00  0.00     0.006 A 
ENDBRANCH  58  75
ENDBRANCH  32  33
ENDBRANCH  24  27
ENDBRANCH  22  23
ENDBRANCH   1  22
TORSDOF 12
ENDMDL
MODEL 3
REMARK VINA RESULT:     -12.2      0.830      6.391
REMARK SMILES Cc1ccc(F)c(-c2ncccc2C(=O)NCCCCNC(=O)c2ccc(-c3c4nc(c(-c5c(F)cccc5F)c5ccc([nH]5)c(-c5c(F)cccc5F)c5nc(c(-c6c(F)cccc6F)c6ccc3[nH]6)C=C5)C=C4)cc2)c1
REMARK SMILES IDX 19 1 18 2 17 3 16 4 14 5 15 6 13 8 8 9 9 10 10 11 12 12
REMARK SMILES IDX 11 13 7 14 1 15 2 16 3 17 78 18 4 19 5 20 6 21 20 22 21 23
REMARK SMILES IDX 22 24 23 26 24 27 25 28 77 29 26 30 76 31 27 32 28 33 29 34
REMARK SMILES IDX 70 35 30 36 75 37 69 38 71 39 31 40 74 41 68 42 67 43 32 45
REMARK SMILES IDX 58 46 41 47 57 48 42 49 45 50 56 51 72 52 43 53 44 54 55 56
REMARK SMILES IDX 73 57 46 58 33 59 34 60 39 61 35 62 36 63 38 64 40 65 37 66
REMARK SMILES IDX 59 67 60 68 65 69 61 70 62 71 64 72 66 73 63 74 47 75 48 76
REMARK SMILES IDX 53 77 49 78 50 79 52 80 54 81 51 82
REMARK H PARENT 16 7 21 25 71 44 45 55
REMARK Flexibility Score: inf
ROOT
ATOM      1  C   UNL A   1      31.451  31.841  26.530  1.00  0.00     0.023 C 
ENDROOT
BRANCH   1   2
ATOM      2  C   UNL A   1      31.778  30.461  25.941  1.00  0.00     0.023 C 
BRANCH   2   3
ATOM      3  C   UNL A   1      32.249  29.435  26.973  1.00  0.00     0.116 C 
BRANCH   3   4
ATOM      4  N   UNL A   1      31.403  28.263  26.952  1.00  0.00    -0.352 N 
ATOM      5  C   UNL A   1      31.165  27.235  26.077  1.00  0.00     0.253 C 
ATOM      6  O   UNL A   1      30.338  26.427  26.501  1.00  0.00    -0.269 OA
ATOM      7  H   UNL A   1      30.864  28.182  27.771  1.00  0.00     0.163 HD
BRANCH   5   8
ATOM      8  C   UNL A   1      31.835  27.036  24.744  1.00  0.00     0.066 A 
ATOM      9  C   UNL A   1      31.164  27.358  23.544  1.00  0.00     0.086 A 
ATOM     10  N   UNL A   1      31.683  27.080  22.307  1.00  0.00    -0.255 NA
ATOM     11  C   UNL A   1      32.888  26.491  22.232  1.00  0.00     0.112 A 
ATOM     12  C   UNL A   1      33.128  26.515  24.600  1.00  0.00     0.018 A 
ATOM     13  C   UNL A   1      33.653  26.216  23.342  1.00  0.00     0.021 A 
BRANCH   9  14
ATOM     14  C   UNL A   1      29.907  28.115  23.444  1.00  0.00     0.037 A 
ATOM     15  C   UNL A   1      28.778  31.755  23.123  1.00  0.00     0.044 C 
ATOM     16  C   UNL A   1      28.737  30.258  23.209  1.00  0.00    -0.050 A 
ATOM     17  C   UNL A   1      27.510  29.589  23.270  1.00  0.00     0.006 A 
ATOM     18  C   UNL A   1      29.922  29.513  23.262  1.00  0.00     0.016 A 
ATOM     19  C   UNL A   1      27.474  28.202  23.406  1.00  0.00     0.040 A 
ATOM     20  C   UNL A   1      28.663  27.480  23.501  1.00  0.00     0.132 A 
ATOM     21  F   UNL A   1      28.585  26.150  23.668  1.00  0.00    -0.206 F 
ENDBRANCH   9  14
ENDBRANCH   5   8
ENDBRANCH   3   4
ENDBRANCH   2   3
ENDBRANCH   1   2
BRANCH   1  22
ATOM     22  C   UNL A   1      32.605  32.534  27.251  1.00  0.00     0.116 C 
BRANCH  22  23
ATOM     23  N   UNL A   1      32.326  33.920  27.586  1.00  0.00    -0.352 N 
ATOM     24  C   UNL A   1      32.958  34.735  28.496  1.00  0.00     0.251 C 
ATOM     25  H   UNL A   1      31.579  34.333  27.093  1.00  0.00     0.163 HD
ATOM     26  O   UNL A   1      32.528  35.854  28.724  1.00  0.00    -0.269 OA
BRANCH  24  27
ATOM     27  C   UNL A   1      34.140  34.227  29.224  1.00  0.00     0.039 A 
ATOM     28  C   UNL A   1      33.936  33.502  30.400  1.00  0.00     0.014 A 
ATOM     29  C   UNL A   1      35.433  34.454  28.746  1.00  0.00     0.014 A 
ATOM     30  C   UNL A   1      35.030  32.950  31.068  1.00  0.00     0.010 A 
ATOM     31  C   UNL A   1      36.516  33.851  29.378  1.00  0.00     0.010 A 
ATOM     32  C   UNL A   1      36.325  33.095  30.544  1.00  0.00    -0.014 A 
BRANCH  32  33
ATOM     33  C   UNL A   1      37.491  32.460  31.206  1.00  0.00     0.031 A 
ATOM     34  C   UNL A   1      38.186  31.296  30.557  1.00  0.00     0.074 A 
ATOM     35  C   UNL A   1      37.886  32.895  32.417  1.00  0.00     0.049 A 
ATOM     36  N   UNL A   1      39.187  30.580  31.001  1.00  0.00    -0.248 NA
ATOM     37  C   UNL A   1      37.668  30.861  29.251  1.00  0.00     0.031 C 
ATOM     38  C   UNL A   1      37.259  33.982  33.171  1.00  0.00     0.029 A 
ATOM     39  N   UNL A   1      38.904  32.470  33.231  1.00  0.00    -0.354 N 
ATOM     40  C   UNL A   1      39.408  29.605  30.037  1.00  0.00     0.074 A 
ATOM     41  C   UNL A   1      38.405  29.787  29.012  1.00  0.00     0.031 C 
ATOM     42  C   UNL A   1      37.923  34.155  34.326  1.00  0.00     0.029 A 
ATOM     43  C   UNL A   1      39.000  33.172  34.407  1.00  0.00     0.049 A 
ATOM     44  H   UNL A   1      39.511  31.731  32.994  1.00  0.00     0.167 HD
ATOM     45  C   UNL A   1      40.377  28.658  29.998  1.00  0.00     0.037 A 
ATOM     46  C   UNL A   1      39.859  33.039  35.434  1.00  0.00     0.037 A 
ATOM     47  C   UNL A   1      41.389  28.496  31.008  1.00  0.00     0.049 A 
ATOM     48  C   UNL A   1      40.930  31.988  35.363  1.00  0.00     0.074 A 
ATOM     49  C   UNL A   1      42.448  27.605  31.032  1.00  0.00     0.029 A 
ATOM     50  N   UNL A   1      41.467  29.242  32.174  1.00  0.00    -0.354 N 
ATOM     51  N   UNL A   1      41.172  31.117  34.414  1.00  0.00    -0.248 NA
ATOM     52  C   UNL A   1      41.854  31.906  36.503  1.00  0.00     0.031 C 
ATOM     53  C   UNL A   1      43.147  27.789  32.231  1.00  0.00     0.029 A 
ATOM     54  C   UNL A   1      42.548  28.823  32.932  1.00  0.00     0.049 A 
ATOM     55  H   UNL A   1      40.847  29.964  32.424  1.00  0.00     0.167 HD
ATOM     56  C   UNL A   1      42.290  30.404  34.826  1.00  0.00     0.074 A 
ATOM     57  C   UNL A   1      42.687  30.953  36.107  1.00  0.00     0.031 C 
ATOM     58  C   UNL A   1      42.932  29.386  34.201  1.00  0.00     0.037 A 
BRANCH  45  59
ATOM     59  C   UNL A   1      40.385  27.730  28.818  1.00  0.00     0.057 A 
ATOM     60  C   UNL A   1      39.633  26.547  28.806  1.00  0.00     0.134 A 
ATOM     61  C   UNL A   1      41.136  28.029  27.676  1.00  0.00     0.134 A 
ATOM     62  F   UNL A   1      38.903  26.195  29.876  1.00  0.00    -0.206 F 
ATOM     63  C   UNL A   1      39.652  25.682  27.711  1.00  0.00     0.040 A 
ATOM     64  C   UNL A   1      41.141  27.185  26.564  1.00  0.00     0.040 A 
ATOM     65  F   UNL A   1      41.874  29.149  27.618  1.00  0.00    -0.206 F 
ATOM     66  C   UNL A   1      40.403  26.003  26.583  1.00  0.00     0.006 A 
ENDBRANCH  45  59
BRANCH  46  67
ATOM     67  C   UNL A   1      39.766  33.949  36.602  1.00  0.00     0.057 A 
ATOM     68  C   UNL A   1      39.017  33.595  37.731  1.00  0.00     0.134 A 
ATOM     69  C   UNL A   1      40.419  35.187  36.622  1.00  0.00     0.134 A 
ATOM     70  F   UNL A   1      38.356  32.429  37.763  1.00  0.00    -0.206 F 
ATOM     71  C   UNL A   1      38.903  34.449  38.829  1.00  0.00     0.040 A 
ATOM     72  C   UNL A   1      40.332  36.040  37.723  1.00  0.00     0.040 A 
ATOM     73  F   UNL A   1      41.159  35.578  35.575  1.00  0.00    -0.206 F 
ATOM     74  C   UNL A   1      39.567  35.675  38.829  1.00  0.00     0.006 A 
ENDBRANCH  46  67
BRANCH  58  75
ATOM     75  C   UNL A   1      44.149  28.828  34.877  1.00  0.00     0.057 A 
ATOM     76  C   UNL A   1      44.074  27.733  35.747  1.00  0.00     0.134 A 
ATOM     77  C   UNL A   1      45.415  29.371  34.625  1.00  0.00     0.134 A 
ATOM     78  F   UNL A   1      42.890  27.176  36.039  1.00  0.00    -0.206 F 
ATOM     79  C   UNL A   1      45.214  27.212  36.361  1.00  0.00     0.040 A 
ATOM     80  C   UNL A   1      46.565  28.843  35.213  1.00  0.00     0.040 A 
ATOM     81  F   UNL A   1      45.555  30.416  33.795  1.00  0.00    -0.206 F 
ATOM     82  C   UNL A   1      46.465  27.765  36.089  1.00  0.00     0.006 A 
ENDBRANCH  58  75
ENDBRANCH  32  33
ENDBRANCH  24  27
ENDBRANCH  22  23
ENDBRANCH   1  22
TORSDOF 12
ENDMDL
