MODEL 1
REMARK VINA RESULT:     -10.9      0.000      0.000
REMARK SMILES CC[C@@H](C(=O)NCCCCNC(=O)c1ccc(-c2c3nc(c(-c4c(F)cccc4F)c4ccc([nH]4)c(-c4c(F)cccc4F)c4nc(c(-c5c(F)cccc5F)c5ccc2[nH]5)C=C4)C=C3)cc1)N(C)C(=O)c1cn(C2C[NH2+]C2)nn1
REMARK SMILES IDX 7 1 6 2 4 3 5 4 3 6 2 7 1 8 68 9 69 10 70 11 71 12 72 13
REMARK SMILES IDX 73 14 80 15 74 16 79 17 75 18 76 19 78 20 77 21 8 24 9 25
REMARK SMILES IDX 10 26 11 27 12 28 13 30 14 31 15 32 67 33 16 34 66 35 17 36
REMARK SMILES IDX 18 37 19 38 60 39 20 40 65 41 59 42 61 43 21 44 64 45 58 46
REMARK SMILES IDX 57 47 22 49 48 50 31 51 47 52 32 53 35 54 46 55 62 56 33 57
REMARK SMILES IDX 34 58 45 60 63 61 36 62 23 63 24 64 29 65 25 66 26 67 28 68
REMARK SMILES IDX 30 69 27 70 49 71 50 72 55 73 51 74 52 75 54 76 56 77 53 78
REMARK SMILES IDX 37 79 38 80 43 81 39 82 40 83 42 84 44 85 41 86
REMARK H PARENT 6 5 77 22 77 23 11 29 61 48 35 59
REMARK Flexibility Score: inf
ROOT
ATOM      1  C   UNL A   1      32.973  29.844  25.932  1.00  0.00     0.116 C 
ENDROOT
BRANCH   1   2
ATOM      2  N   UNL A   1      33.566  29.528  24.653  1.00  0.00    -0.354 N 
ATOM      3  C   UNL A   1      33.577  28.371  23.934  1.00  0.00     0.242 C 
ATOM      4  O   UNL A   1      33.976  28.482  22.769  1.00  0.00    -0.273 OA
ATOM      5  H   UNL A   1      34.045  30.276  24.229  1.00  0.00     0.163 HD
BRANCH   3   6
ATOM      6  C   UNL A   1      33.010  27.032  24.507  1.00  0.00     0.174 C 
BRANCH   6   7
ATOM      7  C   UNL A   1      33.997  25.869  24.765  1.00  0.00     0.032 C 
ATOM      8  C   UNL A   1      33.586  24.809  25.773  1.00  0.00     0.006 C 
ENDBRANCH   6   7
BRANCH   6   9
ATOM      9  N   UNL A   1      31.937  26.551  23.586  1.00  0.00    -0.328 N 
ATOM     10  C   UNL A   1      32.332  25.776  22.422  1.00  0.00     0.148 C 
BRANCH   9  11
ATOM     11  C   UNL A   1      30.614  26.973  23.841  1.00  0.00     0.276 C 
ATOM     12  O   UNL A   1      29.912  26.418  24.685  1.00  0.00    -0.267 OA
BRANCH  11  13
ATOM     13  C   UNL A   1      30.108  28.162  23.163  1.00  0.00     0.170 A 
ATOM     14  C   UNL A   1      29.085  29.027  23.500  1.00  0.00     0.145 A 
ATOM     15  N   UNL A   1      30.693  28.612  22.001  1.00  0.00    -0.125 NA
ATOM     16  N   UNL A   1      29.059  29.930  22.473  1.00  0.00    -0.237 N 
ATOM     17  N   UNL A   1      30.031  29.679  21.582  1.00  0.00    -0.066 NA
BRANCH  16  18
ATOM     18  C   UNL A   1      28.123  30.988  22.240  1.00  0.00     0.218 C 
ATOM     19  C   UNL A   1      28.714  32.395  22.477  1.00  0.00     0.294 C 
ATOM     20  C   UNL A   1      28.026  31.455  20.773  1.00  0.00     0.294 C 
ATOM     21  N   UNL A   1      28.009  32.856  21.260  1.00  0.00    -0.342 N 
ATOM     22  H   UNL A   1      28.540  33.511  20.685  1.00  0.00     0.346 HD
ATOM     23  H   UNL A   1      27.140  33.386  21.320  1.00  0.00     0.346 HD
ENDBRANCH  16  18
ENDBRANCH  11  13
ENDBRANCH   9  11
ENDBRANCH   6   9
ENDBRANCH   3   6
ENDBRANCH   1   2
BRANCH   1  24
ATOM     24  C   UNL A   1      31.626  30.545  25.766  1.00  0.00     0.023 C 
BRANCH  24  25
ATOM     25  C   UNL A   1      31.405  31.748  26.680  1.00  0.00     0.023 C 
BRANCH  25  26
ATOM     26  C   UNL A   1      32.672  32.440  27.161  1.00  0.00     0.116 C 
BRANCH  26  27
ATOM     27  N   UNL A   1      32.465  33.831  27.537  1.00  0.00    -0.352 N 
ATOM     28  C   UNL A   1      33.128  34.578  28.482  1.00  0.00     0.251 C 
ATOM     29  H   UNL A   1      31.752  34.302  27.046  1.00  0.00     0.163 HD
ATOM     30  O   UNL A   1      32.753  35.715  28.751  1.00  0.00    -0.269 OA
BRANCH  28  31
ATOM     31  C   UNL A   1      34.272  33.984  29.201  1.00  0.00     0.039 A 
ATOM     32  C   UNL A   1      34.028  33.146  30.292  1.00  0.00     0.014 A 
ATOM     33  C   UNL A   1      35.580  34.216  28.766  1.00  0.00     0.014 A 
ATOM     34  C   UNL A   1      35.093  32.475  30.896  1.00  0.00     0.010 A 
ATOM     35  C   UNL A   1      36.626  33.482  29.312  1.00  0.00     0.010 A 
ATOM     36  C   UNL A   1      36.394  32.605  30.383  1.00  0.00    -0.014 A 
BRANCH  36  37
ATOM     37  C   UNL A   1      37.532  31.843  30.953  1.00  0.00     0.031 A 
ATOM     38  C   UNL A   1      38.023  32.158  32.339  1.00  0.00     0.074 A 
ATOM     39  C   UNL A   1      38.172  30.928  30.201  1.00  0.00     0.049 A 
ATOM     40  N   UNL A   1      39.055  31.675  32.982  1.00  0.00    -0.248 NA
ATOM     41  C   UNL A   1      37.273  33.179  33.089  1.00  0.00     0.031 C 
ATOM     42  C   UNL A   1      37.830  30.574  28.821  1.00  0.00     0.029 A 
ATOM     43  N   UNL A   1      39.254  30.135  30.487  1.00  0.00    -0.354 N 
ATOM     44  C   UNL A   1      39.092  32.349  34.196  1.00  0.00     0.074 A 
ATOM     45  C   UNL A   1      38.014  33.313  34.179  1.00  0.00     0.031 C 
ATOM     46  C   UNL A   1      38.669  29.617  28.392  1.00  0.00     0.029 A 
ATOM     47  C   UNL A   1      39.627  29.315  29.449  1.00  0.00     0.049 A 
ATOM     48  H   UNL A   1      39.720  30.153  31.354  1.00  0.00     0.167 HD
ATOM     49  C   UNL A   1      39.931  32.163  35.241  1.00  0.00     0.037 A 
ATOM     50  C   UNL A   1      40.630  28.421  29.364  1.00  0.00     0.037 A 
ATOM     51  C   UNL A   1      40.977  31.176  35.271  1.00  0.00     0.049 A 
ATOM     52  C   UNL A   1      41.534  28.216  30.546  1.00  0.00     0.074 A 
ATOM     53  C   UNL A   1      41.838  30.862  36.308  1.00  0.00     0.029 A 
ATOM     54  N   UNL A   1      41.299  30.339  34.214  1.00  0.00    -0.354 N 
ATOM     55  N   UNL A   1      41.517  28.815  31.713  1.00  0.00    -0.248 NA
ATOM     56  C   UNL A   1      42.594  27.208  30.403  1.00  0.00     0.031 C 
ATOM     57  C   UNL A   1      42.702  29.854  35.867  1.00  0.00     0.029 A 
ATOM     58  C   UNL A   1      42.354  29.515  34.569  1.00  0.00     0.049 A 
ATOM     59  H   UNL A   1      40.845  30.330  33.340  1.00  0.00     0.167 HD
ATOM     60  C   UNL A   1      42.542  28.238  32.451  1.00  0.00     0.074 A 
ATOM     61  C   UNL A   1      43.154  27.234  31.605  1.00  0.00     0.031 C 
ATOM     62  C   UNL A   1      42.942  28.515  33.715  1.00  0.00     0.037 A 
BRANCH  49  63
ATOM     63  C   UNL A   1      39.739  33.043  36.441  1.00  0.00     0.057 A 
ATOM     64  C   UNL A   1      38.848  32.705  37.468  1.00  0.00     0.134 A 
ATOM     65  C   UNL A   1      40.464  34.233  36.581  1.00  0.00     0.134 A 
ATOM     66  F   UNL A   1      38.111  31.585  37.387  1.00  0.00    -0.206 F 
ATOM     67  C   UNL A   1      38.660  33.532  38.576  1.00  0.00     0.040 A 
ATOM     68  C   UNL A   1      40.306  35.056  37.698  1.00  0.00     0.040 A 
ATOM     69  F   UNL A   1      41.338  34.614  35.637  1.00  0.00    -0.206 F 
ATOM     70  C   UNL A   1      39.396  34.710  38.696  1.00  0.00     0.006 A 
ENDBRANCH  49  63
BRANCH  50  71
ATOM     71  C   UNL A   1      40.811  27.625  28.125  1.00  0.00     0.057 A 
ATOM     72  C   UNL A   1      41.630  28.087  27.088  1.00  0.00     0.134 A 
ATOM     73  C   UNL A   1      40.172  26.393  27.943  1.00  0.00     0.134 A 
ATOM     74  F   UNL A   1      42.254  29.268  27.197  1.00  0.00    -0.206 F 
ATOM     75  C   UNL A   1      41.795  27.361  25.907  1.00  0.00     0.040 A 
ATOM     76  C   UNL A   1      40.345  25.646  26.776  1.00  0.00     0.040 A 
ATOM     77  F   UNL A   1      39.380  25.893  28.902  1.00  0.00    -0.206 F 
ATOM     78  C   UNL A   1      41.153  26.134  25.751  1.00  0.00     0.006 A 
ENDBRANCH  50  71
BRANCH  62  79
ATOM     79  C   UNL A   1      44.070  27.699  34.271  1.00  0.00     0.057 A 
ATOM     80  C   UNL A   1      43.847  26.469  34.904  1.00  0.00     0.134 A 
ATOM     81  C   UNL A   1      45.396  28.129  34.135  1.00  0.00     0.134 A 
ATOM     82  F   UNL A   1      42.599  26.010  35.077  1.00  0.00    -0.206 F 
ATOM     83  C   UNL A   1      44.906  25.706  35.401  1.00  0.00     0.040 A 
ATOM     84  C   UNL A   1      46.462  27.363  34.606  1.00  0.00     0.040 A 
ATOM     85  F   UNL A   1      45.675  29.293  33.530  1.00  0.00    -0.206 F 
ATOM     86  C   UNL A   1      46.217  26.149  35.245  1.00  0.00     0.006 A 
ENDBRANCH  62  79
ENDBRANCH  36  37
ENDBRANCH  28  31
ENDBRANCH  26  27
ENDBRANCH  25  26
ENDBRANCH  24  25
ENDBRANCH   1  24
TORSDOF 16
ENDMDL
MODEL 2
REMARK VINA RESULT:     -10.9      5.822     10.868
REMARK SMILES CC[C@@H](C(=O)NCCCCNC(=O)c1ccc(-c2c3nc(c(-c4c(F)cccc4F)c4ccc([nH]4)c(-c4c(F)cccc4F)c4nc(c(-c5c(F)cccc5F)c5ccc2[nH]5)C=C4)C=C3)cc1)N(C)C(=O)c1cn(C2C[NH2+]C2)nn1
REMARK SMILES IDX 7 1 6 2 4 3 5 4 3 6 2 7 1 8 68 9 69 10 70 11 71 12 72 13
REMARK SMILES IDX 73 14 80 15 74 16 79 17 75 18 76 19 78 20 77 21 8 24 9 25
REMARK SMILES IDX 10 26 11 27 12 28 13 30 14 31 15 32 67 33 16 34 66 35 17 36
REMARK SMILES IDX 18 37 19 38 60 39 20 40 65 41 59 42 61 43 21 44 64 45 58 46
REMARK SMILES IDX 57 47 22 49 48 50 31 51 47 52 32 53 35 54 46 55 62 56 33 57
REMARK SMILES IDX 34 58 45 60 63 61 36 62 23 63 24 64 29 65 25 66 26 67 28 68
REMARK SMILES IDX 30 69 27 70 49 71 50 72 55 73 51 74 52 75 54 76 56 77 53 78
REMARK SMILES IDX 37 79 38 80 43 81 39 82 40 83 42 84 44 85 41 86
REMARK H PARENT 6 5 77 22 77 23 11 29 61 48 35 59
REMARK Flexibility Score: inf
ROOT
ATOM      1  C   UNL A   1      36.311  21.615  25.304  1.00  0.00     0.116 C 
ENDROOT
BRANCH   1   2
ATOM      2  N   UNL A   1      35.530  21.726  26.514  1.00  0.00    -0.354 N 
ATOM      3  C   UNL A   1      34.344  22.350  26.759  1.00  0.00     0.242 C 
ATOM      4  O   UNL A   1      33.820  22.071  27.844  1.00  0.00    -0.273 OA
ATOM      5  H   UNL A   1      35.923  21.275  27.296  1.00  0.00     0.163 HD
BRANCH   3   6
ATOM      6  C   UNL A   1      33.644  23.251  25.691  1.00  0.00     0.174 C 
BRANCH   6   7
ATOM      7  C   UNL A   1      33.139  24.646  26.128  1.00  0.00     0.032 C 
ATOM      8  C   UNL A   1      33.570  25.842  25.295  1.00  0.00     0.006 C 
ENDBRANCH   6   7
BRANCH   6   9
ATOM      9  N   UNL A   1      32.494  22.486  25.121  1.00  0.00    -0.328 N 
ATOM     10  C   UNL A   1      31.205  22.593  25.783  1.00  0.00     0.148 C 
BRANCH   9  11
ATOM     11  C   UNL A   1      32.755  21.617  24.039  1.00  0.00     0.276 C 
ATOM     12  O   UNL A   1      33.093  22.044  22.936  1.00  0.00    -0.267 OA
BRANCH  11  13
ATOM     13  C   UNL A   1      32.727  20.176  24.267  1.00  0.00     0.170 A 
ATOM     14  C   UNL A   1      32.975  19.437  25.407  1.00  0.00     0.145 A 
ATOM     15  N   UNL A   1      32.374  19.311  23.256  1.00  0.00    -0.125 NA
ATOM     16  N   UNL A   1      32.824  18.138  25.003  1.00  0.00    -0.237 N 
ATOM     17  N   UNL A   1      32.456  18.072  23.714  1.00  0.00    -0.066 NA
BRANCH  16  18
ATOM     18  C   UNL A   1      33.072  16.940  25.745  1.00  0.00     0.218 C 
ATOM     19  C   UNL A   1      32.148  15.768  25.348  1.00  0.00     0.294 C 
ATOM     20  C   UNL A   1      34.185  16.041  25.171  1.00  0.00     0.294 C 
ATOM     21  N   UNL A   1      33.318  14.866  25.428  1.00  0.00    -0.342 N 
ATOM     22  H   UNL A   1      33.351  14.149  24.703  1.00  0.00     0.346 HD
ATOM     23  H   UNL A   1      33.468  14.263  26.237  1.00  0.00     0.346 HD
ENDBRANCH  16  18
ENDBRANCH  11  13
ENDBRANCH   9  11
ENDBRANCH   6   9
ENDBRANCH   3   6
ENDBRANCH   1   2
BRANCH   1  24
ATOM     24  C   UNL A   1      36.667  20.161  25.000  1.00  0.00     0.023 C 
BRANCH  24  25
ATOM     25  C   UNL A   1      38.130  19.914  24.641  1.00  0.00     0.023 C 
BRANCH  25  26
ATOM     26  C   UNL A   1      39.122  20.124  25.776  1.00  0.00     0.116 C 
BRANCH  26  27
ATOM     27  N   UNL A   1      40.131  19.079  25.864  1.00  0.00    -0.352 N 
ATOM     28  C   UNL A   1      41.478  19.198  26.117  1.00  0.00     0.251 C 
ATOM     29  H   UNL A   1      39.805  18.161  25.725  1.00  0.00     0.163 HD
ATOM     30  O   UNL A   1      42.213  18.218  26.049  1.00  0.00    -0.269 OA
BRANCH  28  31
ATOM     31  C   UNL A   1      42.040  20.527  26.431  1.00  0.00     0.039 A 
ATOM     32  C   UNL A   1      42.343  21.401  25.384  1.00  0.00     0.014 A 
ATOM     33  C   UNL A   1      42.219  20.925  27.758  1.00  0.00     0.014 A 
ATOM     34  C   UNL A   1      42.750  22.705  25.672  1.00  0.00     0.010 A 
ATOM     35  C   UNL A   1      42.539  22.247  28.042  1.00  0.00     0.010 A 
ATOM     36  C   UNL A   1      42.810  23.150  27.003  1.00  0.00    -0.014 A 
BRANCH  36  37
ATOM     37  C   UNL A   1      43.161  24.552  27.336  1.00  0.00     0.031 A 
ATOM     38  C   UNL A   1      44.597  24.995  27.290  1.00  0.00     0.074 A 
ATOM     39  C   UNL A   1      42.204  25.403  27.756  1.00  0.00     0.049 A 
ATOM     40  N   UNL A   1      45.121  26.144  27.631  1.00  0.00    -0.248 NA
ATOM     41  C   UNL A   1      45.580  24.000  26.830  1.00  0.00     0.031 C 
ATOM     42  C   UNL A   1      40.783  25.077  27.902  1.00  0.00     0.029 A 
ATOM     43  N   UNL A   1      42.285  26.714  28.150  1.00  0.00    -0.354 N 
ATOM     44  C   UNL A   1      46.491  26.001  27.452  1.00  0.00     0.074 A 
ATOM     45  C   UNL A   1      46.723  24.639  27.025  1.00  0.00     0.031 C 
ATOM     46  C   UNL A   1      40.124  26.167  28.327  1.00  0.00     0.029 A 
ATOM     47  C   UNL A   1      41.077  27.255  28.517  1.00  0.00     0.049 A 
ATOM     48  H   UNL A   1      43.130  27.220  28.168  1.00  0.00     0.167 HD
ATOM     49  C   UNL A   1      47.465  26.928  27.604  1.00  0.00     0.037 A 
ATOM     50  C   UNL A   1      40.775  28.491  28.957  1.00  0.00     0.037 A 
ATOM     51  C   UNL A   1      47.227  28.293  27.990  1.00  0.00     0.049 A 
ATOM     52  C   UNL A   1      41.870  29.510  29.095  1.00  0.00     0.074 A 
ATOM     53  C   UNL A   1      48.138  29.329  28.105  1.00  0.00     0.029 A 
ATOM     54  N   UNL A   1      45.984  28.813  28.317  1.00  0.00    -0.354 N 
ATOM     55  N   UNL A   1      43.154  29.380  28.860  1.00  0.00    -0.248 NA
ATOM     56  C   UNL A   1      41.476  30.849  29.554  1.00  0.00     0.031 C 
ATOM     57  C   UNL A   1      47.449  30.469  28.533  1.00  0.00     0.029 A 
ATOM     58  C   UNL A   1      46.105  30.153  28.646  1.00  0.00     0.049 A 
ATOM     59  H   UNL A   1      45.140  28.306  28.315  1.00  0.00     0.167 HD
ATOM     60  C   UNL A   1      43.715  30.624  29.115  1.00  0.00     0.074 A 
ATOM     61  C   UNL A   1      42.631  31.499  29.512  1.00  0.00     0.031 C 
ATOM     62  C   UNL A   1      45.012  31.008  29.030  1.00  0.00     0.037 A 
BRANCH  49  63
ATOM     63  C   UNL A   1      48.876  26.492  27.339  1.00  0.00     0.057 A 
ATOM     64  C   UNL A   1      49.695  25.986  28.358  1.00  0.00     0.134 A 
ATOM     65  C   UNL A   1      49.419  26.564  26.051  1.00  0.00     0.134 A 
ATOM     66  F   UNL A   1      49.240  25.907  29.619  1.00  0.00    -0.206 F 
ATOM     67  C   UNL A   1      51.012  25.596  28.112  1.00  0.00     0.040 A 
ATOM     68  C   UNL A   1      50.726  26.151  25.786  1.00  0.00     0.040 A 
ATOM     69  F   UNL A   1      48.688  27.035  25.029  1.00  0.00    -0.206 F 
ATOM     70  C   UNL A   1      51.529  25.673  26.820  1.00  0.00     0.006 A 
ENDBRANCH  49  63
BRANCH  50  71
ATOM     71  C   UNL A   1      39.367  28.846  29.266  1.00  0.00     0.057 A 
ATOM     72  C   UNL A   1      38.844  28.654  30.550  1.00  0.00     0.134 A 
ATOM     73  C   UNL A   1      38.513  29.378  28.294  1.00  0.00     0.134 A 
ATOM     74  F   UNL A   1      39.609  28.131  31.520  1.00  0.00    -0.206 F 
ATOM     75  C   UNL A   1      37.517  28.962  30.853  1.00  0.00     0.040 A 
ATOM     76  C   UNL A   1      37.189  29.710  28.588  1.00  0.00     0.040 A 
ATOM     77  F   UNL A   1      38.956  29.591  27.047  1.00  0.00    -0.206 F 
ATOM     78  C   UNL A   1      36.687  29.496  29.870  1.00  0.00     0.006 A 
ENDBRANCH  50  71
BRANCH  62  79
ATOM     79  C   UNL A   1      45.322  32.442  29.337  1.00  0.00     0.057 A 
ATOM     80  C   UNL A   1      45.713  32.854  30.617  1.00  0.00     0.134 A 
ATOM     81  C   UNL A   1      45.268  33.415  28.330  1.00  0.00     0.134 A 
ATOM     82  F   UNL A   1      45.770  31.973  31.627  1.00  0.00    -0.206 F 
ATOM     83  C   UNL A   1      46.020  34.189  30.889  1.00  0.00     0.040 A 
ATOM     84  C   UNL A   1      45.596  34.746  28.584  1.00  0.00     0.040 A 
ATOM     85  F   UNL A   1      44.910  33.082  27.081  1.00  0.00    -0.206 F 
ATOM     86  C   UNL A   1      45.968  35.137  29.869  1.00  0.00     0.006 A 
ENDBRANCH  62  79
ENDBRANCH  36  37
ENDBRANCH  28  31
ENDBRANCH  26  27
ENDBRANCH  25  26
ENDBRANCH  24  25
ENDBRANCH   1  24
TORSDOF 16
ENDMDL
MODEL 3
REMARK VINA RESULT:     -10.9      1.820      7.269
REMARK SMILES CC[C@@H](C(=O)NCCCCNC(=O)c1ccc(-c2c3nc(c(-c4c(F)cccc4F)c4ccc([nH]4)c(-c4c(F)cccc4F)c4nc(c(-c5c(F)cccc5F)c5ccc2[nH]5)C=C4)C=C3)cc1)N(C)C(=O)c1cn(C2C[NH2+]C2)nn1
REMARK SMILES IDX 7 1 6 2 4 3 5 4 3 6 2 7 1 8 68 9 69 10 70 11 71 12 72 13
REMARK SMILES IDX 73 14 80 15 74 16 79 17 75 18 76 19 78 20 77 21 8 24 9 25
REMARK SMILES IDX 10 26 11 27 12 28 13 30 14 31 15 32 67 33 16 34 66 35 17 36
REMARK SMILES IDX 18 37 19 38 60 39 20 40 65 41 59 42 61 43 21 44 64 45 58 46
REMARK SMILES IDX 57 47 22 49 48 50 31 51 47 52 32 53 35 54 46 55 62 56 33 57
REMARK SMILES IDX 34 58 45 60 63 61 36 62 23 63 24 64 29 65 25 66 26 67 28 68
REMARK SMILES IDX 30 69 27 70 49 71 50 72 55 73 51 74 52 75 54 76 56 77 53 78
REMARK SMILES IDX 37 79 38 80 43 81 39 82 40 83 42 84 44 85 41 86
REMARK H PARENT 6 5 77 22 77 23 11 29 61 48 35 59
REMARK Flexibility Score: inf
ROOT
ATOM      1  C   UNL A   1      32.400  29.757  25.595  1.00  0.00     0.116 C 
ENDROOT
BRANCH   1   2
ATOM      2  N   UNL A   1      31.409  29.836  24.547  1.00  0.00    -0.354 N 
ATOM      3  C   UNL A   1      30.852  28.868  23.767  1.00  0.00     0.242 C 
ATOM      4  O   UNL A   1      29.865  29.224  23.114  1.00  0.00    -0.273 OA
ATOM      5  H   UNL A   1      31.082  30.746  24.363  1.00  0.00     0.163 HD
BRANCH   3   6
ATOM      6  C   UNL A   1      31.354  27.388  23.797  1.00  0.00     0.174 C 
BRANCH   6   7
ATOM      7  C   UNL A   1      31.501  26.637  22.453  1.00  0.00     0.032 C 
ATOM      8  C   UNL A   1      32.882  26.125  22.081  1.00  0.00     0.006 C 
ENDBRANCH   6   7
BRANCH   6   9
ATOM      9  N   UNL A   1      30.439  26.606  24.682  1.00  0.00    -0.328 N 
ATOM     10  C   UNL A   1      29.106  26.301  24.189  1.00  0.00     0.148 C 
BRANCH   9  11
ATOM     11  C   UNL A   1      30.884  26.307  25.988  1.00  0.00     0.276 C 
ATOM     12  O   UNL A   1      30.821  27.135  26.895  1.00  0.00    -0.267 OA
BRANCH  11  13
ATOM     13  C   UNL A   1      31.331  24.951  26.291  1.00  0.00     0.170 A 
ATOM     14  C   UNL A   1      32.505  24.296  25.977  1.00  0.00     0.145 A 
ATOM     15  N   UNL A   1      30.545  24.103  27.039  1.00  0.00    -0.125 NA
ATOM     16  N   UNL A   1      32.339  23.043  26.501  1.00  0.00    -0.237 N 
ATOM     17  N   UNL A   1      31.165  22.938  27.142  1.00  0.00    -0.066 NA
BRANCH  16  18
ATOM     18  C   UNL A   1      33.197  21.904  26.377  1.00  0.00     0.218 C 
ATOM     19  C   UNL A   1      34.480  22.187  25.564  1.00  0.00     0.294 C 
ATOM     20  C   UNL A   1      34.180  21.702  27.547  1.00  0.00     0.294 C 
ATOM     21  N   UNL A   1      35.239  21.393  26.556  1.00  0.00    -0.342 N 
ATOM     22  H   UNL A   1      36.158  21.772  26.788  1.00  0.00     0.346 HD
ATOM     23  H   UNL A   1      35.521  20.432  26.364  1.00  0.00     0.346 HD
ENDBRANCH  16  18
ENDBRANCH  11  13
ENDBRANCH   9  11
ENDBRANCH   6   9
ENDBRANCH   3   6
ENDBRANCH   1   2
BRANCH   1  24
ATOM     24  C   UNL A   1      31.904  30.413  26.883  1.00  0.00     0.023 C 
BRANCH  24  25
ATOM     25  C   UNL A   1      31.683  31.921  26.797  1.00  0.00     0.023 C 
BRANCH  25  26
ATOM     26  C   UNL A   1      32.839  32.777  27.296  1.00  0.00     0.116 C 
BRANCH  26  27
ATOM     27  N   UNL A   1      32.451  34.142  27.620  1.00  0.00    -0.352 N 
ATOM     28  C   UNL A   1      32.985  34.991  28.560  1.00  0.00     0.251 C 
ATOM     29  H   UNL A   1      31.703  34.507  27.093  1.00  0.00     0.163 HD
ATOM     30  O   UNL A   1      32.466  36.081  28.781  1.00  0.00    -0.269 OA
BRANCH  28  31
ATOM     31  C   UNL A   1      34.168  34.563  29.333  1.00  0.00     0.039 A 
ATOM     32  C   UNL A   1      33.986  33.996  30.596  1.00  0.00     0.014 A 
ATOM     33  C   UNL A   1      35.450  34.676  28.787  1.00  0.00     0.014 A 
ATOM     34  C   UNL A   1      35.083  33.468  31.279  1.00  0.00     0.010 A 
ATOM     35  C   UNL A   1      36.525  34.074  29.428  1.00  0.00     0.010 A 
ATOM     36  C   UNL A   1      36.353  33.465  30.681  1.00  0.00    -0.014 A 
BRANCH  36  37
ATOM     37  C   UNL A   1      37.522  32.839  31.347  1.00  0.00     0.031 A 
ATOM     38  C   UNL A   1      38.190  31.647  30.721  1.00  0.00     0.074 A 
ATOM     39  C   UNL A   1      37.930  33.290  32.549  1.00  0.00     0.049 A 
ATOM     40  N   UNL A   1      39.160  30.902  31.185  1.00  0.00    -0.248 NA
ATOM     41  C   UNL A   1      37.675  31.213  29.411  1.00  0.00     0.031 C 
ATOM     42  C   UNL A   1      37.326  34.400  33.290  1.00  0.00     0.029 A 
ATOM     43  N   UNL A   1      38.944  32.859  33.367  1.00  0.00    -0.354 N 
ATOM     44  C   UNL A   1      39.353  29.902  30.241  1.00  0.00     0.074 A 
ATOM     45  C   UNL A   1      38.363  30.101  29.204  1.00  0.00     0.031 C 
ATOM     46  C   UNL A   1      37.999  34.579  34.438  1.00  0.00     0.029 A 
ATOM     47  C   UNL A   1      39.056  33.578  34.532  1.00  0.00     0.049 A 
ATOM     48  H   UNL A   1      39.536  32.106  33.140  1.00  0.00     0.167 HD
ATOM     49  C   UNL A   1      40.286  28.922  30.224  1.00  0.00     0.037 A 
ATOM     50  C   UNL A   1      39.914  33.441  35.560  1.00  0.00     0.037 A 
ATOM     51  C   UNL A   1      41.294  28.751  31.235  1.00  0.00     0.049 A 
ATOM     52  C   UNL A   1      40.957  32.360  35.508  1.00  0.00     0.074 A 
ATOM     53  C   UNL A   1      42.328  27.832  31.276  1.00  0.00     0.029 A 
ATOM     54  N   UNL A   1      41.397  29.523  32.383  1.00  0.00    -0.354 N 
ATOM     55  N   UNL A   1      41.169  31.461  34.577  1.00  0.00    -0.248 NA
ATOM     56  C   UNL A   1      41.883  32.277  36.646  1.00  0.00     0.031 C 
ATOM     57  C   UNL A   1      43.038  28.028  32.466  1.00  0.00     0.029 A 
ATOM     58  C   UNL A   1      42.470  29.094  33.145  1.00  0.00     0.049 A 
ATOM     59  H   UNL A   1      40.797  30.266  32.620  1.00  0.00     0.167 HD
ATOM     60  C   UNL A   1      42.266  30.725  35.003  1.00  0.00     0.074 A 
ATOM     61  C   UNL A   1      42.684  31.290  36.270  1.00  0.00     0.031 C 
ATOM     62  C   UNL A   1      42.875  29.675  34.399  1.00  0.00     0.037 A 
BRANCH  49  63
ATOM     63  C   UNL A   1      40.261  27.969  29.066  1.00  0.00     0.057 A 
ATOM     64  C   UNL A   1      39.521  26.779  29.105  1.00  0.00     0.134 A 
ATOM     65  C   UNL A   1      40.972  28.248  27.892  1.00  0.00     0.134 A 
ATOM     66  F   UNL A   1      38.831  26.446  30.208  1.00  0.00    -0.206 F 
ATOM     67  C   UNL A   1      39.512  25.887  28.033  1.00  0.00     0.040 A 
ATOM     68  C   UNL A   1      40.950  27.376  26.801  1.00  0.00     0.040 A 
ATOM     69  F   UNL A   1      41.698  29.371  27.786  1.00  0.00    -0.206 F 
ATOM     70  C   UNL A   1      40.224  26.189  26.873  1.00  0.00     0.006 A 
ENDBRANCH  49  63
BRANCH  50  71
ATOM     71  C   UNL A   1      39.849  34.375  36.711  1.00  0.00     0.057 A 
ATOM     72  C   UNL A   1      39.123  34.046  37.863  1.00  0.00     0.134 A 
ATOM     73  C   UNL A   1      40.500  35.614  36.691  1.00  0.00     0.134 A 
ATOM     74  F   UNL A   1      38.464  32.881  37.934  1.00  0.00    -0.206 F 
ATOM     75  C   UNL A   1      39.033  34.922  38.946  1.00  0.00     0.040 A 
ATOM     76  C   UNL A   1      40.436  36.490  37.776  1.00  0.00     0.040 A 
ATOM     77  F   UNL A   1      41.216  35.984  35.621  1.00  0.00    -0.206 F 
ATOM     78  C   UNL A   1      39.696  36.147  38.905  1.00  0.00     0.006 A 
ENDBRANCH  50  71
BRANCH  62  79
ATOM     79  C   UNL A   1      44.075  29.094  35.084  1.00  0.00     0.057 A 
ATOM     80  C   UNL A   1      45.369  29.562  34.825  1.00  0.00     0.134 A 
ATOM     81  C   UNL A   1      43.929  28.082  36.042  1.00  0.00     0.134 A 
ATOM     82  F   UNL A   1      45.576  30.519  33.909  1.00  0.00    -0.206 F 
ATOM     83  C   UNL A   1      46.480  29.028  35.482  1.00  0.00     0.040 A 
ATOM     84  C   UNL A   1      45.028  27.559  36.722  1.00  0.00     0.040 A 
ATOM     85  F   UNL A   1      42.714  27.598  36.340  1.00  0.00    -0.206 F 
ATOM     86  C   UNL A   1      46.309  28.029  36.439  1.00  0.00     0.006 A 
ENDBRANCH  62  79
ENDBRANCH  36  37
ENDBRANCH  28  31
ENDBRANCH  26  27
ENDBRANCH  25  26
ENDBRANCH  24  25
ENDBRANCH   1  24
TORSDOF 16
ENDMDL
