MODEL 1
REMARK VINA RESULT:     -12.3      0.000      0.000
REMARK SMILES O=C(CCn1cc(/C=C\C(=O)c2ccc(F)cc2)c(-c2cccc(Cl)c2)n1)NCCCCNC(=O)c1ccc(-c2c3nc(c(-c4c(F)cccc4F)c4ccc([nH]4)c(-c4c(F)cccc4F)c4nc(c(-c5c(F)cccc5F)c5ccc2[nH]5)C=C4)C=C3)cc1
REMARK SMILES IDX 29 1 28 2 1 3 2 4 3 6 4 7 5 8 6 9 27 10 7 11 19 12 8 13 9 14
REMARK SMILES IDX 10 15 11 16 12 17 13 18 18 19 14 20 17 21 15 22 16 23 20 24
REMARK SMILES IDX 21 25 26 26 22 27 24 28 23 29 25 30 30 31 31 32 32 33 33 34
REMARK SMILES IDX 34 35 35 37 36 38 37 39 89 40 38 41 88 42 39 43 40 44 41 45
REMARK SMILES IDX 82 46 42 47 87 48 81 49 83 50 43 51 86 52 80 53 79 54 44 56
REMARK SMILES IDX 70 57 53 58 69 59 54 60 57 61 68 62 84 63 55 64 56 65 67 67
REMARK SMILES IDX 85 68 58 69 45 70 46 71 51 72 47 73 48 74 50 75 52 76 49 77
REMARK SMILES IDX 71 78 72 79 77 80 73 81 74 82 76 83 78 84 75 85 59 86 60 87
REMARK SMILES IDX 65 88 61 89 62 90 64 91 66 92 63 93
REMARK H PARENT 28 5 33 36 83 55 57 66
REMARK Flexibility Score: inf
ROOT
ATOM      1  C   UNL A   1      40.671  19.934  26.717  1.00  0.00     0.116 C 
ENDROOT
BRANCH   1   2
ATOM      2  N   UNL A   1      40.368  21.247  26.170  1.00  0.00    -0.356 N 
ATOM      3  O   UNL A   1      38.117  20.889  25.837  1.00  0.00    -0.275 OA
ATOM      4  C   UNL A   1      39.083  21.647  25.848  1.00  0.00     0.221 C 
ATOM      5  H   UNL A   1      41.109  21.879  26.022  1.00  0.00     0.163 HD
BRANCH   4   6
ATOM      6  C   UNL A   1      38.900  23.131  25.569  1.00  0.00     0.123 C 
BRANCH   6   7
ATOM      7  C   UNL A   1      37.732  23.679  26.386  1.00  0.00     0.154 C 
BRANCH   7   8
ATOM      8  N   UNL A   1      36.530  23.756  25.580  1.00  0.00    -0.271 N 
ATOM      9  C   UNL A   1      36.277  23.244  24.344  1.00  0.00     0.117 A 
ATOM     10  N   UNL A   1      35.460  24.329  26.147  1.00  0.00    -0.172 NA
ATOM     11  C   UNL A   1      35.035  23.738  23.996  1.00  0.00     0.021 A 
ATOM     12  C   UNL A   1      34.612  24.485  25.140  1.00  0.00     0.100 A 
BRANCH  11  13
ATOM     13  C   UNL A   1      34.448  23.594  22.702  1.00  0.00     0.016 C 
ATOM     14  C   UNL A   1      33.267  23.076  22.296  1.00  0.00     0.053 C 
BRANCH  14  15
ATOM     15  C   UNL A   1      32.059  22.343  22.907  1.00  0.00     0.185 C 
ATOM     16  O   UNL A   1      31.031  22.921  23.222  1.00  0.00    -0.289 OA
BRANCH  15  17
ATOM     17  C   UNL A   1      32.190  20.866  23.200  1.00  0.00     0.022 A 
ATOM     18  C   UNL A   1      33.182  20.977  24.720  1.00  0.00     0.015 A 
ATOM     19  C   UNL A   1      32.206  19.098  22.212  1.00  0.00     0.015 A 
ATOM     20  C   UNL A   1      34.183  19.608  25.173  1.00  0.00     0.040 A 
ATOM     21  C   UNL A   1      33.276  17.789  22.816  1.00  0.00     0.040 A 
ATOM     22  C   UNL A   1      34.225  18.106  24.244  1.00  0.00     0.123 A 
ATOM     23  F   UNL A   1      35.101  17.168  24.635  1.00  0.00    -0.207 F 
ENDBRANCH  15  17
ENDBRANCH  14  15
ENDBRANCH  11  13
BRANCH  12  24
ATOM     24  C   UNL A   1      33.350  25.298  25.271  1.00  0.00     0.004 A 
ATOM     25  C   UNL A   1      32.387  26.748  24.236  1.00  0.00     0.010 A 
ATOM     26  C   UNL A   1      32.302  24.176  26.245  1.00  0.00     0.031 A 
ATOM     27  C   UNL A   1      30.589  26.780  24.274  1.00  0.00     0.002 A 
ATOM     28  C   UNL A   1      30.562  24.360  26.196  1.00  0.00     0.041 A 
ATOM     29  C   UNL A   1      29.754  25.593  25.242  1.00  0.00     0.020 A 
ATOM     30  Cl  UNL A   1      29.593  23.298  27.153  1.00  0.00    -0.084 Cl
ENDBRANCH  12  24
ENDBRANCH   7   8
ENDBRANCH   6   7
ENDBRANCH   4   6
ENDBRANCH   1   2
BRANCH   1  31
ATOM     31  C   UNL A   1      42.167  19.665  26.945  1.00  0.00     0.023 C 
BRANCH  31  32
ATOM     32  C   UNL A   1      42.797  18.489  26.191  1.00  0.00     0.023 C 
BRANCH  32  33
ATOM     33  C   UNL A   1      44.325  18.405  26.189  1.00  0.00     0.116 C 
BRANCH  33  34
ATOM     34  N   UNL A   1      45.067  18.614  24.956  1.00  0.00    -0.352 N 
ATOM     35  C   UNL A   1      44.969  19.753  24.139  1.00  0.00     0.251 C 
ATOM     36  H   UNL A   1      45.684  17.902  24.671  1.00  0.00     0.163 HD
ATOM     37  O   UNL A   1      45.228  19.692  22.943  1.00  0.00    -0.269 OA
BRANCH  35  38
ATOM     38  C   UNL A   1      44.621  21.072  24.746  1.00  0.00     0.039 A 
ATOM     39  C   UNL A   1      43.590  21.932  24.324  1.00  0.00     0.014 A 
ATOM     40  C   UNL A   1      45.463  21.539  25.731  1.00  0.00     0.014 A 
ATOM     41  C   UNL A   1      43.502  23.237  24.880  1.00  0.00     0.010 A 
ATOM     42  C   UNL A   1      45.008  22.536  26.537  1.00  0.00     0.010 A 
ATOM     43  C   UNL A   1      44.346  23.588  25.944  1.00  0.00    -0.014 A 
BRANCH  43  44
ATOM     44  C   UNL A   1      44.254  24.766  26.836  1.00  0.00     0.031 A 
ATOM     45  C   UNL A   1      45.423  25.712  26.643  1.00  0.00     0.074 A 
ATOM     46  C   UNL A   1      43.075  25.079  27.490  1.00  0.00     0.049 A 
ATOM     47  N   UNL A   1      46.039  26.411  27.524  1.00  0.00    -0.248 NA
ATOM     48  C   UNL A   1      46.026  25.913  25.313  1.00  0.00     0.031 C 
ATOM     49  C   UNL A   1      41.820  24.294  27.580  1.00  0.00     0.029 A 
ATOM     50  N   UNL A   1      42.710  26.197  28.231  1.00  0.00    -0.354 N 
ATOM     51  C   UNL A   1      46.902  27.284  26.851  1.00  0.00     0.074 A 
ATOM     52  C   UNL A   1      46.810  26.984  25.466  1.00  0.00     0.031 C 
ATOM     53  C   UNL A   1      40.811  25.020  28.137  1.00  0.00     0.029 A 
ATOM     54  C   UNL A   1      41.323  26.305  28.573  1.00  0.00     0.049 A 
ATOM     55  H   UNL A   1      43.368  26.875  28.506  1.00  0.00     0.167 HD
ATOM     56  C   UNL A   1      47.523  28.277  27.530  1.00  0.00     0.037 A 
ATOM     57  C   UNL A   1      40.691  27.331  29.248  1.00  0.00     0.037 A 
ATOM     58  C   UNL A   1      47.629  27.884  28.909  1.00  0.00     0.049 A 
ATOM     59  C   UNL A   1      41.761  28.083  29.948  1.00  0.00     0.074 A 
ATOM     60  C   UNL A   1      48.224  26.783  29.502  1.00  0.00     0.029 A 
ATOM     61  N   UNL A   1      46.577  28.251  29.709  1.00  0.00    -0.354 N 
ATOM     62  N   UNL A   1      42.465  27.553  30.908  1.00  0.00    -0.248 NA
ATOM     63  C   UNL A   1      42.391  29.138  29.168  1.00  0.00     0.031 C 
ATOM     64  C   UNL A   1      47.199  26.230  30.323  1.00  0.00     0.029 A 
ATOM     65  C   UNL A   1      46.132  27.128  30.366  1.00  0.00     0.049 A 
ATOM     66  H   UNL A   1      46.206  29.159  29.796  1.00  0.00     0.167 HD
ATOM     67  C   UNL A   1      43.766  27.836  30.541  1.00  0.00     0.074 A 
ATOM     68  C   UNL A   1      43.657  28.804  29.436  1.00  0.00     0.031 C 
ATOM     69  C   UNL A   1      44.797  27.016  30.894  1.00  0.00     0.037 A 
BRANCH  56  70
ATOM     70  C   UNL A   1      47.653  29.694  27.057  1.00  0.00     0.057 A 
ATOM     71  C   UNL A   1      46.554  30.530  26.770  1.00  0.00     0.134 A 
ATOM     72  C   UNL A   1      48.887  30.348  27.211  1.00  0.00     0.134 A 
ATOM     73  F   UNL A   1      45.305  30.050  26.691  1.00  0.00    -0.206 F 
ATOM     74  C   UNL A   1      46.679  31.922  26.659  1.00  0.00     0.040 A 
ATOM     75  C   UNL A   1      49.015  31.739  27.142  1.00  0.00     0.040 A 
ATOM     76  F   UNL A   1      49.995  29.654  27.515  1.00  0.00    -0.206 F 
ATOM     77  C   UNL A   1      47.909  32.534  26.868  1.00  0.00     0.006 A 
ENDBRANCH  56  70
BRANCH  57  78
ATOM     78  C   UNL A   1      39.338  27.990  29.104  1.00  0.00     0.057 A 
ATOM     79  C   UNL A   1      39.069  28.811  28.003  1.00  0.00     0.134 A 
ATOM     80  C   UNL A   1      38.435  28.143  30.191  1.00  0.00     0.134 A 
ATOM     81  F   UNL A   1      39.852  28.767  26.918  1.00  0.00    -0.206 F 
ATOM     82  C   UNL A   1      38.051  29.782  28.007  1.00  0.00     0.040 A 
ATOM     83  C   UNL A   1      37.402  29.107  30.202  1.00  0.00     0.040 A 
ATOM     84  F   UNL A   1      38.578  27.420  31.313  1.00  0.00    -0.206 F 
ATOM     85  C   UNL A   1      37.231  29.954  29.116  1.00  0.00     0.006 A 
ENDBRANCH  57  78
BRANCH  69  86
ATOM     86  C   UNL A   1      44.532  25.845  31.808  1.00  0.00     0.057 A 
ATOM     87  C   UNL A   1      44.636  26.082  33.181  1.00  0.00     0.134 A 
ATOM     88  C   UNL A   1      44.378  24.502  31.420  1.00  0.00     0.134 A 
ATOM     89  F   UNL A   1      44.856  27.326  33.630  1.00  0.00    -0.206 F 
ATOM     90  C   UNL A   1      44.587  25.052  34.120  1.00  0.00     0.040 A 
ATOM     91  C   UNL A   1      44.289  23.460  32.354  1.00  0.00     0.040 A 
ATOM     92  F   UNL A   1      44.375  24.140  30.134  1.00  0.00    -0.206 F 
ATOM     93  C   UNL A   1      44.398  23.737  33.711  1.00  0.00     0.006 A 
ENDBRANCH  69  86
ENDBRANCH  43  44
ENDBRANCH  35  38
ENDBRANCH  33  34
ENDBRANCH  32  33
ENDBRANCH  31  32
ENDBRANCH   1  31
TORSDOF 17
ENDMDL
MODEL 2
REMARK VINA RESULT:     -12.3      2.002      3.757
REMARK SMILES O=C(CCn1cc(/C=C\C(=O)c2ccc(F)cc2)c(-c2cccc(Cl)c2)n1)NCCCCNC(=O)c1ccc(-c2c3nc(c(-c4c(F)cccc4F)c4ccc([nH]4)c(-c4c(F)cccc4F)c4nc(c(-c5c(F)cccc5F)c5ccc2[nH]5)C=C4)C=C3)cc1
REMARK SMILES IDX 29 1 28 2 1 3 2 4 3 6 4 7 5 8 6 9 27 10 7 11 19 12 8 13 9 14
REMARK SMILES IDX 10 15 11 16 12 17 13 18 18 19 14 20 17 21 15 22 16 23 20 24
REMARK SMILES IDX 21 25 26 26 22 27 24 28 23 29 25 30 30 31 31 32 32 33 33 34
REMARK SMILES IDX 34 35 35 37 36 38 37 39 89 40 38 41 88 42 39 43 40 44 41 45
REMARK SMILES IDX 82 46 42 47 87 48 81 49 83 50 43 51 86 52 80 53 79 54 44 56
REMARK SMILES IDX 70 57 53 58 69 59 54 60 57 61 68 62 84 63 55 64 56 65 67 67
REMARK SMILES IDX 85 68 58 69 45 70 46 71 51 72 47 73 48 74 50 75 52 76 49 77
REMARK SMILES IDX 71 78 72 79 77 80 73 81 74 82 76 83 78 84 75 85 59 86 60 87
REMARK SMILES IDX 65 88 61 89 62 90 64 91 66 92 63 93
REMARK H PARENT 28 5 33 36 83 55 57 66
REMARK Flexibility Score: inf
ROOT
ATOM      1  C   UNL A   1      39.996  20.957  26.796  1.00  0.00     0.116 C 
ENDROOT
BRANCH   1   2
ATOM      2  N   UNL A   1      39.238  21.985  26.101  1.00  0.00    -0.356 N 
ATOM      3  O   UNL A   1      37.780  20.565  25.024  1.00  0.00    -0.275 OA
ATOM      4  C   UNL A   1      38.126  21.703  25.326  1.00  0.00     0.221 C 
ATOM      5  H   UNL A   1      39.528  22.922  26.184  1.00  0.00     0.163 HD
BRANCH   4   6
ATOM      6  C   UNL A   1      37.284  22.900  24.914  1.00  0.00     0.123 C 
BRANCH   6   7
ATOM      7  C   UNL A   1      36.440  23.379  26.093  1.00  0.00     0.154 C 
BRANCH   7   8
ATOM      8  N   UNL A   1      35.035  23.103  25.868  1.00  0.00    -0.271 N 
ATOM      9  C   UNL A   1      33.935  23.668  26.438  1.00  0.00     0.117 A 
ATOM     10  N   UNL A   1      34.740  22.234  24.892  1.00  0.00    -0.172 NA
ATOM     11  C   UNL A   1      32.866  22.931  25.967  1.00  0.00     0.021 A 
ATOM     12  C   UNL A   1      33.450  21.987  25.065  1.00  0.00     0.100 A 
BRANCH  11  13
ATOM     13  C   UNL A   1      31.526  23.068  26.444  1.00  0.00     0.016 C 
ATOM     14  C   UNL A   1      30.607  24.049  26.293  1.00  0.00     0.053 C 
BRANCH  14  15
ATOM     15  C   UNL A   1      30.516  25.458  25.680  1.00  0.00     0.185 C 
ATOM     16  O   UNL A   1      29.511  25.865  25.118  1.00  0.00    -0.289 OA
BRANCH  15  17
ATOM     17  C   UNL A   1      31.747  26.334  25.708  1.00  0.00     0.022 A 
ATOM     18  C   UNL A   1      31.363  27.297  27.202  1.00  0.00     0.015 A 
ATOM     19  C   UNL A   1      33.104  27.119  24.425  1.00  0.00     0.015 A 
ATOM     20  C   UNL A   1      32.084  28.887  27.386  1.00  0.00     0.040 A 
ATOM     21  C   UNL A   1      33.759  28.755  24.767  1.00  0.00     0.040 A 
ATOM     22  C   UNL A   1      33.210  29.568  26.208  1.00  0.00     0.123 A 
ATOM     23  F   UNL A   1      33.619  30.830  26.409  1.00  0.00    -0.207 F 
ENDBRANCH  15  17
ENDBRANCH  14  15
ENDBRANCH  11  13
BRANCH  12  24
ATOM     24  C   UNL A   1      32.735  20.888  24.324  1.00  0.00     0.004 A 
ATOM     25  C   UNL A   1      32.172  20.484  22.420  1.00  0.00     0.010 A 
ATOM     26  C   UNL A   1      33.104  19.450  25.373  1.00  0.00     0.031 A 
ATOM     27  C   UNL A   1      32.156  18.770  21.875  1.00  0.00     0.002 A 
ATOM     28  C   UNL A   1      33.015  17.838  24.695  1.00  0.00     0.041 A 
ATOM     29  C   UNL A   1      32.578  17.525  23.023  1.00  0.00     0.020 A 
ATOM     30  Cl  UNL A   1      33.344  16.491  25.723  1.00  0.00    -0.084 Cl
ENDBRANCH  12  24
ENDBRANCH   7   8
ENDBRANCH   6   7
ENDBRANCH   4   6
ENDBRANCH   1   2
BRANCH   1  31
ATOM     31  C   UNL A   1      41.492  20.919  26.446  1.00  0.00     0.023 C 
BRANCH  31  32
ATOM     32  C   UNL A   1      42.043  19.626  25.833  1.00  0.00     0.023 C 
BRANCH  32  33
ATOM     33  C   UNL A   1      43.427  19.172  26.300  1.00  0.00     0.116 C 
BRANCH  33  34
ATOM     34  N   UNL A   1      44.571  19.281  25.409  1.00  0.00    -0.352 N 
ATOM     35  C   UNL A   1      44.897  20.417  24.650  1.00  0.00     0.251 C 
ATOM     36  H   UNL A   1      45.162  18.497  25.331  1.00  0.00     0.163 HD
ATOM     37  O   UNL A   1      45.548  20.317  23.617  1.00  0.00    -0.269 OA
BRANCH  35  38
ATOM     38  C   UNL A   1      44.515  21.773  25.145  1.00  0.00     0.039 A 
ATOM     39  C   UNL A   1      43.636  22.671  24.509  1.00  0.00     0.014 A 
ATOM     40  C   UNL A   1      45.175  22.229  26.264  1.00  0.00     0.014 A 
ATOM     41  C   UNL A   1      43.518  23.997  25.005  1.00  0.00     0.010 A 
ATOM     42  C   UNL A   1      44.631  23.276  26.942  1.00  0.00     0.010 A 
ATOM     43  C   UNL A   1      44.159  24.340  26.206  1.00  0.00    -0.014 A 
BRANCH  43  44
ATOM     44  C   UNL A   1      43.963  25.551  27.034  1.00  0.00     0.031 A 
ATOM     45  C   UNL A   1      45.011  26.608  26.743  1.00  0.00     0.074 A 
ATOM     46  C   UNL A   1      42.778  25.770  27.715  1.00  0.00     0.049 A 
ATOM     47  N   UNL A   1      45.572  27.422  27.559  1.00  0.00    -0.248 NA
ATOM     48  C   UNL A   1      45.544  26.795  25.380  1.00  0.00     0.031 C 
ATOM     49  C   UNL A   1      41.624  24.858  27.898  1.00  0.00     0.029 A 
ATOM     50  N   UNL A   1      42.315  26.883  28.406  1.00  0.00    -0.354 N 
ATOM     51  C   UNL A   1      46.309  28.343  26.805  1.00  0.00     0.074 A 
ATOM     52  C   UNL A   1      46.206  27.953  25.443  1.00  0.00     0.031 C 
ATOM     53  C   UNL A   1      40.559  25.500  28.453  1.00  0.00     0.029 A 
ATOM     54  C   UNL A   1      40.936  26.857  28.796  1.00  0.00     0.049 A 
ATOM     55  H   UNL A   1      42.900  27.645  28.618  1.00  0.00     0.167 HD
ATOM     56  C   UNL A   1      46.836  29.438  27.403  1.00  0.00     0.037 A 
ATOM     57  C   UNL A   1      40.215  27.845  29.438  1.00  0.00     0.037 A 
ATOM     58  C   UNL A   1      47.031  29.143  28.796  1.00  0.00     0.049 A 
ATOM     59  C   UNL A   1      41.215  28.751  30.052  1.00  0.00     0.074 A 
ATOM     60  C   UNL A   1      47.765  28.151  29.425  1.00  0.00     0.029 A 
ATOM     61  N   UNL A   1      45.972  29.437  29.615  1.00  0.00    -0.354 N 
ATOM     62  N   UNL A   1      42.006  28.361  31.012  1.00  0.00    -0.248 NA
ATOM     63  C   UNL A   1      41.696  29.822  29.191  1.00  0.00     0.031 C 
ATOM     64  C   UNL A   1      46.837  27.538  30.316  1.00  0.00     0.029 A 
ATOM     65  C   UNL A   1      45.678  28.313  30.351  1.00  0.00     0.049 A 
ATOM     66  H   UNL A   1      45.503  30.302  29.667  1.00  0.00     0.167 HD
ATOM     67  C   UNL A   1      43.254  28.764  30.579  1.00  0.00     0.074 A 
ATOM     68  C   UNL A   1      43.000  29.646  29.427  1.00  0.00     0.031 C 
ATOM     69  C   UNL A   1      44.382  28.085  30.936  1.00  0.00     0.037 A 
BRANCH  56  70
ATOM     70  C   UNL A   1      46.790  30.830  26.847  1.00  0.00     0.057 A 
ATOM     71  C   UNL A   1      45.596  31.542  26.608  1.00  0.00     0.134 A 
ATOM     72  C   UNL A   1      47.962  31.604  26.864  1.00  0.00     0.134 A 
ATOM     73  F   UNL A   1      44.397  30.942  26.658  1.00  0.00    -0.206 F 
ATOM     74  C   UNL A   1      45.575  32.930  26.415  1.00  0.00     0.040 A 
ATOM     75  C   UNL A   1      47.948  32.995  26.711  1.00  0.00     0.040 A 
ATOM     76  F   UNL A   1      49.152  31.037  27.111  1.00  0.00    -0.206 F 
ATOM     77  C   UNL A   1      46.751  33.665  26.489  1.00  0.00     0.006 A 
ENDBRANCH  56  70
BRANCH  57  78
ATOM     78  C   UNL A   1      38.792  28.340  29.311  1.00  0.00     0.057 A 
ATOM     79  C   UNL A   1      38.388  29.034  28.164  1.00  0.00     0.134 A 
ATOM     80  C   UNL A   1      37.923  28.485  30.426  1.00  0.00     0.134 A 
ATOM     81  F   UNL A   1      39.126  28.986  27.048  1.00  0.00    -0.206 F 
ATOM     82  C   UNL A   1      37.270  29.886  28.144  1.00  0.00     0.040 A 
ATOM     83  C   UNL A   1      36.790  29.328  30.414  1.00  0.00     0.040 A 
ATOM     84  F   UNL A   1      38.191  27.875  31.592  1.00  0.00    -0.206 F 
ATOM     85  C   UNL A   1      36.481  30.060  29.276  1.00  0.00     0.006 A 
ENDBRANCH  57  78
BRANCH  69  86
ATOM     86  C   UNL A   1      44.281  26.949  31.924  1.00  0.00     0.057 A 
ATOM     87  C   UNL A   1      44.346  27.284  33.278  1.00  0.00     0.134 A 
ATOM     88  C   UNL A   1      44.317  25.575  31.621  1.00  0.00     0.134 A 
ATOM     89  F   UNL A   1      44.390  28.572  33.647  1.00  0.00    -0.206 F 
ATOM     90  C   UNL A   1      44.440  26.319  34.280  1.00  0.00     0.040 A 
ATOM     91  C   UNL A   1      44.373  24.592  32.619  1.00  0.00     0.040 A 
ATOM     92  F   UNL A   1      44.369  25.137  30.361  1.00  0.00    -0.206 F 
ATOM     93  C   UNL A   1      44.438  24.967  33.956  1.00  0.00     0.006 A 
ENDBRANCH  69  86
ENDBRANCH  43  44
ENDBRANCH  35  38
ENDBRANCH  33  34
ENDBRANCH  32  33
ENDBRANCH  31  32
ENDBRANCH   1  31
TORSDOF 17
ENDMDL
MODEL 3
REMARK VINA RESULT:     -12.1      4.667      9.728
REMARK SMILES O=C(CCn1cc(/C=C\C(=O)c2ccc(F)cc2)c(-c2cccc(Cl)c2)n1)NCCCCNC(=O)c1ccc(-c2c3nc(c(-c4c(F)cccc4F)c4ccc([nH]4)c(-c4c(F)cccc4F)c4nc(c(-c5c(F)cccc5F)c5ccc2[nH]5)C=C4)C=C3)cc1
REMARK SMILES IDX 29 1 28 2 1 3 2 4 3 6 4 7 5 8 6 9 27 10 7 11 19 12 8 13 9 14
REMARK SMILES IDX 10 15 11 16 12 17 13 18 18 19 14 20 17 21 15 22 16 23 20 24
REMARK SMILES IDX 21 25 26 26 22 27 24 28 23 29 25 30 30 31 31 32 32 33 33 34
REMARK SMILES IDX 34 35 35 37 36 38 37 39 89 40 38 41 88 42 39 43 40 44 41 45
REMARK SMILES IDX 82 46 42 47 87 48 81 49 83 50 43 51 86 52 80 53 79 54 44 56
REMARK SMILES IDX 70 57 53 58 69 59 54 60 57 61 68 62 84 63 55 64 56 65 67 67
REMARK SMILES IDX 85 68 58 69 45 70 46 71 51 72 47 73 48 74 50 75 52 76 49 77
REMARK SMILES IDX 71 78 72 79 77 80 73 81 74 82 76 83 78 84 75 85 59 86 60 87
REMARK SMILES IDX 65 88 61 89 62 90 64 91 66 92 63 93
REMARK H PARENT 28 5 33 36 83 55 57 66
REMARK Flexibility Score: inf
ROOT
ATOM      1  C   UNL A   1      34.258  32.665  29.350  1.00  0.00     0.116 C 
ENDROOT
BRANCH   1   2
ATOM      2  N   UNL A   1      34.567  31.385  28.732  1.00  0.00    -0.356 N 
ATOM      3  O   UNL A   1      32.826  31.383  27.226  1.00  0.00    -0.275 OA
ATOM      4  C   UNL A   1      33.863  30.883  27.652  1.00  0.00     0.221 C 
ATOM      5  H   UNL A   1      35.310  30.853  29.099  1.00  0.00     0.163 HD
BRANCH   4   6
ATOM      6  C   UNL A   1      34.490  29.690  26.948  1.00  0.00     0.123 C 
BRANCH   6   7
ATOM      7  C   UNL A   1      33.597  28.461  27.102  1.00  0.00     0.154 C 
BRANCH   7   8
ATOM      8  N   UNL A   1      33.064  28.046  25.820  1.00  0.00    -0.271 N 
ATOM      9  C   UNL A   1      33.698  27.479  24.757  1.00  0.00     0.117 A 
ATOM     10  N   UNL A   1      31.737  28.133  25.663  1.00  0.00    -0.172 NA
ATOM     11  C   UNL A   1      32.747  27.427  23.756  1.00  0.00     0.021 A 
ATOM     12  C   UNL A   1      31.557  27.935  24.365  1.00  0.00     0.100 A 
BRANCH  11  13
ATOM     13  C   UNL A   1      33.026  27.062  22.403  1.00  0.00     0.016 C 
ATOM     14  C   UNL A   1      33.225  25.862  21.812  1.00  0.00     0.053 C 
BRANCH  14  15
ATOM     15  C   UNL A   1      33.348  24.383  22.220  1.00  0.00     0.185 C 
ATOM     16  O   UNL A   1      33.567  23.495  21.412  1.00  0.00    -0.289 OA
BRANCH  15  17
ATOM     17  C   UNL A   1      33.105  24.014  23.666  1.00  0.00     0.022 A 
ATOM     18  C   UNL A   1      34.826  24.061  24.252  1.00  0.00     0.015 A 
ATOM     19  C   UNL A   1      31.776  22.973  24.785  1.00  0.00     0.015 A 
ATOM     20  C   UNL A   1      35.260  23.114  25.665  1.00  0.00     0.040 A 
ATOM     21  C   UNL A   1      32.381  22.068  26.212  1.00  0.00     0.040 A 
ATOM     22  C   UNL A   1      34.084  22.160  26.574  1.00  0.00     0.123 A 
ATOM     23  F   UNL A   1      34.552  21.401  27.576  1.00  0.00    -0.207 F 
ENDBRANCH  15  17
ENDBRANCH  14  15
ENDBRANCH  11  13
BRANCH  12  24
ATOM     24  C   UNL A   1      30.228  28.164  23.693  1.00  0.00     0.004 A 
ATOM     25  C   UNL A   1      28.403  27.287  23.643  1.00  0.00     0.010 A 
ATOM     26  C   UNL A   1      30.260  29.964  23.442  1.00  0.00     0.031 A 
ATOM     27  C   UNL A   1      26.953  28.333  23.444  1.00  0.00     0.002 A 
ATOM     28  C   UNL A   1      28.755  30.835  23.235  1.00  0.00     0.041 A 
ATOM     29  C   UNL A   1      27.184  30.052  23.253  1.00  0.00     0.020 A 
ATOM     30  Cl  UNL A   1      28.818  32.541  22.970  1.00  0.00    -0.084 Cl
ENDBRANCH  12  24
ENDBRANCH   7   8
ENDBRANCH   6   7
ENDBRANCH   4   6
ENDBRANCH   1   2
BRANCH   1  31
ATOM     31  C   UNL A   1      34.873  33.883  28.642  1.00  0.00     0.023 C 
BRANCH  31  32
ATOM     32  C   UNL A   1      34.531  35.271  29.196  1.00  0.00     0.023 C 
BRANCH  32  33
ATOM     33  C   UNL A   1      33.575  35.324  30.390  1.00  0.00     0.116 C 
BRANCH  33  34
ATOM     34  N   UNL A   1      33.910  36.123  31.558  1.00  0.00    -0.352 N 
ATOM     35  C   UNL A   1      34.597  35.649  32.689  1.00  0.00     0.251 C 
ATOM     36  H   UNL A   1      33.634  37.068  31.557  1.00  0.00     0.163 HD
ATOM     37  O   UNL A   1      34.450  36.184  33.782  1.00  0.00    -0.269 OA
BRANCH  35  38
ATOM     38  C   UNL A   1      35.576  34.531  32.547  1.00  0.00     0.039 A 
ATOM     39  C   UNL A   1      35.287  33.158  32.654  1.00  0.00     0.014 A 
ATOM     40  C   UNL A   1      36.901  34.885  32.417  1.00  0.00     0.014 A 
ATOM     41  C   UNL A   1      36.357  32.222  32.682  1.00  0.00     0.010 A 
ATOM     42  C   UNL A   1      37.767  33.948  31.944  1.00  0.00     0.010 A 
ATOM     43  C   UNL A   1      37.666  32.671  32.448  1.00  0.00    -0.014 A 
BRANCH  43  44
ATOM     44  C   UNL A   1      38.874  31.862  32.170  1.00  0.00     0.031 A 
ATOM     45  C   UNL A   1      39.647  31.549  33.436  1.00  0.00     0.074 A 
ATOM     46  C   UNL A   1      39.044  31.223  30.954  1.00  0.00     0.049 A 
ATOM     47  N   UNL A   1      40.917  31.470  33.598  1.00  0.00    -0.248 NA
ATOM     48  C   UNL A   1      38.950  31.309  34.713  1.00  0.00     0.031 C 
ATOM     49  C   UNL A   1      38.230  31.332  29.719  1.00  0.00     0.029 A 
ATOM     50  N   UNL A   1      39.994  30.300  30.532  1.00  0.00    -0.354 N 
ATOM     51  C   UNL A   1      41.153  30.953  34.878  1.00  0.00     0.074 A 
ATOM     52  C   UNL A   1      39.893  30.803  35.513  1.00  0.00     0.031 C 
ATOM     53  C   UNL A   1      38.588  30.396  28.797  1.00  0.00     0.029 A 
ATOM     54  C   UNL A   1      39.738  29.657  29.277  1.00  0.00     0.049 A 
ATOM     55  H   UNL A   1      40.797  30.100  31.064  1.00  0.00     0.167 HD
ATOM     56  C   UNL A   1      42.404  30.575  35.233  1.00  0.00     0.037 A 
ATOM     57  C   UNL A   1      40.483  28.671  28.659  1.00  0.00     0.037 A 
ATOM     58  C   UNL A   1      43.344  31.316  34.437  1.00  0.00     0.049 A 
ATOM     59  C   UNL A   1      41.823  28.711  29.293  1.00  0.00     0.074 A 
ATOM     60  C   UNL A   1      43.541  32.679  34.289  1.00  0.00     0.029 A 
ATOM     61  N   UNL A   1      43.706  30.729  33.251  1.00  0.00    -0.354 N 
ATOM     62  N   UNL A   1      42.619  29.735  29.169  1.00  0.00    -0.248 NA
ATOM     63  C   UNL A   1      41.965  27.903  30.496  1.00  0.00     0.031 C 
ATOM     64  C   UNL A   1      43.502  32.889  32.881  1.00  0.00     0.029 A 
ATOM     65  C   UNL A   1      43.513  31.647  32.246  1.00  0.00     0.049 A 
ATOM     66  H   UNL A   1      44.044  29.810  33.140  1.00  0.00     0.167 HD
ATOM     67  C   UNL A   1      43.001  30.000  30.469  1.00  0.00     0.074 A 
ATOM     68  C   UNL A   1      42.542  28.841  31.253  1.00  0.00     0.031 C 
ATOM     69  C   UNL A   1      43.321  31.263  30.871  1.00  0.00     0.037 A 
BRANCH  56  70
ATOM     70  C   UNL A   1      42.748  29.309  35.961  1.00  0.00     0.057 A 
ATOM     71  C   UNL A   1      42.311  28.029  35.562  1.00  0.00     0.134 A 
ATOM     72  C   UNL A   1      43.808  29.327  36.883  1.00  0.00     0.134 A 
ATOM     73  F   UNL A   1      41.372  27.868  34.618  1.00  0.00    -0.206 F 
ATOM     74  C   UNL A   1      42.903  26.851  36.039  1.00  0.00     0.040 A 
ATOM     75  C   UNL A   1      44.431  28.159  37.335  1.00  0.00     0.040 A 
ATOM     76  F   UNL A   1      44.323  30.490  37.310  1.00  0.00    -0.206 F 
ATOM     77  C   UNL A   1      43.982  26.914  36.911  1.00  0.00     0.006 A 
ENDBRANCH  56  70
BRANCH  57  78
ATOM     78  C   UNL A   1      40.118  27.451  27.845  1.00  0.00     0.057 A 
ATOM     79  C   UNL A   1      39.491  26.359  28.457  1.00  0.00     0.134 A 
ATOM     80  C   UNL A   1      40.696  27.167  26.579  1.00  0.00     0.134 A 
ATOM     81  F   UNL A   1      38.916  26.494  29.659  1.00  0.00    -0.206 F 
ATOM     82  C   UNL A   1      39.517  25.062  27.913  1.00  0.00     0.040 A 
ATOM     83  C   UNL A   1      40.718  25.871  26.016  1.00  0.00     0.040 A 
ATOM     84  F   UNL A   1      41.331  28.123  25.881  1.00  0.00    -0.206 F 
ATOM     85  C   UNL A   1      40.155  24.806  26.705  1.00  0.00     0.006 A 
ENDBRANCH  57  78
BRANCH  69  86
ATOM     86  C   UNL A   1      43.382  32.372  29.850  1.00  0.00     0.057 A 
ATOM     87  C   UNL A   1      44.581  32.519  29.149  1.00  0.00     0.134 A 
ATOM     88  C   UNL A   1      42.426  33.388  29.664  1.00  0.00     0.134 A 
ATOM     89  F   UNL A   1      45.572  31.632  29.326  1.00  0.00    -0.206 F 
ATOM     90  C   UNL A   1      44.826  33.604  28.310  1.00  0.00     0.040 A 
ATOM     91  C   UNL A   1      42.643  34.466  28.794  1.00  0.00     0.040 A 
ATOM     92  F   UNL A   1      41.287  33.414  30.360  1.00  0.00    -0.206 F 
ATOM     93  C   UNL A   1      43.851  34.576  28.116  1.00  0.00     0.006 A 
ENDBRANCH  69  86
ENDBRANCH  43  44
ENDBRANCH  35  38
ENDBRANCH  33  34
ENDBRANCH  32  33
ENDBRANCH  31  32
ENDBRANCH   1  31
TORSDOF 17
ENDMDL
