MODEL 1
REMARK VINA RESULT:     -11.6      0.000      0.000
REMARK SMILES C[C@@H](C(=O)NCCCCNC(=O)c1ccc(-c2c3nc(c(-c4c(F)cccc4F)c4ccc([nH]4)c(-c4c(F)cccc4F)c4nc(c(-c5c(F)cccc5F)c5ccc2[nH]5)C=C4)C=C3)cc1)c1ccc(C[C@H]2CCC[C@@H]2O)cc1Br
REMARK SMILES IDX 6 1 5 2 3 3 4 4 2 6 1 7 67 8 68 9 79 10 69 11 78 12 80 13
REMARK SMILES IDX 70 14 71 15 72 16 73 17 76 18 74 19 75 20 77 21 7 23 8 24
REMARK SMILES IDX 9 25 10 26 11 27 12 29 13 30 14 31 66 32 15 33 65 34 16 35
REMARK SMILES IDX 17 36 18 37 59 38 19 39 64 40 58 41 60 42 20 43 63 44 57 45
REMARK SMILES IDX 56 46 21 48 47 49 30 50 46 51 31 52 34 53 45 54 61 55 32 56
REMARK SMILES IDX 33 57 44 59 62 60 35 61 22 62 23 63 28 64 24 65 25 66 27 67
REMARK SMILES IDX 29 68 26 69 48 70 49 71 54 72 50 73 51 74 53 75 55 76 52 77
REMARK SMILES IDX 36 78 37 79 42 80 38 81 39 82 41 83 43 84 40 85
REMARK H PARENT 5 5 77 22 10 28 60 47 34 58
REMARK Flexibility Score: inf
ROOT
ATOM      1  C   UNL A   1      31.372  27.788  24.998  1.00  0.00     0.116 C 
ENDROOT
BRANCH   1   2
ATOM      2  N   UNL A   1      31.214  26.685  25.929  1.00  0.00    -0.356 N 
ATOM      3  C   UNL A   1      31.118  25.342  25.686  1.00  0.00     0.227 C 
ATOM      4  O   UNL A   1      30.670  24.653  26.606  1.00  0.00    -0.274 OA
ATOM      5  H   UNL A   1      31.168  26.943  26.877  1.00  0.00     0.163 HD
BRANCH   3   6
ATOM      6  C   UNL A   1      31.550  24.766  24.316  1.00  0.00     0.106 C 
ATOM      7  C   UNL A   1      30.270  24.673  23.482  1.00  0.00     0.023 C 
BRANCH   6   8
ATOM      8  C   UNL A   1      32.393  23.477  24.410  1.00  0.00    -0.022 A 
ATOM      9  C   UNL A   1      31.736  22.244  24.173  1.00  0.00     0.006 A 
ATOM     10  C   UNL A   1      33.752  23.385  24.779  1.00  0.00     0.022 A 
ATOM     11  C   UNL A   1      32.399  21.014  24.199  1.00  0.00     0.004 A 
ATOM     12  C   UNL A   1      34.414  22.144  24.803  1.00  0.00     0.019 A 
ATOM     13  Br  UNL A   1      34.850  24.819  25.384  1.00  0.00    -0.051 Br
ATOM     14  C   UNL A   1      33.748  20.949  24.523  1.00  0.00    -0.047 A 
BRANCH  14  15
ATOM     15  C   UNL A   1      34.476  19.634  24.627  1.00  0.00     0.041 C 
BRANCH  15  16
ATOM     16  C   UNL A   1      33.619  18.375  24.418  1.00  0.00     0.022 C 
ATOM     17  C   UNL A   1      34.094  17.384  23.342  1.00  0.00     0.007 C 
ATOM     18  C   UNL A   1      33.421  17.511  25.667  1.00  0.00     0.117 C 
ATOM     19  C   UNL A   1      33.746  15.987  23.870  1.00  0.00     0.003 C 
ATOM     20  C   UNL A   1      32.869  16.216  25.091  1.00  0.00     0.032 C 
BRANCH  18  21
ATOM     21  O   UNL A   1      32.527  18.104  26.589  1.00  0.00    -0.393 OA
ATOM     22  H   UNL A   1      32.844  18.992  26.821  1.00  0.00     0.210 HD
ENDBRANCH  18  21
ENDBRANCH  15  16
ENDBRANCH  14  15
ENDBRANCH   6   8
ENDBRANCH   3   6
ENDBRANCH   1   2
BRANCH   1  23
ATOM     23  C   UNL A   1      31.996  29.009  25.683  1.00  0.00     0.023 C 
BRANCH  23  24
ATOM     24  C   UNL A   1      33.517  28.964  25.825  1.00  0.00     0.023 C 
BRANCH  24  25
ATOM     25  C   UNL A   1      34.015  28.881  27.258  1.00  0.00     0.116 C 
BRANCH  25  26
ATOM     26  N   UNL A   1      34.007  30.173  27.932  1.00  0.00    -0.352 N 
ATOM     27  C   UNL A   1      35.011  30.760  28.660  1.00  0.00     0.251 C 
ATOM     28  H   UNL A   1      33.173  30.690  27.856  1.00  0.00     0.163 HD
ATOM     29  O   UNL A   1      34.817  31.802  29.278  1.00  0.00    -0.269 OA
BRANCH  27  30
ATOM     30  C   UNL A   1      36.327  30.095  28.715  1.00  0.00     0.039 A 
ATOM     31  C   UNL A   1      37.173  30.167  27.606  1.00  0.00     0.014 A 
ATOM     32  C   UNL A   1      36.742  29.473  29.894  1.00  0.00     0.014 A 
ATOM     33  C   UNL A   1      38.477  29.681  27.707  1.00  0.00     0.010 A 
ATOM     34  C   UNL A   1      38.060  29.056  30.015  1.00  0.00     0.010 A 
ATOM     35  C   UNL A   1      38.940  29.160  28.925  1.00  0.00    -0.014 A 
BRANCH  35  36
ATOM     36  C   UNL A   1      40.339  28.708  29.108  1.00  0.00     0.031 A 
ATOM     37  C   UNL A   1      41.373  29.690  29.574  1.00  0.00     0.074 A 
ATOM     38  C   UNL A   1      40.700  27.468  28.730  1.00  0.00     0.049 A 
ATOM     39  N   UNL A   1      42.675  29.573  29.601  1.00  0.00    -0.248 NA
ATOM     40  C   UNL A   1      40.874  30.999  30.026  1.00  0.00     0.031 C 
ATOM     41  C   UNL A   1      39.795  26.441  28.213  1.00  0.00     0.029 A 
ATOM     42  N   UNL A   1      41.936  26.876  28.689  1.00  0.00    -0.354 N 
ATOM     43  C   UNL A   1      43.152  30.804  30.029  1.00  0.00     0.074 A 
ATOM     44  C   UNL A   1      42.002  31.664  30.218  1.00  0.00     0.031 C 
ATOM     45  C   UNL A   1      40.507  25.345  27.904  1.00  0.00     0.029 A 
ATOM     46  C   UNL A   1      41.920  25.607  28.162  1.00  0.00     0.049 A 
ATOM     47  H   UNL A   1      42.757  27.318  29.005  1.00  0.00     0.167 HD
ATOM     48  C   UNL A   1      44.432  31.181  30.253  1.00  0.00     0.037 A 
ATOM     49  C   UNL A   1      42.932  24.760  27.897  1.00  0.00     0.037 A 
ATOM     50  C   UNL A   1      45.566  30.307  30.111  1.00  0.00     0.049 A 
ATOM     51  C   UNL A   1      44.342  25.181  28.198  1.00  0.00     0.074 A 
ATOM     52  C   UNL A   1      46.894  30.564  30.396  1.00  0.00     0.029 A 
ATOM     53  N   UNL A   1      45.499  29.002  29.644  1.00  0.00    -0.354 N 
ATOM     54  N   UNL A   1      44.779  26.328  28.657  1.00  0.00    -0.248 NA
ATOM     55  C   UNL A   1      45.398  24.190  27.950  1.00  0.00     0.031 C 
ATOM     56  C   UNL A   1      47.637  29.421  30.076  1.00  0.00     0.029 A 
ATOM     57  C   UNL A   1      46.765  28.444  29.623  1.00  0.00     0.049 A 
ATOM     58  H   UNL A   1      44.674  28.542  29.369  1.00  0.00     0.167 HD
ATOM     59  C   UNL A   1      46.155  26.193  28.772  1.00  0.00     0.074 A 
ATOM     60  C   UNL A   1      46.481  24.848  28.341  1.00  0.00     0.031 C 
ATOM     61  C   UNL A   1      47.067  27.100  29.200  1.00  0.00     0.037 A 
BRANCH  48  62
ATOM     62  C   UNL A   1      44.664  32.602  30.669  1.00  0.00     0.057 A 
ATOM     63  C   UNL A   1      44.886  33.622  29.733  1.00  0.00     0.134 A 
ATOM     64  C   UNL A   1      44.674  32.954  32.023  1.00  0.00     0.134 A 
ATOM     65  F   UNL A   1      44.905  33.346  28.420  1.00  0.00    -0.206 F 
ATOM     66  C   UNL A   1      45.145  34.933  30.132  1.00  0.00     0.040 A 
ATOM     67  C   UNL A   1      44.906  34.268  32.434  1.00  0.00     0.040 A 
ATOM     68  F   UNL A   1      44.466  32.027  32.971  1.00  0.00    -0.206 F 
ATOM     69  C   UNL A   1      45.152  35.260  31.486  1.00  0.00     0.006 A 
ENDBRANCH  48  62
BRANCH  49  70
ATOM     70  C   UNL A   1      42.636  23.424  27.328  1.00  0.00     0.057 A 
ATOM     71  C   UNL A   1      42.621  23.220  25.944  1.00  0.00     0.134 A 
ATOM     72  C   UNL A   1      42.395  22.316  28.149  1.00  0.00     0.134 A 
ATOM     73  F   UNL A   1      42.829  24.249  25.109  1.00  0.00    -0.206 F 
ATOM     74  C   UNL A   1      42.372  21.962  25.394  1.00  0.00     0.040 A 
ATOM     75  C   UNL A   1      42.164  21.048  27.614  1.00  0.00     0.040 A 
ATOM     76  F   UNL A   1      42.406  22.447  29.483  1.00  0.00    -0.206 F 
ATOM     77  C   UNL A   1      42.151  20.870  26.231  1.00  0.00     0.006 A 
ENDBRANCH  49  70
BRANCH  61  78
ATOM     78  C   UNL A   1      48.498  26.661  29.258  1.00  0.00     0.057 A 
ATOM     79  C   UNL A   1      49.380  26.889  28.196  1.00  0.00     0.134 A 
ATOM     80  C   UNL A   1      49.010  26.061  30.416  1.00  0.00     0.134 A 
ATOM     81  F   UNL A   1      48.946  27.449  27.058  1.00  0.00    -0.206 F 
ATOM     82  C   UNL A   1      50.726  26.525  28.281  1.00  0.00     0.040 A 
ATOM     83  C   UNL A   1      50.357  25.711  30.518  1.00  0.00     0.040 A 
ATOM     84  F   UNL A   1      48.215  25.823  31.469  1.00  0.00    -0.206 F 
ATOM     85  C   UNL A   1      51.219  25.942  29.448  1.00  0.00     0.006 A 
ENDBRANCH  61  78
ENDBRANCH  35  36
ENDBRANCH  27  30
ENDBRANCH  25  26
ENDBRANCH  24  25
ENDBRANCH  23  24
ENDBRANCH   1  23
TORSDOF 15
ENDMDL
MODEL 2
REMARK VINA RESULT:     -11.5      1.983      2.538
REMARK SMILES C[C@@H](C(=O)NCCCCNC(=O)c1ccc(-c2c3nc(c(-c4c(F)cccc4F)c4ccc([nH]4)c(-c4c(F)cccc4F)c4nc(c(-c5c(F)cccc5F)c5ccc2[nH]5)C=C4)C=C3)cc1)c1ccc(C[C@H]2CCC[C@@H]2O)cc1Br
REMARK SMILES IDX 6 1 5 2 3 3 4 4 2 6 1 7 67 8 68 9 79 10 69 11 78 12 80 13
REMARK SMILES IDX 70 14 71 15 72 16 73 17 76 18 74 19 75 20 77 21 7 23 8 24
REMARK SMILES IDX 9 25 10 26 11 27 12 29 13 30 14 31 66 32 15 33 65 34 16 35
REMARK SMILES IDX 17 36 18 37 59 38 19 39 64 40 58 41 60 42 20 43 63 44 57 45
REMARK SMILES IDX 56 46 21 48 47 49 30 50 46 51 31 52 34 53 45 54 61 55 32 56
REMARK SMILES IDX 33 57 44 59 62 60 35 61 22 62 23 63 28 64 24 65 25 66 27 67
REMARK SMILES IDX 29 68 26 69 48 70 49 71 54 72 50 73 51 74 53 75 55 76 52 77
REMARK SMILES IDX 36 78 37 79 42 80 38 81 39 82 41 83 43 84 40 85
REMARK H PARENT 5 5 77 22 10 28 60 47 34 58
REMARK Flexibility Score: inf
ROOT
ATOM      1  C   UNL A   1      31.429  29.273  25.053  1.00  0.00     0.116 C 
ENDROOT
BRANCH   1   2
ATOM      2  N   UNL A   1      30.919  29.636  23.744  1.00  0.00    -0.356 N 
ATOM      3  C   UNL A   1      30.458  28.839  22.732  1.00  0.00     0.227 C 
ATOM      4  O   UNL A   1      30.386  29.361  21.617  1.00  0.00    -0.274 OA
ATOM      5  H   UNL A   1      30.903  30.602  23.556  1.00  0.00     0.163 HD
BRANCH   3   6
ATOM      6  C   UNL A   1      30.069  27.368  23.016  1.00  0.00     0.106 C 
ATOM      7  C   UNL A   1      28.707  27.425  23.711  1.00  0.00     0.023 C 
BRANCH   6   8
ATOM      8  C   UNL A   1      31.164  26.551  23.734  1.00  0.00    -0.022 A 
ATOM      9  C   UNL A   1      30.902  26.127  25.060  1.00  0.00     0.006 A 
ATOM     10  C   UNL A   1      32.445  26.236  23.232  1.00  0.00     0.022 A 
ATOM     11  C   UNL A   1      31.802  25.356  25.801  1.00  0.00     0.004 A 
ATOM     12  C   UNL A   1      33.345  25.460  23.983  1.00  0.00     0.019 A 
ATOM     13  Br  UNL A   1      33.191  26.855  21.593  1.00  0.00    -0.051 Br
ATOM     14  C   UNL A   1      33.041  25.020  25.272  1.00  0.00    -0.047 A 
BRANCH  14  15
ATOM     15  C   UNL A   1      34.060  24.248  26.070  1.00  0.00     0.041 C 
BRANCH  15  16
ATOM     16  C   UNL A   1      35.318  23.809  25.305  1.00  0.00     0.022 C 
ATOM     17  C   UNL A   1      36.672  24.079  25.984  1.00  0.00     0.007 C 
ATOM     18  C   UNL A   1      35.369  22.323  24.938  1.00  0.00     0.117 C 
ATOM     19  C   UNL A   1      37.578  22.901  25.605  1.00  0.00     0.003 C 
ATOM     20  C   UNL A   1      36.823  22.129  24.534  1.00  0.00     0.032 C 
BRANCH  18  21
ATOM     21  O   UNL A   1      34.479  22.004  23.886  1.00  0.00    -0.393 OA
ATOM     22  H   UNL A   1      34.716  22.515  23.096  1.00  0.00     0.210 HD
ENDBRANCH  18  21
ENDBRANCH  15  16
ENDBRANCH  14  15
ENDBRANCH   6   8
ENDBRANCH   3   6
ENDBRANCH   1   2
BRANCH   1  23
ATOM     23  C   UNL A   1      32.917  29.616  25.186  1.00  0.00     0.023 C 
BRANCH  23  24
ATOM     24  C   UNL A   1      33.760  28.568  25.911  1.00  0.00     0.023 C 
BRANCH  24  25
ATOM     25  C   UNL A   1      33.808  28.730  27.421  1.00  0.00     0.116 C 
BRANCH  25  26
ATOM     26  N   UNL A   1      33.854  30.126  27.835  1.00  0.00    -0.352 N 
ATOM     27  C   UNL A   1      34.899  30.812  28.403  1.00  0.00     0.251 C 
ATOM     28  H   UNL A   1      33.029  30.644  27.691  1.00  0.00     0.163 HD
ATOM     29  O   UNL A   1      34.752  31.958  28.816  1.00  0.00    -0.269 OA
BRANCH  27  30
ATOM     30  C   UNL A   1      36.201  30.131  28.538  1.00  0.00     0.039 A 
ATOM     31  C   UNL A   1      37.096  30.154  27.466  1.00  0.00     0.014 A 
ATOM     32  C   UNL A   1      36.555  29.545  29.755  1.00  0.00     0.014 A 
ATOM     33  C   UNL A   1      38.387  29.654  27.641  1.00  0.00     0.010 A 
ATOM     34  C   UNL A   1      37.860  29.115  29.948  1.00  0.00     0.010 A 
ATOM     35  C   UNL A   1      38.788  29.169  28.895  1.00  0.00    -0.014 A 
BRANCH  35  36
ATOM     36  C   UNL A   1      40.171  28.705  29.155  1.00  0.00     0.031 A 
ATOM     37  C   UNL A   1      41.176  29.669  29.712  1.00  0.00     0.074 A 
ATOM     38  C   UNL A   1      40.551  27.473  28.768  1.00  0.00     0.049 A 
ATOM     39  N   UNL A   1      42.473  29.543  29.819  1.00  0.00    -0.248 NA
ATOM     40  C   UNL A   1      40.655  30.968  30.165  1.00  0.00     0.031 C 
ATOM     41  C   UNL A   1      39.676  26.465  28.168  1.00  0.00     0.029 A 
ATOM     42  N   UNL A   1      41.784  26.875  28.790  1.00  0.00    -0.354 N 
ATOM     43  C   UNL A   1      42.927  30.761  30.309  1.00  0.00     0.074 A 
ATOM     44  C   UNL A   1      41.771  31.621  30.446  1.00  0.00     0.031 C 
ATOM     45  C   UNL A   1      40.402  25.373  27.876  1.00  0.00     0.029 A 
ATOM     46  C   UNL A   1      41.797  25.621  28.230  1.00  0.00     0.049 A 
ATOM     47  H   UNL A   1      42.585  27.304  29.170  1.00  0.00     0.167 HD
ATOM     48  C   UNL A   1      44.192  31.124  30.624  1.00  0.00     0.037 A 
ATOM     49  C   UNL A   1      42.821  24.776  28.008  1.00  0.00     0.037 A 
ATOM     50  C   UNL A   1      45.329  30.248  30.531  1.00  0.00     0.049 A 
ATOM     51  C   UNL A   1      44.210  25.180  28.409  1.00  0.00     0.074 A 
ATOM     52  C   UNL A   1      46.637  30.490  30.908  1.00  0.00     0.029 A 
ATOM     53  N   UNL A   1      45.287  28.956  30.027  1.00  0.00    -0.354 N 
ATOM     54  N   UNL A   1      44.621  26.313  28.925  1.00  0.00    -0.248 NA
ATOM     55  C   UNL A   1      45.277  24.191  28.203  1.00  0.00     0.031 C 
ATOM     56  C   UNL A   1      47.395  29.352  30.606  1.00  0.00     0.029 A 
ATOM     57  C   UNL A   1      46.550  28.392  30.072  1.00  0.00     0.049 A 
ATOM     58  H   UNL A   1      44.479  28.508  29.688  1.00  0.00     0.167 HD
ATOM     59  C   UNL A   1      45.987  26.167  29.125  1.00  0.00     0.074 A 
ATOM     60  C   UNL A   1      46.334  24.833  28.680  1.00  0.00     0.031 C 
ATOM     61  C   UNL A   1      46.873  27.058  29.634  1.00  0.00     0.037 A 
BRANCH  48  62
ATOM     62  C   UNL A   1      44.402  32.533  31.092  1.00  0.00     0.057 A 
ATOM     63  C   UNL A   1      44.702  33.572  30.201  1.00  0.00     0.134 A 
ATOM     64  C   UNL A   1      44.312  32.852  32.451  1.00  0.00     0.134 A 
ATOM     65  F   UNL A   1      44.819  33.328  28.887  1.00  0.00    -0.206 F 
ATOM     66  C   UNL A   1      44.940  34.872  30.651  1.00  0.00     0.040 A 
ATOM     67  C   UNL A   1      44.521  34.154  32.910  1.00  0.00     0.040 A 
ATOM     68  F   UNL A   1      44.025  31.904  33.357  1.00  0.00    -0.206 F 
ATOM     69  C   UNL A   1      44.847  35.165  32.009  1.00  0.00     0.006 A 
ENDBRANCH  48  62
BRANCH  49  70
ATOM     70  C   UNL A   1      42.557  23.457  27.386  1.00  0.00     0.057 A 
ATOM     71  C   UNL A   1      42.694  23.273  26.006  1.00  0.00     0.134 A 
ATOM     72  C   UNL A   1      42.195  22.344  28.155  1.00  0.00     0.134 A 
ATOM     73  F   UNL A   1      43.023  24.307  25.218  1.00  0.00    -0.206 F 
ATOM     74  C   UNL A   1      42.477  22.030  25.409  1.00  0.00     0.040 A 
ATOM     75  C   UNL A   1      41.994  21.091  27.575  1.00  0.00     0.040 A 
ATOM     76  F   UNL A   1      42.057  22.456  29.483  1.00  0.00    -0.206 F 
ATOM     77  C   UNL A   1      42.133  20.933  26.196  1.00  0.00     0.006 A 
ENDBRANCH  49  70
BRANCH  61  78
ATOM     78  C   UNL A   1      48.295  26.610  29.771  1.00  0.00     0.057 A 
ATOM     79  C   UNL A   1      49.260  26.919  28.806  1.00  0.00     0.134 A 
ATOM     80  C   UNL A   1      48.714  25.916  30.914  1.00  0.00     0.134 A 
ATOM     81  F   UNL A   1      48.918  27.572  27.686  1.00  0.00    -0.206 F 
ATOM     82  C   UNL A   1      50.596  26.544  28.969  1.00  0.00     0.040 A 
ATOM     83  C   UNL A   1      50.049  25.553  31.096  1.00  0.00     0.040 A 
ATOM     84  F   UNL A   1      47.837  25.596  31.877  1.00  0.00    -0.206 F 
ATOM     85  C   UNL A   1      50.994  25.867  30.121  1.00  0.00     0.006 A 
ENDBRANCH  61  78
ENDBRANCH  35  36
ENDBRANCH  27  30
ENDBRANCH  25  26
ENDBRANCH  24  25
ENDBRANCH  23  24
ENDBRANCH   1  23
TORSDOF 15
ENDMDL
MODEL 3
REMARK VINA RESULT:     -11.4      4.982      8.488
REMARK SMILES C[C@@H](C(=O)NCCCCNC(=O)c1ccc(-c2c3nc(c(-c4c(F)cccc4F)c4ccc([nH]4)c(-c4c(F)cccc4F)c4nc(c(-c5c(F)cccc5F)c5ccc2[nH]5)C=C4)C=C3)cc1)c1ccc(C[C@H]2CCC[C@@H]2O)cc1Br
REMARK SMILES IDX 6 1 5 2 3 3 4 4 2 6 1 7 67 8 68 9 79 10 69 11 78 12 80 13
REMARK SMILES IDX 70 14 71 15 72 16 73 17 76 18 74 19 75 20 77 21 7 23 8 24
REMARK SMILES IDX 9 25 10 26 11 27 12 29 13 30 14 31 66 32 15 33 65 34 16 35
REMARK SMILES IDX 17 36 18 37 59 38 19 39 64 40 58 41 60 42 20 43 63 44 57 45
REMARK SMILES IDX 56 46 21 48 47 49 30 50 46 51 31 52 34 53 45 54 61 55 32 56
REMARK SMILES IDX 33 57 44 59 62 60 35 61 22 62 23 63 28 64 24 65 25 66 27 67
REMARK SMILES IDX 29 68 26 69 48 70 49 71 54 72 50 73 51 74 53 75 55 76 52 77
REMARK SMILES IDX 36 78 37 79 42 80 38 81 39 82 41 83 43 84 40 85
REMARK H PARENT 5 5 77 22 10 28 60 47 34 58
REMARK Flexibility Score: inf
ROOT
ATOM      1  C   UNL A   1      33.582  34.690  30.751  1.00  0.00     0.116 C 
ENDROOT
BRANCH   1   2
ATOM      2  N   UNL A   1      34.378  35.289  31.806  1.00  0.00    -0.356 N 
ATOM      3  C   UNL A   1      35.446  34.780  32.494  1.00  0.00     0.227 C 
ATOM      4  O   UNL A   1      35.738  35.350  33.548  1.00  0.00    -0.274 OA
ATOM      5  H   UNL A   1      34.108  36.199  32.067  1.00  0.00     0.163 HD
BRANCH   3   6
ATOM      6  C   UNL A   1      36.209  33.549  31.947  1.00  0.00     0.106 C 
ATOM      7  C   UNL A   1      36.145  32.494  33.053  1.00  0.00     0.023 C 
BRANCH   6   8
ATOM      8  C   UNL A   1      37.614  33.870  31.396  1.00  0.00    -0.022 A 
ATOM      9  C   UNL A   1      37.822  33.723  30.002  1.00  0.00     0.006 A 
ATOM     10  C   UNL A   1      38.751  34.232  32.150  1.00  0.00     0.022 A 
ATOM     11  C   UNL A   1      39.041  34.013  29.383  1.00  0.00     0.004 A 
ATOM     12  C   UNL A   1      39.975  34.522  31.520  1.00  0.00     0.019 A 
ATOM     13  Br  UNL A   1      38.867  34.285  34.050  1.00  0.00    -0.051 Br
ATOM     14  C   UNL A   1      40.137  34.408  30.138  1.00  0.00    -0.047 A 
BRANCH  14  15
ATOM     15  C   UNL A   1      41.483  34.662  29.510  1.00  0.00     0.041 C 
BRANCH  15  16
ATOM     16  C   UNL A   1      42.567  33.613  29.801  1.00  0.00     0.022 C 
ATOM     17  C   UNL A   1      42.105  32.149  29.901  1.00  0.00     0.007 C 
ATOM     18  C   UNL A   1      43.722  33.577  28.796  1.00  0.00     0.117 C 
ATOM     19  C   UNL A   1      43.242  31.305  29.313  1.00  0.00     0.003 C 
ATOM     20  C   UNL A   1      44.410  32.261  29.127  1.00  0.00     0.032 C 
BRANCH  18  21
ATOM     21  O   UNL A   1      44.592  34.682  28.945  1.00  0.00    -0.393 OA
ATOM     22  H   UNL A   1      44.071  35.499  29.002  1.00  0.00     0.210 HD
ENDBRANCH  18  21
ENDBRANCH  15  16
ENDBRANCH  14  15
ENDBRANCH   6   8
ENDBRANCH   3   6
ENDBRANCH   1   2
BRANCH   1  23
ATOM     23  C   UNL A   1      33.697  35.487  29.446  1.00  0.00     0.023 C 
BRANCH  23  24
ATOM     24  C   UNL A   1      34.081  34.663  28.218  1.00  0.00     0.023 C 
BRANCH  24  25
ATOM     25  C   UNL A   1      34.700  33.312  28.532  1.00  0.00     0.116 C 
BRANCH  25  26
ATOM     26  N   UNL A   1      34.078  32.222  27.791  1.00  0.00    -0.352 N 
ATOM     27  C   UNL A   1      34.541  30.943  27.607  1.00  0.00     0.251 C 
ATOM     28  H   UNL A   1      33.215  32.431  27.366  1.00  0.00     0.163 HD
ATOM     29  O   UNL A   1      33.967  30.166  26.851  1.00  0.00    -0.269 OA
BRANCH  27  30
ATOM     30  C   UNL A   1      35.768  30.528  28.313  1.00  0.00     0.039 A 
ATOM     31  C   UNL A   1      35.657  29.869  29.540  1.00  0.00     0.014 A 
ATOM     32  C   UNL A   1      37.014  30.724  27.715  1.00  0.00     0.014 A 
ATOM     33  C   UNL A   1      36.800  29.331  30.134  1.00  0.00     0.010 A 
ATOM     34  C   UNL A   1      38.137  30.128  28.271  1.00  0.00     0.010 A 
ATOM     35  C   UNL A   1      38.039  29.423  29.482  1.00  0.00    -0.014 A 
BRANCH  35  36
ATOM     36  C   UNL A   1      39.266  28.798  30.030  1.00  0.00     0.031 A 
ATOM     37  C   UNL A   1      39.944  29.423  31.213  1.00  0.00     0.074 A 
ATOM     38  C   UNL A   1      39.836  27.762  29.388  1.00  0.00     0.049 A 
ATOM     39  N   UNL A   1      41.123  29.174  31.720  1.00  0.00    -0.248 NA
ATOM     40  C   UNL A   1      39.214  30.509  31.886  1.00  0.00     0.031 C 
ATOM     41  C   UNL A   1      39.299  27.100  28.198  1.00  0.00     0.029 A 
ATOM     42  N   UNL A   1      41.017  27.107  29.630  1.00  0.00    -0.354 N 
ATOM     43  C   UNL A   1      41.294  30.100  32.740  1.00  0.00     0.074 A 
ATOM     44  C   UNL A   1      40.113  30.936  32.759  1.00  0.00     0.031 C 
ATOM     45  C   UNL A   1      40.149  26.135  27.811  1.00  0.00     0.029 A 
ATOM     46  C   UNL A   1      41.308  26.138  28.701  1.00  0.00     0.049 A 
ATOM     47  H   UNL A   1      41.601  27.313  30.395  1.00  0.00     0.167 HD
ATOM     48  C   UNL A   1      42.338  30.234  33.591  1.00  0.00     0.037 A 
ATOM     49  C   UNL A   1      42.395  25.356  28.568  1.00  0.00     0.037 A 
ATOM     50  C   UNL A   1      43.487  29.368  33.599  1.00  0.00     0.049 A 
ATOM     51  C   UNL A   1      43.522  25.488  29.552  1.00  0.00     0.074 A 
ATOM     52  C   UNL A   1      44.557  29.364  34.475  1.00  0.00     0.029 A 
ATOM     53  N   UNL A   1      43.710  28.348  32.686  1.00  0.00    -0.354 N 
ATOM     54  N   UNL A   1      43.650  26.329  30.549  1.00  0.00    -0.248 NA
ATOM     55  C   UNL A   1      44.653  24.563  29.396  1.00  0.00     0.031 C 
ATOM     56  C   UNL A   1      45.443  28.357  34.074  1.00  0.00     0.029 A 
ATOM     57  C   UNL A   1      44.907  27.715  32.969  1.00  0.00     0.049 A 
ATOM     58  H   UNL A   1      43.106  28.111  31.946  1.00  0.00     0.167 HD
ATOM     59  C   UNL A   1      44.861  26.022  31.153  1.00  0.00     0.074 A 
ATOM     60  C   UNL A   1      45.428  24.913  30.413  1.00  0.00     0.031 C 
ATOM     61  C   UNL A   1      45.449  26.605  32.226  1.00  0.00     0.037 A 
BRANCH  48  62
ATOM     62  C   UNL A   1      42.278  31.363  34.575  1.00  0.00     0.057 A 
ATOM     63  C   UNL A   1      41.749  31.197  35.862  1.00  0.00     0.134 A 
ATOM     64  C   UNL A   1      42.745  32.635  34.227  1.00  0.00     0.134 A 
ATOM     65  F   UNL A   1      41.270  30.006  36.251  1.00  0.00    -0.206 F 
ATOM     66  C   UNL A   1      41.656  32.265  36.755  1.00  0.00     0.040 A 
ATOM     67  C   UNL A   1      42.681  33.706  35.121  1.00  0.00     0.040 A 
ATOM     68  F   UNL A   1      43.265  32.862  33.010  1.00  0.00    -0.206 F 
ATOM     69  C   UNL A   1      42.126  33.523  36.385  1.00  0.00     0.006 A 
ENDBRANCH  48  62
BRANCH  49  70
ATOM     70  C   UNL A   1      42.454  24.369  27.464  1.00  0.00     0.057 A 
ATOM     71  C   UNL A   1      42.979  24.719  26.215  1.00  0.00     0.134 A 
ATOM     72  C   UNL A   1      42.022  23.049  27.638  1.00  0.00     0.134 A 
ATOM     73  F   UNL A   1      43.395  25.973  25.986  1.00  0.00    -0.206 F 
ATOM     74  C   UNL A   1      43.068  23.793  25.175  1.00  0.00     0.040 A 
ATOM     75  C   UNL A   1      42.122  22.107  26.613  1.00  0.00     0.040 A 
ATOM     76  F   UNL A   1      41.518  22.652  28.815  1.00  0.00    -0.206 F 
ATOM     77  C   UNL A   1      42.645  22.480  25.376  1.00  0.00     0.006 A 
ENDBRANCH  49  70
BRANCH  61  78
ATOM     78  C   UNL A   1      46.755  26.035  32.688  1.00  0.00     0.057 A 
ATOM     79  C   UNL A   1      46.815  25.009  33.638  1.00  0.00     0.134 A 
ATOM     80  C   UNL A   1      47.960  26.477  32.128  1.00  0.00     0.134 A 
ATOM     81  F   UNL A   1      45.696  24.553  34.219  1.00  0.00    -0.206 F 
ATOM     82  C   UNL A   1      48.034  24.447  34.022  1.00  0.00     0.040 A 
ATOM     83  C   UNL A   1      49.182  25.910  32.490  1.00  0.00     0.040 A 
ATOM     84  F   UNL A   1      47.966  27.453  31.207  1.00  0.00    -0.206 F 
ATOM     85  C   UNL A   1      49.221  24.892  33.442  1.00  0.00     0.006 A 
ENDBRANCH  61  78
ENDBRANCH  35  36
ENDBRANCH  27  30
ENDBRANCH  25  26
ENDBRANCH  24  25
ENDBRANCH  23  24
ENDBRANCH   1  23
TORSDOF 15
ENDMDL
