MODEL 1
REMARK VINA RESULT:     -13.0      0.000      0.000
REMARK SMILES Cc1ccc(NC(=O)C[C@H]2C(=O)NCCN2C(=O)CCC(=O)NCCCCNC(=O)c2ccc(-c3c4nc(c(-c5c(F)cccc5F)c5ccc([nH]5)c(-c5c(F)cccc5F)c5nc(c(-c6c(F)cccc6F)c6ccc3[nH]6)C=C5)C=C4)cc2)c(C)c1
REMARK SMILES IDX 21 1 22 2 23 3 20 5 19 6 17 7 18 8 16 9 10 10 11 11 12 12
REMARK SMILES IDX 13 13 15 14 14 15 9 17 7 18 6 19 8 21 5 22 1 23 2 24 3 25
REMARK SMILES IDX 87 26 4 27 85 28 86 29 24 30 25 31 26 32 27 33 28 34 29 35
REMARK SMILES IDX 30 37 31 38 32 39 84 40 33 41 83 42 34 43 35 44 36 45 77 46
REMARK SMILES IDX 37 47 82 48 76 49 78 50 38 51 81 52 75 53 74 54 39 56 65 57
REMARK SMILES IDX 48 58 64 59 49 60 52 61 63 62 79 63 50 64 51 65 62 67 80 68
REMARK SMILES IDX 53 69 40 70 41 71 46 72 42 73 43 74 45 75 47 76 44 77 66 78
REMARK SMILES IDX 67 79 72 80 68 81 69 82 71 83 73 84 70 85 54 86 55 87 60 88
REMARK SMILES IDX 56 89 57 90 59 91 61 92 58 93
REMARK H PARENT 23 4 13 16 6 20 28 36 78 55 52 66
REMARK Flexibility Score: inf
ROOT
ATOM      1  C   UNL A   1      32.877  25.542  21.771  1.00  0.00     0.220 C 
ATOM      2  O   UNL A   1      33.010  25.589  20.564  1.00  0.00    -0.275 OA
ATOM      3  N   UNL A   1      33.961  25.257  22.562  1.00  0.00    -0.356 N 
ATOM      4  H   UNL A   1      34.781  25.102  22.040  1.00  0.00     0.163 HD
ENDROOT
BRANCH   1   5
ATOM      5  C   UNL A   1      31.547  25.727  22.418  1.00  0.00     0.110 C 
BRANCH   5   6
ATOM      6  C   UNL A   1      31.003  27.088  22.062  1.00  0.00     0.110 C 
BRANCH   6   7
ATOM      7  C   UNL A   1      30.877  27.984  23.256  1.00  0.00     0.223 C 
ATOM      8  O   UNL A   1      30.085  28.937  23.157  1.00  0.00    -0.275 OA
BRANCH   7   9
ATOM      9  N   UNL A   1      31.622  27.795  24.435  1.00  0.00    -0.328 N 
ATOM     10  C   UNL A   1      31.250  27.039  25.759  1.00  0.00     0.183 C 
ATOM     11  C   UNL A   1      31.627  27.957  26.970  1.00  0.00     0.243 C 
ATOM     12  O   UNL A   1      31.180  27.759  28.101  1.00  0.00    -0.273 OA
ATOM     13  N   UNL A   1      32.545  28.959  26.820  1.00  0.00    -0.353 N 
ATOM     14  C   UNL A   1      32.783  28.700  24.371  1.00  0.00     0.141 C 
ATOM     15  C   UNL A   1      33.373  29.193  25.670  1.00  0.00     0.137 C 
ATOM     16  H   UNL A   1      32.649  29.583  27.574  1.00  0.00     0.163 HD
BRANCH  10  17
ATOM     17  C   UNL A   1      31.523  25.386  26.291  1.00  0.00     0.135 C 
BRANCH  17  18
ATOM     18  C   UNL A   1      31.030  23.760  26.534  1.00  0.00     0.227 C 
ATOM     19  N   UNL A   1      31.324  22.454  26.166  1.00  0.00    -0.326 N 
ATOM     20  H   UNL A   1      30.632  21.872  26.556  1.00  0.00     0.169 HD
ATOM     21  O   UNL A   1      30.024  23.709  27.294  1.00  0.00    -0.275 OA
BRANCH  19  22
ATOM     22  C   UNL A   1      32.242  21.612  25.438  1.00  0.00     0.044 A 
ATOM     23  C   UNL A   1      33.373  17.848  23.772  1.00  0.00     0.044 C 
ATOM     24  C   UNL A   1      33.292  19.310  24.140  1.00  0.00    -0.051 A 
ATOM     25  C   UNL A   1      32.444  20.182  23.451  1.00  0.00     0.005 A 
ATOM     26  C   UNL A   1      33.851  19.776  25.340  1.00  0.00     0.009 A 
ATOM     27  C   UNL A   1      31.997  21.378  24.066  1.00  0.00     0.026 A 
ATOM     28  C   UNL A   1      33.341  20.936  25.992  1.00  0.00    -0.027 A 
ATOM     29  C   UNL A   1      34.016  21.389  27.251  1.00  0.00     0.046 C 
ENDBRANCH  19  22
ENDBRANCH  17  18
ENDBRANCH  10  17
ENDBRANCH   7   9
ENDBRANCH   6   7
ENDBRANCH   5   6
ENDBRANCH   1   5
BRANCH   3  30
ATOM     30  C   UNL A   1      34.177  25.130  24.025  1.00  0.00     0.116 C 
BRANCH  30  31
ATOM     31  C   UNL A   1      35.086  24.076  24.863  1.00  0.00     0.023 C 
BRANCH  31  32
ATOM     32  C   UNL A   1      36.592  23.663  24.908  1.00  0.00     0.023 C 
BRANCH  32  33
ATOM     33  C   UNL A   1      37.492  24.037  26.112  1.00  0.00     0.116 C 
BRANCH  33  34
ATOM     34  N   UNL A   1      38.852  23.549  25.999  1.00  0.00    -0.352 N 
ATOM     35  C   UNL A   1      40.031  24.033  26.521  1.00  0.00     0.251 C 
ATOM     36  H   UNL A   1      38.949  22.734  25.457  1.00  0.00     0.163 HD
ATOM     37  O   UNL A   1      41.076  23.461  26.217  1.00  0.00    -0.269 OA
BRANCH  35  38
ATOM     38  C   UNL A   1      40.098  25.239  27.395  1.00  0.00     0.039 A 
ATOM     39  C   UNL A   1      39.340  25.231  28.573  1.00  0.00     0.014 A 
ATOM     40  C   UNL A   1      40.820  26.390  27.069  1.00  0.00     0.014 A 
ATOM     41  C   UNL A   1      39.345  26.337  29.434  1.00  0.00     0.010 A 
ATOM     42  C   UNL A   1      40.883  27.468  27.969  1.00  0.00     0.010 A 
ATOM     43  C   UNL A   1      40.141  27.462  29.161  1.00  0.00    -0.014 A 
BRANCH  43  44
ATOM     44  C   UNL A   1      40.182  28.604  30.128  1.00  0.00     0.031 A 
ATOM     45  C   UNL A   1      39.165  29.718  30.073  1.00  0.00     0.074 A 
ATOM     46  C   UNL A   1      41.143  28.645  31.075  1.00  0.00     0.049 A 
ATOM     47  N   UNL A   1      38.994  30.728  30.896  1.00  0.00    -0.248 NA
ATOM     48  C   UNL A   1      38.237  29.722  28.933  1.00  0.00     0.031 C 
ATOM     49  C   UNL A   1      42.246  27.690  31.200  1.00  0.00     0.029 A 
ATOM     50  N   UNL A   1      41.342  29.513  32.124  1.00  0.00    -0.354 N 
ATOM     51  C   UNL A   1      37.953  31.482  30.366  1.00  0.00     0.074 A 
ATOM     52  C   UNL A   1      37.577  30.855  29.119  1.00  0.00     0.031 C 
ATOM     53  C   UNL A   1      42.969  27.987  32.292  1.00  0.00     0.029 A 
ATOM     54  C   UNL A   1      42.396  29.165  32.937  1.00  0.00     0.049 A 
ATOM     55  H   UNL A   1      40.782  30.307  32.279  1.00  0.00     0.167 HD
ATOM     56  C   UNL A   1      37.338  32.576  30.883  1.00  0.00     0.037 A 
ATOM     57  C   UNL A   1      42.837  29.712  34.087  1.00  0.00     0.037 A 
ATOM     58  C   UNL A   1      37.691  33.191  32.137  1.00  0.00     0.049 A 
ATOM     59  C   UNL A   1      42.107  30.891  34.672  1.00  0.00     0.074 A 
ATOM     60  C   UNL A   1      37.090  34.263  32.775  1.00  0.00     0.029 A 
ATOM     61  N   UNL A   1      38.744  32.786  32.944  1.00  0.00    -0.354 N 
ATOM     62  N   UNL A   1      41.058  31.527  34.209  1.00  0.00    -0.248 NA
ATOM     63  C   UNL A   1      42.609  31.413  35.950  1.00  0.00     0.031 C 
ATOM     64  C   UNL A   1      37.801  34.529  33.951  1.00  0.00     0.029 A 
ATOM     65  C   UNL A   1      38.814  33.592  34.069  1.00  0.00     0.049 A 
ATOM     66  H   UNL A   1      39.351  32.037  32.746  1.00  0.00     0.167 HD
ATOM     67  C   UNL A   1      40.759  32.503  35.151  1.00  0.00     0.074 A 
ATOM     68  C   UNL A   1      41.723  32.359  36.222  1.00  0.00     0.031 C 
ATOM     69  C   UNL A   1      39.775  33.436  35.131  1.00  0.00     0.037 A 
BRANCH  56  70
ATOM     70  C   UNL A   1      36.201  33.165  30.094  1.00  0.00     0.057 A 
ATOM     71  C   UNL A   1      34.863  32.901  30.421  1.00  0.00     0.134 A 
ATOM     72  C   UNL A   1      36.440  34.019  29.010  1.00  0.00     0.134 A 
ATOM     73  F   UNL A   1      34.561  32.086  31.443  1.00  0.00    -0.206 F 
ATOM     74  C   UNL A   1      33.808  33.432  29.676  1.00  0.00     0.040 A 
ATOM     75  C   UNL A   1      35.392  34.580  28.276  1.00  0.00     0.040 A 
ATOM     76  F   UNL A   1      37.694  34.328  28.648  1.00  0.00    -0.206 F 
ATOM     77  C   UNL A   1      34.072  34.278  28.602  1.00  0.00     0.006 A 
ENDBRANCH  56  70
BRANCH  57  78
ATOM     78  C   UNL A   1      43.992  29.112  34.806  1.00  0.00     0.057 A 
ATOM     79  C   UNL A   1      43.798  28.196  35.848  1.00  0.00     0.134 A 
ATOM     80  C   UNL A   1      45.312  29.446  34.483  1.00  0.00     0.134 A 
ATOM     81  F   UNL A   1      42.556  27.849  36.219  1.00  0.00    -0.206 F 
ATOM     82  C   UNL A   1      44.871  27.654  36.558  1.00  0.00     0.040 A 
ATOM     83  C   UNL A   1      46.396  28.890  35.167  1.00  0.00     0.040 A 
ATOM     84  F   UNL A   1      45.569  30.309  33.490  1.00  0.00    -0.206 F 
ATOM     85  C   UNL A   1      46.176  27.998  36.214  1.00  0.00     0.006 A 
ENDBRANCH  57  78
BRANCH  69  86
ATOM     86  C   UNL A   1      39.674  34.349  36.319  1.00  0.00     0.057 A 
ATOM     87  C   UNL A   1      38.986  33.982  37.482  1.00  0.00     0.134 A 
ATOM     88  C   UNL A   1      40.285  35.610  36.300  1.00  0.00     0.134 A 
ATOM     89  F   UNL A   1      38.369  32.793  37.560  1.00  0.00    -0.206 F 
ATOM     90  C   UNL A   1      38.880  34.848  38.572  1.00  0.00     0.040 A 
ATOM     91  C   UNL A   1      40.210  36.473  37.394  1.00  0.00     0.040 A 
ATOM     92  F   UNL A   1      40.967  36.023  35.222  1.00  0.00    -0.206 F 
ATOM     93  C   UNL A   1      39.498  36.097  38.531  1.00  0.00     0.006 A 
ENDBRANCH  69  86
ENDBRANCH  43  44
ENDBRANCH  35  38
ENDBRANCH  33  34
ENDBRANCH  32  33
ENDBRANCH  31  32
ENDBRANCH  30  31
ENDBRANCH   3  30
TORSDOF 17
ENDMDL
MODEL 2
REMARK VINA RESULT:     -12.7      3.470      6.703
REMARK SMILES Cc1ccc(NC(=O)C[C@H]2C(=O)NCCN2C(=O)CCC(=O)NCCCCNC(=O)c2ccc(-c3c4nc(c(-c5c(F)cccc5F)c5ccc([nH]5)c(-c5c(F)cccc5F)c5nc(c(-c6c(F)cccc6F)c6ccc3[nH]6)C=C5)C=C4)cc2)c(C)c1
REMARK SMILES IDX 21 1 22 2 23 3 20 5 19 6 17 7 18 8 16 9 10 10 11 11 12 12
REMARK SMILES IDX 13 13 15 14 14 15 9 17 7 18 6 19 8 21 5 22 1 23 2 24 3 25
REMARK SMILES IDX 87 26 4 27 85 28 86 29 24 30 25 31 26 32 27 33 28 34 29 35
REMARK SMILES IDX 30 37 31 38 32 39 84 40 33 41 83 42 34 43 35 44 36 45 77 46
REMARK SMILES IDX 37 47 82 48 76 49 78 50 38 51 81 52 75 53 74 54 39 56 65 57
REMARK SMILES IDX 48 58 64 59 49 60 52 61 63 62 79 63 50 64 51 65 62 67 80 68
REMARK SMILES IDX 53 69 40 70 41 71 46 72 42 73 43 74 45 75 47 76 44 77 66 78
REMARK SMILES IDX 67 79 72 80 68 81 69 82 71 83 73 84 70 85 54 86 55 87 60 88
REMARK SMILES IDX 56 89 57 90 59 91 61 92 58 93
REMARK H PARENT 23 4 13 16 6 20 28 36 78 55 52 66
REMARK Flexibility Score: inf
ROOT
ATOM      1  C   UNL A   1      33.013  25.412  22.035  1.00  0.00     0.220 C 
ATOM      2  O   UNL A   1      33.266  25.809  20.914  1.00  0.00    -0.275 OA
ATOM      3  N   UNL A   1      34.014  24.886  22.811  1.00  0.00    -0.356 N 
ATOM      4  H   UNL A   1      34.884  24.874  22.350  1.00  0.00     0.163 HD
ENDROOT
BRANCH   1   5
ATOM      5  C   UNL A   1      31.622  25.427  22.573  1.00  0.00     0.110 C 
BRANCH   5   6
ATOM      6  C   UNL A   1      31.093  26.838  22.553  1.00  0.00     0.110 C 
BRANCH   6   7
ATOM      7  C   UNL A   1      31.995  27.797  23.268  1.00  0.00     0.223 C 
ATOM      8  O   UNL A   1      32.393  28.779  22.619  1.00  0.00    -0.275 OA
BRANCH   7   9
ATOM      9  N   UNL A   1      32.407  27.609  24.601  1.00  0.00    -0.328 N 
ATOM     10  C   UNL A   1      31.650  26.966  25.815  1.00  0.00     0.183 C 
ATOM     11  C   UNL A   1      31.812  27.913  27.052  1.00  0.00     0.243 C 
ATOM     12  O   UNL A   1      31.086  27.821  28.042  1.00  0.00    -0.273 OA
ATOM     13  N   UNL A   1      32.836  28.819  27.100  1.00  0.00    -0.353 N 
ATOM     14  C   UNL A   1      33.635  28.401  24.797  1.00  0.00     0.141 C 
ATOM     15  C   UNL A   1      33.938  28.911  26.184  1.00  0.00     0.137 C 
ATOM     16  H   UNL A   1      32.816  29.473  27.835  1.00  0.00     0.163 HD
BRANCH  10  17
ATOM     17  C   UNL A   1      31.616  25.329  26.452  1.00  0.00     0.135 C 
BRANCH  17  18
ATOM     18  C   UNL A   1      30.990  23.732  26.527  1.00  0.00     0.227 C 
ATOM     19  N   UNL A   1      31.227  22.435  26.092  1.00  0.00    -0.326 N 
ATOM     20  H   UNL A   1      30.461  21.883  26.370  1.00  0.00     0.169 HD
ATOM     21  O   UNL A   1      29.912  23.707  27.181  1.00  0.00    -0.275 OA
BRANCH  19  22
ATOM     22  C   UNL A   1      32.151  21.576  25.393  1.00  0.00     0.044 A 
ATOM     23  C   UNL A   1      33.301  17.772  23.833  1.00  0.00     0.044 C 
ATOM     24  C   UNL A   1      33.215  19.244  24.163  1.00  0.00    -0.051 A 
ATOM     25  C   UNL A   1      32.373  20.096  23.445  1.00  0.00     0.005 A 
ATOM     26  C   UNL A   1      33.763  19.740  25.356  1.00  0.00     0.009 A 
ATOM     27  C   UNL A   1      31.919  21.307  24.025  1.00  0.00     0.026 A 
ATOM     28  C   UNL A   1      33.247  20.916  25.974  1.00  0.00    -0.027 A 
ATOM     29  C   UNL A   1      33.910  21.401  27.227  1.00  0.00     0.046 C 
ENDBRANCH  19  22
ENDBRANCH  17  18
ENDBRANCH  10  17
ENDBRANCH   7   9
ENDBRANCH   6   7
ENDBRANCH   5   6
ENDBRANCH   1   5
BRANCH   3  30
ATOM     30  C   UNL A   1      34.082  24.331  24.185  1.00  0.00     0.116 C 
BRANCH  30  31
ATOM     31  C   UNL A   1      35.218  24.510  25.334  1.00  0.00     0.023 C 
BRANCH  31  32
ATOM     32  C   UNL A   1      36.443  23.694  25.854  1.00  0.00     0.023 C 
BRANCH  32  33
ATOM     33  C   UNL A   1      37.518  23.150  24.880  1.00  0.00     0.116 C 
BRANCH  33  34
ATOM     34  N   UNL A   1      38.452  22.229  25.496  1.00  0.00    -0.352 N 
ATOM     35  C   UNL A   1      39.530  22.456  26.322  1.00  0.00     0.251 C 
ATOM     36  H   UNL A   1      38.288  21.281  25.289  1.00  0.00     0.163 HD
ATOM     37  O   UNL A   1      40.213  21.490  26.662  1.00  0.00    -0.269 OA
BRANCH  35  38
ATOM     38  C   UNL A   1      39.931  23.816  26.782  1.00  0.00     0.039 A 
ATOM     39  C   UNL A   1      39.946  24.057  28.162  1.00  0.00     0.014 A 
ATOM     40  C   UNL A   1      40.225  24.870  25.913  1.00  0.00     0.014 A 
ATOM     41  C   UNL A   1      40.298  25.318  28.664  1.00  0.00     0.010 A 
ATOM     42  C   UNL A   1      40.649  26.110  26.419  1.00  0.00     0.010 A 
ATOM     43  C   UNL A   1      40.686  26.356  27.801  1.00  0.00    -0.014 A 
BRANCH  43  44
ATOM     44  C   UNL A   1      41.122  27.674  28.362  1.00  0.00     0.031 A 
ATOM     45  C   UNL A   1      42.570  28.099  28.342  1.00  0.00     0.074 A 
ATOM     46  C   UNL A   1      40.205  28.509  28.896  1.00  0.00     0.049 A 
ATOM     47  N   UNL A   1      43.103  29.247  28.693  1.00  0.00    -0.248 NA
ATOM     48  C   UNL A   1      43.554  27.099  27.902  1.00  0.00     0.031 C 
ATOM     49  C   UNL A   1      38.783  28.203  29.067  1.00  0.00     0.029 A 
ATOM     50  N   UNL A   1      40.323  29.792  29.380  1.00  0.00    -0.354 N 
ATOM     51  C   UNL A   1      44.476  29.099  28.524  1.00  0.00     0.074 A 
ATOM     52  C   UNL A   1      44.699  27.733  28.107  1.00  0.00     0.031 C 
ATOM     53  C   UNL A   1      38.154  29.282  29.560  1.00  0.00     0.029 A 
ATOM     54  C   UNL A   1      39.126  30.353  29.760  1.00  0.00     0.049 A 
ATOM     55  H   UNL A   1      41.184  30.264  29.446  1.00  0.00     0.167 HD
ATOM     56  C   UNL A   1      45.461  30.021  28.666  1.00  0.00     0.037 A 
ATOM     57  C   UNL A   1      38.835  31.595  30.194  1.00  0.00     0.037 A 
ATOM     58  C   UNL A   1      45.243  31.391  29.057  1.00  0.00     0.049 A 
ATOM     59  C   UNL A   1      39.934  32.619  30.292  1.00  0.00     0.074 A 
ATOM     60  C   UNL A   1      46.166  32.417  29.170  1.00  0.00     0.029 A 
ATOM     61  N   UNL A   1      44.010  31.924  29.401  1.00  0.00    -0.354 N 
ATOM     62  N   UNL A   1      41.211  32.490  30.027  1.00  0.00    -0.248 NA
ATOM     63  C   UNL A   1      39.545  33.967  30.728  1.00  0.00     0.031 C 
ATOM     64  C   UNL A   1      45.497  33.562  29.616  1.00  0.00     0.029 A 
ATOM     65  C   UNL A   1      44.150  33.262  29.734  1.00  0.00     0.049 A 
ATOM     66  H   UNL A   1      43.161  31.426  29.407  1.00  0.00     0.167 HD
ATOM     67  C   UNL A   1      41.772  33.743  30.236  1.00  0.00     0.074 A 
ATOM     68  C   UNL A   1      40.691  34.624  30.628  1.00  0.00     0.031 C 
ATOM     69  C   UNL A   1      43.066  34.130  30.117  1.00  0.00     0.037 A 
BRANCH  56  70
ATOM     70  C   UNL A   1      46.868  29.577  28.375  1.00  0.00     0.057 A 
ATOM     71  C   UNL A   1      47.418  29.671  27.088  1.00  0.00     0.134 A 
ATOM     72  C   UNL A   1      47.690  29.070  29.389  1.00  0.00     0.134 A 
ATOM     73  F   UNL A   1      46.685  30.142  26.068  1.00  0.00    -0.206 F 
ATOM     74  C   UNL A   1      48.718  29.241  26.813  1.00  0.00     0.040 A 
ATOM     75  C   UNL A   1      49.002  28.664  29.132  1.00  0.00     0.040 A 
ATOM     76  F   UNL A   1      47.236  28.964  30.646  1.00  0.00    -0.206 F 
ATOM     77  C   UNL A   1      49.516  28.739  27.839  1.00  0.00     0.006 A 
ENDBRANCH  56  70
BRANCH  57  78
ATOM     78  C   UNL A   1      37.430  31.968  30.507  1.00  0.00     0.057 A 
ATOM     79  C   UNL A   1      36.591  32.509  29.524  1.00  0.00     0.134 A 
ATOM     80  C   UNL A   1      36.896  31.809  31.790  1.00  0.00     0.134 A 
ATOM     81  F   UNL A   1      37.049  32.704  28.278  1.00  0.00    -0.206 F 
ATOM     82  C   UNL A   1      35.282  32.901  29.811  1.00  0.00     0.040 A 
ATOM     83  C   UNL A   1      35.580  32.172  32.086  1.00  0.00     0.040 A 
ATOM     84  F   UNL A   1      37.643  31.289  32.775  1.00  0.00    -0.206 F 
ATOM     85  C   UNL A   1      34.772  32.728  31.096  1.00  0.00     0.006 A 
ENDBRANCH  57  78
BRANCH  69  86
ATOM     86  C   UNL A   1      43.375  35.576  30.380  1.00  0.00     0.057 A 
ATOM     87  C   UNL A   1      43.736  36.040  31.651  1.00  0.00     0.134 A 
ATOM     88  C   UNL A   1      43.321  36.515  29.341  1.00  0.00     0.134 A 
ATOM     89  F   UNL A   1      43.795  35.195  32.691  1.00  0.00    -0.206 F 
ATOM     90  C   UNL A   1      43.999  37.390  31.888  1.00  0.00     0.040 A 
ATOM     91  C   UNL A   1      43.609  37.863  29.559  1.00  0.00     0.040 A 
ATOM     92  F   UNL A   1      42.991  36.138  28.096  1.00  0.00    -0.206 F 
ATOM     93  C   UNL A   1      43.940  38.305  30.838  1.00  0.00     0.006 A 
ENDBRANCH  69  86
ENDBRANCH  43  44
ENDBRANCH  35  38
ENDBRANCH  33  34
ENDBRANCH  32  33
ENDBRANCH  31  32
ENDBRANCH  30  31
ENDBRANCH   3  30
TORSDOF 17
ENDMDL
MODEL 3
REMARK VINA RESULT:     -12.6      2.240      8.073
REMARK SMILES Cc1ccc(NC(=O)C[C@H]2C(=O)NCCN2C(=O)CCC(=O)NCCCCNC(=O)c2ccc(-c3c4nc(c(-c5c(F)cccc5F)c5ccc([nH]5)c(-c5c(F)cccc5F)c5nc(c(-c6c(F)cccc6F)c6ccc3[nH]6)C=C5)C=C4)cc2)c(C)c1
REMARK SMILES IDX 21 1 22 2 23 3 20 5 19 6 17 7 18 8 16 9 10 10 11 11 12 12
REMARK SMILES IDX 13 13 15 14 14 15 9 17 7 18 6 19 8 21 5 22 1 23 2 24 3 25
REMARK SMILES IDX 87 26 4 27 85 28 86 29 24 30 25 31 26 32 27 33 28 34 29 35
REMARK SMILES IDX 30 37 31 38 32 39 84 40 33 41 83 42 34 43 35 44 36 45 77 46
REMARK SMILES IDX 37 47 82 48 76 49 78 50 38 51 81 52 75 53 74 54 39 56 65 57
REMARK SMILES IDX 48 58 64 59 49 60 52 61 63 62 79 63 50 64 51 65 62 67 80 68
REMARK SMILES IDX 53 69 40 70 41 71 46 72 42 73 43 74 45 75 47 76 44 77 66 78
REMARK SMILES IDX 67 79 72 80 68 81 69 82 71 83 73 84 70 85 54 86 55 87 60 88
REMARK SMILES IDX 56 89 57 90 59 91 61 92 58 93
REMARK H PARENT 23 4 13 16 6 20 28 36 78 55 52 66
REMARK Flexibility Score: inf
ROOT
ATOM      1  C   UNL A   1      31.034  26.049  26.293  1.00  0.00     0.220 C 
ATOM      2  O   UNL A   1      30.094  25.537  25.719  1.00  0.00    -0.275 OA
ATOM      3  N   UNL A   1      30.887  27.284  26.870  1.00  0.00    -0.356 N 
ATOM      4  H   UNL A   1      29.984  27.657  26.745  1.00  0.00     0.163 HD
ENDROOT
BRANCH   1   5
ATOM      5  C   UNL A   1      32.373  25.393  26.337  1.00  0.00     0.110 C 
BRANCH   5   6
ATOM      6  C   UNL A   1      32.200  23.927  26.642  1.00  0.00     0.110 C 
BRANCH   6   7
ATOM      7  C   UNL A   1      33.406  23.119  26.270  1.00  0.00     0.223 C 
ATOM      8  O   UNL A   1      33.466  21.965  26.724  1.00  0.00    -0.275 OA
BRANCH   7   9
ATOM      9  N   UNL A   1      34.446  23.624  25.466  1.00  0.00    -0.328 N 
ATOM     10  C   UNL A   1      34.561  23.731  23.905  1.00  0.00     0.183 C 
ATOM     11  C   UNL A   1      35.969  23.196  23.479  1.00  0.00     0.243 C 
ATOM     12  O   UNL A   1      36.221  22.881  22.316  1.00  0.00    -0.273 OA
ATOM     13  N   UNL A   1      36.994  23.150  24.383  1.00  0.00    -0.353 N 
ATOM     14  C   UNL A   1      35.623  23.807  26.335  1.00  0.00     0.141 C 
ATOM     15  C   UNL A   1      36.991  23.709  25.707  1.00  0.00     0.137 C 
ATOM     16  H   UNL A   1      37.816  22.688  24.100  1.00  0.00     0.163 HD
BRANCH  10  17
ATOM     17  C   UNL A   1      34.162  25.018  22.777  1.00  0.00     0.135 C 
BRANCH  17  18
ATOM     18  C   UNL A   1      33.068  25.902  21.794  1.00  0.00     0.227 C 
ATOM     19  N   UNL A   1      32.020  26.812  21.856  1.00  0.00    -0.326 N 
ATOM     20  H   UNL A   1      31.675  26.930  20.942  1.00  0.00     0.169 HD
ATOM     21  O   UNL A   1      33.235  25.619  20.576  1.00  0.00    -0.275 OA
BRANCH  19  22
ATOM     22  C   UNL A   1      31.238  27.652  22.729  1.00  0.00     0.044 A 
ATOM     23  C   UNL A   1      28.683  31.000  23.427  1.00  0.00     0.044 C 
ATOM     24  C   UNL A   1      29.481  29.725  23.565  1.00  0.00    -0.051 A 
ATOM     25  C   UNL A   1      28.967  28.502  23.127  1.00  0.00     0.005 A 
ATOM     26  C   UNL A   1      30.846  29.770  23.884  1.00  0.00     0.009 A 
ATOM     27  C   UNL A   1      29.843  27.435  22.801  1.00  0.00     0.026 A 
ATOM     28  C   UNL A   1      31.734  28.730  23.481  1.00  0.00    -0.027 A 
ATOM     29  C   UNL A   1      33.171  28.834  23.891  1.00  0.00     0.046 C 
ENDBRANCH  19  22
ENDBRANCH  17  18
ENDBRANCH  10  17
ENDBRANCH   7   9
ENDBRANCH   6   7
ENDBRANCH   5   6
ENDBRANCH   1   5
BRANCH   3  30
ATOM     30  C   UNL A   1      31.779  28.187  27.640  1.00  0.00     0.116 C 
BRANCH  30  31
ATOM     31  C   UNL A   1      32.340  29.668  27.275  1.00  0.00     0.023 C 
BRANCH  31  32
ATOM     32  C   UNL A   1      31.734  31.094  27.082  1.00  0.00     0.023 C 
BRANCH  32  33
ATOM     33  C   UNL A   1      32.607  32.280  26.601  1.00  0.00     0.116 C 
BRANCH  33  34
ATOM     34  N   UNL A   1      32.348  33.520  27.306  1.00  0.00    -0.352 N 
ATOM     35  C   UNL A   1      33.048  34.149  28.311  1.00  0.00     0.251 C 
ATOM     36  H   UNL A   1      31.535  33.991  27.017  1.00  0.00     0.163 HD
ATOM     37  O   UNL A   1      32.572  35.178  28.791  1.00  0.00    -0.269 OA
BRANCH  35  38
ATOM     38  C   UNL A   1      34.323  33.618  28.870  1.00  0.00     0.039 A 
ATOM     39  C   UNL A   1      34.248  32.501  29.714  1.00  0.00     0.014 A 
ATOM     40  C   UNL A   1      35.570  34.210  28.651  1.00  0.00     0.014 A 
ATOM     41  C   UNL A   1      35.406  31.957  30.286  1.00  0.00     0.010 A 
ATOM     42  C   UNL A   1      36.737  33.620  29.166  1.00  0.00     0.010 A 
ATOM     43  C   UNL A   1      36.673  32.489  29.997  1.00  0.00    -0.014 A 
BRANCH  43  44
ATOM     44  C   UNL A   1      37.902  31.852  30.567  1.00  0.00     0.031 A 
ATOM     45  C   UNL A   1      38.381  32.175  31.962  1.00  0.00     0.074 A 
ATOM     46  C   UNL A   1      38.601  30.966  29.827  1.00  0.00     0.049 A 
ATOM     47  N   UNL A   1      39.365  31.638  32.646  1.00  0.00    -0.248 NA
ATOM     48  C   UNL A   1      37.689  33.260  32.673  1.00  0.00     0.031 C 
ATOM     49  C   UNL A   1      38.314  30.619  28.433  1.00  0.00     0.029 A 
ATOM     50  N   UNL A   1      39.686  30.181  30.142  1.00  0.00    -0.354 N 
ATOM     51  C   UNL A   1      39.411  32.326  33.854  1.00  0.00     0.074 A 
ATOM     52  C   UNL A   1      38.404  33.361  33.783  1.00  0.00     0.031 C 
ATOM     53  C   UNL A   1      39.159  29.655  28.034  1.00  0.00     0.029 A 
ATOM     54  C   UNL A   1      40.062  29.325  29.133  1.00  0.00     0.049 A 
ATOM     55  H   UNL A   1      40.149  30.227  31.010  1.00  0.00     0.167 HD
ATOM     56  C   UNL A   1      40.192  32.098  34.941  1.00  0.00     0.037 A 
ATOM     57  C   UNL A   1      41.007  28.365  29.101  1.00  0.00     0.037 A 
ATOM     58  C   UNL A   1      41.180  31.053  35.028  1.00  0.00     0.049 A 
ATOM     59  C   UNL A   1      41.824  28.092  30.335  1.00  0.00     0.074 A 
ATOM     60  C   UNL A   1      41.977  30.703  36.105  1.00  0.00     0.029 A 
ATOM     61  N   UNL A   1      41.505  30.189  33.994  1.00  0.00    -0.354 N 
ATOM     62  N   UNL A   1      41.781  28.684  31.503  1.00  0.00    -0.248 NA
ATOM     63  C   UNL A   1      42.806  27.002  30.250  1.00  0.00     0.031 C 
ATOM     64  C   UNL A   1      42.810  29.649  35.710  1.00  0.00     0.029 A 
ATOM     65  C   UNL A   1      42.496  29.312  34.404  1.00  0.00     0.049 A 
ATOM     66  H   UNL A   1      41.092  30.197  33.100  1.00  0.00     0.167 HD
ATOM     67  C   UNL A   1      42.707  28.021  32.299  1.00  0.00     0.074 A 
ATOM     68  C   UNL A   1      43.279  26.967  31.487  1.00  0.00     0.031 C 
ATOM     69  C   UNL A   1      43.053  28.264  33.588  1.00  0.00     0.037 A 
BRANCH  56  70
ATOM     70  C   UNL A   1      39.991  32.992  36.134  1.00  0.00     0.057 A 
ATOM     71  C   UNL A   1      40.733  34.170  36.304  1.00  0.00     0.134 A 
ATOM     72  C   UNL A   1      39.035  32.689  37.111  1.00  0.00     0.134 A 
ATOM     73  F   UNL A   1      41.671  34.518  35.409  1.00  0.00    -0.206 F 
ATOM     74  C   UNL A   1      40.561  34.990  37.421  1.00  0.00     0.040 A 
ATOM     75  C   UNL A   1      38.833  33.518  38.218  1.00  0.00     0.040 A 
ATOM     76  F   UNL A   1      38.278  31.587  37.007  1.00  0.00    -0.206 F 
ATOM     77  C   UNL A   1      39.605  34.666  38.381  1.00  0.00     0.006 A 
ENDBRANCH  56  70
BRANCH  57  78
ATOM     78  C   UNL A   1      41.190  27.537  27.879  1.00  0.00     0.057 A 
ATOM     79  C   UNL A   1      42.021  27.965  26.835  1.00  0.00     0.134 A 
ATOM     80  C   UNL A   1      40.533  26.313  27.716  1.00  0.00     0.134 A 
ATOM     81  F   UNL A   1      42.664  29.139  26.923  1.00  0.00    -0.206 F 
ATOM     82  C   UNL A   1      42.173  27.218  25.665  1.00  0.00     0.040 A 
ATOM     83  C   UNL A   1      40.697  25.542  26.562  1.00  0.00     0.040 A 
ATOM     84  F   UNL A   1      39.731  25.841  28.681  1.00  0.00    -0.206 F 
ATOM     85  C   UNL A   1      41.512  26.000  25.529  1.00  0.00     0.006 A 
ENDBRANCH  57  78
BRANCH  69  86
ATOM     86  C   UNL A   1      44.074  27.351  34.205  1.00  0.00     0.057 A 
ATOM     87  C   UNL A   1      45.440  27.662  34.216  1.00  0.00     0.134 A 
ATOM     88  C   UNL A   1      43.681  26.150  34.809  1.00  0.00     0.134 A 
ATOM     89  F   UNL A   1      45.884  28.793  33.645  1.00  0.00    -0.206 F 
ATOM     90  C   UNL A   1      46.382  26.796  34.773  1.00  0.00     0.040 A 
ATOM     91  C   UNL A   1      44.610  25.289  35.394  1.00  0.00     0.040 A 
ATOM     92  F   UNL A   1      42.388  25.794  34.843  1.00  0.00    -0.206 F 
ATOM     93  C   UNL A   1      45.966  25.607  35.369  1.00  0.00     0.006 A 
ENDBRANCH  69  86
ENDBRANCH  43  44
ENDBRANCH  35  38
ENDBRANCH  33  34
ENDBRANCH  32  33
ENDBRANCH  31  32
ENDBRANCH  30  31
ENDBRANCH   3  30
TORSDOF 17
ENDMDL
