MODEL 1
REMARK VINA RESULT:     -11.5      0.000      0.000
REMARK SMILES O=C(NCCCCNC(=O)c1cccc(N[C@H]2CCCC[C@@H]2O)c1)c1ccc(-c2c3nc(c(-c4c(F)cccc4F)c4ccc([nH]4)c(-c4c(F)cccc4F)c4nc(c(-c5c(F)cccc5F)c5ccc2[nH]5)C=C4)C=C3)cc1
REMARK SMILES IDX 6 1 5 2 4 3 3 4 1 5 2 6 25 8 26 9 78 10 27 11 77 12 28 13
REMARK SMILES IDX 29 14 30 15 71 16 31 17 76 18 70 19 72 20 32 21 75 22 69 23
REMARK SMILES IDX 68 24 33 26 59 27 42 28 58 29 43 30 46 31 57 32 73 33 44 34
REMARK SMILES IDX 45 35 56 37 74 38 47 39 34 40 35 41 40 42 36 43 37 44 39 45
REMARK SMILES IDX 41 46 38 47 60 48 61 49 66 50 62 51 63 52 65 53 67 54 64 55
REMARK SMILES IDX 48 56 49 57 54 58 50 59 51 60 53 61 55 62 52 63 7 64 8 65
REMARK SMILES IDX 9 66 10 68 11 69 12 70 24 71 13 72 15 73 14 74 16 75 17 77
REMARK SMILES IDX 18 78 22 79 19 80 21 81 20 82 23 83
REMARK H PARENT 3 7 72 25 46 36 8 67 16 76 23 84
REMARK Flexibility Score: inf
ROOT
ATOM      1  C   UNL A   1      38.983  22.716  26.402  1.00  0.00     0.023 C 
ENDROOT
BRANCH   1   2
ATOM      2  C   UNL A   1      39.056  21.389  25.653  1.00  0.00     0.023 C 
BRANCH   2   3
ATOM      3  C   UNL A   1      39.493  20.195  26.488  1.00  0.00     0.116 C 
BRANCH   3   4
ATOM      4  N   UNL A   1      40.619  19.470  25.916  1.00  0.00    -0.352 N 
ATOM      5  O   UNL A   1      42.741  19.151  25.210  1.00  0.00    -0.269 OA
ATOM      6  C   UNL A   1      41.939  19.844  25.828  1.00  0.00     0.251 C 
ATOM      7  H   UNL A   1      40.404  18.586  25.539  1.00  0.00     0.163 HD
BRANCH   6   8
ATOM      8  C   UNL A   1      42.381  21.112  26.448  1.00  0.00     0.039 A 
ATOM      9  C   UNL A   1      42.410  21.251  27.837  1.00  0.00     0.014 A 
ATOM     10  C   UNL A   1      42.735  22.185  25.627  1.00  0.00     0.014 A 
ATOM     11  C   UNL A   1      42.609  22.507  28.396  1.00  0.00     0.010 A 
ATOM     12  C   UNL A   1      43.031  23.427  26.197  1.00  0.00     0.010 A 
ATOM     13  C   UNL A   1      42.921  23.611  27.584  1.00  0.00    -0.014 A 
BRANCH  13  14
ATOM     14  C   UNL A   1      43.150  24.933  28.222  1.00  0.00     0.031 A 
ATOM     15  C   UNL A   1      44.535  25.398  28.583  1.00  0.00     0.074 A 
ATOM     16  C   UNL A   1      42.093  25.745  28.424  1.00  0.00     0.049 A 
ATOM     17  N   UNL A   1      44.911  26.547  29.087  1.00  0.00    -0.248 NA
ATOM     18  C   UNL A   1      45.640  24.453  28.360  1.00  0.00     0.031 C 
ATOM     19  C   UNL A   1      40.701  25.403  28.124  1.00  0.00     0.029 A 
ATOM     20  N   UNL A   1      42.026  27.030  28.893  1.00  0.00    -0.354 N 
ATOM     21  C   UNL A   1      46.286  26.454  29.269  1.00  0.00     0.074 A 
ATOM     22  C   UNL A   1      46.677  25.127  28.838  1.00  0.00     0.031 C 
ATOM     23  C   UNL A   1      39.927  26.473  28.354  1.00  0.00     0.029 A 
ATOM     24  C   UNL A   1      40.758  27.555  28.870  1.00  0.00     0.049 A 
ATOM     25  H   UNL A   1      42.812  27.530  29.215  1.00  0.00     0.167 HD
ATOM     26  C   UNL A   1      47.143  27.389  29.744  1.00  0.00     0.037 A 
ATOM     27  C   UNL A   1      40.307  28.771  29.227  1.00  0.00     0.037 A 
ATOM     28  C   UNL A   1      46.758  28.720  30.140  1.00  0.00     0.049 A 
ATOM     29  C   UNL A   1      41.280  29.787  29.746  1.00  0.00     0.074 A 
ATOM     30  C   UNL A   1      47.564  29.754  30.586  1.00  0.00     0.029 A 
ATOM     31  N   UNL A   1      45.458  29.200  30.137  1.00  0.00    -0.354 N 
ATOM     32  N   UNL A   1      42.580  29.693  29.880  1.00  0.00    -0.248 NA
ATOM     33  C   UNL A   1      40.720  31.077  30.170  1.00  0.00     0.031 C 
ATOM     34  C   UNL A   1      46.745  30.849  30.889  1.00  0.00     0.029 A 
ATOM     35  C   UNL A   1      45.435  30.508  30.593  1.00  0.00     0.049 A 
ATOM     36  H   UNL A   1      44.666  28.687  29.852  1.00  0.00     0.167 HD
ATOM     37  C   UNL A   1      42.997  30.915  30.389  1.00  0.00     0.074 A 
ATOM     38  C   UNL A   1      41.814  31.740  30.520  1.00  0.00     0.031 C 
ATOM     39  C   UNL A   1      44.249  31.316  30.719  1.00  0.00     0.037 A 
BRANCH  26  40
ATOM     40  C   UNL A   1      48.587  27.002  29.882  1.00  0.00     0.057 A 
ATOM     41  C   UNL A   1      49.517  27.223  28.859  1.00  0.00     0.134 A 
ATOM     42  C   UNL A   1      49.062  26.442  31.075  1.00  0.00     0.134 A 
ATOM     43  F   UNL A   1      49.127  27.747  27.688  1.00  0.00    -0.206 F 
ATOM     44  C   UNL A   1      50.863  26.881  29.009  1.00  0.00     0.040 A 
ATOM     45  C   UNL A   1      50.409  26.116  31.246  1.00  0.00     0.040 A 
ATOM     46  F   UNL A   1      48.225  26.210  32.099  1.00  0.00    -0.206 F 
ATOM     47  C   UNL A   1      51.313  26.331  30.209  1.00  0.00     0.006 A 
ENDBRANCH  26  40
BRANCH  27  48
ATOM     48  C   UNL A   1      38.867  29.092  29.089  1.00  0.00     0.057 A 
ATOM     49  C   UNL A   1      38.004  29.017  30.188  1.00  0.00     0.134 A 
ATOM     50  C   UNL A   1      38.323  29.498  27.866  1.00  0.00     0.134 A 
ATOM     51  F   UNL A   1      38.465  28.618  31.383  1.00  0.00    -0.206 F 
ATOM     52  C   UNL A   1      36.648  29.325  30.073  1.00  0.00     0.040 A 
ATOM     53  C   UNL A   1      36.975  29.834  27.741  1.00  0.00     0.040 A 
ATOM     54  F   UNL A   1      39.103  29.597  26.778  1.00  0.00    -0.206 F 
ATOM     55  C   UNL A   1      36.132  29.742  28.847  1.00  0.00     0.006 A 
ENDBRANCH  27  48
BRANCH  39  56
ATOM     56  C   UNL A   1      44.396  32.717  31.231  1.00  0.00     0.057 A 
ATOM     57  C   UNL A   1      44.348  33.010  32.599  1.00  0.00     0.134 A 
ATOM     58  C   UNL A   1      44.601  33.782  30.346  1.00  0.00     0.134 A 
ATOM     59  F   UNL A   1      44.139  32.035  33.496  1.00  0.00    -0.206 F 
ATOM     60  C   UNL A   1      44.472  34.319  33.068  1.00  0.00     0.040 A 
ATOM     61  C   UNL A   1      44.749  35.091  30.803  1.00  0.00     0.040 A 
ATOM     62  F   UNL A   1      44.662  33.567  29.022  1.00  0.00    -0.206 F 
ATOM     63  C   UNL A   1      44.678  35.363  32.168  1.00  0.00     0.006 A 
ENDBRANCH  39  56
ENDBRANCH  13  14
ENDBRANCH   6   8
ENDBRANCH   3   4
ENDBRANCH   2   3
ENDBRANCH   1   2
BRANCH   1  64
ATOM     64  C   UNL A   1      37.804  23.609  26.029  1.00  0.00     0.116 C 
BRANCH  64  65
ATOM     65  N   UNL A   1      37.464  23.539  24.615  1.00  0.00    -0.352 N 
ATOM     66  C   UNL A   1      36.281  23.155  24.032  1.00  0.00     0.251 C 
ATOM     67  H   UNL A   1      38.179  23.803  23.991  1.00  0.00     0.163 HD
ATOM     68  O   UNL A   1      36.193  23.037  22.814  1.00  0.00    -0.269 OA
BRANCH  66  69
ATOM     69  C   UNL A   1      35.125  22.852  24.893  1.00  0.00     0.041 A 
ATOM     70  C   UNL A   1      34.320  23.900  25.329  1.00  0.00     0.014 A 
ATOM     71  C   UNL A   1      34.816  21.524  25.216  1.00  0.00     0.039 A 
ATOM     72  C   UNL A   1      33.165  23.601  26.038  1.00  0.00     0.003 A 
ATOM     73  C   UNL A   1      33.627  21.197  25.874  1.00  0.00     0.035 A 
ATOM     74  C   UNL A   1      32.823  22.265  26.293  1.00  0.00     0.026 A 
BRANCH  73  75
ATOM     75  N   UNL A   1      33.340  19.861  26.069  1.00  0.00    -0.380 N 
ATOM     76  H   UNL A   1      33.490  19.520  26.981  1.00  0.00     0.160 HD
BRANCH  75  77
ATOM     77  C   UNL A   1      32.839  18.882  25.099  1.00  0.00     0.107 C 
ATOM     78  C   UNL A   1      32.548  19.555  23.750  1.00  0.00     0.027 C 
ATOM     79  C   UNL A   1      33.715  17.603  25.042  1.00  0.00     0.136 C 
ATOM     80  C   UNL A   1      32.212  18.555  22.651  1.00  0.00     0.002 C 
ATOM     81  C   UNL A   1      33.337  16.687  23.877  1.00  0.00     0.034 C 
ATOM     82  C   UNL A   1      33.258  17.450  22.564  1.00  0.00     0.003 C 
BRANCH  79  83
ATOM     83  O   UNL A   1      33.602  16.850  26.260  1.00  0.00    -0.391 OA
ATOM     84  H   UNL A   1      34.170  16.066  26.211  1.00  0.00     0.211 HD
ENDBRANCH  79  83
ENDBRANCH  75  77
ENDBRANCH  73  75
ENDBRANCH  66  69
ENDBRANCH  64  65
ENDBRANCH   1  64
TORSDOF 14
ENDMDL
MODEL 2
REMARK VINA RESULT:     -11.3      0.423      6.359
REMARK SMILES O=C(NCCCCNC(=O)c1cccc(N[C@H]2CCCC[C@@H]2O)c1)c1ccc(-c2c3nc(c(-c4c(F)cccc4F)c4ccc([nH]4)c(-c4c(F)cccc4F)c4nc(c(-c5c(F)cccc5F)c5ccc2[nH]5)C=C4)C=C3)cc1
REMARK SMILES IDX 6 1 5 2 4 3 3 4 1 5 2 6 25 8 26 9 78 10 27 11 77 12 28 13
REMARK SMILES IDX 29 14 30 15 71 16 31 17 76 18 70 19 72 20 32 21 75 22 69 23
REMARK SMILES IDX 68 24 33 26 59 27 42 28 58 29 43 30 46 31 57 32 73 33 44 34
REMARK SMILES IDX 45 35 56 37 74 38 47 39 34 40 35 41 40 42 36 43 37 44 39 45
REMARK SMILES IDX 41 46 38 47 60 48 61 49 66 50 62 51 63 52 65 53 67 54 64 55
REMARK SMILES IDX 48 56 49 57 54 58 50 59 51 60 53 61 55 62 52 63 7 64 8 65
REMARK SMILES IDX 9 66 10 68 11 69 12 70 24 71 13 72 15 73 14 74 16 75 17 77
REMARK SMILES IDX 18 78 22 79 19 80 21 81 20 82 23 83
REMARK H PARENT 3 7 72 25 46 36 8 67 16 76 23 84
REMARK Flexibility Score: inf
ROOT
ATOM      1  C   UNL A   1      38.972  22.773  26.335  1.00  0.00     0.023 C 
ENDROOT
BRANCH   1   2
ATOM      2  C   UNL A   1      39.044  21.436  25.603  1.00  0.00     0.023 C 
BRANCH   2   3
ATOM      3  C   UNL A   1      39.335  20.229  26.483  1.00  0.00     0.116 C 
BRANCH   3   4
ATOM      4  N   UNL A   1      40.434  19.408  25.992  1.00  0.00    -0.352 N 
ATOM      5  O   UNL A   1      42.552  18.931  25.368  1.00  0.00    -0.269 OA
ATOM      6  C   UNL A   1      41.774  19.706  25.914  1.00  0.00     0.251 C 
ATOM      7  H   UNL A   1      40.181  18.512  25.672  1.00  0.00     0.163 HD
BRANCH   6   8
ATOM      8  C   UNL A   1      42.269  20.990  26.457  1.00  0.00     0.039 A 
ATOM      9  C   UNL A   1      42.319  21.206  27.835  1.00  0.00     0.014 A 
ATOM     10  C   UNL A   1      42.650  22.002  25.572  1.00  0.00     0.014 A 
ATOM     11  C   UNL A   1      42.570  22.484  28.320  1.00  0.00     0.010 A 
ATOM     12  C   UNL A   1      42.998  23.263  26.068  1.00  0.00     0.010 A 
ATOM     13  C   UNL A   1      42.911  23.528  27.444  1.00  0.00    -0.014 A 
BRANCH  13  14
ATOM     14  C   UNL A   1      43.195  24.874  28.003  1.00  0.00     0.031 A 
ATOM     15  C   UNL A   1      42.087  25.853  28.287  1.00  0.00     0.074 A 
ATOM     16  C   UNL A   1      44.468  25.193  28.308  1.00  0.00     0.049 A 
ATOM     17  N   UNL A   1      42.160  27.042  28.832  1.00  0.00    -0.248 NA
ATOM     18  C   UNL A   1      40.724  25.452  27.907  1.00  0.00     0.031 C 
ATOM     19  C   UNL A   1      45.630  24.333  28.069  1.00  0.00     0.029 A 
ATOM     20  N   UNL A   1      44.995  26.304  28.913  1.00  0.00    -0.354 N 
ATOM     21  C   UNL A   1      40.863  27.543  28.832  1.00  0.00     0.074 A 
ATOM     22  C   UNL A   1      40.024  26.535  28.216  1.00  0.00     0.031 C 
ATOM     23  C   UNL A   1      46.722  24.918  28.582  1.00  0.00     0.029 A 
ATOM     24  C   UNL A   1      46.348  26.217  29.132  1.00  0.00     0.049 A 
ATOM     25  H   UNL A   1      44.456  27.088  29.166  1.00  0.00     0.167 HD
ATOM     26  C   UNL A   1      40.413  28.729  29.307  1.00  0.00     0.037 A 
ATOM     27  C   UNL A   1      47.198  27.084  29.709  1.00  0.00     0.037 A 
ATOM     28  C   UNL A   1      41.244  29.716  29.950  1.00  0.00     0.049 A 
ATOM     29  C   UNL A   1      46.671  28.388  30.230  1.00  0.00     0.074 A 
ATOM     30  C   UNL A   1      40.868  30.926  30.510  1.00  0.00     0.029 A 
ATOM     31  N   UNL A   1      42.614  29.606  30.120  1.00  0.00    -0.354 N 
ATOM     32  N   UNL A   1      45.438  28.831  30.251  1.00  0.00    -0.248 NA
ATOM     33  C   UNL A   1      47.657  29.316  30.799  1.00  0.00     0.031 C 
ATOM     34  C   UNL A   1      42.020  31.566  30.984  1.00  0.00     0.029 A 
ATOM     35  C   UNL A   1      43.105  30.735  30.756  1.00  0.00     0.049 A 
ATOM     36  H   UNL A   1      43.160  28.838  29.831  1.00  0.00     0.167 HD
ATOM     37  C   UNL A   1      45.495  30.081  30.850  1.00  0.00     0.074 A 
ATOM     38  C   UNL A   1      46.882  30.317  31.195  1.00  0.00     0.031 C 
ATOM     39  C   UNL A   1      44.489  30.956  31.091  1.00  0.00     0.037 A 
BRANCH  26  40
ATOM     40  C   UNL A   1      38.954  29.040  29.134  1.00  0.00     0.057 A 
ATOM     41  C   UNL A   1      38.044  28.949  30.194  1.00  0.00     0.134 A 
ATOM     42  C   UNL A   1      38.463  29.478  27.897  1.00  0.00     0.134 A 
ATOM     43  F   UNL A   1      38.447  28.526  31.401  1.00  0.00    -0.206 F 
ATOM     44  C   UNL A   1      36.694  29.264  30.026  1.00  0.00     0.040 A 
ATOM     45  C   UNL A   1      37.120  29.818  27.722  1.00  0.00     0.040 A 
ATOM     46  F   UNL A   1      39.283  29.594  26.841  1.00  0.00    -0.206 F 
ATOM     47  C   UNL A   1      36.230  29.706  28.787  1.00  0.00     0.006 A 
ENDBRANCH  26  40
BRANCH  27  48
ATOM     48  C   UNL A   1      48.633  26.735  29.835  1.00  0.00     0.057 A 
ATOM     49  C   UNL A   1      49.564  27.157  28.879  1.00  0.00     0.134 A 
ATOM     50  C   UNL A   1      49.111  25.990  30.919  1.00  0.00     0.134 A 
ATOM     51  F   UNL A   1      49.162  27.861  27.810  1.00  0.00    -0.206 F 
ATOM     52  C   UNL A   1      50.918  26.843  28.992  1.00  0.00     0.040 A 
ATOM     53  C   UNL A   1      50.465  25.689  31.058  1.00  0.00     0.040 A 
ATOM     54  F   UNL A   1      48.268  25.564  31.873  1.00  0.00    -0.206 F 
ATOM     55  C   UNL A   1      51.374  26.112  30.088  1.00  0.00     0.006 A 
ENDBRANCH  27  48
BRANCH  39  56
ATOM     56  C   UNL A   1      44.856  32.235  31.780  1.00  0.00     0.057 A 
ATOM     57  C   UNL A   1      44.859  32.345  33.176  1.00  0.00     0.134 A 
ATOM     58  C   UNL A   1      45.221  33.365  31.039  1.00  0.00     0.134 A 
ATOM     59  F   UNL A   1      44.502  31.302  33.941  1.00  0.00    -0.206 F 
ATOM     60  C   UNL A   1      45.188  33.544  33.811  1.00  0.00     0.040 A 
ATOM     61  C   UNL A   1      45.575  34.562  31.663  1.00  0.00     0.040 A 
ATOM     62  F   UNL A   1      45.243  33.323  29.698  1.00  0.00    -0.206 F 
ATOM     63  C   UNL A   1      45.551  34.655  33.053  1.00  0.00     0.006 A 
ENDBRANCH  39  56
ENDBRANCH  13  14
ENDBRANCH   6   8
ENDBRANCH   3   4
ENDBRANCH   2   3
ENDBRANCH   1   2
BRANCH   1  64
ATOM     64  C   UNL A   1      37.791  23.660  25.954  1.00  0.00     0.116 C 
BRANCH  64  65
ATOM     65  N   UNL A   1      37.421  23.540  24.550  1.00  0.00    -0.352 N 
ATOM     66  C   UNL A   1      36.234  23.114  24.007  1.00  0.00     0.251 C 
ATOM     67  H   UNL A   1      38.116  23.800  23.903  1.00  0.00     0.163 HD
ATOM     68  O   UNL A   1      36.121  22.958  22.795  1.00  0.00    -0.269 OA
BRANCH  66  69
ATOM     69  C   UNL A   1      35.104  22.812  24.903  1.00  0.00     0.041 A 
ATOM     70  C   UNL A   1      34.329  23.863  25.383  1.00  0.00     0.014 A 
ATOM     71  C   UNL A   1      34.788  21.484  25.215  1.00  0.00     0.039 A 
ATOM     72  C   UNL A   1      33.196  23.569  26.128  1.00  0.00     0.003 A 
ATOM     73  C   UNL A   1      33.618  21.162  25.909  1.00  0.00     0.035 A 
ATOM     74  C   UNL A   1      32.844  22.234  26.373  1.00  0.00     0.026 A 
BRANCH  73  75
ATOM     75  N   UNL A   1      33.318  19.827  26.093  1.00  0.00    -0.380 N 
ATOM     76  H   UNL A   1      33.444  19.482  27.007  1.00  0.00     0.160 HD
BRANCH  75  77
ATOM     77  C   UNL A   1      32.837  18.854  25.107  1.00  0.00     0.107 C 
ATOM     78  C   UNL A   1      32.548  19.539  23.765  1.00  0.00     0.027 C 
ATOM     79  C   UNL A   1      33.731  17.586  25.041  1.00  0.00     0.136 C 
ATOM     80  C   UNL A   1      32.232  18.548  22.651  1.00  0.00     0.002 C 
ATOM     81  C   UNL A   1      33.373  16.680  23.862  1.00  0.00     0.034 C 
ATOM     82  C   UNL A   1      33.293  17.459  22.558  1.00  0.00     0.003 C 
BRANCH  79  83
ATOM     83  O   UNL A   1      33.619  16.817  26.249  1.00  0.00    -0.391 OA
ATOM     84  H   UNL A   1      34.051  17.291  26.976  1.00  0.00     0.211 HD
ENDBRANCH  79  83
ENDBRANCH  75  77
ENDBRANCH  73  75
ENDBRANCH  66  69
ENDBRANCH  64  65
ENDBRANCH   1  64
TORSDOF 14
ENDMDL
MODEL 3
REMARK VINA RESULT:     -11.3      1.923      3.619
REMARK SMILES O=C(NCCCCNC(=O)c1cccc(N[C@H]2CCCC[C@@H]2O)c1)c1ccc(-c2c3nc(c(-c4c(F)cccc4F)c4ccc([nH]4)c(-c4c(F)cccc4F)c4nc(c(-c5c(F)cccc5F)c5ccc2[nH]5)C=C4)C=C3)cc1
REMARK SMILES IDX 6 1 5 2 4 3 3 4 1 5 2 6 25 8 26 9 78 10 27 11 77 12 28 13
REMARK SMILES IDX 29 14 30 15 71 16 31 17 76 18 70 19 72 20 32 21 75 22 69 23
REMARK SMILES IDX 68 24 33 26 59 27 42 28 58 29 43 30 46 31 57 32 73 33 44 34
REMARK SMILES IDX 45 35 56 37 74 38 47 39 34 40 35 41 40 42 36 43 37 44 39 45
REMARK SMILES IDX 41 46 38 47 60 48 61 49 66 50 62 51 63 52 65 53 67 54 64 55
REMARK SMILES IDX 48 56 49 57 54 58 50 59 51 60 53 61 55 62 52 63 7 64 8 65
REMARK SMILES IDX 9 66 10 68 11 69 12 70 24 71 13 72 15 73 14 74 16 75 17 77
REMARK SMILES IDX 18 78 22 79 19 80 21 81 20 82 23 83
REMARK H PARENT 3 7 72 25 46 36 8 67 16 76 23 84
REMARK Flexibility Score: inf
ROOT
ATOM      1  C   UNL A   1      37.244  21.304  24.536  1.00  0.00     0.023 C 
ENDROOT
BRANCH   1   2
ATOM      2  C   UNL A   1      38.017  20.058  24.957  1.00  0.00     0.023 C 
BRANCH   2   3
ATOM      3  C   UNL A   1      39.180  20.305  25.907  1.00  0.00     0.116 C 
BRANCH   3   4
ATOM      4  N   UNL A   1      40.224  19.294  25.817  1.00  0.00    -0.352 N 
ATOM      5  O   UNL A   1      42.331  18.478  25.816  1.00  0.00    -0.269 OA
ATOM      6  C   UNL A   1      41.575  19.416  26.046  1.00  0.00     0.251 C 
ATOM      7  H   UNL A   1      39.919  18.395  25.558  1.00  0.00     0.163 HD
BRANCH   6   8
ATOM      8  C   UNL A   1      42.119  20.703  26.532  1.00  0.00     0.039 A 
ATOM      9  C   UNL A   1      42.229  20.956  27.900  1.00  0.00     0.014 A 
ATOM     10  C   UNL A   1      42.488  21.681  25.604  1.00  0.00     0.014 A 
ATOM     11  C   UNL A   1      42.526  22.240  28.338  1.00  0.00     0.010 A 
ATOM     12  C   UNL A   1      42.882  22.946  26.050  1.00  0.00     0.010 A 
ATOM     13  C   UNL A   1      42.856  23.251  27.420  1.00  0.00    -0.014 A 
BRANCH  13  14
ATOM     14  C   UNL A   1      43.192  24.606  27.928  1.00  0.00     0.031 A 
ATOM     15  C   UNL A   1      44.620  25.062  28.057  1.00  0.00     0.074 A 
ATOM     16  C   UNL A   1      42.186  25.454  28.224  1.00  0.00     0.049 A 
ATOM     17  N   UNL A   1      45.081  26.233  28.424  1.00  0.00    -0.248 NA
ATOM     18  C   UNL A   1      45.669  24.080  27.742  1.00  0.00     0.031 C 
ATOM     19  C   UNL A   1      40.761  25.124  28.149  1.00  0.00     0.029 A 
ATOM     20  N   UNL A   1      42.204  26.768  28.610  1.00  0.00    -0.354 N 
ATOM     21  C   UNL A   1      46.466  26.120  28.414  1.00  0.00     0.074 A 
ATOM     22  C   UNL A   1      46.773  24.760  28.021  1.00  0.00     0.031 C 
ATOM     23  C   UNL A   1      40.042  26.225  28.414  1.00  0.00     0.029 A 
ATOM     24  C   UNL A   1      40.953  27.318  28.734  1.00  0.00     0.049 A 
ATOM     25  H   UNL A   1      43.035  27.269  28.783  1.00  0.00     0.167 HD
ATOM     26  C   UNL A   1      47.394  27.064  28.699  1.00  0.00     0.037 A 
ATOM     27  C   UNL A   1      40.574  28.565  29.069  1.00  0.00     0.037 A 
ATOM     28  C   UNL A   1      47.088  28.426  29.056  1.00  0.00     0.049 A 
ATOM     29  C   UNL A   1      41.625  29.590  29.375  1.00  0.00     0.074 A 
ATOM     30  C   UNL A   1      47.963  29.468  29.312  1.00  0.00     0.029 A 
ATOM     31  N   UNL A   1      45.808  28.934  29.206  1.00  0.00    -0.354 N 
ATOM     32  N   UNL A   1      42.929  29.475  29.329  1.00  0.00    -0.248 NA
ATOM     33  C   UNL A   1      41.149  30.916  29.788  1.00  0.00     0.031 C 
ATOM     34  C   UNL A   1      47.211  30.598  29.655  1.00  0.00     0.029 A 
ATOM     35  C   UNL A   1      45.868  30.269  29.572  1.00  0.00     0.049 A 
ATOM     36  H   UNL A   1      44.977  28.422  29.071  1.00  0.00     0.167 HD
ATOM     37  C   UNL A   1      43.432  30.717  29.690  1.00  0.00     0.074 A 
ATOM     38  C   UNL A   1      42.290  31.576  29.933  1.00  0.00     0.031 C 
ATOM     39  C   UNL A   1      44.723  31.110  29.811  1.00  0.00     0.037 A 
BRANCH  26  40
ATOM     40  C   UNL A   1      48.839  26.654  28.655  1.00  0.00     0.057 A 
ATOM     41  C   UNL A   1      49.608  26.763  27.490  1.00  0.00     0.134 A 
ATOM     42  C   UNL A   1      49.479  26.186  29.809  1.00  0.00     0.134 A 
ATOM     43  F   UNL A   1      49.053  27.196  26.348  1.00  0.00    -0.206 F 
ATOM     44  C   UNL A   1      50.957  26.402  27.469  1.00  0.00     0.040 A 
ATOM     45  C   UNL A   1      50.833  25.842  29.807  1.00  0.00     0.040 A 
ATOM     46  F   UNL A   1      48.802  26.063  30.962  1.00  0.00    -0.206 F 
ATOM     47  C   UNL A   1      51.574  25.945  28.633  1.00  0.00     0.006 A 
ENDBRANCH  26  40
BRANCH  27  48
ATOM     48  C   UNL A   1      39.134  28.909  29.117  1.00  0.00     0.057 A 
ATOM     49  C   UNL A   1      38.398  28.768  30.299  1.00  0.00     0.134 A 
ATOM     50  C   UNL A   1      38.463  29.403  27.992  1.00  0.00     0.134 A 
ATOM     51  F   UNL A   1      38.984  28.285  31.405  1.00  0.00    -0.206 F 
ATOM     52  C   UNL A   1      37.044  29.097  30.359  1.00  0.00     0.040 A 
ATOM     53  C   UNL A   1      37.116  29.759  28.043  1.00  0.00     0.040 A 
ATOM     54  F   UNL A   1      39.117  29.567  26.832  1.00  0.00    -0.206 F 
ATOM     55  C   UNL A   1      36.401  29.602  29.230  1.00  0.00     0.006 A 
ENDBRANCH  27  48
BRANCH  39  56
ATOM     56  C   UNL A   1      44.961  32.537  30.202  1.00  0.00     0.057 A 
ATOM     57  C   UNL A   1      45.052  33.557  29.247  1.00  0.00     0.134 A 
ATOM     58  C   UNL A   1      45.089  32.896  31.549  1.00  0.00     0.134 A 
ATOM     59  F   UNL A   1      44.954  33.275  27.939  1.00  0.00    -0.206 F 
ATOM     60  C   UNL A   1      45.288  34.882  29.617  1.00  0.00     0.040 A 
ATOM     61  C   UNL A   1      45.302  34.220  31.933  1.00  0.00     0.040 A 
ATOM     62  F   UNL A   1      45.006  31.966  32.514  1.00  0.00    -0.206 F 
ATOM     63  C   UNL A   1      45.410  35.216  30.965  1.00  0.00     0.006 A 
ENDBRANCH  39  56
ENDBRANCH  13  14
ENDBRANCH   6   8
ENDBRANCH   3   4
ENDBRANCH   2   3
ENDBRANCH   1   2
BRANCH   1  64
ATOM     64  C   UNL A   1      36.749  22.181  25.681  1.00  0.00     0.116 C 
BRANCH  64  65
ATOM     65  N   UNL A   1      35.706  21.545  26.473  1.00  0.00    -0.352 N 
ATOM     66  C   UNL A   1      34.342  21.640  26.335  1.00  0.00     0.251 C 
ATOM     67  H   UNL A   1      36.020  20.969  27.208  1.00  0.00     0.163 HD
ATOM     68  O   UNL A   1      33.593  21.133  27.163  1.00  0.00    -0.269 OA
BRANCH  66  69
ATOM     69  C   UNL A   1      33.789  22.392  25.195  1.00  0.00     0.041 A 
ATOM     70  C   UNL A   1      33.481  21.705  24.025  1.00  0.00     0.014 A 
ATOM     71  C   UNL A   1      33.529  23.763  25.315  1.00  0.00     0.039 A 
ATOM     72  C   UNL A   1      32.849  22.391  22.997  1.00  0.00     0.003 A 
ATOM     73  C   UNL A   1      32.838  24.458  24.319  1.00  0.00     0.035 A 
ATOM     74  C   UNL A   1      32.524  23.746  23.154  1.00  0.00     0.026 A 
BRANCH  73  75
ATOM     75  N   UNL A   1      32.526  25.783  24.549  1.00  0.00    -0.380 N 
ATOM     76  H   UNL A   1      32.190  26.285  23.771  1.00  0.00     0.160 HD
BRANCH  75  77
ATOM     77  C   UNL A   1      32.628  26.543  25.799  1.00  0.00     0.107 C 
ATOM     78  C   UNL A   1      33.772  27.563  25.723  1.00  0.00     0.027 C 
ATOM     79  C   UNL A   1      31.256  27.098  26.268  1.00  0.00     0.136 C 
ATOM     80  C   UNL A   1      33.800  28.511  26.915  1.00  0.00     0.002 C 
ATOM     81  C   UNL A   1      31.391  28.078  27.434  1.00  0.00     0.034 C 
ATOM     82  C   UNL A   1      32.436  29.147  27.153  1.00  0.00     0.003 C 
BRANCH  79  83
ATOM     83  O   UNL A   1      30.385  26.031  26.676  1.00  0.00    -0.391 OA
ATOM     84  H   UNL A   1      29.510  26.391  26.886  1.00  0.00     0.211 HD
ENDBRANCH  79  83
ENDBRANCH  75  77
ENDBRANCH  73  75
ENDBRANCH  66  69
ENDBRANCH  64  65
ENDBRANCH   1  64
TORSDOF 14
ENDMDL
