MODEL 1
REMARK VINA RESULT:     -12.8      0.000      0.000
REMARK SMILES COc1ccc(S(=O)(=O)N2CCC[C@H](C(=O)N3CCC[C@H](C(=O)NCCCCNC(=O)c4ccc(-c5c6nc(c(-c7c(F)cccc7F)c7ccc([nH]7)c(-c7c(F)cccc7F)c7nc(c(-c8c(F)cccc8F)c8ccc5[nH]8)C=C7)C=C6)cc4)C3)C2)cc1
REMARK SMILES IDX 25 1 24 2 22 3 23 4 21 6 17 7 18 8 86 9 19 10 20 11 15 12
REMARK SMILES IDX 16 13 14 14 10 15 11 16 87 17 12 18 13 19 7 20 8 21 9 22
REMARK SMILES IDX 6 23 3 24 4 25 89 26 5 27 88 28 2 29 1 30 26 31 27 32 28 33
REMARK SMILES IDX 29 34 30 35 31 37 32 38 33 39 85 40 34 41 84 42 35 43 36 44
REMARK SMILES IDX 37 45 78 46 38 47 83 48 77 49 79 50 39 51 82 52 76 53 75 54
REMARK SMILES IDX 40 56 66 57 49 58 65 59 50 60 53 61 64 62 80 63 51 64 52 65
REMARK SMILES IDX 63 67 81 68 54 69 41 70 42 71 47 72 43 73 44 74 46 75 48 76
REMARK SMILES IDX 45 77 67 78 68 79 73 80 69 81 70 82 72 83 74 84 71 85 55 86
REMARK SMILES IDX 56 87 61 88 57 89 58 90 60 91 62 92 59 93
REMARK H PARENT 24 5 29 36 79 55 53 66
REMARK Flexibility Score: inf
ROOT
ATOM      1  C   UNL A   1      31.599  29.802  25.530  1.00  0.00     0.116 C 
ENDROOT
BRANCH   1   2
ATOM      2  N   UNL A   1      32.796  29.575  24.760  1.00  0.00    -0.356 N 
ATOM      3  C   UNL A   1      33.040  28.648  23.800  1.00  0.00     0.224 C 
ATOM      4  O   UNL A   1      34.071  28.800  23.134  1.00  0.00    -0.275 OA
ATOM      5  H   UNL A   1      33.546  30.181  24.960  1.00  0.00     0.163 HD
BRANCH   3   6
ATOM      6  C   UNL A   1      32.122  27.455  23.503  1.00  0.00     0.098 C 
ATOM      7  N   UNL A   1      33.129  25.165  23.760  1.00  0.00    -0.342 N 
ATOM      8  C   UNL A   1      32.743  24.780  22.406  1.00  0.00     0.119 C 
ATOM      9  C   UNL A   1      32.355  26.226  24.386  1.00  0.00     0.133 C 
ATOM     10  C   UNL A   1      32.651  25.962  21.448  1.00  0.00     0.022 C 
ATOM     11  C   UNL A   1      31.884  27.151  22.020  1.00  0.00     0.017 C 
BRANCH   7  12
ATOM     12  C   UNL A   1      34.288  24.639  24.296  1.00  0.00     0.227 C 
ATOM     13  O   UNL A   1      34.794  25.135  25.309  1.00  0.00    -0.275 OA
BRANCH  12  14
ATOM     14  C   UNL A   1      35.100  23.614  23.504  1.00  0.00     0.094 C 
ATOM     15  N   UNL A   1      33.791  21.651  24.208  1.00  0.00    -0.197 NA
ATOM     16  C   UNL A   1      34.854  21.123  25.082  1.00  0.00     0.102 C 
ATOM     17  C   UNL A   1      34.141  22.514  23.067  1.00  0.00     0.116 C 
ATOM     18  C   UNL A   1      36.203  21.833  25.013  1.00  0.00     0.018 C 
ATOM     19  C   UNL A   1      36.377  22.990  24.036  1.00  0.00     0.016 C 
BRANCH  15  20
ATOM     20  S   UNL A   1      32.356  20.745  24.109  1.00  0.00     0.243 S 
ATOM     21  O   UNL A   1      31.870  20.801  22.753  1.00  0.00    -0.207 OA
ATOM     22  O   UNL A   1      31.525  21.152  25.229  1.00  0.00    -0.207 OA
BRANCH  20  23
ATOM     23  C   UNL A   1      32.811  19.051  24.423  1.00  0.00     0.082 A 
ATOM     24  C   UNL A   1      33.372  16.335  24.743  1.00  0.00     0.118 A 
ATOM     25  C   UNL A   1      33.592  16.953  23.511  1.00  0.00     0.048 A 
ATOM     26  C   UNL A   1      32.932  17.089  25.831  1.00  0.00     0.048 A 
ATOM     27  C   UNL A   1      33.302  18.309  23.343  1.00  0.00     0.025 A 
ATOM     28  C   UNL A   1      32.647  18.444  25.670  1.00  0.00     0.025 A 
BRANCH  24  29
ATOM     29  O   UNL A   1      33.635  14.995  24.811  1.00  0.00    -0.497 OA
ATOM     30  C   UNL A   1      32.695  14.273  25.605  1.00  0.00     0.278 C 
ENDBRANCH  24  29
ENDBRANCH  20  23
ENDBRANCH  15  20
ENDBRANCH  12  14
ENDBRANCH   7  12
ENDBRANCH   3   6
ENDBRANCH   1   2
BRANCH   1  31
ATOM     31  C   UNL A   1      31.837  30.518  26.853  1.00  0.00     0.023 C 
BRANCH  31  32
ATOM     32  C   UNL A   1      31.378  31.969  26.869  1.00  0.00     0.023 C 
BRANCH  32  33
ATOM     33  C   UNL A   1      32.491  33.009  26.769  1.00  0.00     0.116 C 
BRANCH  33  34
ATOM     34  N   UNL A   1      32.312  34.182  27.616  1.00  0.00    -0.352 N 
ATOM     35  C   UNL A   1      33.108  34.587  28.667  1.00  0.00     0.251 C 
ATOM     36  H   UNL A   1      31.534  34.750  27.414  1.00  0.00     0.163 HD
ATOM     37  O   UNL A   1      32.824  35.556  29.361  1.00  0.00    -0.269 OA
BRANCH  35  38
ATOM     38  C   UNL A   1      34.312  33.789  28.969  1.00  0.00     0.039 A 
ATOM     39  C   UNL A   1      35.572  34.352  28.764  1.00  0.00     0.014 A 
ATOM     40  C   UNL A   1      34.177  32.541  29.583  1.00  0.00     0.014 A 
ATOM     41  C   UNL A   1      36.699  33.706  29.274  1.00  0.00     0.010 A 
ATOM     42  C   UNL A   1      35.288  31.944  30.163  1.00  0.00     0.010 A 
ATOM     43  C   UNL A   1      36.558  32.527  30.027  1.00  0.00    -0.014 A 
BRANCH  43  44
ATOM     44  C   UNL A   1      37.720  31.899  30.704  1.00  0.00     0.031 A 
ATOM     45  C   UNL A   1      38.516  30.838  29.999  1.00  0.00     0.074 A 
ATOM     46  C   UNL A   1      38.000  32.213  31.985  1.00  0.00     0.049 A 
ATOM     47  N   UNL A   1      39.500  30.104  30.452  1.00  0.00    -0.248 NA
ATOM     48  C   UNL A   1      38.127  30.534  28.613  1.00  0.00     0.031 C 
ATOM     49  C   UNL A   1      37.260  33.173  32.806  1.00  0.00     0.029 A 
ATOM     50  N   UNL A   1      38.979  31.744  32.826  1.00  0.00    -0.354 N 
ATOM     51  C   UNL A   1      39.830  29.239  29.417  1.00  0.00     0.074 A 
ATOM     52  C   UNL A   1      38.907  29.500  28.336  1.00  0.00     0.031 C 
ATOM     53  C   UNL A   1      37.828  33.242  34.022  1.00  0.00     0.029 A 
ATOM     54  C   UNL A   1      38.948  32.310  34.077  1.00  0.00     0.049 A 
ATOM     55  H   UNL A   1      39.640  31.066  32.557  1.00  0.00     0.167 HD
ATOM     56  C   UNL A   1      40.829  28.327  29.362  1.00  0.00     0.037 A 
ATOM     57  C   UNL A   1      39.737  32.101  35.148  1.00  0.00     0.037 A 
ATOM     58  C   UNL A   1      41.774  28.097  30.421  1.00  0.00     0.049 A 
ATOM     59  C   UNL A   1      40.863  31.111  35.051  1.00  0.00     0.074 A 
ATOM     60  C   UNL A   1      42.868  27.249  30.434  1.00  0.00     0.029 A 
ATOM     61  N   UNL A   1      41.739  28.724  31.658  1.00  0.00    -0.354 N 
ATOM     62  N   UNL A   1      41.209  30.350  34.041  1.00  0.00    -0.248 NA
ATOM     63  C   UNL A   1      41.715  30.956  36.240  1.00  0.00     0.031 C 
ATOM     64  C   UNL A   1      43.478  27.343  31.690  1.00  0.00     0.029 A 
ATOM     65  C   UNL A   1      42.784  28.274  32.446  1.00  0.00     0.049 A 
ATOM     66  H   UNL A   1      41.069  29.391  31.934  1.00  0.00     0.167 HD
ATOM     67  C   UNL A   1      42.328  29.644  34.462  1.00  0.00     0.074 A 
ATOM     68  C   UNL A   1      42.611  30.076  35.816  1.00  0.00     0.031 C 
ATOM     69  C   UNL A   1      43.056  28.721  33.787  1.00  0.00     0.037 A 
BRANCH  56  70
ATOM     70  C   UNL A   1      40.952  27.524  28.102  1.00  0.00     0.057 A 
ATOM     71  C   UNL A   1      41.720  27.968  27.018  1.00  0.00     0.134 A 
ATOM     72  C   UNL A   1      40.300  26.291  27.972  1.00  0.00     0.134 A 
ATOM     73  F   UNL A   1      42.356  29.148  27.073  1.00  0.00    -0.206 F 
ATOM     74  C   UNL A   1      41.808  27.231  25.836  1.00  0.00     0.040 A 
ATOM     75  C   UNL A   1      40.403  25.533  26.804  1.00  0.00     0.040 A 
ATOM     76  F   UNL A   1      39.551  25.806  28.973  1.00  0.00    -0.206 F 
ATOM     77  C   UNL A   1      41.151  26.007  25.729  1.00  0.00     0.006 A 
ENDBRANCH  56  70
BRANCH  57  78
ATOM     78  C   UNL A   1      39.513  32.873  36.395  1.00  0.00     0.057 A 
ATOM     79  C   UNL A   1      40.258  34.027  36.667  1.00  0.00     0.134 A 
ATOM     80  C   UNL A   1      38.556  32.485  37.338  1.00  0.00     0.134 A 
ATOM     81  F   UNL A   1      41.202  34.438  35.808  1.00  0.00    -0.206 F 
ATOM     82  C   UNL A   1      40.069  34.760  37.839  1.00  0.00     0.040 A 
ATOM     83  C   UNL A   1      38.342  33.219  38.506  1.00  0.00     0.040 A 
ATOM     84  F   UNL A   1      37.807  31.392  37.131  1.00  0.00    -0.206 F 
ATOM     85  C   UNL A   1      39.104  34.358  38.761  1.00  0.00     0.006 A 
ENDBRANCH  57  78
BRANCH  69  86
ATOM     86  C   UNL A   1      44.244  28.138  34.491  1.00  0.00     0.057 A 
ATOM     87  C   UNL A   1      44.152  26.954  35.232  1.00  0.00     0.134 A 
ATOM     88  C   UNL A   1      45.501  28.746  34.388  1.00  0.00     0.134 A 
ATOM     89  F   UNL A   1      42.973  26.332  35.377  1.00  0.00    -0.206 F 
ATOM     90  C   UNL A   1      45.269  26.401  35.861  1.00  0.00     0.040 A 
ATOM     91  C   UNL A   1      46.629  28.192  34.995  1.00  0.00     0.040 A 
ATOM     92  F   UNL A   1      45.655  29.879  33.687  1.00  0.00    -0.206 F 
ATOM     93  C   UNL A   1      46.513  27.018  35.736  1.00  0.00     0.006 A 
ENDBRANCH  69  86
ENDBRANCH  43  44
ENDBRANCH  35  38
ENDBRANCH  33  34
ENDBRANCH  32  33
ENDBRANCH  31  32
ENDBRANCH   1  31
TORSDOF 16
ENDMDL
MODEL 2
REMARK VINA RESULT:     -12.7      0.447      5.891
REMARK SMILES COc1ccc(S(=O)(=O)N2CCC[C@H](C(=O)N3CCC[C@H](C(=O)NCCCCNC(=O)c4ccc(-c5c6nc(c(-c7c(F)cccc7F)c7ccc([nH]7)c(-c7c(F)cccc7F)c7nc(c(-c8c(F)cccc8F)c8ccc5[nH]8)C=C7)C=C6)cc4)C3)C2)cc1
REMARK SMILES IDX 25 1 24 2 22 3 23 4 21 6 17 7 18 8 86 9 19 10 20 11 15 12
REMARK SMILES IDX 16 13 14 14 10 15 11 16 87 17 12 18 13 19 7 20 8 21 9 22
REMARK SMILES IDX 6 23 3 24 4 25 89 26 5 27 88 28 2 29 1 30 26 31 27 32 28 33
REMARK SMILES IDX 29 34 30 35 31 37 32 38 33 39 85 40 34 41 84 42 35 43 36 44
REMARK SMILES IDX 37 45 78 46 38 47 83 48 77 49 79 50 39 51 82 52 76 53 75 54
REMARK SMILES IDX 40 56 66 57 49 58 65 59 50 60 53 61 64 62 80 63 51 64 52 65
REMARK SMILES IDX 63 67 81 68 54 69 41 70 42 71 47 72 43 73 44 74 46 75 48 76
REMARK SMILES IDX 45 77 67 78 68 79 73 80 69 81 70 82 72 83 74 84 71 85 55 86
REMARK SMILES IDX 56 87 61 88 57 89 58 90 60 91 62 92 59 93
REMARK H PARENT 24 5 29 36 79 55 53 66
REMARK Flexibility Score: inf
ROOT
ATOM      1  C   UNL A   1      31.737  30.022  25.389  1.00  0.00     0.116 C 
ENDROOT
BRANCH   1   2
ATOM      2  N   UNL A   1      32.943  29.701  24.670  1.00  0.00    -0.356 N 
ATOM      3  C   UNL A   1      33.176  28.704  23.779  1.00  0.00     0.224 C 
ATOM      4  O   UNL A   1      34.229  28.774  23.134  1.00  0.00    -0.275 OA
ATOM      5  H   UNL A   1      33.711  30.290  24.851  1.00  0.00     0.163 HD
BRANCH   3   6
ATOM      6  C   UNL A   1      32.220  27.529  23.534  1.00  0.00     0.098 C 
ATOM      7  N   UNL A   1      33.168  25.220  23.843  1.00  0.00    -0.342 N 
ATOM      8  C   UNL A   1      32.748  24.807  22.508  1.00  0.00     0.119 C 
ATOM      9  C   UNL A   1      32.435  26.322  24.450  1.00  0.00     0.133 C 
ATOM     10  C   UNL A   1      32.671  25.962  21.516  1.00  0.00     0.022 C 
ATOM     11  C   UNL A   1      31.948  27.188  22.065  1.00  0.00     0.017 C 
BRANCH   7  12
ATOM     12  C   UNL A   1      34.322  24.679  24.375  1.00  0.00     0.227 C 
ATOM     13  O   UNL A   1      34.830  25.158  25.394  1.00  0.00    -0.275 OA
BRANCH  12  14
ATOM     14  C   UNL A   1      35.125  23.655  23.573  1.00  0.00     0.094 C 
ATOM     15  N   UNL A   1      33.780  21.701  24.231  1.00  0.00    -0.197 NA
ATOM     16  C   UNL A   1      34.827  21.142  25.105  1.00  0.00     0.102 C 
ATOM     17  C   UNL A   1      34.154  22.578  23.108  1.00  0.00     0.116 C 
ATOM     18  C   UNL A   1      36.186  21.832  25.061  1.00  0.00     0.018 C 
ATOM     19  C   UNL A   1      36.387  23.003  24.107  1.00  0.00     0.016 C 
BRANCH  15  20
ATOM     20  S   UNL A   1      32.332  20.818  24.102  1.00  0.00     0.243 S 
ATOM     21  O   UNL A   1      31.862  20.904  22.742  1.00  0.00    -0.207 OA
ATOM     22  O   UNL A   1      31.497  21.220  25.220  1.00  0.00    -0.207 OA
BRANCH  20  23
ATOM     23  C   UNL A   1      32.759  19.113  24.394  1.00  0.00     0.082 A 
ATOM     24  C   UNL A   1      33.271  16.384  24.679  1.00  0.00     0.118 A 
ATOM     25  C   UNL A   1      33.493  17.011  23.452  1.00  0.00     0.048 A 
ATOM     26  C   UNL A   1      32.854  17.133  25.779  1.00  0.00     0.048 A 
ATOM     27  C   UNL A   1      33.227  18.374  23.302  1.00  0.00     0.025 A 
ATOM     28  C   UNL A   1      32.592  18.495  25.635  1.00  0.00     0.025 A 
BRANCH  24  29
ATOM     29  O   UNL A   1      33.509  15.038  24.731  1.00  0.00    -0.497 OA
ATOM     30  C   UNL A   1      32.716  14.358  25.702  1.00  0.00     0.278 C 
ENDBRANCH  24  29
ENDBRANCH  20  23
ENDBRANCH  15  20
ENDBRANCH  12  14
ENDBRANCH   7  12
ENDBRANCH   3   6
ENDBRANCH   1   2
BRANCH   1  31
ATOM     31  C   UNL A   1      31.973  30.521  26.808  1.00  0.00     0.023 C 
BRANCH  31  32
ATOM     32  C   UNL A   1      31.477  31.937  27.064  1.00  0.00     0.023 C 
BRANCH  32  33
ATOM     33  C   UNL A   1      32.473  33.048  26.739  1.00  0.00     0.116 C 
BRANCH  33  34
ATOM     34  N   UNL A   1      32.402  34.210  27.616  1.00  0.00    -0.352 N 
ATOM     35  C   UNL A   1      33.261  34.541  28.643  1.00  0.00     0.251 C 
ATOM     36  H   UNL A   1      31.655  34.832  27.457  1.00  0.00     0.163 HD
ATOM     37  O   UNL A   1      33.066  35.509  29.368  1.00  0.00    -0.269 OA
BRANCH  35  38
ATOM     38  C   UNL A   1      34.422  33.660  28.882  1.00  0.00     0.039 A 
ATOM     39  C   UNL A   1      35.710  34.171  28.712  1.00  0.00     0.014 A 
ATOM     40  C   UNL A   1      34.222  32.380  29.405  1.00  0.00     0.014 A 
ATOM     41  C   UNL A   1      36.801  33.432  29.170  1.00  0.00     0.010 A 
ATOM     42  C   UNL A   1      35.301  31.686  29.936  1.00  0.00     0.010 A 
ATOM     43  C   UNL A   1      36.600  32.211  29.837  1.00  0.00    -0.014 A 
BRANCH  43  44
ATOM     44  C   UNL A   1      37.727  31.475  30.462  1.00  0.00     0.031 A 
ATOM     45  C   UNL A   1      38.130  31.780  31.877  1.00  0.00     0.074 A 
ATOM     46  C   UNL A   1      38.448  30.604  29.729  1.00  0.00     0.049 A 
ATOM     47  N   UNL A   1      39.142  31.319  32.566  1.00  0.00    -0.248 NA
ATOM     48  C   UNL A   1      37.308  32.765  32.598  1.00  0.00     0.031 C 
ATOM     49  C   UNL A   1      38.206  30.272  28.323  1.00  0.00     0.029 A 
ATOM     50  N   UNL A   1      39.543  29.846  30.064  1.00  0.00    -0.354 N 
ATOM     51  C   UNL A   1      39.091  31.974  33.789  1.00  0.00     0.074 A 
ATOM     52  C   UNL A   1      37.985  32.903  33.728  1.00  0.00     0.031 C 
ATOM     53  C   UNL A   1      39.108  29.358  27.925  1.00  0.00     0.029 A 
ATOM     54  C   UNL A   1      40.008  29.065  29.034  1.00  0.00     0.049 A 
ATOM     55  H   UNL A   1      39.955  29.861  30.958  1.00  0.00     0.167 HD
ATOM     56  C   UNL A   1      39.878  31.798  34.878  1.00  0.00     0.037 A 
ATOM     57  C   UNL A   1      41.045  28.207  28.991  1.00  0.00     0.037 A 
ATOM     58  C   UNL A   1      40.951  30.844  34.954  1.00  0.00     0.049 A 
ATOM     59  C   UNL A   1      41.882  28.000  30.222  1.00  0.00     0.074 A 
ATOM     60  C   UNL A   1      41.758  30.537  36.036  1.00  0.00     0.029 A 
ATOM     61  N   UNL A   1      41.363  30.037  33.904  1.00  0.00    -0.354 N 
ATOM     62  N   UNL A   1      41.779  28.574  31.396  1.00  0.00    -0.248 NA
ATOM     63  C   UNL A   1      42.975  27.021  30.125  1.00  0.00     0.031 C 
ATOM     64  C   UNL A   1      42.678  29.563  35.631  1.00  0.00     0.029 A 
ATOM     65  C   UNL A   1      42.420  29.240  34.308  1.00  0.00     0.049 A 
ATOM     66  H   UNL A   1      40.962  30.031  33.005  1.00  0.00     0.167 HD
ATOM     67  C   UNL A   1      42.775  28.011  32.183  1.00  0.00     0.074 A 
ATOM     68  C   UNL A   1      43.464  27.041  31.357  1.00  0.00     0.031 C 
ATOM     69  C   UNL A   1      43.089  28.275  33.475  1.00  0.00     0.037 A 
BRANCH  56  70
ATOM     70  C   UNL A   1      39.589  32.653  36.075  1.00  0.00     0.057 A 
ATOM     71  C   UNL A   1      40.246  33.872  36.286  1.00  0.00     0.134 A 
ATOM     72  C   UNL A   1      38.639  32.257  37.025  1.00  0.00     0.134 A 
ATOM     73  F   UNL A   1      41.179  34.299  35.421  1.00  0.00    -0.206 F 
ATOM     74  C   UNL A   1      39.996  34.651  37.416  1.00  0.00     0.040 A 
ATOM     75  C   UNL A   1      38.360  33.041  38.146  1.00  0.00     0.040 A 
ATOM     76  F   UNL A   1      37.970  31.103  36.882  1.00  0.00    -0.206 F 
ATOM     77  C   UNL A   1      39.046  34.237  38.348  1.00  0.00     0.006 A 
ENDBRANCH  56  70
BRANCH  57  78
ATOM     78  C   UNL A   1      41.327  27.448  27.748  1.00  0.00     0.057 A 
ATOM     79  C   UNL A   1      40.787  26.172  27.548  1.00  0.00     0.134 A 
ATOM     80  C   UNL A   1      42.135  27.973  26.733  1.00  0.00     0.134 A 
ATOM     81  F   UNL A   1      40.021  25.609  28.494  1.00  0.00    -0.206 F 
ATOM     82  C   UNL A   1      41.051  25.439  26.390  1.00  0.00     0.040 A 
ATOM     83  C   UNL A   1      42.390  27.260  25.561  1.00  0.00     0.040 A 
ATOM     84  F   UNL A   1      42.675  29.194  26.863  1.00  0.00    -0.206 F 
ATOM     85  C   UNL A   1      41.851  25.986  25.389  1.00  0.00     0.006 A 
ENDBRANCH  57  78
BRANCH  69  86
ATOM     86  C   UNL A   1      44.209  27.484  34.082  1.00  0.00     0.057 A 
ATOM     87  C   UNL A   1      43.991  26.233  34.670  1.00  0.00     0.134 A 
ATOM     88  C   UNL A   1      45.524  27.962  34.036  1.00  0.00     0.134 A 
ATOM     89  F   UNL A   1      42.751  25.727  34.755  1.00  0.00    -0.206 F 
ATOM     90  C   UNL A   1      45.043  25.489  35.208  1.00  0.00     0.040 A 
ATOM     91  C   UNL A   1      46.587  27.218  34.551  1.00  0.00     0.040 A 
ATOM     92  F   UNL A   1      45.798  29.151  33.480  1.00  0.00    -0.206 F 
ATOM     93  C   UNL A   1      46.346  25.979  35.142  1.00  0.00     0.006 A 
ENDBRANCH  69  86
ENDBRANCH  43  44
ENDBRANCH  35  38
ENDBRANCH  33  34
ENDBRANCH  32  33
ENDBRANCH  31  32
ENDBRANCH   1  31
TORSDOF 16
ENDMDL
MODEL 3
REMARK VINA RESULT:     -12.5      1.769      6.192
REMARK SMILES COc1ccc(S(=O)(=O)N2CCC[C@H](C(=O)N3CCC[C@H](C(=O)NCCCCNC(=O)c4ccc(-c5c6nc(c(-c7c(F)cccc7F)c7ccc([nH]7)c(-c7c(F)cccc7F)c7nc(c(-c8c(F)cccc8F)c8ccc5[nH]8)C=C7)C=C6)cc4)C3)C2)cc1
REMARK SMILES IDX 25 1 24 2 22 3 23 4 21 6 17 7 18 8 86 9 19 10 20 11 15 12
REMARK SMILES IDX 16 13 14 14 10 15 11 16 87 17 12 18 13 19 7 20 8 21 9 22
REMARK SMILES IDX 6 23 3 24 4 25 89 26 5 27 88 28 2 29 1 30 26 31 27 32 28 33
REMARK SMILES IDX 29 34 30 35 31 37 32 38 33 39 85 40 34 41 84 42 35 43 36 44
REMARK SMILES IDX 37 45 78 46 38 47 83 48 77 49 79 50 39 51 82 52 76 53 75 54
REMARK SMILES IDX 40 56 66 57 49 58 65 59 50 60 53 61 64 62 80 63 51 64 52 65
REMARK SMILES IDX 63 67 81 68 54 69 41 70 42 71 47 72 43 73 44 74 46 75 48 76
REMARK SMILES IDX 45 77 67 78 68 79 73 80 69 81 70 82 72 83 74 84 71 85 55 86
REMARK SMILES IDX 56 87 61 88 57 89 58 90 60 91 62 92 59 93
REMARK H PARENT 24 5 29 36 79 55 53 66
REMARK Flexibility Score: inf
ROOT
ATOM      1  C   UNL A   1      34.392  29.217  27.420  1.00  0.00     0.116 C 
ENDROOT
BRANCH   1   2
ATOM      2  N   UNL A   1      34.410  28.983  25.998  1.00  0.00    -0.356 N 
ATOM      3  C   UNL A   1      33.374  28.779  25.145  1.00  0.00     0.224 C 
ATOM      4  O   UNL A   1      33.636  28.822  23.937  1.00  0.00    -0.275 OA
ATOM      5  H   UNL A   1      35.303  28.968  25.585  1.00  0.00     0.163 HD
BRANCH   3   6
ATOM      6  C   UNL A   1      31.931  28.512  25.593  1.00  0.00     0.098 C 
ATOM      7  N   UNL A   1      31.222  26.103  25.735  1.00  0.00    -0.342 N 
ATOM      8  C   UNL A   1      30.069  26.331  24.870  1.00  0.00     0.119 C 
ATOM      9  C   UNL A   1      31.745  27.257  26.451  1.00  0.00     0.133 C 
ATOM     10  C   UNL A   1      30.272  27.478  23.887  1.00  0.00     0.022 C 
ATOM     11  C   UNL A   1      30.852  28.735  24.529  1.00  0.00     0.017 C 
BRANCH   7  12
ATOM     12  C   UNL A   1      31.850  24.874  25.695  1.00  0.00     0.227 C 
ATOM     13  O   UNL A   1      33.034  24.761  26.035  1.00  0.00    -0.275 OA
BRANCH  12  14
ATOM     14  C   UNL A   1      31.180  23.696  24.988  1.00  0.00     0.094 C 
ATOM     15  N   UNL A   1      33.140  22.208  25.056  1.00  0.00    -0.197 NA
ATOM     16  C   UNL A   1      33.406  22.318  23.611  1.00  0.00     0.102 C 
ATOM     17  C   UNL A   1      31.775  22.420  25.568  1.00  0.00     0.116 C 
ATOM     18  C   UNL A   1      32.357  23.054  22.783  1.00  0.00     0.018 C 
ATOM     19  C   UNL A   1      31.107  23.579  23.477  1.00  0.00     0.016 C 
BRANCH  15  20
ATOM     20  S   UNL A   1      34.181  21.209  25.956  1.00  0.00     0.243 S 
ATOM     21  O   UNL A   1      33.748  21.215  27.332  1.00  0.00    -0.207 OA
ATOM     22  O   UNL A   1      35.536  21.576  25.586  1.00  0.00    -0.207 OA
BRANCH  20  23
ATOM     23  C   UNL A   1      33.935  19.552  25.347  1.00  0.00     0.082 A 
ATOM     24  C   UNL A   1      33.512  16.891  24.619  1.00  0.00     0.118 A 
ATOM     25  C   UNL A   1      32.509  17.601  25.280  1.00  0.00     0.048 A 
ATOM     26  C   UNL A   1      34.700  17.530  24.265  1.00  0.00     0.048 A 
ATOM     27  C   UNL A   1      32.721  18.929  25.657  1.00  0.00     0.025 A 
ATOM     28  C   UNL A   1      34.914  18.857  24.634  1.00  0.00     0.025 A 
BRANCH  24  29
ATOM     29  O   UNL A   1      33.245  15.582  24.328  1.00  0.00    -0.497 OA
ATOM     30  C   UNL A   1      32.685  14.860  25.424  1.00  0.00     0.278 C 
ENDBRANCH  24  29
ENDBRANCH  20  23
ENDBRANCH  15  20
ENDBRANCH  12  14
ENDBRANCH   7  12
ENDBRANCH   3   6
ENDBRANCH   1   2
BRANCH   1  31
ATOM     31  C   UNL A   1      34.653  30.664  27.815  1.00  0.00     0.023 C 
BRANCH  31  32
ATOM     32  C   UNL A   1      33.435  31.571  27.708  1.00  0.00     0.023 C 
BRANCH  32  33
ATOM     33  C   UNL A   1      33.718  32.992  27.228  1.00  0.00     0.116 C 
BRANCH  33  34
ATOM     34  N   UNL A   1      32.979  34.034  27.930  1.00  0.00    -0.352 N 
ATOM     35  C   UNL A   1      33.305  34.632  29.129  1.00  0.00     0.251 C 
ATOM     36  H   UNL A   1      32.151  34.348  27.498  1.00  0.00     0.163 HD
ATOM     37  O   UNL A   1      32.571  35.451  29.668  1.00  0.00    -0.269 OA
BRANCH  35  38
ATOM     38  C   UNL A   1      34.564  34.224  29.783  1.00  0.00     0.039 A 
ATOM     39  C   UNL A   1      34.512  33.390  30.901  1.00  0.00     0.014 A 
ATOM     40  C   UNL A   1      35.787  34.561  29.198  1.00  0.00     0.014 A 
ATOM     41  C   UNL A   1      35.688  32.805  31.370  1.00  0.00     0.010 A 
ATOM     42  C   UNL A   1      36.942  33.912  29.613  1.00  0.00     0.010 A 
ATOM     43  C   UNL A   1      36.902  33.016  30.694  1.00  0.00    -0.014 A 
BRANCH  43  44
ATOM     44  C   UNL A   1      38.140  32.294  31.081  1.00  0.00     0.031 A 
ATOM     45  C   UNL A   1      39.017  32.839  32.171  1.00  0.00     0.074 A 
ATOM     46  C   UNL A   1      38.522  31.202  30.390  1.00  0.00     0.049 A 
ATOM     47  N   UNL A   1      40.182  32.411  32.588  1.00  0.00    -0.248 NA
ATOM     48  C   UNL A   1      38.541  34.051  32.857  1.00  0.00     0.031 C 
ATOM     49  C   UNL A   1      37.797  30.611  29.263  1.00  0.00     0.029 A 
ATOM     50  N   UNL A   1      39.628  30.399  30.528  1.00  0.00    -0.354 N 
ATOM     51  C   UNL A   1      40.585  33.312  33.564  1.00  0.00     0.074 A 
ATOM     52  C   UNL A   1      39.571  34.339  33.638  1.00  0.00     0.031 C 
ATOM     53  C   UNL A   1      38.462  29.527  28.830  1.00  0.00     0.029 A 
ATOM     54  C   UNL A   1      39.674  29.365  29.625  1.00  0.00     0.049 A 
ATOM     55  H   UNL A   1      40.323  30.553  31.208  1.00  0.00     0.167 HD
ATOM     56  C   UNL A   1      41.689  33.273  34.348  1.00  0.00     0.037 A 
ATOM     57  C   UNL A   1      40.591  28.392  29.460  1.00  0.00     0.037 A 
ATOM     58  C   UNL A   1      42.676  32.229  34.304  1.00  0.00     0.049 A 
ATOM     59  C   UNL A   1      41.789  28.348  30.367  1.00  0.00     0.074 A 
ATOM     60  C   UNL A   1      43.791  32.059  35.107  1.00  0.00     0.029 A 
ATOM     61  N   UNL A   1      42.664  31.171  33.407  1.00  0.00    -0.354 N 
ATOM     62  N   UNL A   1      42.123  29.167  31.334  1.00  0.00    -0.248 NA
ATOM     63  C   UNL A   1      42.734  27.240  30.164  1.00  0.00     0.031 C 
ATOM     64  C   UNL A   1      44.468  30.913  34.677  1.00  0.00     0.029 A 
ATOM     65  C   UNL A   1      43.756  30.350  33.629  1.00  0.00     0.049 A 
ATOM     66  H   UNL A   1      41.979  31.025  32.715  1.00  0.00     0.167 HD
ATOM     67  C   UNL A   1      43.301  28.663  31.869  1.00  0.00     0.074 A 
ATOM     68  C   UNL A   1      43.617  27.460  31.127  1.00  0.00     0.031 C 
ATOM     69  C   UNL A   1      44.052  29.153  32.886  1.00  0.00     0.037 A 
BRANCH  56  70
ATOM     70  C   UNL A   1      41.870  34.393  35.328  1.00  0.00     0.057 A 
ATOM     71  C   UNL A   1      42.583  35.552  34.999  1.00  0.00     0.134 A 
ATOM     72  C   UNL A   1      41.320  34.315  36.614  1.00  0.00     0.134 A 
ATOM     73  F   UNL A   1      43.148  35.682  33.788  1.00  0.00    -0.206 F 
ATOM     74  C   UNL A   1      42.774  36.580  35.923  1.00  0.00     0.040 A 
ATOM     75  C   UNL A   1      41.481  35.348  37.539  1.00  0.00     0.040 A 
ATOM     76  F   UNL A   1      40.622  33.234  36.993  1.00  0.00    -0.206 F 
ATOM     77  C   UNL A   1      42.217  36.481  37.197  1.00  0.00     0.006 A 
ENDBRANCH  56  70
BRANCH  57  78
ATOM     78  C   UNL A   1      40.393  27.357  28.417  1.00  0.00     0.057 A 
ATOM     79  C   UNL A   1      39.600  26.231  28.666  1.00  0.00     0.134 A 
ATOM     80  C   UNL A   1      40.982  27.465  27.152  1.00  0.00     0.134 A 
ATOM     81  F   UNL A   1      39.024  26.064  29.865  1.00  0.00    -0.206 F 
ATOM     82  C   UNL A   1      39.410  25.241  27.700  1.00  0.00     0.040 A 
ATOM     83  C   UNL A   1      40.785  26.493  26.170  1.00  0.00     0.040 A 
ATOM     84  F   UNL A   1      41.747  28.524  26.851  1.00  0.00    -0.206 F 
ATOM     85  C   UNL A   1      40.001  25.374  26.445  1.00  0.00     0.006 A 
ENDBRANCH  57  78
BRANCH  69  86
ATOM     86  C   UNL A   1      45.273  28.374  33.272  1.00  0.00     0.057 A 
ATOM     87  C   UNL A   1      46.527  28.648  32.716  1.00  0.00     0.134 A 
ATOM     88  C   UNL A   1      45.197  27.369  34.244  1.00  0.00     0.134 A 
ATOM     89  F   UNL A   1      46.661  29.591  31.772  1.00  0.00    -0.206 F 
ATOM     90  C   UNL A   1      47.665  27.938  33.102  1.00  0.00     0.040 A 
ATOM     91  C   UNL A   1      46.331  26.666  34.653  1.00  0.00     0.040 A 
ATOM     92  F   UNL A   1      44.024  27.063  34.819  1.00  0.00    -0.206 F 
ATOM     93  C   UNL A   1      47.568  26.948  34.079  1.00  0.00     0.006 A 
ENDBRANCH  69  86
ENDBRANCH  43  44
ENDBRANCH  35  38
ENDBRANCH  33  34
ENDBRANCH  32  33
ENDBRANCH  31  32
ENDBRANCH   1  31
TORSDOF 16
ENDMDL
