MODEL 1
REMARK VINA RESULT:     -12.9      0.000      0.000
REMARK SMILES O=C(NCCCCNC(=O)c1ccc(-c2c3nc(c(-c4c(F)cccc4F)c4ccc([nH]4)c(-c4c(F)cccc4F)c4nc(c(-c5c(F)cccc5F)c5ccc2[nH]5)C=C4)C=C3)cc1)c1ccc(C[C@H]2CCN(C(=O)Cc3cccc(O)c3)C2)cc1
REMARK SMILES IDX 1 1 2 2 3 3 65 5 66 6 86 7 67 8 85 9 68 10 69 11 70 12 71 13
REMARK SMILES IDX 84 14 72 15 73 16 74 17 75 18 76 19 77 20 78 21 83 22 79 23
REMARK SMILES IDX 81 24 80 25 82 26 4 28 5 29 6 30 7 31 8 32 9 33 10 35 11 36
REMARK SMILES IDX 12 37 64 38 13 39 63 40 14 41 15 42 16 43 57 44 17 45 62 46
REMARK SMILES IDX 56 47 58 48 18 49 61 50 55 51 54 52 19 54 45 55 28 56 44 57
REMARK SMILES IDX 29 58 32 59 43 60 59 61 30 62 31 63 42 65 60 66 33 67 20 68
REMARK SMILES IDX 21 69 26 70 22 71 23 72 25 73 27 74 24 75 46 76 47 77 52 78
REMARK SMILES IDX 48 79 49 80 51 81 53 82 50 83 34 84 35 85 40 86 36 87 37 88
REMARK SMILES IDX 39 89 41 90 38 91
REMARK H PARENT 3 4 82 27 8 34 58 53 32 64
REMARK Flexibility Score: inf
ROOT
ATOM      1  O   UNL A   1      29.088  29.771  22.926  1.00  0.00    -0.269 OA
ATOM      2  C   UNL A   1      30.054  29.418  23.593  1.00  0.00     0.251 C 
ATOM      3  N   UNL A   1      30.653  30.273  24.486  1.00  0.00    -0.352 N 
ATOM      4  H   UNL A   1      30.200  31.136  24.624  1.00  0.00     0.163 HD
ENDROOT
BRANCH   2   5
ATOM      5  C   UNL A   1      30.611  28.063  23.436  1.00  0.00     0.039 A 
ATOM      6  C   UNL A   1      31.510  27.801  22.402  1.00  0.00     0.014 A 
ATOM      7  C   UNL A   1      30.180  27.046  24.287  1.00  0.00     0.014 A 
ATOM      8  C   UNL A   1      31.918  26.491  22.171  1.00  0.00     0.004 A 
ATOM      9  C   UNL A   1      30.580  25.731  24.041  1.00  0.00     0.004 A 
ATOM     10  C   UNL A   1      31.427  25.440  22.962  1.00  0.00    -0.048 A 
BRANCH  10  11
ATOM     11  C   UNL A   1      31.785  24.011  22.625  1.00  0.00     0.041 C 
BRANCH  11  12
ATOM     12  C   UNL A   1      33.271  23.680  22.845  1.00  0.00     0.015 C 
ATOM     13  C   UNL A   1      33.968  24.562  23.894  1.00  0.00     0.027 C 
ATOM     14  C   UNL A   1      33.449  22.257  23.397  1.00  0.00     0.123 C 
ATOM     15  C   UNL A   1      35.064  23.676  24.449  1.00  0.00     0.120 C 
ATOM     16  N   UNL A   1      34.461  22.359  24.434  1.00  0.00    -0.342 N 
BRANCH  16  17
ATOM     17  C   UNL A   1      34.764  21.284  25.241  1.00  0.00     0.227 C 
ATOM     18  O   UNL A   1      35.900  21.116  25.692  1.00  0.00    -0.275 OA
BRANCH  17  19
ATOM     19  C   UNL A   1      33.661  20.278  25.539  1.00  0.00     0.135 C 
BRANCH  19  20
ATOM     20  C   UNL A   1      33.656  19.080  24.619  1.00  0.00    -0.035 A 
ATOM     21  C   UNL A   1      34.649  18.094  24.737  1.00  0.00     0.004 A 
ATOM     22  C   UNL A   1      32.663  18.934  23.638  1.00  0.00     0.050 A 
ATOM     23  C   UNL A   1      34.679  17.012  23.857  1.00  0.00     0.004 A 
ATOM     24  C   UNL A   1      32.708  17.853  22.763  1.00  0.00     0.115 A 
ATOM     25  C   UNL A   1      33.711  16.896  22.861  1.00  0.00     0.046 A 
BRANCH  24  26
ATOM     26  O   UNL A   1      31.777  17.703  21.778  1.00  0.00    -0.508 OA
ATOM     27  H   UNL A   1      31.940  17.116  21.066  1.00  0.00     0.293 HD
ENDBRANCH  24  26
ENDBRANCH  19  20
ENDBRANCH  17  19
ENDBRANCH  16  17
ENDBRANCH  11  12
ENDBRANCH  10  11
ENDBRANCH   2   5
BRANCH   3  28
ATOM     28  C   UNL A   1      31.872  30.068  25.255  1.00  0.00     0.116 C 
BRANCH  28  29
ATOM     29  C   UNL A   1      31.764  30.612  26.677  1.00  0.00     0.023 C 
BRANCH  29  30
ATOM     30  C   UNL A   1      31.571  32.125  26.781  1.00  0.00     0.023 C 
BRANCH  30  31
ATOM     31  C   UNL A   1      32.780  32.910  27.280  1.00  0.00     0.116 C 
BRANCH  31  32
ATOM     32  N   UNL A   1      32.461  34.279  27.656  1.00  0.00    -0.352 N 
ATOM     33  C   UNL A   1      33.015  35.069  28.636  1.00  0.00     0.251 C 
ATOM     34  H   UNL A   1      31.744  34.703  27.132  1.00  0.00     0.163 HD
ATOM     35  O   UNL A   1      32.540  36.172  28.883  1.00  0.00    -0.269 OA
BRANCH  33  36
ATOM     36  C   UNL A   1      34.160  34.566  29.426  1.00  0.00     0.039 A 
ATOM     37  C   UNL A   1      33.921  34.037  30.697  1.00  0.00     0.014 A 
ATOM     38  C   UNL A   1      35.455  34.581  28.901  1.00  0.00     0.014 A 
ATOM     39  C   UNL A   1      34.964  33.433  31.402  1.00  0.00     0.010 A 
ATOM     40  C   UNL A   1      36.478  33.919  29.573  1.00  0.00     0.010 A 
ATOM     41  C   UNL A   1      36.239  33.322  30.822  1.00  0.00    -0.014 A 
BRANCH  41  42
ATOM     42  C   UNL A   1      37.322  32.546  31.476  1.00  0.00     0.031 A 
ATOM     43  C   UNL A   1      37.869  32.977  32.806  1.00  0.00     0.074 A 
ATOM     44  C   UNL A   1      37.884  31.511  30.820  1.00  0.00     0.049 A 
ATOM     45  N   UNL A   1      38.888  32.499  33.473  1.00  0.00    -0.248 NA
ATOM     46  C   UNL A   1      37.202  34.114  33.456  1.00  0.00     0.031 C 
ATOM     47  C   UNL A   1      37.482  31.030  29.497  1.00  0.00     0.029 A 
ATOM     48  N   UNL A   1      38.931  30.695  31.166  1.00  0.00    -0.354 N 
ATOM     49  C   UNL A   1      38.997  33.286  34.611  1.00  0.00     0.074 A 
ATOM     50  C   UNL A   1      37.965  34.299  34.523  1.00  0.00     0.031 C 
ATOM     51  C   UNL A   1      38.269  29.999  29.147  1.00  0.00     0.029 A 
ATOM     52  C   UNL A   1      39.252  29.772  30.202  1.00  0.00     0.049 A 
ATOM     53  H   UNL A   1      39.407  30.764  32.026  1.00  0.00     0.167 HD
ATOM     54  C   UNL A   1      39.866  33.168  35.643  1.00  0.00     0.037 A 
ATOM     55  C   UNL A   1      40.238  28.855  30.160  1.00  0.00     0.037 A 
ATOM     56  C   UNL A   1      40.873  32.144  35.743  1.00  0.00     0.049 A 
ATOM     57  C   UNL A   1      41.185  28.738  31.319  1.00  0.00     0.074 A 
ATOM     58  C   UNL A   1      41.744  31.890  36.788  1.00  0.00     0.029 A 
ATOM     59  N   UNL A   1      41.147  31.207  34.758  1.00  0.00    -0.354 N 
ATOM     60  N   UNL A   1      41.227  29.441  32.424  1.00  0.00    -0.248 NA
ATOM     61  C   UNL A   1      42.221  27.698  31.226  1.00  0.00     0.031 C 
ATOM     62  C   UNL A   1      42.571  30.823  36.421  1.00  0.00     0.029 A 
ATOM     63  C   UNL A   1      42.190  30.389  35.161  1.00  0.00     0.049 A 
ATOM     64  H   UNL A   1      40.670  31.133  33.899  1.00  0.00     0.167 HD
ATOM     65  C   UNL A   1      42.281  28.922  33.164  1.00  0.00     0.074 A 
ATOM     66  C   UNL A   1      42.842  27.835  32.391  1.00  0.00     0.031 C 
ATOM     67  C   UNL A   1      42.741  29.313  34.378  1.00  0.00     0.037 A 
BRANCH  54  68
ATOM     68  C   UNL A   1      39.762  34.173  36.750  1.00  0.00     0.057 A 
ATOM     69  C   UNL A   1      38.997  33.929  37.898  1.00  0.00     0.134 A 
ATOM     70  C   UNL A   1      40.453  35.389  36.679  1.00  0.00     0.134 A 
ATOM     71  F   UNL A   1      38.302  32.789  38.022  1.00  0.00    -0.206 F 
ATOM     72  C   UNL A   1      38.903  34.870  38.925  1.00  0.00     0.040 A 
ATOM     73  C   UNL A   1      40.386  36.328  37.710  1.00  0.00     0.040 A 
ATOM     74  F   UNL A   1      41.207  35.683  35.610  1.00  0.00    -0.206 F 
ATOM     75  C   UNL A   1      39.603  36.072  38.834  1.00  0.00     0.006 A 
ENDBRANCH  54  68
BRANCH  55  76
ATOM     76  C   UNL A   1      40.371  27.971  28.977  1.00  0.00     0.057 A 
ATOM     77  C   UNL A   1      39.680  26.757  28.903  1.00  0.00     0.134 A 
ATOM     78  C   UNL A   1      41.181  28.322  27.891  1.00  0.00     0.134 A 
ATOM     79  F   UNL A   1      38.903  26.360  29.922  1.00  0.00    -0.206 F 
ATOM     80  C   UNL A   1      39.798  25.916  27.796  1.00  0.00     0.040 A 
ATOM     81  C   UNL A   1      41.293  27.501  26.768  1.00  0.00     0.040 A 
ATOM     82  F   UNL A   1      41.864  29.477  27.900  1.00  0.00    -0.206 F 
ATOM     83  C   UNL A   1      40.603  26.291  26.722  1.00  0.00     0.006 A 
ENDBRANCH  55  76
BRANCH  67  84
ATOM     84  C   UNL A   1      43.899  28.551  34.949  1.00  0.00     0.057 A 
ATOM     85  C   UNL A   1      43.709  27.411  35.738  1.00  0.00     0.134 A 
ATOM     86  C   UNL A   1      45.216  28.937  34.670  1.00  0.00     0.134 A 
ATOM     87  F   UNL A   1      42.471  26.999  36.051  1.00  0.00    -0.206 F 
ATOM     88  C   UNL A   1      44.790  26.687  36.244  1.00  0.00     0.040 A 
ATOM     89  C   UNL A   1      46.305  28.209  35.153  1.00  0.00     0.040 A 
ATOM     90  F   UNL A   1      45.465  30.018  33.915  1.00  0.00    -0.206 F 
ATOM     91  C   UNL A   1      46.093  27.083  35.945  1.00  0.00     0.006 A 
ENDBRANCH  67  84
ENDBRANCH  41  42
ENDBRANCH  33  36
ENDBRANCH  31  32
ENDBRANCH  30  31
ENDBRANCH  29  30
ENDBRANCH  28  29
ENDBRANCH   3  28
TORSDOF 17
ENDMDL
MODEL 2
REMARK VINA RESULT:     -12.9      3.763      5.237
REMARK SMILES O=C(NCCCCNC(=O)c1ccc(-c2c3nc(c(-c4c(F)cccc4F)c4ccc([nH]4)c(-c4c(F)cccc4F)c4nc(c(-c5c(F)cccc5F)c5ccc2[nH]5)C=C4)C=C3)cc1)c1ccc(C[C@H]2CCN(C(=O)Cc3cccc(O)c3)C2)cc1
REMARK SMILES IDX 1 1 2 2 3 3 65 5 66 6 86 7 67 8 85 9 68 10 69 11 70 12 71 13
REMARK SMILES IDX 84 14 72 15 73 16 74 17 75 18 76 19 77 20 78 21 83 22 79 23
REMARK SMILES IDX 81 24 80 25 82 26 4 28 5 29 6 30 7 31 8 32 9 33 10 35 11 36
REMARK SMILES IDX 12 37 64 38 13 39 63 40 14 41 15 42 16 43 57 44 17 45 62 46
REMARK SMILES IDX 56 47 58 48 18 49 61 50 55 51 54 52 19 54 45 55 28 56 44 57
REMARK SMILES IDX 29 58 32 59 43 60 59 61 30 62 31 63 42 65 60 66 33 67 20 68
REMARK SMILES IDX 21 69 26 70 22 71 23 72 25 73 27 74 24 75 46 76 47 77 52 78
REMARK SMILES IDX 48 79 49 80 51 81 53 82 50 83 34 84 35 85 40 86 36 87 37 88
REMARK SMILES IDX 39 89 41 90 38 91
REMARK H PARENT 3 4 82 27 8 34 58 53 32 64
REMARK Flexibility Score: inf
ROOT
ATOM      1  O   UNL A   1      30.046  29.438  21.705  1.00  0.00    -0.269 OA
ATOM      2  C   UNL A   1      30.613  29.021  22.708  1.00  0.00     0.251 C 
ATOM      3  N   UNL A   1      30.592  29.730  23.885  1.00  0.00    -0.352 N 
ATOM      4  H   UNL A   1      30.018  30.529  23.893  1.00  0.00     0.163 HD
ENDROOT
BRANCH   2   5
ATOM      5  C   UNL A   1      31.353  27.748  22.669  1.00  0.00     0.039 A 
ATOM      6  C   UNL A   1      32.670  27.727  22.207  1.00  0.00     0.014 A 
ATOM      7  C   UNL A   1      30.702  26.569  23.035  1.00  0.00     0.014 A 
ATOM      8  C   UNL A   1      33.312  26.504  22.036  1.00  0.00     0.004 A 
ATOM      9  C   UNL A   1      31.346  25.345  22.847  1.00  0.00     0.004 A 
ATOM     10  C   UNL A   1      32.643  25.301  22.315  1.00  0.00    -0.048 A 
BRANCH  10  11
ATOM     11  C   UNL A   1      33.310  23.980  22.013  1.00  0.00     0.041 C 
BRANCH  11  12
ATOM     12  C   UNL A   1      34.200  23.463  23.155  1.00  0.00     0.015 C 
ATOM     13  C   UNL A   1      34.137  24.305  24.439  1.00  0.00     0.027 C 
ATOM     14  C   UNL A   1      33.757  22.067  23.619  1.00  0.00     0.123 C 
ATOM     15  C   UNL A   1      34.440  23.315  25.544  1.00  0.00     0.120 C 
ATOM     16  N   UNL A   1      33.819  22.094  25.070  1.00  0.00    -0.342 N 
BRANCH  16  17
ATOM     17  C   UNL A   1      33.346  21.042  25.824  1.00  0.00     0.227 C 
ATOM     18  O   UNL A   1      33.665  20.902  27.007  1.00  0.00    -0.275 OA
BRANCH  17  19
ATOM     19  C   UNL A   1      32.439  20.024  25.144  1.00  0.00     0.135 C 
BRANCH  19  20
ATOM     20  C   UNL A   1      33.018  18.631  25.079  1.00  0.00    -0.035 A 
ATOM     21  C   UNL A   1      34.129  18.365  24.262  1.00  0.00     0.004 A 
ATOM     22  C   UNL A   1      32.460  17.587  25.832  1.00  0.00     0.050 A 
ATOM     23  C   UNL A   1      34.636  17.070  24.159  1.00  0.00     0.004 A 
ATOM     24  C   UNL A   1      32.973  16.298  25.716  1.00  0.00     0.115 A 
ATOM     25  C   UNL A   1      34.051  16.032  24.881  1.00  0.00     0.046 A 
BRANCH  24  26
ATOM     26  O   UNL A   1      32.428  15.257  26.408  1.00  0.00    -0.508 OA
ATOM     27  H   UNL A   1      31.498  15.148  26.433  1.00  0.00     0.293 HD
ENDBRANCH  24  26
ENDBRANCH  19  20
ENDBRANCH  17  19
ENDBRANCH  16  17
ENDBRANCH  11  12
ENDBRANCH  10  11
ENDBRANCH   2   5
BRANCH   3  28
ATOM     28  C   UNL A   1      31.311  29.453  25.119  1.00  0.00     0.116 C 
BRANCH  28  29
ATOM     29  C   UNL A   1      32.809  29.712  24.994  1.00  0.00     0.023 C 
BRANCH  29  30
ATOM     30  C   UNL A   1      33.706  28.702  25.712  1.00  0.00     0.023 C 
BRANCH  30  31
ATOM     31  C   UNL A   1      33.678  28.765  27.236  1.00  0.00     0.116 C 
BRANCH  31  32
ATOM     32  N   UNL A   1      33.731  30.123  27.757  1.00  0.00    -0.352 N 
ATOM     33  C   UNL A   1      34.762  30.778  28.388  1.00  0.00     0.251 C 
ATOM     34  H   UNL A   1      32.908  30.650  27.640  1.00  0.00     0.163 HD
ATOM     35  O   UNL A   1      34.587  31.897  28.859  1.00  0.00    -0.269 OA
BRANCH  33  36
ATOM     36  C   UNL A   1      36.075  30.113  28.537  1.00  0.00     0.039 A 
ATOM     37  C   UNL A   1      36.978  30.162  27.472  1.00  0.00     0.014 A 
ATOM     38  C   UNL A   1      36.425  29.478  29.730  1.00  0.00     0.014 A 
ATOM     39  C   UNL A   1      38.272  29.661  27.640  1.00  0.00     0.010 A 
ATOM     40  C   UNL A   1      37.734  29.042  29.919  1.00  0.00     0.010 A 
ATOM     41  C   UNL A   1      38.675  29.146  28.883  1.00  0.00    -0.014 A 
BRANCH  41  42
ATOM     42  C   UNL A   1      40.084  28.757  29.138  1.00  0.00     0.031 A 
ATOM     43  C   UNL A   1      41.049  29.741  29.733  1.00  0.00     0.074 A 
ATOM     44  C   UNL A   1      40.519  27.546  28.737  1.00  0.00     0.049 A 
ATOM     45  N   UNL A   1      42.339  29.623  29.919  1.00  0.00    -0.248 NA
ATOM     46  C   UNL A   1      40.496  31.040  30.145  1.00  0.00     0.031 C 
ATOM     47  C   UNL A   1      39.696  26.521  28.093  1.00  0.00     0.029 A 
ATOM     48  N   UNL A   1      41.770  26.983  28.787  1.00  0.00    -0.354 N 
ATOM     49  C   UNL A   1      42.755  30.836  30.451  1.00  0.00     0.074 A 
ATOM     50  C   UNL A   1      41.588  31.691  30.520  1.00  0.00     0.031 C 
ATOM     51  C   UNL A   1      40.461  25.453  27.815  1.00  0.00     0.029 A 
ATOM     52  C   UNL A   1      41.834  25.732  28.226  1.00  0.00     0.049 A 
ATOM     53  H   UNL A   1      42.548  27.434  29.190  1.00  0.00     0.167 HD
ATOM     54  C   UNL A   1      43.994  31.200  30.859  1.00  0.00     0.037 A 
ATOM     55  C   UNL A   1      42.882  24.906  28.044  1.00  0.00     0.037 A 
ATOM     56  C   UNL A   1      45.148  30.342  30.817  1.00  0.00     0.049 A 
ATOM     57  C   UNL A   1      44.244  25.329  28.511  1.00  0.00     0.074 A 
ATOM     58  C   UNL A   1      46.427  30.591  31.287  1.00  0.00     0.029 A 
ATOM     59  N   UNL A   1      45.166  29.069  30.269  1.00  0.00    -0.354 N 
ATOM     60  N   UNL A   1      44.609  26.450  29.082  1.00  0.00    -0.248 NA
ATOM     61  C   UNL A   1      45.341  24.370  28.310  1.00  0.00     0.031 C 
ATOM     62  C   UNL A   1      47.227  29.484  30.988  1.00  0.00     0.029 A 
ATOM     63  C   UNL A   1      46.439  28.530  30.365  1.00  0.00     0.049 A 
ATOM     64  H   UNL A   1      44.388  28.614  29.869  1.00  0.00     0.167 HD
ATOM     65  C   UNL A   1      45.970  26.329  29.323  1.00  0.00     0.074 A 
ATOM     66  C   UNL A   1      46.365  25.019  28.850  1.00  0.00     0.031 C 
ATOM     67  C   UNL A   1      46.817  27.225  29.886  1.00  0.00     0.037 A 
BRANCH  54  68
ATOM     68  C   UNL A   1      44.162  32.592  31.392  1.00  0.00     0.057 A 
ATOM     69  C   UNL A   1      43.996  32.886  32.751  1.00  0.00     0.134 A 
ATOM     70  C   UNL A   1      44.517  33.645  30.541  1.00  0.00     0.134 A 
ATOM     71  F   UNL A   1      43.645  31.924  33.617  1.00  0.00    -0.206 F 
ATOM     72  C   UNL A   1      44.153  34.184  33.241  1.00  0.00     0.040 A 
ATOM     73  C   UNL A   1      44.699  34.943  31.022  1.00  0.00     0.040 A 
ATOM     74  F   UNL A   1      44.696  33.431  29.229  1.00  0.00    -0.206 F 
ATOM     75  C   UNL A   1      44.510  35.216  32.375  1.00  0.00     0.006 A 
ENDBRANCH  54  68
BRANCH  55  76
ATOM     76  C   UNL A   1      42.677  23.590  27.391  1.00  0.00     0.057 A 
ATOM     77  C   UNL A   1      42.869  23.430  26.014  1.00  0.00     0.134 A 
ATOM     78  C   UNL A   1      42.297  22.461  28.126  1.00  0.00     0.134 A 
ATOM     79  F   UNL A   1      43.215  24.481  25.256  1.00  0.00    -0.206 F 
ATOM     80  C   UNL A   1      42.679  22.198  25.388  1.00  0.00     0.040 A 
ATOM     81  C   UNL A   1      42.123  21.217  27.517  1.00  0.00     0.040 A 
ATOM     82  F   UNL A   1      42.105  22.549  29.451  1.00  0.00    -0.206 F 
ATOM     83  C   UNL A   1      42.310  21.086  26.142  1.00  0.00     0.006 A 
ENDBRANCH  55  76
BRANCH  67  84
ATOM     84  C   UNL A   1      48.251  26.812  30.034  1.00  0.00     0.057 A 
ATOM     85  C   UNL A   1      48.680  26.028  31.111  1.00  0.00     0.134 A 
ATOM     86  C   UNL A   1      49.201  27.166  29.068  1.00  0.00     0.134 A 
ATOM     87  F   UNL A   1      47.821  25.668  32.076  1.00  0.00    -0.206 F 
ATOM     88  C   UNL A   1      50.010  25.621  31.231  1.00  0.00     0.040 A 
ATOM     89  C   UNL A   1      50.528  26.748  29.166  1.00  0.00     0.040 A 
ATOM     90  F   UNL A   1      48.851  27.912  28.010  1.00  0.00    -0.206 F 
ATOM     91  C   UNL A   1      50.937  25.976  30.252  1.00  0.00     0.006 A 
ENDBRANCH  67  84
ENDBRANCH  41  42
ENDBRANCH  33  36
ENDBRANCH  31  32
ENDBRANCH  30  31
ENDBRANCH  29  30
ENDBRANCH  28  29
ENDBRANCH   3  28
TORSDOF 17
ENDMDL
MODEL 3
REMARK VINA RESULT:     -12.9      0.385      6.050
REMARK SMILES O=C(NCCCCNC(=O)c1ccc(-c2c3nc(c(-c4c(F)cccc4F)c4ccc([nH]4)c(-c4c(F)cccc4F)c4nc(c(-c5c(F)cccc5F)c5ccc2[nH]5)C=C4)C=C3)cc1)c1ccc(C[C@H]2CCN(C(=O)Cc3cccc(O)c3)C2)cc1
REMARK SMILES IDX 1 1 2 2 3 3 65 5 66 6 86 7 67 8 85 9 68 10 69 11 70 12 71 13
REMARK SMILES IDX 84 14 72 15 73 16 74 17 75 18 76 19 77 20 78 21 83 22 79 23
REMARK SMILES IDX 81 24 80 25 82 26 4 28 5 29 6 30 7 31 8 32 9 33 10 35 11 36
REMARK SMILES IDX 12 37 64 38 13 39 63 40 14 41 15 42 16 43 57 44 17 45 62 46
REMARK SMILES IDX 56 47 58 48 18 49 61 50 55 51 54 52 19 54 45 55 28 56 44 57
REMARK SMILES IDX 29 58 32 59 43 60 59 61 30 62 31 63 42 65 60 66 33 67 20 68
REMARK SMILES IDX 21 69 26 70 22 71 23 72 25 73 27 74 24 75 46 76 47 77 52 78
REMARK SMILES IDX 48 79 49 80 51 81 53 82 50 83 34 84 35 85 40 86 36 87 37 88
REMARK SMILES IDX 39 89 41 90 38 91
REMARK H PARENT 3 4 82 27 8 34 58 53 32 64
REMARK Flexibility Score: inf
ROOT
ATOM      1  O   UNL A   1      29.182  29.718  22.975  1.00  0.00    -0.269 OA
ATOM      2  C   UNL A   1      30.157  29.369  23.630  1.00  0.00     0.251 C 
ATOM      3  N   UNL A   1      30.770  30.230  24.509  1.00  0.00    -0.352 N 
ATOM      4  H   UNL A   1      30.319  31.094  24.648  1.00  0.00     0.163 HD
ENDROOT
BRANCH   2   5
ATOM      5  C   UNL A   1      30.710  28.013  23.474  1.00  0.00     0.039 A 
ATOM      6  C   UNL A   1      31.554  27.730  22.400  1.00  0.00     0.014 A 
ATOM      7  C   UNL A   1      30.330  27.014  24.371  1.00  0.00     0.014 A 
ATOM      8  C   UNL A   1      31.955  26.416  22.177  1.00  0.00     0.004 A 
ATOM      9  C   UNL A   1      30.722  25.695  24.133  1.00  0.00     0.004 A 
ATOM     10  C   UNL A   1      31.511  25.382  23.017  1.00  0.00    -0.048 A 
BRANCH  10  11
ATOM     11  C   UNL A   1      31.857  23.947  22.694  1.00  0.00     0.041 C 
BRANCH  11  12
ATOM     12  C   UNL A   1      33.362  23.643  22.773  1.00  0.00     0.015 C 
ATOM     13  C   UNL A   1      34.136  24.526  23.766  1.00  0.00     0.027 C 
ATOM     14  C   UNL A   1      33.617  22.217  23.286  1.00  0.00     0.123 C 
ATOM     15  C   UNL A   1      35.294  23.656  24.207  1.00  0.00     0.120 C 
ATOM     16  N   UNL A   1      34.717  22.327  24.228  1.00  0.00    -0.342 N 
BRANCH  16  17
ATOM     17  C   UNL A   1      35.113  21.248  24.990  1.00  0.00     0.227 C 
ATOM     18  O   UNL A   1      36.301  21.044  25.250  1.00  0.00    -0.275 OA
BRANCH  17  19
ATOM     19  C   UNL A   1      34.041  20.284  25.479  1.00  0.00     0.135 C 
BRANCH  19  20
ATOM     20  C   UNL A   1      33.891  19.047  24.626  1.00  0.00    -0.035 A 
ATOM     21  C   UNL A   1      34.799  17.984  24.758  1.00  0.00     0.004 A 
ATOM     22  C   UNL A   1      32.847  18.940  23.695  1.00  0.00     0.050 A 
ATOM     23  C   UNL A   1      34.697  16.860  23.937  1.00  0.00     0.004 A 
ATOM     24  C   UNL A   1      32.759  17.816  22.879  1.00  0.00     0.115 A 
ATOM     25  C   UNL A   1      33.679  16.780  22.989  1.00  0.00     0.046 A 
BRANCH  24  26
ATOM     26  O   UNL A   1      31.776  17.700  21.941  1.00  0.00    -0.508 OA
ATOM     27  H   UNL A   1      31.985  17.788  21.032  1.00  0.00     0.293 HD
ENDBRANCH  24  26
ENDBRANCH  19  20
ENDBRANCH  17  19
ENDBRANCH  16  17
ENDBRANCH  11  12
ENDBRANCH  10  11
ENDBRANCH   2   5
BRANCH   3  28
ATOM     28  C   UNL A   1      31.999  30.028  25.261  1.00  0.00     0.116 C 
BRANCH  28  29
ATOM     29  C   UNL A   1      31.895  30.533  26.698  1.00  0.00     0.023 C 
BRANCH  29  30
ATOM     30  C   UNL A   1      31.653  32.035  26.843  1.00  0.00     0.023 C 
BRANCH  30  31
ATOM     31  C   UNL A   1      32.793  32.826  27.477  1.00  0.00     0.116 C 
BRANCH  31  32
ATOM     32  N   UNL A   1      32.449  34.215  27.746  1.00  0.00    -0.352 N 
ATOM     33  C   UNL A   1      33.020  35.103  28.627  1.00  0.00     0.251 C 
ATOM     34  H   UNL A   1      31.698  34.571  27.219  1.00  0.00     0.163 HD
ATOM     35  O   UNL A   1      32.524  36.211  28.796  1.00  0.00    -0.269 OA
BRANCH  33  36
ATOM     36  C   UNL A   1      34.213  34.703  29.405  1.00  0.00     0.039 A 
ATOM     37  C   UNL A   1      34.039  34.239  30.712  1.00  0.00     0.014 A 
ATOM     38  C   UNL A   1      35.488  34.749  28.837  1.00  0.00     0.014 A 
ATOM     39  C   UNL A   1      35.133  33.728  31.415  1.00  0.00     0.010 A 
ATOM     40  C   UNL A   1      36.564  34.177  29.511  1.00  0.00     0.010 A 
ATOM     41  C   UNL A   1      36.393  33.644  30.799  1.00  0.00    -0.014 A 
BRANCH  41  42
ATOM     42  C   UNL A   1      37.533  32.961  31.459  1.00  0.00     0.031 A 
ATOM     43  C   UNL A   1      38.173  31.761  30.822  1.00  0.00     0.074 A 
ATOM     44  C   UNL A   1      37.923  33.360  32.686  1.00  0.00     0.049 A 
ATOM     45  N   UNL A   1      39.095  30.967  31.301  1.00  0.00    -0.248 NA
ATOM     46  C   UNL A   1      37.691  31.390  29.484  1.00  0.00     0.031 C 
ATOM     47  C   UNL A   1      37.343  34.474  33.438  1.00  0.00     0.029 A 
ATOM     48  N   UNL A   1      38.883  32.856  33.528  1.00  0.00    -0.354 N 
ATOM     49  C   UNL A   1      39.291  29.991  30.332  1.00  0.00     0.074 A 
ATOM     50  C   UNL A   1      38.362  30.271  29.257  1.00  0.00     0.031 C 
ATOM     51  C   UNL A   1      37.962  34.573  34.626  1.00  0.00     0.029 A 
ATOM     52  C   UNL A   1      38.955  33.509  34.734  1.00  0.00     0.049 A 
ATOM     53  H   UNL A   1      39.466  32.098  33.289  1.00  0.00     0.167 HD
ATOM     54  C   UNL A   1      40.175  28.965  30.332  1.00  0.00     0.037 A 
ATOM     55  C   UNL A   1      39.722  33.269  35.815  1.00  0.00     0.037 A 
ATOM     56  C   UNL A   1      41.117  28.704  31.388  1.00  0.00     0.049 A 
ATOM     57  C   UNL A   1      40.699  32.129  35.788  1.00  0.00     0.074 A 
ATOM     58  C   UNL A   1      42.110  27.740  31.440  1.00  0.00     0.029 A 
ATOM     59  N   UNL A   1      41.181  29.407  32.581  1.00  0.00    -0.354 N 
ATOM     60  N   UNL A   1      40.927  31.261  34.834  1.00  0.00    -0.248 NA
ATOM     61  C   UNL A   1      41.528  31.938  36.987  1.00  0.00     0.031 C 
ATOM     62  C   UNL A   1      42.749  27.835  32.680  1.00  0.00     0.029 A 
ATOM     63  C   UNL A   1      42.179  28.882  33.387  1.00  0.00     0.049 A 
ATOM     64  H   UNL A   1      40.602  30.167  32.821  1.00  0.00     0.167 HD
ATOM     65  C   UNL A   1      41.932  30.430  35.309  1.00  0.00     0.074 A 
ATOM     66  C   UNL A   1      42.282  30.907  36.629  1.00  0.00     0.031 C 
ATOM     67  C   UNL A   1      42.512  29.365  34.702  1.00  0.00     0.037 A 
BRANCH  54  68
ATOM     68  C   UNL A   1      40.164  28.048  29.146  1.00  0.00     0.057 A 
ATOM     69  C   UNL A   1      39.391  26.879  29.124  1.00  0.00     0.134 A 
ATOM     70  C   UNL A   1      40.915  28.348  28.003  1.00  0.00     0.134 A 
ATOM     71  F   UNL A   1      38.658  26.529  30.191  1.00  0.00    -0.206 F 
ATOM     72  C   UNL A   1      39.385  26.029  28.017  1.00  0.00     0.040 A 
ATOM     73  C   UNL A   1      40.900  27.517  26.881  1.00  0.00     0.040 A 
ATOM     74  F   UNL A   1      41.673  29.453  27.956  1.00  0.00    -0.206 F 
ATOM     75  C   UNL A   1      40.139  26.350  26.890  1.00  0.00     0.006 A 
ENDBRANCH  54  68
BRANCH  55  76
ATOM     76  C   UNL A   1      39.596  34.133  37.013  1.00  0.00     0.057 A 
ATOM     77  C   UNL A   1      40.263  35.361  37.088  1.00  0.00     0.134 A 
ATOM     78  C   UNL A   1      38.801  33.762  38.102  1.00  0.00     0.134 A 
ATOM     79  F   UNL A   1      41.054  35.761  36.082  1.00  0.00    -0.206 F 
ATOM     80  C   UNL A   1      40.154  36.184  38.210  1.00  0.00     0.040 A 
ATOM     81  C   UNL A   1      38.666  34.583  39.223  1.00  0.00     0.040 A 
ATOM     82  F   UNL A   1      38.131  32.600  38.086  1.00  0.00    -0.206 F 
ATOM     83  C   UNL A   1      39.348  35.797  39.279  1.00  0.00     0.006 A 
ENDBRANCH  55  76
BRANCH  67  84
ATOM     84  C   UNL A   1      43.596  28.655  35.456  1.00  0.00     0.057 A 
ATOM     85  C   UNL A   1      44.939  29.031  35.338  1.00  0.00     0.134 A 
ATOM     86  C   UNL A   1      43.288  27.614  36.341  1.00  0.00     0.134 A 
ATOM     87  F   UNL A   1      45.300  30.010  34.496  1.00  0.00    -0.206 F 
ATOM     88  C   UNL A   1      45.942  28.386  36.064  1.00  0.00     0.040 A 
ATOM     89  C   UNL A   1      44.279  26.976  37.088  1.00  0.00     0.040 A 
ATOM     90  F   UNL A   1      42.018  27.211  36.503  1.00  0.00    -0.206 F 
ATOM     91  C   UNL A   1      45.611  27.359  36.948  1.00  0.00     0.006 A 
ENDBRANCH  67  84
ENDBRANCH  41  42
ENDBRANCH  33  36
ENDBRANCH  31  32
ENDBRANCH  30  31
ENDBRANCH  29  30
ENDBRANCH  28  29
ENDBRANCH   3  28
TORSDOF 17
ENDMDL
