MODEL 1
REMARK VINA RESULT:     -12.6      0.000      0.000
REMARK SMILES C[C@@H](C(=O)NCCCCNC(=O)c1ccc(-c2c3nc(c(-c4c(F)cccc4F)c4ccc([nH]4)c(-c4c(F)cccc4F)c4nc(c(-c5c(F)cccc5F)c5ccc2[nH]5)C=C4)C=C3)cc1)c1ccc(C[C@H]2CCCC2=O)c(-c2ccc(OC(F)(F)F)cc2)c1
REMARK SMILES IDX 6 1 5 2 3 3 4 4 2 6 1 7 67 8 68 9 90 10 69 11 78 12 70 13
REMARK SMILES IDX 79 14 80 15 89 16 81 17 88 18 82 19 83 20 84 21 85 22 86 23
REMARK SMILES IDX 87 24 71 25 72 26 73 27 76 28 74 29 75 30 77 31 7 32 8 33
REMARK SMILES IDX 9 34 10 35 11 36 12 38 13 39 14 40 66 41 15 42 65 43 16 44
REMARK SMILES IDX 17 45 18 46 59 47 19 48 64 49 58 50 60 51 20 52 63 53 57 54
REMARK SMILES IDX 56 55 21 57 47 58 30 59 46 60 31 61 34 62 45 63 61 64 32 65
REMARK SMILES IDX 33 66 44 68 62 69 35 70 22 71 23 72 28 73 24 74 25 75 27 76
REMARK SMILES IDX 29 77 26 78 48 79 49 80 54 81 50 82 51 83 53 84 55 85 52 86
REMARK SMILES IDX 36 87 37 88 42 89 38 90 39 91 41 92 43 93 40 94
REMARK H PARENT 5 5 10 37 60 56 34 67
REMARK Flexibility Score: inf
ROOT
ATOM      1  C   UNL A   1      30.629  29.333  23.802  1.00  0.00     0.116 C 
ENDROOT
BRANCH   1   2
ATOM      2  N   UNL A   1      30.003  28.031  23.902  1.00  0.00    -0.356 N 
ATOM      3  C   UNL A   1      30.400  26.821  23.404  1.00  0.00     0.227 C 
ATOM      4  O   UNL A   1      29.577  25.904  23.481  1.00  0.00    -0.274 OA
ATOM      5  H   UNL A   1      29.160  28.013  24.409  1.00  0.00     0.163 HD
BRANCH   3   6
ATOM      6  C   UNL A   1      31.824  26.640  22.825  1.00  0.00     0.105 C 
ATOM      7  C   UNL A   1      31.740  26.066  21.404  1.00  0.00     0.023 C 
BRANCH   6   8
ATOM      8  C   UNL A   1      32.732  25.809  23.744  1.00  0.00    -0.035 A 
ATOM      9  C   UNL A   1      33.744  26.388  24.516  1.00  0.00     0.005 A 
ATOM     10  C   UNL A   1      32.559  24.415  23.851  1.00  0.00     0.013 A 
ATOM     11  C   UNL A   1      34.595  25.604  25.289  1.00  0.00     0.004 A 
ATOM     12  C   UNL A   1      33.433  23.590  24.600  1.00  0.00    -0.015 A 
ATOM     13  C   UNL A   1      34.502  24.203  25.293  1.00  0.00    -0.039 A 
BRANCH  12  14
ATOM     14  C   UNL A   1      33.207  22.129  24.598  1.00  0.00    -0.018 A 
ATOM     15  C   UNL A   1      33.612  21.328  25.675  1.00  0.00     0.012 A 
ATOM     16  C   UNL A   1      32.584  21.495  23.513  1.00  0.00     0.012 A 
ATOM     17  C   UNL A   1      33.465  19.938  25.634  1.00  0.00     0.047 A 
ATOM     18  C   UNL A   1      32.417  20.102  23.478  1.00  0.00     0.047 A 
ATOM     19  C   UNL A   1      32.874  19.314  24.533  1.00  0.00     0.129 A 
BRANCH  19  20
ATOM     20  O   UNL A   1      32.821  17.954  24.618  1.00  0.00    -0.406 OA
BRANCH  20  21
ATOM     21  C   UNL A   1      33.707  17.203  23.807  1.00  0.00     0.573 C 
ATOM     22  F   UNL A   1      33.551  17.513  22.502  1.00  0.00    -0.132 F 
ATOM     23  F   UNL A   1      34.993  17.404  24.169  1.00  0.00    -0.132 F 
ATOM     24  F   UNL A   1      33.430  15.889  23.964  1.00  0.00    -0.132 F 
ENDBRANCH  20  21
ENDBRANCH  19  20
ENDBRANCH  12  14
BRANCH  13  25
ATOM     25  C   UNL A   1      35.607  23.446  26.005  1.00  0.00     0.047 C 
BRANCH  25  26
ATOM     26  C   UNL A   1      36.974  23.401  25.304  1.00  0.00     0.060 C 
ATOM     27  C   UNL A   1      38.144  24.063  26.037  1.00  0.00     0.012 C 
ATOM     28  C   UNL A   1      37.492  21.996  25.093  1.00  0.00     0.136 C 
ATOM     29  C   UNL A   1      38.895  22.942  26.745  1.00  0.00     0.009 C 
ATOM     30  C   UNL A   1      38.780  21.735  25.826  1.00  0.00     0.076 C 
ATOM     31  O   UNL A   1      36.934  21.164  24.386  1.00  0.00    -0.299 OA
ENDBRANCH  25  26
ENDBRANCH  13  25
ENDBRANCH   6   8
ENDBRANCH   3   6
ENDBRANCH   1   2
BRANCH   1  32
ATOM     32  C   UNL A   1      31.500  29.614  25.031  1.00  0.00     0.023 C 
BRANCH  32  33
ATOM     33  C   UNL A   1      31.188  30.924  25.756  1.00  0.00     0.023 C 
BRANCH  33  34
ATOM     34  C   UNL A   1      32.153  31.292  26.876  1.00  0.00     0.116 C 
BRANCH  34  35
ATOM     35  N   UNL A   1      32.200  32.721  27.134  1.00  0.00    -0.352 N 
ATOM     36  C   UNL A   1      33.119  33.447  27.844  1.00  0.00     0.251 C 
ATOM     37  H   UNL A   1      31.463  33.244  26.741  1.00  0.00     0.163 HD
ATOM     38  O   UNL A   1      32.916  34.641  28.060  1.00  0.00    -0.269 OA
BRANCH  36  39
ATOM     39  C   UNL A   1      34.335  32.799  28.379  1.00  0.00     0.039 A 
ATOM     40  C   UNL A   1      35.539  33.506  28.334  1.00  0.00     0.014 A 
ATOM     41  C   UNL A   1      34.303  31.508  28.914  1.00  0.00     0.014 A 
ATOM     42  C   UNL A   1      36.696  32.939  28.870  1.00  0.00     0.010 A 
ATOM     43  C   UNL A   1      35.439  30.975  29.518  1.00  0.00     0.010 A 
ATOM     44  C   UNL A   1      36.649  31.682  29.496  1.00  0.00    -0.014 A 
BRANCH  44  45
ATOM     45  C   UNL A   1      37.865  31.116  30.131  1.00  0.00     0.031 A 
ATOM     46  C   UNL A   1      38.224  31.462  31.549  1.00  0.00     0.074 A 
ATOM     47  C   UNL A   1      38.661  30.299  29.414  1.00  0.00     0.049 A 
ATOM     48  N   UNL A   1      39.226  31.034  32.274  1.00  0.00    -0.248 NA
ATOM     49  C   UNL A   1      37.358  32.433  32.236  1.00  0.00     0.031 C 
ATOM     50  C   UNL A   1      38.460  29.943  28.007  1.00  0.00     0.029 A 
ATOM     51  N   UNL A   1      39.796  29.616  29.770  1.00  0.00    -0.354 N 
ATOM     52  C   UNL A   1      39.108  31.675  33.501  1.00  0.00     0.074 A 
ATOM     53  C   UNL A   1      37.979  32.575  33.399  1.00  0.00     0.031 C 
ATOM     54  C   UNL A   1      39.419  29.082  27.631  1.00  0.00     0.029 A 
ATOM     55  C   UNL A   1      40.314  28.845  28.758  1.00  0.00     0.049 A 
ATOM     56  H   UNL A   1      40.200  29.672  30.666  1.00  0.00     0.167 HD
ATOM     57  C   UNL A   1      39.851  31.507  34.620  1.00  0.00     0.037 A 
ATOM     58  C   UNL A   1      41.387  28.033  28.742  1.00  0.00     0.037 A 
ATOM     59  C   UNL A   1      40.971  30.607  34.722  1.00  0.00     0.049 A 
ATOM     60  C   UNL A   1      42.188  27.854  30.002  1.00  0.00     0.074 A 
ATOM     61  C   UNL A   1      41.767  30.340  35.823  1.00  0.00     0.029 A 
ATOM     62  N   UNL A   1      41.452  29.827  33.682  1.00  0.00    -0.354 N 
ATOM     63  N   UNL A   1      42.018  28.411  31.176  1.00  0.00    -0.248 NA
ATOM     64  C   UNL A   1      43.318  26.917  29.938  1.00  0.00     0.031 C 
ATOM     65  C   UNL A   1      42.754  29.426  35.437  1.00  0.00     0.029 A 
ATOM     66  C   UNL A   1      42.543  29.087  34.111  1.00  0.00     0.049 A 
ATOM     67  H   UNL A   1      41.076  29.802  32.773  1.00  0.00     0.167 HD
ATOM     68  C   UNL A   1      43.006  27.880  31.995  1.00  0.00     0.074 A 
ATOM     69  C   UNL A   1      43.752  26.935  31.190  1.00  0.00     0.031 C 
ATOM     70  C   UNL A   1      43.277  28.154  33.295  1.00  0.00     0.037 A 
BRANCH  57  71
ATOM     71  C   UNL A   1      39.461  32.304  35.833  1.00  0.00     0.057 A 
ATOM     72  C   UNL A   1      38.502  31.834  36.741  1.00  0.00     0.134 A 
ATOM     73  C   UNL A   1      40.072  33.530  36.117  1.00  0.00     0.134 A 
ATOM     74  F   UNL A   1      37.870  30.672  36.522  1.00  0.00    -0.206 F 
ATOM     75  C   UNL A   1      38.150  32.567  37.876  1.00  0.00     0.040 A 
ATOM     76  C   UNL A   1      39.747  34.260  37.263  1.00  0.00     0.040 A 
ATOM     77  F   UNL A   1      41.002  34.037  35.294  1.00  0.00    -0.206 F 
ATOM     78  C   UNL A   1      38.778  33.780  38.143  1.00  0.00     0.006 A 
ENDBRANCH  57  71
BRANCH  58  79
ATOM     79  C   UNL A   1      41.752  27.306  27.500  1.00  0.00     0.057 A 
ATOM     80  C   UNL A   1      41.346  25.984  27.287  1.00  0.00     0.134 A 
ATOM     81  C   UNL A   1      42.527  27.911  26.503  1.00  0.00     0.134 A 
ATOM     82  F   UNL A   1      40.615  25.344  28.212  1.00  0.00    -0.206 F 
ATOM     83  C   UNL A   1      41.718  25.280  26.140  1.00  0.00     0.040 A 
ATOM     84  C   UNL A   1      42.883  27.229  25.340  1.00  0.00     0.040 A 
ATOM     85  F   UNL A   1      42.939  29.179  26.643  1.00  0.00    -0.206 F 
ATOM     86  C   UNL A   1      42.486  25.905  25.160  1.00  0.00     0.006 A 
ENDBRANCH  58  79
BRANCH  70  87
ATOM     87  C   UNL A   1      44.413  27.401  33.926  1.00  0.00     0.057 A 
ATOM     88  C   UNL A   1      44.224  26.155  34.537  1.00  0.00     0.134 A 
ATOM     89  C   UNL A   1      45.711  27.926  33.915  1.00  0.00     0.134 A 
ATOM     90  F   UNL A   1      43.002  25.603  34.592  1.00  0.00    -0.206 F 
ATOM     91  C   UNL A   1      45.279  25.475  35.147  1.00  0.00     0.040 A 
ATOM     92  C   UNL A   1      46.779  27.241  34.495  1.00  0.00     0.040 A 
ATOM     93  F   UNL A   1      45.963  29.110  33.337  1.00  0.00    -0.206 F 
ATOM     94  C   UNL A   1      46.563  26.016  35.123  1.00  0.00     0.006 A 
ENDBRANCH  70  87
ENDBRANCH  44  45
ENDBRANCH  36  39
ENDBRANCH  34  35
ENDBRANCH  33  34
ENDBRANCH  32  33
ENDBRANCH   1  32
TORSDOF 17
ENDMDL
MODEL 2
REMARK VINA RESULT:     -12.5      4.631      9.486
REMARK SMILES C[C@@H](C(=O)NCCCCNC(=O)c1ccc(-c2c3nc(c(-c4c(F)cccc4F)c4ccc([nH]4)c(-c4c(F)cccc4F)c4nc(c(-c5c(F)cccc5F)c5ccc2[nH]5)C=C4)C=C3)cc1)c1ccc(C[C@H]2CCCC2=O)c(-c2ccc(OC(F)(F)F)cc2)c1
REMARK SMILES IDX 6 1 5 2 3 3 4 4 2 6 1 7 67 8 68 9 90 10 69 11 78 12 70 13
REMARK SMILES IDX 79 14 80 15 89 16 81 17 88 18 82 19 83 20 84 21 85 22 86 23
REMARK SMILES IDX 87 24 71 25 72 26 73 27 76 28 74 29 75 30 77 31 7 32 8 33
REMARK SMILES IDX 9 34 10 35 11 36 12 38 13 39 14 40 66 41 15 42 65 43 16 44
REMARK SMILES IDX 17 45 18 46 59 47 19 48 64 49 58 50 60 51 20 52 63 53 57 54
REMARK SMILES IDX 56 55 21 57 47 58 30 59 46 60 31 61 34 62 45 63 61 64 32 65
REMARK SMILES IDX 33 66 44 68 62 69 35 70 22 71 23 72 28 73 24 74 25 75 27 76
REMARK SMILES IDX 29 77 26 78 48 79 49 80 54 81 50 82 51 83 53 84 55 85 52 86
REMARK SMILES IDX 36 87 37 88 42 89 38 90 39 91 41 92 43 93 40 94
REMARK H PARENT 5 5 10 37 60 56 34 67
REMARK Flexibility Score: inf
ROOT
ATOM      1  C   UNL A   1      38.083  22.764  26.220  1.00  0.00     0.116 C 
ENDROOT
BRANCH   1   2
ATOM      2  N   UNL A   1      37.778  22.872  24.809  1.00  0.00    -0.356 N 
ATOM      3  C   UNL A   1      36.679  22.456  24.111  1.00  0.00     0.227 C 
ATOM      4  O   UNL A   1      36.764  22.510  22.880  1.00  0.00    -0.274 OA
ATOM      5  H   UNL A   1      38.471  23.313  24.267  1.00  0.00     0.163 HD
BRANCH   3   6
ATOM      6  C   UNL A   1      35.404  21.996  24.856  1.00  0.00     0.105 C 
ATOM      7  C   UNL A   1      35.178  20.495  24.627  1.00  0.00     0.023 C 
BRANCH   6   8
ATOM      8  C   UNL A   1      34.172  22.839  24.492  1.00  0.00    -0.035 A 
ATOM      9  C   UNL A   1      33.290  22.471  23.472  1.00  0.00     0.005 A 
ATOM     10  C   UNL A   1      33.881  24.023  25.200  1.00  0.00     0.013 A 
ATOM     11  C   UNL A   1      32.219  23.287  23.120  1.00  0.00     0.004 A 
ATOM     12  C   UNL A   1      32.821  24.890  24.839  1.00  0.00    -0.015 A 
ATOM     13  C   UNL A   1      32.006  24.528  23.741  1.00  0.00    -0.039 A 
BRANCH  12  14
ATOM     14  C   UNL A   1      32.634  26.141  25.603  1.00  0.00    -0.018 A 
ATOM     15  C   UNL A   1      31.366  26.541  26.048  1.00  0.00     0.012 A 
ATOM     16  C   UNL A   1      33.722  26.975  25.901  1.00  0.00     0.012 A 
ATOM     17  C   UNL A   1      31.186  27.763  26.703  1.00  0.00     0.047 A 
ATOM     18  C   UNL A   1      33.546  28.192  26.577  1.00  0.00     0.047 A 
ATOM     19  C   UNL A   1      32.272  28.601  26.965  1.00  0.00     0.129 A 
BRANCH  19  20
ATOM     20  O   UNL A   1      31.944  29.771  27.585  1.00  0.00    -0.406 OA
BRANCH  20  21
ATOM     21  C   UNL A   1      32.153  30.979  26.876  1.00  0.00     0.573 C 
ATOM     22  F   UNL A   1      31.259  31.921  27.247  1.00  0.00    -0.132 F 
ATOM     23  F   UNL A   1      33.406  31.447  27.061  1.00  0.00    -0.132 F 
ATOM     24  F   UNL A   1      31.987  30.740  25.555  1.00  0.00    -0.132 F 
ENDBRANCH  20  21
ENDBRANCH  19  20
ENDBRANCH  12  14
BRANCH  13  25
ATOM     25  C   UNL A   1      30.937  25.421  23.138  1.00  0.00     0.047 C 
BRANCH  25  26
ATOM     26  C   UNL A   1      31.409  26.461  22.109  1.00  0.00     0.060 C 
ATOM     27  C   UNL A   1      31.020  27.917  22.376  1.00  0.00     0.012 C 
ATOM     28  C   UNL A   1      32.914  26.554  22.001  1.00  0.00     0.136 C 
ATOM     29  C   UNL A   1      32.232  28.571  23.029  1.00  0.00     0.009 C 
ATOM     30  C   UNL A   1      33.443  27.909  22.389  1.00  0.00     0.076 C 
ATOM     31  O   UNL A   1      33.629  25.632  21.620  1.00  0.00    -0.299 OA
ENDBRANCH  25  26
ENDBRANCH  13  25
ENDBRANCH   6   8
ENDBRANCH   3   6
ENDBRANCH   1   2
BRANCH   1  32
ATOM     32  C   UNL A   1      39.408  22.023  26.436  1.00  0.00     0.023 C 
BRANCH  32  33
ATOM     33  C   UNL A   1      39.539  20.704  25.673  1.00  0.00     0.023 C 
BRANCH  33  34
ATOM     34  C   UNL A   1      40.203  19.571  26.446  1.00  0.00     0.116 C 
BRANCH  34  35
ATOM     35  N   UNL A   1      41.490  19.188  25.891  1.00  0.00    -0.352 N 
ATOM     36  C   UNL A   1      42.632  19.929  25.750  1.00  0.00     0.251 C 
ATOM     37  H   UNL A   1      41.549  18.258  25.568  1.00  0.00     0.163 HD
ATOM     38  O   UNL A   1      43.589  19.462  25.133  1.00  0.00    -0.269 OA
BRANCH  36  39
ATOM     39  C   UNL A   1      42.712  21.297  26.304  1.00  0.00     0.039 A 
ATOM     40  C   UNL A   1      42.650  21.456  27.691  1.00  0.00     0.014 A 
ATOM     41  C   UNL A   1      42.838  22.417  25.478  1.00  0.00     0.014 A 
ATOM     42  C   UNL A   1      42.766  22.730  28.248  1.00  0.00     0.010 A 
ATOM     43  C   UNL A   1      43.031  23.678  26.037  1.00  0.00     0.010 A 
ATOM     44  C   UNL A   1      42.990  23.848  27.427  1.00  0.00    -0.014 A 
BRANCH  44  45
ATOM     45  C   UNL A   1      43.186  25.191  28.029  1.00  0.00     0.031 A 
ATOM     46  C   UNL A   1      44.560  25.669  28.409  1.00  0.00     0.074 A 
ATOM     47  C   UNL A   1      42.114  25.976  28.250  1.00  0.00     0.049 A 
ATOM     48  N   UNL A   1      44.923  26.822  28.912  1.00  0.00    -0.248 NA
ATOM     49  C   UNL A   1      45.670  24.720  28.224  1.00  0.00     0.031 C 
ATOM     50  C   UNL A   1      40.722  25.599  27.990  1.00  0.00     0.029 A 
ATOM     51  N   UNL A   1      42.025  27.254  28.740  1.00  0.00    -0.354 N 
ATOM     52  C   UNL A   1      46.297  26.741  29.094  1.00  0.00     0.074 A 
ATOM     53  C   UNL A   1      46.695  25.402  28.716  1.00  0.00     0.031 C 
ATOM     54  C   UNL A   1      39.924  26.635  28.291  1.00  0.00     0.029 A 
ATOM     55  C   UNL A   1      40.741  27.737  28.788  1.00  0.00     0.049 A 
ATOM     56  H   UNL A   1      42.809  27.776  29.029  1.00  0.00     0.167 HD
ATOM     57  C   UNL A   1      47.156  27.703  29.508  1.00  0.00     0.037 A 
ATOM     58  C   UNL A   1      40.274  28.936  29.181  1.00  0.00     0.037 A 
ATOM     59  C   UNL A   1      46.760  29.038  29.879  1.00  0.00     0.049 A 
ATOM     60  C   UNL A   1      41.249  29.992  29.623  1.00  0.00     0.074 A 
ATOM     61  C   UNL A   1      47.557  30.096  30.279  1.00  0.00     0.029 A 
ATOM     62  N   UNL A   1      45.451  29.496  29.893  1.00  0.00    -0.354 N 
ATOM     63  N   UNL A   1      42.554  29.924  29.720  1.00  0.00    -0.248 NA
ATOM     64  C   UNL A   1      40.685  31.297  29.994  1.00  0.00     0.031 C 
ATOM     65  C   UNL A   1      46.728  31.183  30.572  1.00  0.00     0.029 A 
ATOM     66  C   UNL A   1      45.418  30.819  30.308  1.00  0.00     0.049 A 
ATOM     67  H   UNL A   1      44.662  28.962  29.646  1.00  0.00     0.167 HD
ATOM     68  C   UNL A   1      42.970  31.179  30.143  1.00  0.00     0.074 A 
ATOM     69  C   UNL A   1      41.780  31.997  30.256  1.00  0.00     0.031 C 
ATOM     70  C   UNL A   1      44.224  31.616  30.419  1.00  0.00     0.037 A 
BRANCH  57  71
ATOM     71  C   UNL A   1      48.614  27.349  29.564  1.00  0.00     0.057 A 
ATOM     72  C   UNL A   1      49.192  26.800  30.717  1.00  0.00     0.134 A 
ATOM     73  C   UNL A   1      49.442  27.524  28.448  1.00  0.00     0.134 A 
ATOM     74  F   UNL A   1      48.458  26.618  31.824  1.00  0.00    -0.206 F 
ATOM     75  C   UNL A   1      50.545  26.458  30.765  1.00  0.00     0.040 A 
ATOM     76  C   UNL A   1      50.791  27.161  28.476  1.00  0.00     0.040 A 
ATOM     77  F   UNL A   1      48.954  28.040  27.310  1.00  0.00    -0.206 F 
ATOM     78  C   UNL A   1      51.346  26.632  29.639  1.00  0.00     0.006 A 
ENDBRANCH  57  71
BRANCH  58  79
ATOM     79  C   UNL A   1      38.816  29.215  29.148  1.00  0.00     0.057 A 
ATOM     80  C   UNL A   1      38.032  29.113  30.303  1.00  0.00     0.134 A 
ATOM     81  C   UNL A   1      38.170  29.577  27.960  1.00  0.00     0.134 A 
ATOM     82  F   UNL A   1      38.589  28.754  31.469  1.00  0.00    -0.206 F 
ATOM     83  C   UNL A   1      36.654  29.334  30.273  1.00  0.00     0.040 A 
ATOM     84  C   UNL A   1      36.799  29.829  27.922  1.00  0.00     0.040 A 
ATOM     85  F   UNL A   1      38.868  29.703  26.822  1.00  0.00    -0.206 F 
ATOM     86  C   UNL A   1      36.034  29.698  29.079  1.00  0.00     0.006 A 
ENDBRANCH  58  79
BRANCH  70  87
ATOM     87  C   UNL A   1      44.365  33.048  30.847  1.00  0.00     0.057 A 
ATOM     88  C   UNL A   1      44.335  33.422  32.198  1.00  0.00     0.134 A 
ATOM     89  C   UNL A   1      44.539  34.064  29.899  1.00  0.00     0.134 A 
ATOM     90  F   UNL A   1      44.158  32.499  33.155  1.00  0.00    -0.206 F 
ATOM     91  C   UNL A   1      44.437  34.759  32.586  1.00  0.00     0.040 A 
ATOM     92  C   UNL A   1      44.672  35.400  30.278  1.00  0.00     0.040 A 
ATOM     93  F   UNL A   1      44.588  33.774  28.590  1.00  0.00    -0.206 F 
ATOM     94  C   UNL A   1      44.611  35.752  31.624  1.00  0.00     0.006 A 
ENDBRANCH  70  87
ENDBRANCH  44  45
ENDBRANCH  36  39
ENDBRANCH  34  35
ENDBRANCH  33  34
ENDBRANCH  32  33
ENDBRANCH   1  32
TORSDOF 17
ENDMDL
MODEL 3
REMARK VINA RESULT:     -12.5      1.367      2.097
REMARK SMILES C[C@@H](C(=O)NCCCCNC(=O)c1ccc(-c2c3nc(c(-c4c(F)cccc4F)c4ccc([nH]4)c(-c4c(F)cccc4F)c4nc(c(-c5c(F)cccc5F)c5ccc2[nH]5)C=C4)C=C3)cc1)c1ccc(C[C@H]2CCCC2=O)c(-c2ccc(OC(F)(F)F)cc2)c1
REMARK SMILES IDX 6 1 5 2 3 3 4 4 2 6 1 7 67 8 68 9 90 10 69 11 78 12 70 13
REMARK SMILES IDX 79 14 80 15 89 16 81 17 88 18 82 19 83 20 84 21 85 22 86 23
REMARK SMILES IDX 87 24 71 25 72 26 73 27 76 28 74 29 75 30 77 31 7 32 8 33
REMARK SMILES IDX 9 34 10 35 11 36 12 38 13 39 14 40 66 41 15 42 65 43 16 44
REMARK SMILES IDX 17 45 18 46 59 47 19 48 64 49 58 50 60 51 20 52 63 53 57 54
REMARK SMILES IDX 56 55 21 57 47 58 30 59 46 60 31 61 34 62 45 63 61 64 32 65
REMARK SMILES IDX 33 66 44 68 62 69 35 70 22 71 23 72 28 73 24 74 25 75 27 76
REMARK SMILES IDX 29 77 26 78 48 79 49 80 54 81 50 82 51 83 53 84 55 85 52 86
REMARK SMILES IDX 36 87 37 88 42 89 38 90 39 91 41 92 43 93 40 94
REMARK H PARENT 5 5 10 37 60 56 34 67
REMARK Flexibility Score: inf
ROOT
ATOM      1  C   UNL A   1      31.125  28.966  24.750  1.00  0.00     0.116 C 
ENDROOT
BRANCH   1   2
ATOM      2  N   UNL A   1      30.918  27.905  25.713  1.00  0.00    -0.356 N 
ATOM      3  C   UNL A   1      30.793  26.556  25.526  1.00  0.00     0.227 C 
ATOM      4  O   UNL A   1      30.437  25.901  26.510  1.00  0.00    -0.274 OA
ATOM      5  H   UNL A   1      30.858  28.200  26.651  1.00  0.00     0.163 HD
BRANCH   3   6
ATOM      6  C   UNL A   1      31.133  25.920  24.157  1.00  0.00     0.105 C 
ATOM      7  C   UNL A   1      29.887  25.234  23.577  1.00  0.00     0.023 C 
BRANCH   6   8
ATOM      8  C   UNL A   1      32.344  24.978  24.229  1.00  0.00    -0.035 A 
ATOM      9  C   UNL A   1      33.659  25.451  24.221  1.00  0.00     0.005 A 
ATOM     10  C   UNL A   1      32.162  23.584  24.323  1.00  0.00     0.013 A 
ATOM     11  C   UNL A   1      34.739  24.573  24.221  1.00  0.00     0.004 A 
ATOM     12  C   UNL A   1      33.241  22.667  24.286  1.00  0.00    -0.015 A 
ATOM     13  C   UNL A   1      34.554  23.182  24.184  1.00  0.00    -0.039 A 
BRANCH  12  14
ATOM     14  C   UNL A   1      32.944  21.219  24.325  1.00  0.00    -0.018 A 
ATOM     15  C   UNL A   1      33.043  20.487  25.518  1.00  0.00     0.012 A 
ATOM     16  C   UNL A   1      32.561  20.528  23.167  1.00  0.00     0.012 A 
ATOM     17  C   UNL A   1      32.836  19.104  25.532  1.00  0.00     0.047 A 
ATOM     18  C   UNL A   1      32.333  19.143  23.184  1.00  0.00     0.047 A 
ATOM     19  C   UNL A   1      32.488  18.422  24.365  1.00  0.00     0.129 A 
BRANCH  19  20
ATOM     20  O   UNL A   1      32.344  17.074  24.523  1.00  0.00    -0.406 OA
BRANCH  20  21
ATOM     21  C   UNL A   1      33.513  16.274  24.491  1.00  0.00     0.573 C 
ATOM     22  F   UNL A   1      34.519  16.856  25.180  1.00  0.00    -0.132 F 
ATOM     23  F   UNL A   1      33.278  15.041  24.989  1.00  0.00    -0.132 F 
ATOM     24  F   UNL A   1      33.909  16.137  23.206  1.00  0.00    -0.132 F 
ENDBRANCH  20  21
ENDBRANCH  19  20
ENDBRANCH  12  14
BRANCH  13  25
ATOM     25  C   UNL A   1      35.793  22.332  23.978  1.00  0.00     0.047 C 
BRANCH  25  26
ATOM     26  C   UNL A   1      36.339  21.598  25.213  1.00  0.00     0.060 C 
ATOM     27  C   UNL A   1      36.600  20.097  25.061  1.00  0.00     0.012 C 
ATOM     28  C   UNL A   1      37.690  22.106  25.662  1.00  0.00     0.136 C 
ATOM     29  C   UNL A   1      38.090  19.947  24.783  1.00  0.00     0.009 C 
ATOM     30  C   UNL A   1      38.764  21.054  25.582  1.00  0.00     0.076 C 
ATOM     31  O   UNL A   1      37.889  23.247  26.066  1.00  0.00    -0.299 OA
ENDBRANCH  25  26
ENDBRANCH  13  25
ENDBRANCH   6   8
ENDBRANCH   3   6
ENDBRANCH   1   2
BRANCH   1  32
ATOM     32  C   UNL A   1      32.135  29.991  25.279  1.00  0.00     0.023 C 
BRANCH  32  33
ATOM     33  C   UNL A   1      31.526  31.134  26.093  1.00  0.00     0.023 C 
BRANCH  33  34
ATOM     34  C   UNL A   1      32.411  31.681  27.206  1.00  0.00     0.116 C 
BRANCH  34  35
ATOM     35  N   UNL A   1      32.220  33.104  27.431  1.00  0.00    -0.352 N 
ATOM     36  C   UNL A   1      32.994  33.983  28.140  1.00  0.00     0.251 C 
ATOM     37  H   UNL A   1      31.417  33.492  27.013  1.00  0.00     0.163 HD
ATOM     38  O   UNL A   1      32.595  35.133  28.324  1.00  0.00    -0.269 OA
BRANCH  36  39
ATOM     39  C   UNL A   1      34.287  33.553  28.713  1.00  0.00     0.039 A 
ATOM     40  C   UNL A   1      34.272  32.715  29.831  1.00  0.00     0.014 A 
ATOM     41  C   UNL A   1      35.505  33.970  28.168  1.00  0.00     0.014 A 
ATOM     42  C   UNL A   1      35.475  32.257  30.369  1.00  0.00     0.010 A 
ATOM     43  C   UNL A   1      36.701  33.450  28.657  1.00  0.00     0.010 A 
ATOM     44  C   UNL A   1      36.699  32.594  29.766  1.00  0.00    -0.014 A 
BRANCH  44  45
ATOM     45  C   UNL A   1      37.971  32.044  30.297  1.00  0.00     0.031 A 
ATOM     46  C   UNL A   1      38.606  32.628  31.528  1.00  0.00     0.074 A 
ATOM     47  C   UNL A   1      38.566  31.023  29.651  1.00  0.00     0.049 A 
ATOM     48  N   UNL A   1      39.695  32.253  32.152  1.00  0.00    -0.248 NA
ATOM     49  C   UNL A   1      37.948  33.801  32.125  1.00  0.00     0.031 C 
ATOM     50  C   UNL A   1      38.087  30.415  28.407  1.00  0.00     0.029 A 
ATOM     51  N   UNL A   1      39.700  30.311  29.952  1.00  0.00    -0.354 N 
ATOM     52  C   UNL A   1      39.846  33.135  33.214  1.00  0.00     0.074 A 
ATOM     53  C   UNL A   1      38.780  34.107  33.111  1.00  0.00     0.031 C 
ATOM     54  C   UNL A   1      38.901  29.403  28.071  1.00  0.00     0.029 A 
ATOM     55  C   UNL A   1      39.971  29.305  29.057  1.00  0.00     0.049 A 
ATOM     56  H   UNL A   1      40.265  30.504  30.735  1.00  0.00     0.167 HD
ATOM     57  C   UNL A   1      40.770  33.118  34.205  1.00  0.00     0.037 A 
ATOM     58  C   UNL A   1      40.967  28.400  29.039  1.00  0.00     0.037 A 
ATOM     59  C   UNL A   1      41.827  32.146  34.310  1.00  0.00     0.049 A 
ATOM     60  C   UNL A   1      41.972  28.395  30.158  1.00  0.00     0.074 A 
ATOM     61  C   UNL A   1      42.793  32.024  35.295  1.00  0.00     0.029 A 
ATOM     62  N   UNL A   1      42.057  31.129  33.397  1.00  0.00    -0.354 N 
ATOM     63  N   UNL A   1      42.059  29.190  31.196  1.00  0.00    -0.248 NA
ATOM     64  C   UNL A   1      43.007  27.353  30.109  1.00  0.00     0.031 C 
ATOM     65  C   UNL A   1      43.630  30.955  34.957  1.00  0.00     0.029 A 
ATOM     66  C   UNL A   1      43.157  30.381  33.788  1.00  0.00     0.049 A 
ATOM     67  H   UNL A   1      41.519  30.961  32.590  1.00  0.00     0.167 HD
ATOM     68  C   UNL A   1      43.143  28.735  31.934  1.00  0.00     0.074 A 
ATOM     69  C   UNL A   1      43.664  27.575  31.239  1.00  0.00     0.031 C 
ATOM     70  C   UNL A   1      43.665  29.234  33.082  1.00  0.00     0.037 A 
BRANCH  57  71
ATOM     71  C   UNL A   1      40.663  34.177  35.265  1.00  0.00     0.057 A 
ATOM     72  C   UNL A   1      41.223  35.450  35.089  1.00  0.00     0.134 A 
ATOM     73  C   UNL A   1      39.967  33.937  36.456  1.00  0.00     0.134 A 
ATOM     74  F   UNL A   1      41.913  35.741  33.977  1.00  0.00    -0.206 F 
ATOM     75  C   UNL A   1      41.112  36.438  36.069  1.00  0.00     0.040 A 
ATOM     76  C   UNL A   1      39.827  34.927  37.432  1.00  0.00     0.040 A 
ATOM     77  F   UNL A   1      39.402  32.742  36.688  1.00  0.00    -0.206 F 
ATOM     78  C   UNL A   1      40.407  36.180  37.241  1.00  0.00     0.006 A 
ENDBRANCH  57  71
BRANCH  58  79
ATOM     79  C   UNL A   1      41.049  27.406  27.939  1.00  0.00     0.057 A 
ATOM     80  C   UNL A   1      41.808  27.655  26.790  1.00  0.00     0.134 A 
ATOM     81  C   UNL A   1      40.361  26.188  28.006  1.00  0.00     0.134 A 
ATOM     82  F   UNL A   1      42.477  28.810  26.660  1.00  0.00    -0.206 F 
ATOM     83  C   UNL A   1      41.859  26.743  25.735  1.00  0.00     0.040 A 
ATOM     84  C   UNL A   1      40.425  25.256  26.971  1.00  0.00     0.040 A 
ATOM     85  F   UNL A   1      39.626  25.885  29.085  1.00  0.00    -0.206 F 
ATOM     86  C   UNL A   1      41.168  25.536  25.826  1.00  0.00     0.006 A 
ENDBRANCH  58  79
BRANCH  70  87
ATOM     87  C   UNL A   1      44.846  28.509  33.662  1.00  0.00     0.057 A 
ATOM     88  C   UNL A   1      44.690  27.434  34.547  1.00  0.00     0.134 A 
ATOM     89  C   UNL A   1      46.152  28.887  33.326  1.00  0.00     0.134 A 
ATOM     90  F   UNL A   1      43.466  27.031  34.918  1.00  0.00    -0.206 F 
ATOM     91  C   UNL A   1      45.793  26.784  35.104  1.00  0.00     0.040 A 
ATOM     92  C   UNL A   1      47.261  28.226  33.855  1.00  0.00     0.040 A 
ATOM     93  F   UNL A   1      46.371  29.902  32.476  1.00  0.00    -0.206 F 
ATOM     94  C   UNL A   1      47.083  27.178  34.755  1.00  0.00     0.006 A 
ENDBRANCH  70  87
ENDBRANCH  44  45
ENDBRANCH  36  39
ENDBRANCH  34  35
ENDBRANCH  33  34
ENDBRANCH  32  33
ENDBRANCH   1  32
TORSDOF 17
ENDMDL
