MODEL 1
REMARK VINA RESULT:     -10.4      0.000      0.000
REMARK SMILES CCCN(CC(=O)NCCCCNC(=O)c1ccc(-c2c3nc(c(-c4c(F)cccc4F)c4ccc([nH]4)c(-c4c(F)cccc4F)c4nc(c(-c5c(F)cccc5F)c5ccc2[nH]5)C=C4)C=C3)cc1)C(=O)C[C@@H]1CSCC[NH2+]1
REMARK SMILES IDX 9 1 8 2 6 3 7 4 5 6 4 7 3 8 2 9 1 10 70 11 71 12 72 13 73 14
REMARK SMILES IDX 74 15 78 16 75 17 77 18 76 21 10 22 11 23 12 24 13 25 14 26
REMARK SMILES IDX 15 28 16 29 17 30 69 31 18 32 68 33 19 34 20 35 21 36 62 37
REMARK SMILES IDX 22 38 67 39 61 40 63 41 23 42 66 43 60 44 59 45 24 47 50 48
REMARK SMILES IDX 33 49 49 50 34 51 37 52 48 53 64 54 35 55 36 56 47 58 65 59
REMARK SMILES IDX 38 60 25 61 26 62 31 63 27 64 28 65 30 66 32 67 29 68 51 69
REMARK SMILES IDX 52 70 57 71 53 72 54 73 56 74 58 75 55 76 39 77 40 78 45 79
REMARK SMILES IDX 41 80 42 81 44 82 46 83 43 84
REMARK H PARENT 8 5 78 19 78 20 13 27 63 46 37 57
REMARK Flexibility Score: inf
ROOT
ATOM      1  C   UNL A   1      36.339  21.829  25.393  1.00  0.00     0.116 C 
ENDROOT
BRANCH   1   2
ATOM      2  N   UNL A   1      35.672  22.019  26.661  1.00  0.00    -0.355 N 
ATOM      3  C   UNL A   1      34.345  22.252  26.878  1.00  0.00     0.239 C 
ATOM      4  O   UNL A   1      33.887  21.996  27.994  1.00  0.00    -0.273 OA
ATOM      5  H   UNL A   1      36.241  21.973  27.461  1.00  0.00     0.163 HD
BRANCH   3   6
ATOM      6  C   UNL A   1      33.419  22.727  25.745  1.00  0.00     0.219 C 
BRANCH   6   7
ATOM      7  N   UNL A   1      32.334  21.806  25.392  1.00  0.00    -0.333 N 
BRANCH   7   8
ATOM      8  C   UNL A   1      30.969  22.216  25.751  1.00  0.00     0.120 C 
BRANCH   8   9
ATOM      9  C   UNL A   1      30.883  23.467  26.628  1.00  0.00     0.018 C 
ATOM     10  C   UNL A   1      30.599  24.740  25.845  1.00  0.00     0.006 C 
ENDBRANCH   8   9
ENDBRANCH   7   8
BRANCH   7  11
ATOM     11  C   UNL A   1      32.507  20.640  24.652  1.00  0.00     0.229 C 
ATOM     12  O   UNL A   1      32.213  20.597  23.453  1.00  0.00    -0.275 OA
BRANCH  11  13
ATOM     13  C   UNL A   1      32.972  19.352  25.328  1.00  0.00     0.166 C 
BRANCH  13  14
ATOM     14  C   UNL A   1      32.180  18.078  24.955  1.00  0.00     0.201 C 
ATOM     15  C   UNL A   1      32.667  16.835  25.743  1.00  0.00     0.135 C 
ATOM     16  N   UNL A   1      32.153  17.764  23.505  1.00  0.00    -0.342 N 
ATOM     17  S   UNL A   1      34.364  16.306  25.308  1.00  0.00    -0.150 SA
ATOM     18  C   UNL A   1      33.473  17.454  22.934  1.00  0.00     0.271 C 
ATOM     19  H   UNL A   1      31.771  18.569  23.010  1.00  0.00     0.346 HD
ATOM     20  H   UNL A   1      31.581  16.927  23.395  1.00  0.00     0.346 HD
ATOM     21  C   UNL A   1      34.134  16.203  23.505  1.00  0.00     0.131 C 
ENDBRANCH  13  14
ENDBRANCH  11  13
ENDBRANCH   7  11
ENDBRANCH   6   7
ENDBRANCH   3   6
ENDBRANCH   1   2
BRANCH   1  22
ATOM     22  C   UNL A   1      36.515  20.365  25.002  1.00  0.00     0.023 C 
BRANCH  22  23
ATOM     23  C   UNL A   1      37.944  19.953  24.645  1.00  0.00     0.023 C 
BRANCH  23  24
ATOM     24  C   UNL A   1      38.986  20.166  25.736  1.00  0.00     0.116 C 
BRANCH  24  25
ATOM     25  N   UNL A   1      39.983  19.107  25.803  1.00  0.00    -0.352 N 
ATOM     26  C   UNL A   1      41.326  19.203  26.083  1.00  0.00     0.251 C 
ATOM     27  H   UNL A   1      39.650  18.199  25.623  1.00  0.00     0.163 HD
ATOM     28  O   UNL A   1      42.045  18.216  26.020  1.00  0.00    -0.269 OA
BRANCH  26  29
ATOM     29  C   UNL A   1      41.900  20.522  26.418  1.00  0.00     0.039 A 
ATOM     30  C   UNL A   1      42.281  21.370  25.376  1.00  0.00     0.014 A 
ATOM     31  C   UNL A   1      42.021  20.934  27.748  1.00  0.00     0.014 A 
ATOM     32  C   UNL A   1      42.716  22.664  25.667  1.00  0.00     0.010 A 
ATOM     33  C   UNL A   1      42.384  22.246  28.031  1.00  0.00     0.010 A 
ATOM     34  C   UNL A   1      42.731  23.125  26.993  1.00  0.00    -0.014 A 
BRANCH  34  35
ATOM     35  C   UNL A   1      43.100  24.525  27.316  1.00  0.00     0.031 A 
ATOM     36  C   UNL A   1      44.538  24.956  27.272  1.00  0.00     0.074 A 
ATOM     37  C   UNL A   1      42.148  25.389  27.719  1.00  0.00     0.049 A 
ATOM     38  N   UNL A   1      45.067  26.111  27.590  1.00  0.00    -0.248 NA
ATOM     39  C   UNL A   1      45.518  23.946  26.838  1.00  0.00     0.031 C 
ATOM     40  C   UNL A   1      40.723  25.077  27.854  1.00  0.00     0.029 A 
ATOM     41  N   UNL A   1      42.236  26.703  28.102  1.00  0.00    -0.354 N 
ATOM     42  C   UNL A   1      46.435  25.960  27.413  1.00  0.00     0.074 A 
ATOM     43  C   UNL A   1      46.663  24.591  27.010  1.00  0.00     0.031 C 
ATOM     44  C   UNL A   1      40.070  26.175  28.268  1.00  0.00     0.029 A 
ATOM     45  C   UNL A   1      41.031  27.254  28.464  1.00  0.00     0.049 A 
ATOM     46  H   UNL A   1      43.084  27.204  28.117  1.00  0.00     0.167 HD
ATOM     47  C   UNL A   1      47.412  26.888  27.551  1.00  0.00     0.037 A 
ATOM     48  C   UNL A   1      40.736  28.490  28.911  1.00  0.00     0.037 A 
ATOM     49  C   UNL A   1      47.180  28.257  27.926  1.00  0.00     0.049 A 
ATOM     50  C   UNL A   1      41.838  29.502  29.055  1.00  0.00     0.074 A 
ATOM     51  C   UNL A   1      48.094  29.290  28.028  1.00  0.00     0.029 A 
ATOM     52  N   UNL A   1      45.941  28.785  28.263  1.00  0.00    -0.354 N 
ATOM     53  N   UNL A   1      43.120  29.368  28.815  1.00  0.00    -0.248 NA
ATOM     54  C   UNL A   1      41.452  30.839  29.528  1.00  0.00     0.031 C 
ATOM     55  C   UNL A   1      47.418  30.432  28.469  1.00  0.00     0.029 A 
ATOM     56  C   UNL A   1      46.072  30.123  28.595  1.00  0.00     0.049 A 
ATOM     57  H   UNL A   1      45.095  28.281  28.265  1.00  0.00     0.167 HD
ATOM     58  C   UNL A   1      43.689  30.606  29.078  1.00  0.00     0.074 A 
ATOM     59  C   UNL A   1      42.611  31.484  29.485  1.00  0.00     0.031 C 
ATOM     60  C   UNL A   1      44.988  30.984  28.991  1.00  0.00     0.037 A 
BRANCH  47  61
ATOM     61  C   UNL A   1      48.825  26.450  27.290  1.00  0.00     0.057 A 
ATOM     62  C   UNL A   1      49.658  25.988  28.317  1.00  0.00     0.134 A 
ATOM     63  C   UNL A   1      49.347  26.460  25.990  1.00  0.00     0.134 A 
ATOM     64  F   UNL A   1      49.224  25.966  29.587  1.00  0.00    -0.206 F 
ATOM     65  C   UNL A   1      50.968  25.578  28.066  1.00  0.00     0.040 A 
ATOM     66  C   UNL A   1      50.646  26.024  25.722  1.00  0.00     0.040 A 
ATOM     67  F   UNL A   1      48.601  26.885  24.959  1.00  0.00    -0.206 F 
ATOM     68  C   UNL A   1      51.463  25.588  26.763  1.00  0.00     0.006 A 
ENDBRANCH  47  61
BRANCH  48  69
ATOM     69  C   UNL A   1      39.331  28.848  29.233  1.00  0.00     0.057 A 
ATOM     70  C   UNL A   1      38.812  28.645  30.517  1.00  0.00     0.134 A 
ATOM     71  C   UNL A   1      38.474  29.395  28.270  1.00  0.00     0.134 A 
ATOM     72  F   UNL A   1      39.578  28.108  31.478  1.00  0.00    -0.206 F 
ATOM     73  C   UNL A   1      37.487  28.953  30.827  1.00  0.00     0.040 A 
ATOM     74  C   UNL A   1      37.155  29.731  28.573  1.00  0.00     0.040 A 
ATOM     75  F   UNL A   1      38.914  29.621  27.023  1.00  0.00    -0.206 F 
ATOM     76  C   UNL A   1      36.654  29.502  29.854  1.00  0.00     0.006 A 
ENDBRANCH  48  69
BRANCH  60  77
ATOM     77  C   UNL A   1      45.310  32.415  29.307  1.00  0.00     0.057 A 
ATOM     78  C   UNL A   1      45.233  33.423  28.337  1.00  0.00     0.134 A 
ATOM     79  C   UNL A   1      45.661  32.795  30.609  1.00  0.00     0.134 A 
ATOM     80  F   UNL A   1      44.916  33.123  27.069  1.00  0.00    -0.206 F 
ATOM     81  C   UNL A   1      45.515  34.754  28.647  1.00  0.00     0.040 A 
ATOM     82  C   UNL A   1      45.917  34.126  30.937  1.00  0.00     0.040 A 
ATOM     83  F   UNL A   1      45.744  31.879  31.587  1.00  0.00    -0.206 F 
ATOM     84  C   UNL A   1      45.851  35.110  29.952  1.00  0.00     0.006 A 
ENDBRANCH  60  77
ENDBRANCH  34  35
ENDBRANCH  26  29
ENDBRANCH  24  25
ENDBRANCH  23  24
ENDBRANCH  22  23
ENDBRANCH   1  22
TORSDOF 17
ENDMDL
MODEL 2
REMARK VINA RESULT:     -10.3      1.099      6.468
REMARK SMILES CCCN(CC(=O)NCCCCNC(=O)c1ccc(-c2c3nc(c(-c4c(F)cccc4F)c4ccc([nH]4)c(-c4c(F)cccc4F)c4nc(c(-c5c(F)cccc5F)c5ccc2[nH]5)C=C4)C=C3)cc1)C(=O)C[C@@H]1CSCC[NH2+]1
REMARK SMILES IDX 9 1 8 2 6 3 7 4 5 6 4 7 3 8 2 9 1 10 70 11 71 12 72 13 73 14
REMARK SMILES IDX 74 15 78 16 75 17 77 18 76 21 10 22 11 23 12 24 13 25 14 26
REMARK SMILES IDX 15 28 16 29 17 30 69 31 18 32 68 33 19 34 20 35 21 36 62 37
REMARK SMILES IDX 22 38 67 39 61 40 63 41 23 42 66 43 60 44 59 45 24 47 50 48
REMARK SMILES IDX 33 49 49 50 34 51 37 52 48 53 64 54 35 55 36 56 47 58 65 59
REMARK SMILES IDX 38 60 25 61 26 62 31 63 27 64 28 65 30 66 32 67 29 68 51 69
REMARK SMILES IDX 52 70 57 71 53 72 54 73 56 74 58 75 55 76 39 77 40 78 45 79
REMARK SMILES IDX 41 80 42 81 44 82 46 83 43 84
REMARK H PARENT 8 5 78 19 78 20 13 27 63 46 37 57
REMARK Flexibility Score: inf
ROOT
ATOM      1  C   UNL A   1      36.024  21.698  24.856  1.00  0.00     0.116 C 
ENDROOT
BRANCH   1   2
ATOM      2  N   UNL A   1      35.548  21.928  26.201  1.00  0.00    -0.355 N 
ATOM      3  C   UNL A   1      34.344  22.445  26.583  1.00  0.00     0.239 C 
ATOM      4  O   UNL A   1      33.948  22.208  27.726  1.00  0.00    -0.273 OA
ATOM      5  H   UNL A   1      36.164  21.680  26.927  1.00  0.00     0.163 HD
BRANCH   3   6
ATOM      6  C   UNL A   1      33.456  23.220  25.594  1.00  0.00     0.219 C 
BRANCH   6   7
ATOM      7  N   UNL A   1      32.761  22.400  24.597  1.00  0.00    -0.333 N 
BRANCH   7   8
ATOM      8  C   UNL A   1      32.806  22.865  23.204  1.00  0.00     0.120 C 
BRANCH   8   9
ATOM      9  C   UNL A   1      32.057  24.173  22.938  1.00  0.00     0.018 C 
ATOM     10  C   UNL A   1      30.611  24.152  23.407  1.00  0.00     0.006 C 
ENDBRANCH   8   9
ENDBRANCH   7   8
BRANCH   7  11
ATOM     11  C   UNL A   1      32.168  21.172  24.872  1.00  0.00     0.229 C 
ATOM     12  O   UNL A   1      31.223  21.084  25.663  1.00  0.00    -0.275 OA
BRANCH  11  13
ATOM     13  C   UNL A   1      32.736  19.884  24.279  1.00  0.00     0.166 C 
BRANCH  13  14
ATOM     14  C   UNL A   1      33.638  19.055  25.223  1.00  0.00     0.201 C 
ATOM     15  C   UNL A   1      34.710  18.248  24.447  1.00  0.00     0.135 C 
ATOM     16  N   UNL A   1      32.910  18.150  26.145  1.00  0.00    -0.342 N 
ATOM     17  S   UNL A   1      34.015  16.915  23.402  1.00  0.00    -0.150 SA
ATOM     18  C   UNL A   1      32.155  17.084  25.467  1.00  0.00     0.271 C 
ATOM     19  H   UNL A   1      32.254  18.708  26.691  1.00  0.00     0.346 HD
ATOM     20  H   UNL A   1      33.613  17.691  26.723  1.00  0.00     0.346 HD
ATOM     21  C   UNL A   1      33.016  16.096  24.685  1.00  0.00     0.131 C 
ENDBRANCH  13  14
ENDBRANCH  11  13
ENDBRANCH   7  11
ENDBRANCH   6   7
ENDBRANCH   3   6
ENDBRANCH   1   2
BRANCH   1  22
ATOM     22  C   UNL A   1      37.544  21.658  24.739  1.00  0.00     0.023 C 
BRANCH  22  23
ATOM     23  C   UNL A   1      38.184  20.296  25.009  1.00  0.00     0.023 C 
BRANCH  23  24
ATOM     24  C   UNL A   1      39.242  20.268  26.105  1.00  0.00     0.116 C 
BRANCH  24  25
ATOM     25  N   UNL A   1      40.195  19.176  25.967  1.00  0.00    -0.352 N 
ATOM     26  C   UNL A   1      41.567  19.210  26.063  1.00  0.00     0.251 C 
ATOM     27  H   UNL A   1      39.804  18.294  25.778  1.00  0.00     0.163 HD
ATOM     28  O   UNL A   1      42.229  18.207  25.839  1.00  0.00    -0.269 OA
BRANCH  26  29
ATOM     29  C   UNL A   1      42.235  20.484  26.397  1.00  0.00     0.039 A 
ATOM     30  C   UNL A   1      42.787  21.243  25.362  1.00  0.00     0.014 A 
ATOM     31  C   UNL A   1      42.277  20.947  27.715  1.00  0.00     0.014 A 
ATOM     32  C   UNL A   1      43.317  22.503  25.640  1.00  0.00     0.010 A 
ATOM     33  C   UNL A   1      42.740  22.232  27.978  1.00  0.00     0.010 A 
ATOM     34  C   UNL A   1      43.261  23.023  26.943  1.00  0.00    -0.014 A 
BRANCH  34  35
ATOM     35  C   UNL A   1      43.734  24.397  27.243  1.00  0.00     0.031 A 
ATOM     36  C   UNL A   1      42.759  25.452  27.681  1.00  0.00     0.074 A 
ATOM     37  C   UNL A   1      45.030  24.712  27.051  1.00  0.00     0.049 A 
ATOM     38  N   UNL A   1      42.966  26.724  27.917  1.00  0.00    -0.248 NA
ATOM     39  C   UNL A   1      41.359  25.030  27.849  1.00  0.00     0.031 C 
ATOM     40  C   UNL A   1      46.065  23.790  26.578  1.00  0.00     0.029 A 
ATOM     41  N   UNL A   1      45.697  25.899  27.217  1.00  0.00    -0.354 N 
ATOM     42  C   UNL A   1      41.725  27.253  28.243  1.00  0.00     0.074 A 
ATOM     43  C   UNL A   1      40.762  26.180  28.124  1.00  0.00     0.031 C 
ATOM     44  C   UNL A   1      47.238  24.440  26.513  1.00  0.00     0.029 A 
ATOM     45  C   UNL A   1      47.032  25.831  26.902  1.00  0.00     0.049 A 
ATOM     46  H   UNL A   1      45.259  26.723  27.532  1.00  0.00     0.167 HD
ATOM     47  C   UNL A   1      41.419  28.515  28.629  1.00  0.00     0.037 A 
ATOM     48  C   UNL A   1      47.982  26.785  26.919  1.00  0.00     0.037 A 
ATOM     49  C   UNL A   1      42.384  29.572  28.772  1.00  0.00     0.049 A 
ATOM     50  C   UNL A   1      47.618  28.178  27.352  1.00  0.00     0.074 A 
ATOM     51  C   UNL A   1      42.184  30.866  29.221  1.00  0.00     0.029 A 
ATOM     52  N   UNL A   1      43.732  29.458  28.465  1.00  0.00    -0.354 N 
ATOM     53  N   UNL A   1      46.453  28.648  27.727  1.00  0.00    -0.248 NA
ATOM     54  C   UNL A   1      48.700  29.171  27.368  1.00  0.00     0.031 C 
ATOM     55  C   UNL A   1      43.403  31.548  29.144  1.00  0.00     0.029 A 
ATOM     56  C   UNL A   1      44.372  30.665  28.694  1.00  0.00     0.049 A 
ATOM     57  H   UNL A   1      44.168  28.640  28.134  1.00  0.00     0.167 HD
ATOM     58  C   UNL A   1      46.667  29.981  28.052  1.00  0.00     0.074 A 
ATOM     59  C   UNL A   1      48.076  30.242  27.841  1.00  0.00     0.031 C 
ATOM     60  C   UNL A   1      45.777  30.906  28.486  1.00  0.00     0.037 A 
BRANCH  47  61
ATOM     61  C   UNL A   1      39.979  28.816  28.929  1.00  0.00     0.057 A 
ATOM     62  C   UNL A   1      39.081  29.207  27.927  1.00  0.00     0.134 A 
ATOM     63  C   UNL A   1      39.478  28.684  30.230  1.00  0.00     0.134 A 
ATOM     64  F   UNL A   1      39.500  29.366  26.662  1.00  0.00    -0.206 F 
ATOM     65  C   UNL A   1      37.743  29.481  28.213  1.00  0.00     0.040 A 
ATOM     66  C   UNL A   1      38.134  28.927  30.522  1.00  0.00     0.040 A 
ATOM     67  F   UNL A   1      40.282  28.309  31.236  1.00  0.00    -0.206 F 
ATOM     68  C   UNL A   1      37.264  29.334  29.513  1.00  0.00     0.006 A 
ENDBRANCH  47  61
BRANCH  48  69
ATOM     69  C   UNL A   1      49.378  26.452  26.534  1.00  0.00     0.057 A 
ATOM     70  C   UNL A   1      49.840  26.680  25.233  1.00  0.00     0.134 A 
ATOM     71  C   UNL A   1      50.277  25.895  27.450  1.00  0.00     0.134 A 
ATOM     72  F   UNL A   1      49.020  27.194  24.305  1.00  0.00    -0.206 F 
ATOM     73  C   UNL A   1      51.140  26.348  24.850  1.00  0.00     0.040 A 
ATOM     74  C   UNL A   1      51.588  25.581  27.089  1.00  0.00     0.040 A 
ATOM     75  F   UNL A   1      49.898  25.659  28.715  1.00  0.00    -0.206 F 
ATOM     76  C   UNL A   1      52.021  25.800  25.782  1.00  0.00     0.006 A 
ENDBRANCH  48  69
BRANCH  60  77
ATOM     77  C   UNL A   1      46.305  32.276  28.796  1.00  0.00     0.057 A 
ATOM     78  C   UNL A   1      46.330  33.295  27.834  1.00  0.00     0.134 A 
ATOM     79  C   UNL A   1      46.757  32.590  30.084  1.00  0.00     0.134 A 
ATOM     80  F   UNL A   1      45.924  33.054  26.578  1.00  0.00    -0.206 F 
ATOM     81  C   UNL A   1      46.804  34.571  28.138  1.00  0.00     0.040 A 
ATOM     82  C   UNL A   1      47.207  33.870  30.407  1.00  0.00     0.040 A 
ATOM     83  F   UNL A   1      46.750  31.662  31.053  1.00  0.00    -0.206 F 
ATOM     84  C   UNL A   1      47.237  34.864  29.431  1.00  0.00     0.006 A 
ENDBRANCH  60  77
ENDBRANCH  34  35
ENDBRANCH  26  29
ENDBRANCH  24  25
ENDBRANCH  23  24
ENDBRANCH  22  23
ENDBRANCH   1  22
TORSDOF 17
ENDMDL
MODEL 3
REMARK VINA RESULT:     -10.3      1.923      3.509
REMARK SMILES CCCN(CC(=O)NCCCCNC(=O)c1ccc(-c2c3nc(c(-c4c(F)cccc4F)c4ccc([nH]4)c(-c4c(F)cccc4F)c4nc(c(-c5c(F)cccc5F)c5ccc2[nH]5)C=C4)C=C3)cc1)C(=O)C[C@@H]1CSCC[NH2+]1
REMARK SMILES IDX 9 1 8 2 6 3 7 4 5 6 4 7 3 8 2 9 1 10 70 11 71 12 72 13 73 14
REMARK SMILES IDX 74 15 78 16 75 17 77 18 76 21 10 22 11 23 12 24 13 25 14 26
REMARK SMILES IDX 15 28 16 29 17 30 69 31 18 32 68 33 19 34 20 35 21 36 62 37
REMARK SMILES IDX 22 38 67 39 61 40 63 41 23 42 66 43 60 44 59 45 24 47 50 48
REMARK SMILES IDX 33 49 49 50 34 51 37 52 48 53 64 54 35 55 36 56 47 58 65 59
REMARK SMILES IDX 38 60 25 61 26 62 31 63 27 64 28 65 30 66 32 67 29 68 51 69
REMARK SMILES IDX 52 70 57 71 53 72 54 73 56 74 58 75 55 76 39 77 40 78 45 79
REMARK SMILES IDX 41 80 42 81 44 82 46 83 43 84
REMARK H PARENT 8 5 78 19 78 20 13 27 63 46 37 57
REMARK Flexibility Score: inf
ROOT
ATOM      1  C   UNL A   1      36.914  22.144  24.658  1.00  0.00     0.116 C 
ENDROOT
BRANCH   1   2
ATOM      2  N   UNL A   1      35.945  22.659  23.719  1.00  0.00    -0.355 N 
ATOM      3  C   UNL A   1      34.936  23.545  23.962  1.00  0.00     0.239 C 
ATOM      4  O   UNL A   1      34.470  24.170  23.007  1.00  0.00    -0.273 OA
ATOM      5  H   UNL A   1      36.023  22.333  22.794  1.00  0.00     0.163 HD
BRANCH   3   6
ATOM      6  C   UNL A   1      34.455  23.836  25.394  1.00  0.00     0.219 C 
BRANCH   6   7
ATOM      7  N   UNL A   1      33.215  23.161  25.790  1.00  0.00    -0.333 N 
BRANCH   7   8
ATOM      8  C   UNL A   1      33.276  21.703  25.963  1.00  0.00     0.120 C 
BRANCH   8   9
ATOM      9  C   UNL A   1      32.200  20.920  25.208  1.00  0.00     0.018 C 
ATOM     10  C   UNL A   1      32.560  20.633  23.758  1.00  0.00     0.006 C 
ENDBRANCH   8   9
ENDBRANCH   7   8
BRANCH   7  11
ATOM     11  C   UNL A   1      32.033  23.822  26.112  1.00  0.00     0.229 C 
ATOM     12  O   UNL A   1      31.577  23.789  27.260  1.00  0.00    -0.275 OA
BRANCH  11  13
ATOM     13  C   UNL A   1      31.215  24.524  25.030  1.00  0.00     0.166 C 
BRANCH  13  14
ATOM     14  C   UNL A   1      30.202  25.577  25.536  1.00  0.00     0.201 C 
ATOM     15  C   UNL A   1      29.509  26.328  24.370  1.00  0.00     0.135 C 
ATOM     16  N   UNL A   1      30.754  26.561  26.499  1.00  0.00    -0.342 N 
ATOM     17  S   UNL A   1      30.641  27.398  23.408  1.00  0.00    -0.150 SA
ATOM     18  C   UNL A   1      31.803  27.426  25.938  1.00  0.00     0.271 C 
ATOM     19  H   UNL A   1      31.148  26.050  27.288  1.00  0.00     0.346 HD
ATOM     20  H   UNL A   1      29.984  27.171  26.771  1.00  0.00     0.346 HD
ATOM     21  C   UNL A   1      31.337  28.336  24.805  1.00  0.00     0.131 C 
ENDBRANCH  13  14
ENDBRANCH  11  13
ENDBRANCH   7  11
ENDBRANCH   6   7
ENDBRANCH   3   6
ENDBRANCH   1   2
BRANCH   1  22
ATOM     22  C   UNL A   1      36.696  20.680  25.029  1.00  0.00     0.023 C 
BRANCH  22  23
ATOM     23  C   UNL A   1      37.919  19.777  24.866  1.00  0.00     0.023 C 
BRANCH  23  24
ATOM     24  C   UNL A   1      39.113  20.115  25.751  1.00  0.00     0.116 C 
BRANCH  24  25
ATOM     25  N   UNL A   1      40.125  19.069  25.788  1.00  0.00    -0.352 N 
ATOM     26  C   UNL A   1      41.471  19.179  26.049  1.00  0.00     0.251 C 
ATOM     27  H   UNL A   1      39.801  18.160  25.600  1.00  0.00     0.163 HD
ATOM     28  O   UNL A   1      42.201  18.203  25.961  1.00  0.00    -0.269 OA
BRANCH  26  29
ATOM     29  C   UNL A   1      42.033  20.501  26.394  1.00  0.00     0.039 A 
ATOM     30  C   UNL A   1      42.422  21.354  25.359  1.00  0.00     0.014 A 
ATOM     31  C   UNL A   1      42.133  20.911  27.726  1.00  0.00     0.014 A 
ATOM     32  C   UNL A   1      42.845  22.650  25.657  1.00  0.00     0.010 A 
ATOM     33  C   UNL A   1      42.485  22.225  28.016  1.00  0.00     0.010 A 
ATOM     34  C   UNL A   1      42.841  23.107  26.985  1.00  0.00    -0.014 A 
BRANCH  34  35
ATOM     35  C   UNL A   1      43.197  24.509  27.315  1.00  0.00     0.031 A 
ATOM     36  C   UNL A   1      44.629  24.958  27.254  1.00  0.00     0.074 A 
ATOM     37  C   UNL A   1      42.240  25.358  27.739  1.00  0.00     0.049 A 
ATOM     38  N   UNL A   1      45.148  26.117  27.575  1.00  0.00    -0.248 NA
ATOM     39  C   UNL A   1      45.615  23.964  26.798  1.00  0.00     0.031 C 
ATOM     40  C   UNL A   1      40.821  25.027  27.891  1.00  0.00     0.029 A 
ATOM     41  N   UNL A   1      42.318  26.670  28.132  1.00  0.00    -0.354 N 
ATOM     42  C   UNL A   1      46.516  25.985  27.378  1.00  0.00     0.074 A 
ATOM     43  C   UNL A   1      46.754  24.621  26.959  1.00  0.00     0.031 C 
ATOM     44  C   UNL A   1      40.160  26.113  28.324  1.00  0.00     0.029 A 
ATOM     45  C   UNL A   1      41.111  27.203  28.516  1.00  0.00     0.049 A 
ATOM     46  H   UNL A   1      43.159  27.181  28.140  1.00  0.00     0.167 HD
ATOM     47  C   UNL A   1      47.483  26.923  27.511  1.00  0.00     0.037 A 
ATOM     48  C   UNL A   1      40.808  28.431  28.978  1.00  0.00     0.037 A 
ATOM     49  C   UNL A   1      47.239  28.286  27.901  1.00  0.00     0.049 A 
ATOM     50  C   UNL A   1      41.899  29.455  29.116  1.00  0.00     0.074 A 
ATOM     51  C   UNL A   1      48.143  29.329  28.000  1.00  0.00     0.029 A 
ATOM     52  N   UNL A   1      45.999  28.795  28.260  1.00  0.00    -0.354 N 
ATOM     53  N   UNL A   1      43.179  29.338  28.856  1.00  0.00    -0.248 NA
ATOM     54  C   UNL A   1      41.504  30.783  29.606  1.00  0.00     0.031 C 
ATOM     55  C   UNL A   1      47.458  30.458  28.460  1.00  0.00     0.029 A 
ATOM     56  C   UNL A   1      46.118  30.132  28.602  1.00  0.00     0.049 A 
ATOM     57  H   UNL A   1      45.160  28.281  28.269  1.00  0.00     0.167 HD
ATOM     58  C   UNL A   1      43.736  30.582  29.123  1.00  0.00     0.074 A 
ATOM     59  C   UNL A   1      42.654  31.442  29.552  1.00  0.00     0.031 C 
ATOM     60  C   UNL A   1      45.029  30.976  29.021  1.00  0.00     0.037 A 
BRANCH  47  61
ATOM     61  C   UNL A   1      48.897  26.504  27.226  1.00  0.00     0.057 A 
ATOM     62  C   UNL A   1      49.481  26.683  25.965  1.00  0.00     0.134 A 
ATOM     63  C   UNL A   1      49.693  25.945  28.233  1.00  0.00     0.134 A 
ATOM     64  F   UNL A   1      48.768  27.201  24.952  1.00  0.00    -0.206 F 
ATOM     65  C   UNL A   1      50.797  26.296  25.709  1.00  0.00     0.040 A 
ATOM     66  C   UNL A   1      51.020  25.581  27.997  1.00  0.00     0.040 A 
ATOM     67  F   UNL A   1      49.198  25.751  29.465  1.00  0.00    -0.206 F 
ATOM     68  C   UNL A   1      51.573  25.750  26.729  1.00  0.00     0.006 A 
ENDBRANCH  47  61
BRANCH  48  69
ATOM     69  C   UNL A   1      39.403  28.769  29.323  1.00  0.00     0.057 A 
ATOM     70  C   UNL A   1      38.514  29.236  28.347  1.00  0.00     0.134 A 
ATOM     71  C   UNL A   1      38.917  28.640  30.629  1.00  0.00     0.134 A 
ATOM     72  F   UNL A   1      38.925  29.398  27.081  1.00  0.00    -0.206 F 
ATOM     73  C   UNL A   1      37.199  29.581  28.661  1.00  0.00     0.040 A 
ATOM     74  C   UNL A   1      37.598  28.957  30.953  1.00  0.00     0.040 A 
ATOM     75  F   UNL A   1      39.717  28.190  31.607  1.00  0.00    -0.206 F 
ATOM     76  C   UNL A   1      36.736  29.438  29.968  1.00  0.00     0.006 A 
ENDBRANCH  48  69
BRANCH  60  77
ATOM     77  C   UNL A   1      45.339  32.408  29.345  1.00  0.00     0.057 A 
ATOM     78  C   UNL A   1      45.245  33.422  28.383  1.00  0.00     0.134 A 
ATOM     79  C   UNL A   1      45.694  32.782  30.648  1.00  0.00     0.134 A 
ATOM     80  F   UNL A   1      44.923  33.127  27.114  1.00  0.00    -0.206 F 
ATOM     81  C   UNL A   1      45.515  34.754  28.700  1.00  0.00     0.040 A 
ATOM     82  C   UNL A   1      45.938  34.114  30.983  1.00  0.00     0.040 A 
ATOM     83  F   UNL A   1      45.791  31.861  31.618  1.00  0.00    -0.206 F 
ATOM     84  C   UNL A   1      45.855  35.104  30.006  1.00  0.00     0.006 A 
ENDBRANCH  60  77
ENDBRANCH  34  35
ENDBRANCH  26  29
ENDBRANCH  24  25
ENDBRANCH  23  24
ENDBRANCH  22  23
ENDBRANCH   1  22
TORSDOF 17
ENDMDL
