MODEL 1
REMARK VINA RESULT:     -10.6      0.000      0.000
REMARK SMILES C=CC[NH2+][C@@]1(C(=O)NCCCCNC(=O)c2ccc(-c3c4nc(c(-c5c(F)cccc5F)c5ccc([nH]5)c(-c5c(F)cccc5F)c5nc(c(-c6c(F)cccc6F)c6ccc3[nH]6)C=C5)C=C4)cc2)CSCCC1(C)C
REMARK SMILES IDX 10 1 9 2 8 3 6 4 7 5 5 7 70 8 74 9 71 10 73 11 75 12 76 13
REMARK SMILES IDX 72 14 4 15 3 18 2 19 1 20 11 21 12 22 13 23 14 24 15 26
REMARK SMILES IDX 16 27 17 28 69 29 18 30 68 31 19 32 20 33 21 34 62 35 22 36
REMARK SMILES IDX 67 37 61 38 63 39 23 40 66 41 60 42 59 43 24 45 50 46 33 47
REMARK SMILES IDX 49 48 34 49 37 50 48 51 64 52 35 53 36 54 47 56 65 57 38 58
REMARK SMILES IDX 25 59 26 60 31 61 27 62 28 63 30 64 32 65 29 66 51 67 52 68
REMARK SMILES IDX 57 69 53 70 54 71 56 72 58 73 55 74 39 75 40 76 45 77 41 78
REMARK SMILES IDX 42 79 44 80 46 81 43 82
REMARK H PARENT 8 6 4 16 4 17 13 25 63 44 37 55
REMARK Flexibility Score: inf
ROOT
ATOM      1  C   UNL A   1      31.610  30.818  25.785  1.00  0.00     0.023 C 
ENDROOT
BRANCH   1   2
ATOM      2  C   UNL A   1      32.680  29.771  26.101  1.00  0.00     0.116 C 
BRANCH   2   3
ATOM      3  N   UNL A   1      32.088  28.609  26.721  1.00  0.00    -0.351 N 
ATOM      4  C   UNL A   1      31.605  27.412  26.305  1.00  0.00     0.282 C 
ATOM      5  O   UNL A   1      31.025  26.836  27.235  1.00  0.00    -0.268 OA
ATOM      6  H   UNL A   1      32.016  28.712  27.697  1.00  0.00     0.163 HD
BRANCH   4   7
ATOM      7  C   UNL A   1      31.785  26.766  24.852  1.00  0.00     0.189 C 
ATOM      8  C   UNL A   1      30.918  25.462  24.864  1.00  0.00     0.149 C 
ATOM      9  C   UNL A   1      33.288  26.484  24.372  1.00  0.00     0.031 C 
ATOM     10  S   UNL A   1      30.845  24.523  23.301  1.00  0.00    -0.155 SA
ATOM     11  C   UNL A   1      33.318  25.719  23.008  1.00  0.00     0.024 C 
ATOM     12  C   UNL A   1      34.084  27.802  24.184  1.00  0.00     0.018 C 
ATOM     13  C   UNL A   1      34.151  25.653  25.334  1.00  0.00     0.018 C 
ATOM     14  C   UNL A   1      32.623  24.360  23.012  1.00  0.00     0.070 C 
BRANCH   7  15
ATOM     15  N   UNL A   1      31.135  27.630  23.776  1.00  0.00    -0.329 N 
ATOM     16  H   UNL A   1      31.638  28.517  23.765  1.00  0.00     0.347 HD
ATOM     17  H   UNL A   1      31.195  27.054  22.937  1.00  0.00     0.347 HD
BRANCH  15  18
ATOM     18  C   UNL A   1      29.715  27.948  23.872  1.00  0.00     0.289 C 
BRANCH  18  19
ATOM     19  C   UNL A   1      29.313  28.821  22.719  1.00  0.00     0.025 C 
ATOM     20  C   UNL A   1      30.163  29.631  22.073  1.00  0.00     0.010 C 
ENDBRANCH  18  19
ENDBRANCH  15  18
ENDBRANCH   7  15
ENDBRANCH   4   7
ENDBRANCH   2   3
ENDBRANCH   1   2
BRANCH   1  21
ATOM     21  C   UNL A   1      31.377  31.842  26.886  1.00  0.00     0.023 C 
BRANCH  21  22
ATOM     22  C   UNL A   1      32.603  32.654  27.252  1.00  0.00     0.116 C 
BRANCH  22  23
ATOM     23  N   UNL A   1      32.290  34.036  27.583  1.00  0.00    -0.352 N 
ATOM     24  C   UNL A   1      32.910  34.870  28.483  1.00  0.00     0.251 C 
ATOM     25  H   UNL A   1      31.528  34.428  27.097  1.00  0.00     0.163 HD
ATOM     26  O   UNL A   1      32.430  35.954  28.763  1.00  0.00    -0.269 OA
BRANCH  24  27
ATOM     27  C   UNL A   1      34.152  34.404  29.129  1.00  0.00     0.039 A 
ATOM     28  C   UNL A   1      34.061  33.662  30.305  1.00  0.00     0.014 A 
ATOM     29  C   UNL A   1      35.391  34.644  28.529  1.00  0.00     0.014 A 
ATOM     30  C   UNL A   1      35.218  33.104  30.845  1.00  0.00     0.010 A 
ATOM     31  C   UNL A   1      36.520  33.991  29.001  1.00  0.00     0.010 A 
ATOM     32  C   UNL A   1      36.448  33.230  30.174  1.00  0.00    -0.014 A 
BRANCH  32  33
ATOM     33  C   UNL A   1      37.667  32.577  30.706  1.00  0.00     0.031 A 
ATOM     34  C   UNL A   1      38.302  33.083  31.970  1.00  0.00     0.074 A 
ATOM     35  C   UNL A   1      38.208  31.545  30.030  1.00  0.00     0.049 A 
ATOM     36  N   UNL A   1      39.349  32.622  32.607  1.00  0.00    -0.248 NA
ATOM     37  C   UNL A   1      37.708  34.280  32.587  1.00  0.00     0.031 C 
ATOM     38  C   UNL A   1      37.727  31.024  28.748  1.00  0.00     0.029 A 
ATOM     39  N   UNL A   1      39.277  30.742  30.334  1.00  0.00    -0.354 N 
ATOM     40  C   UNL A   1      39.529  33.467  33.694  1.00  0.00     0.074 A 
ATOM     41  C   UNL A   1      38.543  34.517  33.587  1.00  0.00     0.031 C 
ATOM     42  C   UNL A   1      38.469  29.961  28.398  1.00  0.00     0.029 A 
ATOM     43  C   UNL A   1      39.494  29.745  29.414  1.00  0.00     0.049 A 
ATOM     44  H   UNL A   1      39.835  30.868  31.134  1.00  0.00     0.167 HD
ATOM     45  C   UNL A   1      40.411  33.356  34.714  1.00  0.00     0.037 A 
ATOM     46  C   UNL A   1      40.412  28.761  29.399  1.00  0.00     0.037 A 
ATOM     47  C   UNL A   1      41.381  32.300  34.823  1.00  0.00     0.049 A 
ATOM     48  C   UNL A   1      41.368  28.649  30.554  1.00  0.00     0.074 A 
ATOM     49  C   UNL A   1      42.297  32.068  35.833  1.00  0.00     0.029 A 
ATOM     50  N   UNL A   1      41.558  31.295  33.883  1.00  0.00    -0.354 N 
ATOM     51  N   UNL A   1      41.475  29.410  31.617  1.00  0.00    -0.248 NA
ATOM     52  C   UNL A   1      42.321  27.532  30.515  1.00  0.00     0.031 C 
ATOM     53  C   UNL A   1      43.055  30.945  35.485  1.00  0.00     0.029 A 
ATOM     54  C   UNL A   1      42.577  30.448  34.283  1.00  0.00     0.049 A 
ATOM     55  H   UNL A   1      41.035  31.197  33.055  1.00  0.00     0.167 HD
ATOM     56  C   UNL A   1      42.492  28.854  32.381  1.00  0.00     0.074 A 
ATOM     57  C   UNL A   1      42.945  27.672  31.675  1.00  0.00     0.031 C 
ATOM     58  C   UNL A   1      43.015  29.283  33.558  1.00  0.00     0.037 A 
BRANCH  45  59
ATOM     59  C   UNL A   1      40.345  34.389  35.802  1.00  0.00     0.057 A 
ATOM     60  C   UNL A   1      41.083  35.579  35.732  1.00  0.00     0.134 A 
ATOM     61  C   UNL A   1      39.515  34.211  36.916  1.00  0.00     0.134 A 
ATOM     62  F   UNL A   1      41.912  35.805  34.700  1.00  0.00    -0.206 F 
ATOM     63  C   UNL A   1      41.015  36.543  36.737  1.00  0.00     0.040 A 
ATOM     64  C   UNL A   1      39.416  35.181  37.915  1.00  0.00     0.040 A 
ATOM     65  F   UNL A   1      38.782  33.096  37.048  1.00  0.00    -0.206 F 
ATOM     66  C   UNL A   1      40.172  36.350  37.830  1.00  0.00     0.006 A 
ENDBRANCH  45  59
BRANCH  46  67
ATOM     67  C   UNL A   1      40.455  27.792  28.275  1.00  0.00     0.057 A 
ATOM     68  C   UNL A   1      39.795  26.559  28.350  1.00  0.00     0.134 A 
ATOM     69  C   UNL A   1      41.171  28.067  27.103  1.00  0.00     0.134 A 
ATOM     70  F   UNL A   1      39.102  26.230  29.450  1.00  0.00    -0.206 F 
ATOM     71  C   UNL A   1      39.873  25.623  27.317  1.00  0.00     0.040 A 
ATOM     72  C   UNL A   1      41.233  27.152  26.051  1.00  0.00     0.040 A 
ATOM     73  F   UNL A   1      41.814  29.235  26.962  1.00  0.00    -0.206 F 
ATOM     74  C   UNL A   1      40.592  25.920  26.162  1.00  0.00     0.006 A 
ENDBRANCH  46  67
BRANCH  58  75
ATOM     75  C   UNL A   1      44.118  28.454  34.149  1.00  0.00     0.057 A 
ATOM     76  C   UNL A   1      43.855  27.368  34.993  1.00  0.00     0.134 A 
ATOM     77  C   UNL A   1      45.458  28.747  33.867  1.00  0.00     0.134 A 
ATOM     78  F   UNL A   1      42.592  27.044  35.311  1.00  0.00    -0.206 F 
ATOM     79  C   UNL A   1      44.887  26.628  35.570  1.00  0.00     0.040 A 
ATOM     80  C   UNL A   1      46.497  27.992  34.411  1.00  0.00     0.040 A 
ATOM     81  F   UNL A   1      45.779  29.765  33.056  1.00  0.00    -0.206 F 
ATOM     82  C   UNL A   1      46.213  26.937  35.276  1.00  0.00     0.006 A 
ENDBRANCH  58  75
ENDBRANCH  32  33
ENDBRANCH  24  27
ENDBRANCH  22  23
ENDBRANCH  21  22
ENDBRANCH   1  21
TORSDOF 14
ENDMDL
MODEL 2
REMARK VINA RESULT:     -10.5      4.835      8.637
REMARK SMILES C=CC[NH2+][C@@]1(C(=O)NCCCCNC(=O)c2ccc(-c3c4nc(c(-c5c(F)cccc5F)c5ccc([nH]5)c(-c5c(F)cccc5F)c5nc(c(-c6c(F)cccc6F)c6ccc3[nH]6)C=C5)C=C4)cc2)CSCCC1(C)C
REMARK SMILES IDX 10 1 9 2 8 3 6 4 7 5 5 7 70 8 74 9 71 10 73 11 75 12 76 13
REMARK SMILES IDX 72 14 4 15 3 18 2 19 1 20 11 21 12 22 13 23 14 24 15 26
REMARK SMILES IDX 16 27 17 28 69 29 18 30 68 31 19 32 20 33 21 34 62 35 22 36
REMARK SMILES IDX 67 37 61 38 63 39 23 40 66 41 60 42 59 43 24 45 50 46 33 47
REMARK SMILES IDX 49 48 34 49 37 50 48 51 64 52 35 53 36 54 47 56 65 57 38 58
REMARK SMILES IDX 25 59 26 60 31 61 27 62 28 63 30 64 32 65 29 66 51 67 52 68
REMARK SMILES IDX 57 69 53 70 54 71 56 72 58 73 55 74 39 75 40 76 45 77 41 78
REMARK SMILES IDX 42 79 44 80 46 81 43 82
REMARK H PARENT 8 6 4 16 4 17 13 25 63 44 37 55
REMARK Flexibility Score: inf
ROOT
ATOM      1  C   UNL A   1      32.426  28.078  27.219  1.00  0.00     0.023 C 
ENDROOT
BRANCH   1   2
ATOM      2  C   UNL A   1      31.920  27.101  26.156  1.00  0.00     0.116 C 
BRANCH   2   3
ATOM      3  N   UNL A   1      31.446  25.882  26.768  1.00  0.00    -0.351 N 
ATOM      4  C   UNL A   1      31.467  24.560  26.469  1.00  0.00     0.282 C 
ATOM      5  O   UNL A   1      30.742  23.930  27.251  1.00  0.00    -0.268 OA
ATOM      6  H   UNL A   1      30.990  26.056  27.623  1.00  0.00     0.163 HD
BRANCH   4   7
ATOM      7  C   UNL A   1      32.332  23.857  25.321  1.00  0.00     0.189 C 
ATOM      8  C   UNL A   1      31.765  22.401  25.202  1.00  0.00     0.149 C 
ATOM      9  C   UNL A   1      33.924  23.868  25.511  1.00  0.00     0.031 C 
ATOM     10  S   UNL A   1      32.498  21.350  23.901  1.00  0.00    -0.155 SA
ATOM     11  C   UNL A   1      34.637  23.025  24.404  1.00  0.00     0.024 C 
ATOM     12  C   UNL A   1      34.497  25.308  25.441  1.00  0.00     0.018 C 
ATOM     13  C   UNL A   1      34.439  23.319  26.851  1.00  0.00     0.018 C 
ATOM     14  C   UNL A   1      34.237  21.553  24.354  1.00  0.00     0.070 C 
BRANCH   7  15
ATOM     15  N   UNL A   1      32.049  24.475  23.954  1.00  0.00    -0.329 N 
ATOM     16  H   UNL A   1      32.305  25.460  24.017  1.00  0.00     0.347 HD
ATOM     17  H   UNL A   1      32.590  23.896  23.313  1.00  0.00     0.347 HD
BRANCH  15  18
ATOM     18  C   UNL A   1      30.697  24.421  23.410  1.00  0.00     0.289 C 
BRANCH  18  19
ATOM     19  C   UNL A   1      30.183  25.815  23.195  1.00  0.00     0.025 C 
ATOM     20  C   UNL A   1      29.152  26.336  23.875  1.00  0.00     0.010 C 
ENDBRANCH  18  19
ENDBRANCH  15  18
ENDBRANCH   7  15
ENDBRANCH   4   7
ENDBRANCH   2   3
ENDBRANCH   1   2
BRANCH   1  21
ATOM     21  C   UNL A   1      33.300  29.203  26.686  1.00  0.00     0.023 C 
BRANCH  21  22
ATOM     22  C   UNL A   1      34.656  29.310  27.356  1.00  0.00     0.116 C 
BRANCH  22  23
ATOM     23  N   UNL A   1      34.704  30.347  28.375  1.00  0.00    -0.352 N 
ATOM     24  C   UNL A   1      35.735  30.677  29.222  1.00  0.00     0.251 C 
ATOM     25  H   UNL A   1      33.885  30.886  28.474  1.00  0.00     0.163 HD
ATOM     26  O   UNL A   1      35.566  31.470  30.132  1.00  0.00    -0.269 OA
BRANCH  24  27
ATOM     27  C   UNL A   1      37.042  30.021  29.024  1.00  0.00     0.039 A 
ATOM     28  C   UNL A   1      37.631  30.062  27.762  1.00  0.00     0.014 A 
ATOM     29  C   UNL A   1      37.704  29.432  30.104  1.00  0.00     0.014 A 
ATOM     30  C   UNL A   1      38.923  29.564  27.601  1.00  0.00     0.010 A 
ATOM     31  C   UNL A   1      39.030  29.047  29.968  1.00  0.00     0.010 A 
ATOM     32  C   UNL A   1      39.646  29.092  28.711  1.00  0.00    -0.014 A 
BRANCH  32  33
ATOM     33  C   UNL A   1      41.045  28.631  28.558  1.00  0.00     0.031 A 
ATOM     34  C   UNL A   1      41.333  27.189  28.246  1.00  0.00     0.074 A 
ATOM     35  C   UNL A   1      42.050  29.512  28.725  1.00  0.00     0.049 A 
ATOM     36  N   UNL A   1      42.487  26.605  28.043  1.00  0.00    -0.248 NA
ATOM     37  C   UNL A   1      40.182  26.273  28.185  1.00  0.00     0.031 C 
ATOM     38  C   UNL A   1      41.893  30.915  29.114  1.00  0.00     0.029 A 
ATOM     39  N   UNL A   1      43.405  29.358  28.580  1.00  0.00    -0.354 N 
ATOM     40  C   UNL A   1      42.197  25.265  27.826  1.00  0.00     0.074 A 
ATOM     41  C   UNL A   1      40.773  25.102  28.005  1.00  0.00     0.031 C 
ATOM     42  C   UNL A   1      43.099  31.505  29.131  1.00  0.00     0.029 A 
ATOM     43  C   UNL A   1      44.114  30.516  28.785  1.00  0.00     0.049 A 
ATOM     44  H   UNL A   1      43.828  28.500  28.351  1.00  0.00     0.167 HD
ATOM     45  C   UNL A   1      43.035  24.266  27.466  1.00  0.00     0.037 A 
ATOM     46  C   UNL A   1      45.436  30.754  28.693  1.00  0.00     0.037 A 
ATOM     47  C   UNL A   1      44.450  24.438  27.274  1.00  0.00     0.049 A 
ATOM     48  C   UNL A   1      46.343  29.631  28.274  1.00  0.00     0.074 A 
ATOM     49  C   UNL A   1      45.387  23.503  26.873  1.00  0.00     0.029 A 
ATOM     50  N   UNL A   1      45.131  25.630  27.469  1.00  0.00    -0.354 N 
ATOM     51  N   UNL A   1      46.043  28.385  27.993  1.00  0.00    -0.248 NA
ATOM     52  C   UNL A   1      47.771  29.950  28.144  1.00  0.00     0.031 C 
ATOM     53  C   UNL A   1      46.642  24.121  26.864  1.00  0.00     0.029 A 
ATOM     54  C   UNL A   1      46.479  25.453  27.210  1.00  0.00     0.049 A 
ATOM     55  H   UNL A   1      44.716  26.478  27.750  1.00  0.00     0.167 HD
ATOM     56  C   UNL A   1      47.239  27.778  27.636  1.00  0.00     0.074 A 
ATOM     57  C   UNL A   1      48.262  28.802  27.702  1.00  0.00     0.031 C 
ATOM     58  C   UNL A   1      47.478  26.487  27.291  1.00  0.00     0.037 A 
BRANCH  45  59
ATOM     59  C   UNL A   1      42.436  22.909  27.234  1.00  0.00     0.057 A 
ATOM     60  C   UNL A   1      42.221  22.411  25.941  1.00  0.00     0.134 A 
ATOM     61  C   UNL A   1      42.096  22.078  28.309  1.00  0.00     0.134 A 
ATOM     62  F   UNL A   1      42.508  23.163  24.867  1.00  0.00    -0.206 F 
ATOM     63  C   UNL A   1      41.673  21.146  25.725  1.00  0.00     0.040 A 
ATOM     64  C   UNL A   1      41.573  20.799  28.105  1.00  0.00     0.040 A 
ATOM     65  F   UNL A   1      42.273  22.490  29.572  1.00  0.00    -0.206 F 
ATOM     66  C   UNL A   1      41.355  20.332  26.810  1.00  0.00     0.006 A 
ENDBRANCH  45  59
BRANCH  46  67
ATOM     67  C   UNL A   1      45.975  32.108  28.974  1.00  0.00     0.057 A 
ATOM     68  C   UNL A   1      46.366  32.483  30.266  1.00  0.00     0.134 A 
ATOM     69  C   UNL A   1      46.097  33.068  27.962  1.00  0.00     0.134 A 
ATOM     70  F   UNL A   1      46.263  31.613  31.282  1.00  0.00    -0.206 F 
ATOM     71  C   UNL A   1      46.827  33.771  30.547  1.00  0.00     0.040 A 
ATOM     72  C   UNL A   1      46.583  34.351  28.224  1.00  0.00     0.040 A 
ATOM     73  F   UNL A   1      45.753  32.769  26.701  1.00  0.00    -0.206 F 
ATOM     74  C   UNL A   1      46.939  34.708  29.522  1.00  0.00     0.006 A 
ENDBRANCH  46  67
BRANCH  58  75
ATOM     75  C   UNL A   1      48.895  26.130  26.947  1.00  0.00     0.057 A 
ATOM     76  C   UNL A   1      49.788  25.641  27.909  1.00  0.00     0.134 A 
ATOM     77  C   UNL A   1      49.369  26.276  25.638  1.00  0.00     0.134 A 
ATOM     78  F   UNL A   1      49.397  25.489  29.184  1.00  0.00    -0.206 F 
ATOM     79  C   UNL A   1      51.114  25.348  27.591  1.00  0.00     0.040 A 
ATOM     80  C   UNL A   1      50.684  25.956  25.300  1.00  0.00     0.040 A 
ATOM     81  F   UNL A   1      48.563  26.728  24.666  1.00  0.00    -0.206 F 
ATOM     82  C   UNL A   1      51.563  25.502  26.281  1.00  0.00     0.006 A 
ENDBRANCH  58  75
ENDBRANCH  32  33
ENDBRANCH  24  27
ENDBRANCH  22  23
ENDBRANCH  21  22
ENDBRANCH   1  21
TORSDOF 14
ENDMDL
MODEL 3
REMARK VINA RESULT:     -10.5      5.355     10.171
REMARK SMILES C=CC[NH2+][C@@]1(C(=O)NCCCCNC(=O)c2ccc(-c3c4nc(c(-c5c(F)cccc5F)c5ccc([nH]5)c(-c5c(F)cccc5F)c5nc(c(-c6c(F)cccc6F)c6ccc3[nH]6)C=C5)C=C4)cc2)CSCCC1(C)C
REMARK SMILES IDX 10 1 9 2 8 3 6 4 7 5 5 7 70 8 74 9 71 10 73 11 75 12 76 13
REMARK SMILES IDX 72 14 4 15 3 18 2 19 1 20 11 21 12 22 13 23 14 24 15 26
REMARK SMILES IDX 16 27 17 28 69 29 18 30 68 31 19 32 20 33 21 34 62 35 22 36
REMARK SMILES IDX 67 37 61 38 63 39 23 40 66 41 60 42 59 43 24 45 50 46 33 47
REMARK SMILES IDX 49 48 34 49 37 50 48 51 64 52 35 53 36 54 47 56 65 57 38 58
REMARK SMILES IDX 25 59 26 60 31 61 27 62 28 63 30 64 32 65 29 66 51 67 52 68
REMARK SMILES IDX 57 69 53 70 54 71 56 72 58 73 55 74 39 75 40 76 45 77 41 78
REMARK SMILES IDX 42 79 44 80 46 81 43 82
REMARK H PARENT 8 6 4 16 4 17 13 25 63 44 37 55
REMARK Flexibility Score: inf
ROOT
ATOM      1  C   UNL A   1      36.647  20.640  25.073  1.00  0.00     0.023 C 
ENDROOT
BRANCH   1   2
ATOM      2  C   UNL A   1      36.633  22.167  25.163  1.00  0.00     0.116 C 
BRANCH   2   3
ATOM      3  N   UNL A   1      36.060  22.743  23.968  1.00  0.00    -0.351 N 
ATOM      4  C   UNL A   1      34.822  23.097  23.545  1.00  0.00     0.282 C 
ATOM      5  O   UNL A   1      34.844  23.380  22.339  1.00  0.00    -0.268 OA
ATOM      6  H   UNL A   1      36.745  22.925  23.286  1.00  0.00     0.163 HD
BRANCH   4   7
ATOM      7  C   UNL A   1      33.503  23.206  24.444  1.00  0.00     0.189 C 
ATOM      8  C   UNL A   1      32.388  23.750  23.487  1.00  0.00     0.149 C 
ATOM      9  C   UNL A   1      33.619  24.073  25.787  1.00  0.00     0.031 C 
ATOM     10  S   UNL A   1      30.716  23.913  24.202  1.00  0.00    -0.155 SA
ATOM     11  C   UNL A   1      32.230  24.223  26.492  1.00  0.00     0.024 C 
ATOM     12  C   UNL A   1      34.589  23.421  26.806  1.00  0.00     0.018 C 
ATOM     13  C   UNL A   1      34.154  25.503  25.614  1.00  0.00     0.018 C 
ATOM     14  C   UNL A   1      31.149  24.900  25.654  1.00  0.00     0.070 C 
BRANCH   7  15
ATOM     15  N   UNL A   1      32.994  21.827  24.854  1.00  0.00    -0.329 N 
ATOM     16  H   UNL A   1      33.631  21.478  25.571  1.00  0.00     0.347 HD
ATOM     17  H   UNL A   1      32.030  22.001  25.136  1.00  0.00     0.347 HD
BRANCH  15  18
ATOM     18  C   UNL A   1      32.874  20.779  23.847  1.00  0.00     0.289 C 
BRANCH  18  19
ATOM     19  C   UNL A   1      32.986  19.433  24.503  1.00  0.00     0.025 C 
ATOM     20  C   UNL A   1      32.793  18.276  23.854  1.00  0.00     0.010 C 
ENDBRANCH  18  19
ENDBRANCH  15  18
ENDBRANCH   7  15
ENDBRANCH   4   7
ENDBRANCH   2   3
ENDBRANCH   1   2
BRANCH   1  21
ATOM     21  C   UNL A   1      37.999  20.035  24.728  1.00  0.00     0.023 C 
BRANCH  21  22
ATOM     22  C   UNL A   1      39.055  20.216  25.799  1.00  0.00     0.116 C 
BRANCH  22  23
ATOM     23  N   UNL A   1      40.019  19.127  25.834  1.00  0.00    -0.352 N 
ATOM     24  C   UNL A   1      41.373  19.181  26.066  1.00  0.00     0.251 C 
ATOM     25  H   UNL A   1      39.654  18.228  25.668  1.00  0.00     0.163 HD
ATOM     26  O   UNL A   1      42.074  18.196  25.906  1.00  0.00    -0.269 OA
BRANCH  24  27
ATOM     27  C   UNL A   1      41.963  20.469  26.478  1.00  0.00     0.039 A 
ATOM     28  C   UNL A   1      42.311  21.395  25.497  1.00  0.00     0.014 A 
ATOM     29  C   UNL A   1      42.101  20.779  27.834  1.00  0.00     0.014 A 
ATOM     30  C   UNL A   1      42.740  22.663  25.883  1.00  0.00     0.010 A 
ATOM     31  C   UNL A   1      42.413  22.076  28.213  1.00  0.00     0.010 A 
ATOM     32  C   UNL A   1      42.754  23.025  27.242  1.00  0.00    -0.014 A 
BRANCH  32  33
ATOM     33  C   UNL A   1      43.139  24.395  27.653  1.00  0.00     0.031 A 
ATOM     34  C   UNL A   1      44.582  24.813  27.624  1.00  0.00     0.074 A 
ATOM     35  C   UNL A   1      42.185  25.249  28.073  1.00  0.00     0.049 A 
ATOM     36  N   UNL A   1      45.108  25.976  27.913  1.00  0.00    -0.248 NA
ATOM     37  C   UNL A   1      45.570  23.787  27.252  1.00  0.00     0.031 C 
ATOM     38  C   UNL A   1      40.765  24.925  28.225  1.00  0.00     0.029 A 
ATOM     39  N   UNL A   1      42.266  26.566  28.442  1.00  0.00    -0.354 N 
ATOM     40  C   UNL A   1      46.479  25.819  27.753  1.00  0.00     0.074 A 
ATOM     41  C   UNL A   1      46.714  24.432  27.425  1.00  0.00     0.031 C 
ATOM     42  C   UNL A   1      40.101  26.027  28.610  1.00  0.00     0.029 A 
ATOM     43  C   UNL A   1      41.052  27.123  28.761  1.00  0.00     0.049 A 
ATOM     44  H   UNL A   1      43.113  27.066  28.475  1.00  0.00     0.167 HD
ATOM     45  C   UNL A   1      47.452  26.755  27.829  1.00  0.00     0.037 A 
ATOM     46  C   UNL A   1      40.741  28.381  29.125  1.00  0.00     0.037 A 
ATOM     47  C   UNL A   1      47.210  28.138  28.140  1.00  0.00     0.049 A 
ATOM     48  C   UNL A   1      41.838  29.407  29.185  1.00  0.00     0.074 A 
ATOM     49  C   UNL A   1      48.117  29.181  28.207  1.00  0.00     0.029 A 
ATOM     50  N   UNL A   1      45.964  28.671  28.436  1.00  0.00    -0.354 N 
ATOM     51  N   UNL A   1      43.121  29.261  28.951  1.00  0.00    -0.248 NA
ATOM     52  C   UNL A   1      41.444  30.775  29.543  1.00  0.00     0.031 C 
ATOM     53  C   UNL A   1      47.425  30.337  28.582  1.00  0.00     0.029 A 
ATOM     54  C   UNL A   1      46.080  30.026  28.700  1.00  0.00     0.049 A 
ATOM     55  H   UNL A   1      45.122  28.162  28.456  1.00  0.00     0.167 HD
ATOM     56  C   UNL A   1      43.683  30.520  29.116  1.00  0.00     0.074 A 
ATOM     57  C   UNL A   1      42.594  31.423  29.434  1.00  0.00     0.031 C 
ATOM     58  C   UNL A   1      44.981  30.900  29.022  1.00  0.00     0.037 A 
BRANCH  45  59
ATOM     59  C   UNL A   1      48.860  26.316  27.546  1.00  0.00     0.057 A 
ATOM     60  C   UNL A   1      49.376  26.297  26.242  1.00  0.00     0.134 A 
ATOM     61  C   UNL A   1      49.719  25.936  28.584  1.00  0.00     0.134 A 
ATOM     62  F   UNL A   1      48.601  26.632  25.199  1.00  0.00    -0.206 F 
ATOM     63  C   UNL A   1      50.687  25.898  25.979  1.00  0.00     0.040 A 
ATOM     64  C   UNL A   1      51.041  25.561  28.337  1.00  0.00     0.040 A 
ATOM     65  F   UNL A   1      49.291  25.929  29.855  1.00  0.00    -0.206 F 
ATOM     66  C   UNL A   1      51.527  25.536  27.031  1.00  0.00     0.006 A 
ENDBRANCH  45  59
BRANCH  46  67
ATOM     67  C   UNL A   1      39.335  28.747  29.433  1.00  0.00     0.057 A 
ATOM     68  C   UNL A   1      38.816  28.621  30.727  1.00  0.00     0.134 A 
ATOM     69  C   UNL A   1      38.470  29.215  28.436  1.00  0.00     0.134 A 
ATOM     70  F   UNL A   1      39.590  28.166  31.724  1.00  0.00    -0.206 F 
ATOM     71  C   UNL A   1      37.481  28.915  31.013  1.00  0.00     0.040 A 
ATOM     72  C   UNL A   1      37.141  29.541  28.714  1.00  0.00     0.040 A 
ATOM     73  F   UNL A   1      38.908  29.372  27.179  1.00  0.00    -0.206 F 
ATOM     74  C   UNL A   1      36.641  29.380  30.005  1.00  0.00     0.006 A 
ENDBRANCH  46  67
BRANCH  58  75
ATOM     75  C   UNL A   1      45.279  32.353  29.251  1.00  0.00     0.057 A 
ATOM     76  C   UNL A   1      45.619  32.847  30.517  1.00  0.00     0.134 A 
ATOM     77  C   UNL A   1      45.227  33.267  28.192  1.00  0.00     0.134 A 
ATOM     78  F   UNL A   1      45.675  32.024  31.575  1.00  0.00    -0.206 F 
ATOM     79  C   UNL A   1      45.856  34.206  30.730  1.00  0.00     0.040 A 
ATOM     80  C   UNL A   1      45.494  34.623  28.386  1.00  0.00     0.040 A 
ATOM     81  F   UNL A   1      44.920  32.859  26.951  1.00  0.00    -0.206 F 
ATOM     82  C   UNL A   1      45.797  35.097  29.660  1.00  0.00     0.006 A 
ENDBRANCH  58  75
ENDBRANCH  32  33
ENDBRANCH  24  27
ENDBRANCH  22  23
ENDBRANCH  21  22
ENDBRANCH   1  21
TORSDOF 14
ENDMDL
