MODEL 1
REMARK VINA RESULT:     -12.0      0.000      0.000
REMARK SMILES CCCCc1cc(S(F)(F)(F)(F)F)cc2c1O[C@@H](C(F)(F)F)C(C(=O)NCCCCNC(=O)c1ccc(-c3c4nc(c(-c5c(F)cccc5F)c5ccc([nH]5)c(-c5c(F)cccc5F)c5nc(c(-c6c(F)cccc6F)c6ccc3[nH]6)C=C5)C=C4)cc1)=C2
REMARK SMILES IDX 28 1 27 2 26 3 24 4 25 5 23 7 5 8 6 9 16 10 7 11 15 12 17 13
REMARK SMILES IDX 14 14 88 15 18 16 4 17 3 18 2 19 1 20 8 21 9 22 10 23 11 24
REMARK SMILES IDX 12 25 13 26 19 27 20 28 21 29 22 30 29 31 30 32 31 33 32 34
REMARK SMILES IDX 33 36 34 37 35 38 87 39 36 40 86 41 37 42 38 43 39 44 80 45
REMARK SMILES IDX 40 46 85 47 79 48 81 49 41 50 84 51 78 52 77 53 42 55 68 56
REMARK SMILES IDX 51 57 67 58 52 59 55 60 66 61 82 62 53 63 54 64 65 66 83 67
REMARK SMILES IDX 56 68 43 69 44 70 49 71 45 72 46 73 48 74 50 75 47 76 69 77
REMARK SMILES IDX 70 78 75 79 71 80 72 81 74 82 76 83 73 84 57 85 58 86 63 87
REMARK SMILES IDX 59 88 60 89 62 90 64 91 61 92
REMARK H PARENT 26 6 31 35 81 54 55 65
REMARK Flexibility Score: inf
ROOT
ATOM      1  C   UNL A   1      31.737  28.566  26.151  1.00  0.00     0.023 C 
ENDROOT
BRANCH   1   2
ATOM      2  C   UNL A   1      30.678  27.580  25.683  1.00  0.00     0.116 C 
BRANCH   2   3
ATOM      3  N   UNL A   1      30.301  27.889  24.296  1.00  0.00    -0.352 N 
ATOM      4  C   UNL A   1      30.885  27.119  23.189  1.00  0.00     0.251 C 
ATOM      5  O   UNL A   1      30.559  27.384  21.989  1.00  0.00    -0.270 OA
ATOM      6  H   UNL A   1      29.657  28.609  24.110  1.00  0.00     0.163 HD
BRANCH   4   7
ATOM      7  C   UNL A   1      31.878  26.005  23.477  1.00  0.00     0.067 C 
ATOM      8  C   UNL A   1      34.744  22.981  23.779  1.00  0.00    -0.004 A 
ATOM      9  C   UNL A   1      34.348  21.675  24.007  1.00  0.00     0.032 A 
ATOM     10  C   UNL A   1      33.778  23.947  23.630  1.00  0.00     0.131 A 
ATOM     11  C   UNL A   1      33.021  21.344  24.080  1.00  0.00     0.108 A 
ATOM     12  C   UNL A   1      32.429  23.653  23.717  1.00  0.00     0.019 A 
ATOM     13  O   UNL A   1      34.182  25.215  23.293  1.00  0.00    -0.475 OA
ATOM     14  C   UNL A   1      32.065  22.330  23.943  1.00  0.00     0.036 A 
ATOM     15  C   UNL A   1      31.485  24.738  23.508  1.00  0.00     0.025 C 
ATOM     16  C   UNL A   1      33.345  26.319  23.738  1.00  0.00     0.314 C 
BRANCH   8  17
ATOM     17  C   UNL A   1      36.218  23.339  23.694  1.00  0.00     0.039 C 
BRANCH  17  18
ATOM     18  C   UNL A   1      37.058  22.095  23.932  1.00  0.00     0.005 C 
BRANCH  18  19
ATOM     19  C   UNL A   1      37.666  22.153  25.323  1.00  0.00    -0.003 C 
ATOM     20  C   UNL A   1      37.708  23.596  25.798  1.00  0.00     0.004 C 
ENDBRANCH  18  19
ENDBRANCH  17  18
ENDBRANCH   8  17
BRANCH  11  21
ATOM     21  S   UNL A   1      32.524  19.626  24.356  1.00  0.00     0.310 S 
ATOM     22  F   UNL A   1      34.007  19.100  24.165  1.00  0.00    -0.094 F 
ATOM     23  F   UNL A   1      32.338  19.461  22.799  1.00  0.00    -0.094 F 
ATOM     24  F   UNL A   1      32.096  18.149  24.591  1.00  0.00    -0.094 F 
ATOM     25  F   UNL A   1      32.849  19.768  25.894  1.00  0.00    -0.094 F 
ATOM     26  F   UNL A   1      33.068  21.091  24.119  1.00  0.00    -0.094 F 
ENDBRANCH  11  21
BRANCH  16  27
ATOM     27  C   UNL A   1      33.729  27.574  22.970  1.00  0.00     0.429 C 
ATOM     28  F   UNL A   1      33.702  27.320  21.665  1.00  0.00    -0.167 F 
ATOM     29  F   UNL A   1      32.864  28.546  23.250  1.00  0.00    -0.167 F 
ATOM     30  F   UNL A   1      34.953  27.953  23.324  1.00  0.00    -0.167 F 
ENDBRANCH  16  27
ENDBRANCH   4   7
ENDBRANCH   2   3
ENDBRANCH   1   2
BRANCH   1  31
ATOM     31  C   UNL A   1      32.844  27.815  26.874  1.00  0.00     0.023 C 
BRANCH  31  32
ATOM     32  C   UNL A   1      34.045  28.730  27.050  1.00  0.00     0.116 C 
BRANCH  32  33
ATOM     33  N   UNL A   1      33.605  30.010  27.625  1.00  0.00    -0.352 N 
ATOM     34  C   UNL A   1      34.555  30.843  28.377  1.00  0.00     0.251 C 
ATOM     35  H   UNL A   1      32.676  30.310  27.505  1.00  0.00     0.163 HD
ATOM     36  O   UNL A   1      34.176  31.949  28.874  1.00  0.00    -0.269 OA
BRANCH  34  37
ATOM     37  C   UNL A   1      35.991  30.379  28.561  1.00  0.00     0.039 A 
ATOM     38  C   UNL A   1      36.913  30.626  27.556  1.00  0.00     0.014 A 
ATOM     39  C   UNL A   1      36.341  29.749  29.676  1.00  0.00     0.014 A 
ATOM     40  C   UNL A   1      38.123  29.908  27.699  1.00  0.00     0.010 A 
ATOM     41  C   UNL A   1      37.590  29.187  29.801  1.00  0.00     0.010 A 
ATOM     42  C   UNL A   1      38.530  29.342  28.820  1.00  0.00    -0.014 A 
BRANCH  42  43
ATOM     43  C   UNL A   1      39.968  28.885  29.012  1.00  0.00     0.031 A 
ATOM     44  C   UNL A   1      40.289  27.578  28.642  1.00  0.00     0.074 A 
ATOM     45  C   UNL A   1      40.877  29.786  29.539  1.00  0.00     0.049 A 
ATOM     46  N   UNL A   1      41.484  26.989  28.694  1.00  0.00    -0.248 NA
ATOM     47  C   UNL A   1      39.318  26.608  28.115  1.00  0.00     0.031 C 
ATOM     48  C   UNL A   1      40.563  31.110  29.905  1.00  0.00     0.029 A 
ATOM     49  N   UNL A   1      42.214  29.583  29.800  1.00  0.00    -0.354 N 
ATOM     50  C   UNL A   1      41.401  25.737  28.238  1.00  0.00     0.074 A 
ATOM     51  C   UNL A   1      40.005  25.472  27.865  1.00  0.00     0.031 C 
ATOM     52  C   UNL A   1      41.690  31.692  30.391  1.00  0.00     0.029 A 
ATOM     53  C   UNL A   1      42.728  30.743  30.336  1.00  0.00     0.049 A 
ATOM     54  H   UNL A   1      42.715  28.753  29.633  1.00  0.00     0.167 HD
ATOM     55  C   UNL A   1      42.435  24.807  28.117  1.00  0.00     0.037 A 
ATOM     56  C   UNL A   1      44.027  30.978  30.762  1.00  0.00     0.037 A 
ATOM     57  C   UNL A   1      43.742  25.057  28.502  1.00  0.00     0.049 A 
ATOM     58  C   UNL A   1      45.048  30.028  30.695  1.00  0.00     0.074 A 
ATOM     59  C   UNL A   1      44.798  24.133  28.379  1.00  0.00     0.029 A 
ATOM     60  N   UNL A   1      44.252  26.208  29.061  1.00  0.00    -0.354 N 
ATOM     61  N   UNL A   1      44.973  28.790  30.203  1.00  0.00    -0.248 NA
ATOM     62  C   UNL A   1      46.419  30.255  31.172  1.00  0.00     0.031 C 
ATOM     63  C   UNL A   1      45.927  24.716  28.866  1.00  0.00     0.029 A 
ATOM     64  C   UNL A   1      45.594  26.013  29.302  1.00  0.00     0.049 A 
ATOM     65  H   UNL A   1      43.745  27.029  29.255  1.00  0.00     0.167 HD
ATOM     66  C   UNL A   1      46.161  28.187  30.293  1.00  0.00     0.074 A 
ATOM     67  C   UNL A   1      47.106  29.119  30.925  1.00  0.00     0.031 C 
ATOM     68  C   UNL A   1      46.495  26.900  29.870  1.00  0.00     0.037 A 
BRANCH  55  69
ATOM     69  C   UNL A   1      42.109  23.444  27.530  1.00  0.00     0.057 A 
ATOM     70  C   UNL A   1      42.088  23.289  26.153  1.00  0.00     0.134 A 
ATOM     71  C   UNL A   1      41.839  22.428  28.341  1.00  0.00     0.134 A 
ATOM     72  F   UNL A   1      42.590  24.191  25.314  1.00  0.00    -0.206 F 
ATOM     73  C   UNL A   1      41.486  22.084  25.721  1.00  0.00     0.040 A 
ATOM     74  C   UNL A   1      41.383  21.233  27.838  1.00  0.00     0.040 A 
ATOM     75  F   UNL A   1      42.014  22.568  29.652  1.00  0.00    -0.206 F 
ATOM     76  C   UNL A   1      41.281  21.031  26.490  1.00  0.00     0.006 A 
ENDBRANCH  55  69
BRANCH  56  77
ATOM     77  C   UNL A   1      44.357  32.347  31.333  1.00  0.00     0.057 A 
ATOM     78  C   UNL A   1      44.766  33.361  30.484  1.00  0.00     0.134 A 
ATOM     79  C   UNL A   1      44.232  32.551  32.640  1.00  0.00     0.134 A 
ATOM     80  F   UNL A   1      44.663  33.284  29.160  1.00  0.00    -0.206 F 
ATOM     81  C   UNL A   1      45.302  34.488  31.152  1.00  0.00     0.040 A 
ATOM     82  C   UNL A   1      44.652  33.730  33.207  1.00  0.00     0.040 A 
ATOM     83  F   UNL A   1      43.696  31.606  33.406  1.00  0.00    -0.206 F 
ATOM     84  C   UNL A   1      45.124  34.754  32.433  1.00  0.00     0.006 A 
ENDBRANCH  56  77
BRANCH  68  85
ATOM     85  C   UNL A   1      47.935  26.443  30.042  1.00  0.00     0.057 A 
ATOM     86  C   UNL A   1      48.833  26.648  29.008  1.00  0.00     0.134 A 
ATOM     87  C   UNL A   1      48.309  25.861  31.175  1.00  0.00     0.134 A 
ATOM     88  F   UNL A   1      48.578  27.441  27.972  1.00  0.00    -0.206 F 
ATOM     89  C   UNL A   1      50.046  25.935  29.154  1.00  0.00     0.040 A 
ATOM     90  C   UNL A   1      49.559  25.304  31.295  1.00  0.00     0.040 A 
ATOM     91  F   UNL A   1      47.466  25.814  32.202  1.00  0.00    -0.206 F 
ATOM     92  C   UNL A   1      50.479  25.416  30.289  1.00  0.00     0.006 A 
ENDBRANCH  68  85
ENDBRANCH  42  43
ENDBRANCH  34  37
ENDBRANCH  32  33
ENDBRANCH  31  32
ENDBRANCH   1  31
TORSDOF 16
ENDMDL
MODEL 2
REMARK VINA RESULT:     -12.0      3.137      8.020
REMARK SMILES CCCCc1cc(S(F)(F)(F)(F)F)cc2c1O[C@@H](C(F)(F)F)C(C(=O)NCCCCNC(=O)c1ccc(-c3c4nc(c(-c5c(F)cccc5F)c5ccc([nH]5)c(-c5c(F)cccc5F)c5nc(c(-c6c(F)cccc6F)c6ccc3[nH]6)C=C5)C=C4)cc1)=C2
REMARK SMILES IDX 28 1 27 2 26 3 24 4 25 5 23 7 5 8 6 9 16 10 7 11 15 12 17 13
REMARK SMILES IDX 14 14 88 15 18 16 4 17 3 18 2 19 1 20 8 21 9 22 10 23 11 24
REMARK SMILES IDX 12 25 13 26 19 27 20 28 21 29 22 30 29 31 30 32 31 33 32 34
REMARK SMILES IDX 33 36 34 37 35 38 87 39 36 40 86 41 37 42 38 43 39 44 80 45
REMARK SMILES IDX 40 46 85 47 79 48 81 49 41 50 84 51 78 52 77 53 42 55 68 56
REMARK SMILES IDX 51 57 67 58 52 59 55 60 66 61 82 62 53 63 54 64 65 66 83 67
REMARK SMILES IDX 56 68 43 69 44 70 49 71 45 72 46 73 48 74 50 75 47 76 69 77
REMARK SMILES IDX 70 78 75 79 71 80 72 81 74 82 76 83 73 84 57 85 58 86 63 87
REMARK SMILES IDX 59 88 60 89 62 90 64 91 61 92
REMARK H PARENT 26 6 31 35 81 54 55 65
REMARK Flexibility Score: inf
ROOT
ATOM      1  C   UNL A   1      36.151  22.513  23.964  1.00  0.00     0.023 C 
ENDROOT
BRANCH   1   2
ATOM      2  C   UNL A   1      34.882  22.725  23.153  1.00  0.00     0.116 C 
BRANCH   2   3
ATOM      3  N   UNL A   1      33.898  21.692  23.507  1.00  0.00    -0.352 N 
ATOM      4  C   UNL A   1      32.661  22.066  24.208  1.00  0.00     0.251 C 
ATOM      5  O   UNL A   1      31.808  21.173  24.512  1.00  0.00    -0.270 OA
ATOM      6  H   UNL A   1      34.066  20.750  23.273  1.00  0.00     0.163 HD
BRANCH   4   7
ATOM      7  C   UNL A   1      32.401  23.519  24.567  1.00  0.00     0.067 C 
ATOM      8  C   UNL A   1      31.326  27.339  25.874  1.00  0.00    -0.004 A 
ATOM      9  C   UNL A   1      30.715  28.220  25.001  1.00  0.00     0.032 A 
ATOM     10  C   UNL A   1      31.620  26.071  25.434  1.00  0.00     0.131 A 
ATOM     11  C   UNL A   1      30.403  27.842  23.722  1.00  0.00     0.108 A 
ATOM     12  C   UNL A   1      31.336  25.659  24.144  1.00  0.00     0.019 A 
ATOM     13  O   UNL A   1      32.122  25.173  26.343  1.00  0.00    -0.475 OA
ATOM     14  C   UNL A   1      30.719  26.569  23.293  1.00  0.00     0.036 A 
ATOM     15  C   UNL A   1      31.652  24.287  23.786  1.00  0.00     0.025 C 
ATOM     16  C   UNL A   1      32.994  24.126  25.831  1.00  0.00     0.314 C 
BRANCH   8  17
ATOM     17  C   UNL A   1      31.666  27.764  27.293  1.00  0.00     0.039 C 
BRANCH  17  18
ATOM     18  C   UNL A   1      32.374  29.108  27.264  1.00  0.00     0.005 C 
BRANCH  18  19
ATOM     19  C   UNL A   1      33.878  28.887  27.252  1.00  0.00    -0.003 C 
ATOM     20  C   UNL A   1      34.587  30.217  27.452  1.00  0.00     0.004 C 
ENDBRANCH  18  19
ENDBRANCH  17  18
ENDBRANCH   8  17
BRANCH  11  21
ATOM     21  S   UNL A   1      29.582  29.003  22.603  1.00  0.00     0.310 S 
ATOM     22  F   UNL A   1      29.546  30.140  23.707  1.00  0.00    -0.094 F 
ATOM     23  F   UNL A   1      28.191  28.513  23.161  1.00  0.00    -0.094 F 
ATOM     24  F   UNL A   1      28.874  30.001  21.641  1.00  0.00    -0.094 F 
ATOM     25  F   UNL A   1      30.982  29.580  22.158  1.00  0.00    -0.094 F 
ATOM     26  F   UNL A   1      30.312  28.077  23.654  1.00  0.00    -0.094 F 
ENDBRANCH  11  21
BRANCH  16  27
ATOM     27  C   UNL A   1      33.137  23.039  26.884  1.00  0.00     0.429 C 
ATOM     28  F   UNL A   1      33.942  22.084  26.429  1.00  0.00    -0.167 F 
ATOM     29  F   UNL A   1      33.651  23.562  27.994  1.00  0.00    -0.167 F 
ATOM     30  F   UNL A   1      31.941  22.522  27.151  1.00  0.00    -0.167 F 
ENDBRANCH  16  27
ENDBRANCH   4   7
ENDBRANCH   2   3
ENDBRANCH   1   2
BRANCH   1  31
ATOM     31  C   UNL A   1      36.494  23.792  24.712  1.00  0.00     0.023 C 
BRANCH  31  32
ATOM     32  C   UNL A   1      36.950  23.448  26.120  1.00  0.00     0.116 C 
BRANCH  32  33
ATOM     33  N   UNL A   1      37.902  22.330  26.068  1.00  0.00    -0.352 N 
ATOM     34  C   UNL A   1      39.302  22.537  26.469  1.00  0.00     0.251 C 
ATOM     35  H   UNL A   1      37.603  21.442  25.766  1.00  0.00     0.163 HD
ATOM     36  O   UNL A   1      40.126  21.571  26.424  1.00  0.00    -0.269 OA
BRANCH  34  37
ATOM     37  C   UNL A   1      39.763  23.908  26.936  1.00  0.00     0.039 A 
ATOM     38  C   UNL A   1      39.764  24.192  28.292  1.00  0.00     0.014 A 
ATOM     39  C   UNL A   1      40.157  24.809  26.043  1.00  0.00     0.014 A 
ATOM     40  C   UNL A   1      39.928  25.566  28.590  1.00  0.00     0.010 A 
ATOM     41  C   UNL A   1      40.431  26.100  26.426  1.00  0.00     0.010 A 
ATOM     42  C   UNL A   1      40.395  26.465  27.743  1.00  0.00    -0.014 A 
BRANCH  42  43
ATOM     43  C   UNL A   1      40.865  27.834  28.208  1.00  0.00     0.031 A 
ATOM     44  C   UNL A   1      39.897  28.744  28.634  1.00  0.00     0.074 A 
ATOM     45  C   UNL A   1      42.223  28.103  28.184  1.00  0.00     0.049 A 
ATOM     46  N   UNL A   1      40.091  29.975  29.109  1.00  0.00    -0.248 NA
ATOM     47  C   UNL A   1      38.452  28.473  28.628  1.00  0.00     0.031 C 
ATOM     48  C   UNL A   1      43.207  27.187  27.764  1.00  0.00     0.029 A 
ATOM     49  N   UNL A   1      42.861  29.268  28.550  1.00  0.00    -0.354 N 
ATOM     50  C   UNL A   1      38.923  30.535  29.431  1.00  0.00     0.074 A 
ATOM     51  C   UNL A   1      37.851  29.579  29.120  1.00  0.00     0.031 C 
ATOM     52  C   UNL A   1      44.419  27.794  27.864  1.00  0.00     0.029 A 
ATOM     53  C   UNL A   1      44.214  29.099  28.348  1.00  0.00     0.049 A 
ATOM     54  H   UNL A   1      42.426  30.080  28.895  1.00  0.00     0.167 HD
ATOM     55  C   UNL A   1      38.709  31.803  29.974  1.00  0.00     0.037 A 
ATOM     56  C   UNL A   1      45.225  30.022  28.566  1.00  0.00     0.037 A 
ATOM     57  C   UNL A   1      39.725  32.709  30.233  1.00  0.00     0.049 A 
ATOM     58  C   UNL A   1      45.006  31.311  29.054  1.00  0.00     0.074 A 
ATOM     59  C   UNL A   1      39.528  33.988  30.787  1.00  0.00     0.029 A 
ATOM     60  N   UNL A   1      41.075  32.550  30.008  1.00  0.00    -0.354 N 
ATOM     61  N   UNL A   1      43.842  31.856  29.413  1.00  0.00    -0.248 NA
ATOM     62  C   UNL A   1      46.066  32.308  29.259  1.00  0.00     0.031 C 
ATOM     63  C   UNL A   1      40.741  34.597  30.886  1.00  0.00     0.029 A 
ATOM     64  C   UNL A   1      41.715  33.706  30.395  1.00  0.00     0.049 A 
ATOM     65  H   UNL A   1      41.508  31.748  29.635  1.00  0.00     0.167 HD
ATOM     66  C   UNL A   1      44.032  33.103  29.849  1.00  0.00     0.074 A 
ATOM     67  C   UNL A   1      45.465  33.414  29.749  1.00  0.00     0.031 C 
ATOM     68  C   UNL A   1      43.070  33.992  30.330  1.00  0.00     0.037 A 
BRANCH  55  69
ATOM     69  C   UNL A   1      37.283  32.214  30.298  1.00  0.00     0.057 A 
ATOM     70  C   UNL A   1      36.752  31.891  31.537  1.00  0.00     0.134 A 
ATOM     71  C   UNL A   1      36.565  32.864  29.390  1.00  0.00     0.134 A 
ATOM     72  F   UNL A   1      37.496  31.474  32.558  1.00  0.00    -0.206 F 
ATOM     73  C   UNL A   1      35.348  32.046  31.617  1.00  0.00     0.040 A 
ATOM     74  C   UNL A   1      35.226  33.100  29.595  1.00  0.00     0.040 A 
ATOM     75  F   UNL A   1      37.146  33.290  28.273  1.00  0.00    -0.206 F 
ATOM     76  C   UNL A   1      34.623  32.755  30.772  1.00  0.00     0.006 A 
ENDBRANCH  55  69
BRANCH  56  77
ATOM     77  C   UNL A   1      46.654  29.605  28.258  1.00  0.00     0.057 A 
ATOM     78  C   UNL A   1      47.143  29.746  26.970  1.00  0.00     0.134 A 
ATOM     79  C   UNL A   1      47.414  29.125  29.236  1.00  0.00     0.134 A 
ATOM     80  F   UNL A   1      46.516  30.445  26.029  1.00  0.00    -0.206 F 
ATOM     81  C   UNL A   1      48.371  29.077  26.747  1.00  0.00     0.040 A 
ATOM     82  C   UNL A   1      48.660  28.612  28.965  1.00  0.00     0.040 A 
ATOM     83  F   UNL A   1      46.967  29.143  30.487  1.00  0.00    -0.206 F 
ATOM     84  C   UNL A   1      49.183  28.664  27.702  1.00  0.00     0.006 A 
ENDBRANCH  56  77
BRANCH  68  85
ATOM     85  C   UNL A   1      43.536  35.356  30.812  1.00  0.00     0.057 A 
ATOM     86  C   UNL A   1      43.890  35.514  32.142  1.00  0.00     0.134 A 
ATOM     87  C   UNL A   1      43.600  36.370  29.957  1.00  0.00     0.134 A 
ATOM     88  F   UNL A   1      44.085  34.490  32.967  1.00  0.00    -0.206 F 
ATOM     89  C   UNL A   1      44.024  36.864  32.543  1.00  0.00     0.040 A 
ATOM     90  C   UNL A   1      43.870  37.642  30.400  1.00  0.00     0.040 A 
ATOM     91  F   UNL A   1      43.399  36.152  28.661  1.00  0.00    -0.206 F 
ATOM     92  C   UNL A   1      44.170  37.881  31.713  1.00  0.00     0.006 A 
ENDBRANCH  68  85
ENDBRANCH  42  43
ENDBRANCH  34  37
ENDBRANCH  32  33
ENDBRANCH  31  32
ENDBRANCH   1  31
TORSDOF 16
ENDMDL
MODEL 3
REMARK VINA RESULT:     -12.0      1.830      2.586
REMARK SMILES CCCCc1cc(S(F)(F)(F)(F)F)cc2c1O[C@@H](C(F)(F)F)C(C(=O)NCCCCNC(=O)c1ccc(-c3c4nc(c(-c5c(F)cccc5F)c5ccc([nH]5)c(-c5c(F)cccc5F)c5nc(c(-c6c(F)cccc6F)c6ccc3[nH]6)C=C5)C=C4)cc1)=C2
REMARK SMILES IDX 28 1 27 2 26 3 24 4 25 5 23 7 5 8 6 9 16 10 7 11 15 12 17 13
REMARK SMILES IDX 14 14 88 15 18 16 4 17 3 18 2 19 1 20 8 21 9 22 10 23 11 24
REMARK SMILES IDX 12 25 13 26 19 27 20 28 21 29 22 30 29 31 30 32 31 33 32 34
REMARK SMILES IDX 33 36 34 37 35 38 87 39 36 40 86 41 37 42 38 43 39 44 80 45
REMARK SMILES IDX 40 46 85 47 79 48 81 49 41 50 84 51 78 52 77 53 42 55 68 56
REMARK SMILES IDX 51 57 67 58 52 59 55 60 66 61 82 62 53 63 54 64 65 66 83 67
REMARK SMILES IDX 56 68 43 69 44 70 49 71 45 72 46 73 48 74 50 75 47 76 69 77
REMARK SMILES IDX 70 78 75 79 71 80 72 81 74 82 76 83 73 84 57 85 58 86 63 87
REMARK SMILES IDX 59 88 60 89 62 90 64 91 61 92
REMARK H PARENT 26 6 31 35 81 54 55 65
REMARK Flexibility Score: inf
ROOT
ATOM      1  C   UNL A   1      31.795  28.591  26.567  1.00  0.00     0.023 C 
ENDROOT
BRANCH   1   2
ATOM      2  C   UNL A   1      30.934  27.429  26.099  1.00  0.00     0.116 C 
BRANCH   2   3
ATOM      3  N   UNL A   1      30.357  27.746  24.784  1.00  0.00    -0.352 N 
ATOM      4  C   UNL A   1      30.772  26.985  23.597  1.00  0.00     0.251 C 
ATOM      5  O   UNL A   1      30.273  27.258  22.460  1.00  0.00    -0.270 OA
ATOM      6  H   UNL A   1      29.692  28.467  24.700  1.00  0.00     0.163 HD
BRANCH   4   7
ATOM      7  C   UNL A   1      31.798  25.872  23.728  1.00  0.00     0.067 C 
ATOM      8  C   UNL A   1      34.678  22.850  23.583  1.00  0.00    -0.004 A 
ATOM      9  C   UNL A   1      34.322  21.543  23.863  1.00  0.00     0.032 A 
ATOM     10  C   UNL A   1      33.701  23.815  23.585  1.00  0.00     0.131 A 
ATOM     11  C   UNL A   1      33.021  21.210  24.134  1.00  0.00     0.108 A 
ATOM     12  C   UNL A   1      32.380  23.519  23.873  1.00  0.00     0.019 A 
ATOM     13  O   UNL A   1      34.048  25.085  23.196  1.00  0.00    -0.475 OA
ATOM     14  C   UNL A   1      32.056  22.195  24.146  1.00  0.00     0.036 A 
ATOM     15  C   UNL A   1      31.415  24.604  23.813  1.00  0.00     0.025 C 
ATOM     16  C   UNL A   1      33.288  26.187  23.767  1.00  0.00     0.314 C 
BRANCH   8  17
ATOM     17  C   UNL A   1      36.123  23.210  23.279  1.00  0.00     0.039 C 
BRANCH  17  18
ATOM     18  C   UNL A   1      37.032  22.590  24.327  1.00  0.00     0.005 C 
BRANCH  18  19
ATOM     19  C   UNL A   1      37.179  23.546  25.499  1.00  0.00    -0.003 C 
ATOM     20  C   UNL A   1      38.445  23.211  26.271  1.00  0.00     0.004 C 
ENDBRANCH  18  19
ENDBRANCH  17  18
ENDBRANCH   8  17
BRANCH  11  21
ATOM     21  S   UNL A   1      32.572  19.490  24.474  1.00  0.00     0.310 S 
ATOM     22  F   UNL A   1      34.060  18.991  24.247  1.00  0.00    -0.094 F 
ATOM     23  F   UNL A   1      32.338  19.276  22.930  1.00  0.00    -0.094 F 
ATOM     24  F   UNL A   1      32.186  18.011  24.764  1.00  0.00    -0.094 F 
ATOM     25  F   UNL A   1      32.946  19.683  25.996  1.00  0.00    -0.094 F 
ATOM     26  F   UNL A   1      33.075  20.959  24.178  1.00  0.00    -0.094 F 
ENDBRANCH  11  21
BRANCH  16  27
ATOM     27  C   UNL A   1      33.550  27.445  22.955  1.00  0.00     0.429 C 
ATOM     28  F   UNL A   1      33.253  27.218  21.679  1.00  0.00    -0.167 F 
ATOM     29  F   UNL A   1      32.793  28.436  23.418  1.00  0.00    -0.167 F 
ATOM     30  F   UNL A   1      34.832  27.780  23.060  1.00  0.00    -0.167 F 
ENDBRANCH  16  27
ENDBRANCH   4   7
ENDBRANCH   2   3
ENDBRANCH   1   2
BRANCH   1  31
ATOM     31  C   UNL A   1      33.202  28.093  26.859  1.00  0.00     0.023 C 
BRANCH  31  32
ATOM     32  C   UNL A   1      34.211  29.149  26.435  1.00  0.00     0.116 C 
BRANCH  32  33
ATOM     33  N   UNL A   1      33.760  30.470  26.896  1.00  0.00    -0.352 N 
ATOM     34  C   UNL A   1      34.568  31.225  27.864  1.00  0.00     0.251 C 
ATOM     35  H   UNL A   1      32.918  30.850  26.556  1.00  0.00     0.163 HD
ATOM     36  O   UNL A   1      34.179  32.367  28.264  1.00  0.00    -0.269 OA
BRANCH  34  37
ATOM     37  C   UNL A   1      35.869  30.639  28.390  1.00  0.00     0.039 A 
ATOM     38  C   UNL A   1      37.052  30.929  27.731  1.00  0.00     0.014 A 
ATOM     39  C   UNL A   1      35.853  29.862  29.466  1.00  0.00     0.014 A 
ATOM     40  C   UNL A   1      38.140  30.112  28.119  1.00  0.00     0.010 A 
ATOM     41  C   UNL A   1      36.988  29.199  29.868  1.00  0.00     0.010 A 
ATOM     42  C   UNL A   1      38.179  29.394  29.226  1.00  0.00    -0.014 A 
BRANCH  42  43
ATOM     43  C   UNL A   1      39.479  28.813  29.760  1.00  0.00     0.031 A 
ATOM     44  C   UNL A   1      40.026  27.719  29.088  1.00  0.00     0.074 A 
ATOM     45  C   UNL A   1      40.049  29.400  30.877  1.00  0.00     0.049 A 
ATOM     46  N   UNL A   1      41.165  27.082  29.363  1.00  0.00    -0.248 NA
ATOM     47  C   UNL A   1      39.405  27.073  27.923  1.00  0.00     0.031 C 
ATOM     48  C   UNL A   1      39.509  30.510  31.554  1.00  0.00     0.029 A 
ATOM     49  N   UNL A   1      41.208  29.035  31.525  1.00  0.00    -0.354 N 
ATOM     50  C   UNL A   1      41.364  26.095  28.487  1.00  0.00     0.074 A 
ATOM     51  C   UNL A   1      40.232  26.071  27.552  1.00  0.00     0.031 C 
ATOM     52  C   UNL A   1      40.323  30.803  32.602  1.00  0.00     0.029 A 
ATOM     53  C   UNL A   1      41.387  29.881  32.597  1.00  0.00     0.049 A 
ATOM     54  H   UNL A   1      41.806  28.297  31.266  1.00  0.00     0.167 HD
ATOM     55  C   UNL A   1      42.447  25.215  28.431  1.00  0.00     0.037 A 
ATOM     56  C   UNL A   1      42.412  29.864  33.530  1.00  0.00     0.037 A 
ATOM     57  C   UNL A   1      43.494  25.227  29.338  1.00  0.00     0.049 A 
ATOM     58  C   UNL A   1      43.465  28.947  33.508  1.00  0.00     0.074 A 
ATOM     59  C   UNL A   1      44.597  24.352  29.291  1.00  0.00     0.029 A 
ATOM     60  N   UNL A   1      43.660  26.057  30.425  1.00  0.00    -0.354 N 
ATOM     61  N   UNL A   1      43.684  27.986  32.609  1.00  0.00    -0.248 NA
ATOM     62  C   UNL A   1      44.539  28.899  34.509  1.00  0.00     0.031 C 
ATOM     63  C   UNL A   1      45.412  24.644  30.340  1.00  0.00     0.029 A 
ATOM     64  C   UNL A   1      44.831  25.706  31.059  1.00  0.00     0.049 A 
ATOM     65  H   UNL A   1      43.048  26.777  30.700  1.00  0.00     0.167 HD
ATOM     66  C   UNL A   1      44.803  27.322  32.909  1.00  0.00     0.074 A 
ATOM     67  C   UNL A   1      45.365  27.896  34.140  1.00  0.00     0.031 C 
ATOM     68  C   UNL A   1      45.379  26.265  32.204  1.00  0.00     0.037 A 
BRANCH  55  69
ATOM     69  C   UNL A   1      42.479  24.188  27.312  1.00  0.00     0.057 A 
ATOM     70  C   UNL A   1      41.956  22.925  27.539  1.00  0.00     0.134 A 
ATOM     71  C   UNL A   1      43.013  24.511  26.140  1.00  0.00     0.134 A 
ATOM     72  F   UNL A   1      41.193  22.634  28.590  1.00  0.00    -0.206 F 
ATOM     73  C   UNL A   1      42.306  21.974  26.553  1.00  0.00     0.040 A 
ATOM     74  C   UNL A   1      43.202  23.556  25.170  1.00  0.00     0.040 A 
ATOM     75  F   UNL A   1      43.369  25.770  25.903  1.00  0.00    -0.206 F 
ATOM     76  C   UNL A   1      42.764  22.273  25.351  1.00  0.00     0.006 A 
ENDBRANCH  55  69
BRANCH  56  77
ATOM     77  C   UNL A   1      42.389  30.902  34.639  1.00  0.00     0.057 A 
ATOM     78  C   UNL A   1      41.761  30.607  35.838  1.00  0.00     0.134 A 
ATOM     79  C   UNL A   1      42.987  32.073  34.444  1.00  0.00     0.134 A 
ATOM     80  F   UNL A   1      41.377  29.379  36.172  1.00  0.00    -0.206 F 
ATOM     81  C   UNL A   1      41.567  31.732  36.675  1.00  0.00     0.040 A 
ATOM     82  C   UNL A   1      42.867  33.082  35.369  1.00  0.00     0.040 A 
ATOM     83  F   UNL A   1      43.707  32.269  33.344  1.00  0.00    -0.206 F 
ATOM     84  C   UNL A   1      42.209  32.878  36.550  1.00  0.00     0.006 A 
ENDBRANCH  56  77
BRANCH  68  85
ATOM     85  C   UNL A   1      46.689  25.691  32.721  1.00  0.00     0.057 A 
ATOM     86  C   UNL A   1      46.652  24.657  33.641  1.00  0.00     0.134 A 
ATOM     87  C   UNL A   1      47.841  26.185  32.285  1.00  0.00     0.134 A 
ATOM     88  F   UNL A   1      45.549  23.966  33.914  1.00  0.00    -0.206 F 
ATOM     89  C   UNL A   1      47.895  24.401  34.266  1.00  0.00     0.040 A 
ATOM     90  C   UNL A   1      49.030  25.789  32.849  1.00  0.00     0.040 A 
ATOM     91  F   UNL A   1      47.845  27.072  31.294  1.00  0.00    -0.206 F 
ATOM     92  C   UNL A   1      49.063  24.813  33.807  1.00  0.00     0.006 A 
ENDBRANCH  68  85
ENDBRANCH  42  43
ENDBRANCH  34  37
ENDBRANCH  32  33
ENDBRANCH  31  32
ENDBRANCH   1  31
TORSDOF 16
ENDMDL
