MODEL 1
REMARK VINA RESULT:      -8.6      0.000      0.000
REMARK SMILES CCC[NH2+][C@H]1C[C@@H](C(=O)NCCCCNC(=O)c2ccc(-c3c4nc(c(-c5c(F)cccc5F)c5ccc([nH]5)c(-c5c(F)cccc5F)c5nc(c(-c6c(F)cccc6F)c6ccc3[nH]6)C=C5)C=C4)cc2)C1
REMARK SMILES IDX 12 1 11 2 10 3 8 4 9 5 7 7 5 8 72 9 6 10 4 11 3 14 2 15 1 16
REMARK SMILES IDX 13 17 14 18 15 19 16 20 17 22 18 23 19 24 71 25 20 26 70 27
REMARK SMILES IDX 21 28 22 29 23 30 64 31 24 32 69 33 63 34 65 35 25 36 68 37
REMARK SMILES IDX 62 38 61 39 26 41 52 42 35 43 51 44 36 45 39 46 50 47 66 48
REMARK SMILES IDX 37 49 38 50 49 52 67 53 40 54 27 55 28 56 33 57 29 58 30 59
REMARK SMILES IDX 32 60 34 61 31 62 53 63 54 64 59 65 55 66 56 67 58 68 60 69
REMARK SMILES IDX 57 70 41 71 42 72 47 73 43 74 44 75 46 76 48 77 45 78
REMARK H PARENT 10 6 4 12 4 13 15 21 65 40 39 51
REMARK Flexibility Score: inf
ROOT
ATOM      1  C   UNL A   1      44.945  21.278  23.940  1.00  0.00     0.023 C 
ENDROOT
BRANCH   1   2
ATOM      2  C   UNL A   1      45.743  22.094  24.953  1.00  0.00     0.116 C 
BRANCH   2   3
ATOM      3  N   UNL A   1      46.613  23.057  24.307  1.00  0.00    -0.356 N 
ATOM      4  C   UNL A   1      46.772  24.405  24.511  1.00  0.00     0.223 C 
ATOM      5  O   UNL A   1      47.602  24.963  23.777  1.00  0.00    -0.275 OA
ATOM      6  H   UNL A   1      47.187  22.680  23.603  1.00  0.00     0.163 HD
BRANCH   4   7
ATOM      7  C   UNL A   1      45.987  25.180  25.582  1.00  0.00     0.090 C 
ATOM      8  C   UNL A   1      45.078  27.013  26.240  1.00  0.00     0.183 C 
ATOM      9  C   UNL A   1      44.679  25.921  25.222  1.00  0.00     0.078 C 
ATOM     10  C   UNL A   1      46.531  26.499  26.172  1.00  0.00     0.078 C 
BRANCH   8  11
ATOM     11  N   UNL A   1      44.969  28.318  25.583  1.00  0.00    -0.344 N 
ATOM     12  H   UNL A   1      45.748  28.437  24.936  1.00  0.00     0.346 HD
ATOM     13  H   UNL A   1      44.088  28.366  25.070  1.00  0.00     0.346 HD
BRANCH  11  14
ATOM     14  C   UNL A   1      45.004  29.382  26.592  1.00  0.00     0.260 C 
BRANCH  14  15
ATOM     15  C   UNL A   1      43.673  29.512  27.340  1.00  0.00     0.058 C 
ATOM     16  C   UNL A   1      42.455  29.345  26.442  1.00  0.00     0.010 C 
ENDBRANCH  14  15
ENDBRANCH  11  14
ENDBRANCH   8  11
ENDBRANCH   4   7
ENDBRANCH   2   3
ENDBRANCH   1   2
BRANCH   1  17
ATOM     17  C   UNL A   1      44.845  19.783  24.253  1.00  0.00     0.023 C 
BRANCH  17  18
ATOM     18  C   UNL A   1      44.154  19.437  25.568  1.00  0.00     0.116 C 
BRANCH  18  19
ATOM     19  N   UNL A   1      42.753  19.083  25.401  1.00  0.00    -0.352 N 
ATOM     20  C   UNL A   1      41.632  19.741  25.847  1.00  0.00     0.251 C 
ATOM     21  H   UNL A   1      42.584  18.252  24.899  1.00  0.00     0.163 HD
ATOM     22  O   UNL A   1      40.524  19.226  25.724  1.00  0.00    -0.269 OA
BRANCH  20  23
ATOM     23  C   UNL A   1      41.765  21.057  26.505  1.00  0.00     0.039 A 
ATOM     24  C   UNL A   1      41.665  21.127  27.897  1.00  0.00     0.014 A 
ATOM     25  C   UNL A   1      42.006  22.214  25.759  1.00  0.00     0.014 A 
ATOM     26  C   UNL A   1      41.879  22.345  28.546  1.00  0.00     0.010 A 
ATOM     27  C   UNL A   1      42.295  23.409  26.411  1.00  0.00     0.010 A 
ATOM     28  C   UNL A   1      42.236  23.487  27.812  1.00  0.00    -0.014 A 
BRANCH  28  29
ATOM     29  C   UNL A   1      42.562  24.767  28.490  1.00  0.00     0.031 A 
ATOM     30  C   UNL A   1      41.515  25.835  28.638  1.00  0.00     0.074 A 
ATOM     31  C   UNL A   1      43.821  24.995  28.914  1.00  0.00     0.049 A 
ATOM     32  N   UNL A   1      41.626  27.039  29.141  1.00  0.00    -0.248 NA
ATOM     33  C   UNL A   1      40.170  25.520  28.131  1.00  0.00     0.031 C 
ATOM     34  C   UNL A   1      44.941  24.061  28.782  1.00  0.00     0.029 A 
ATOM     35  N   UNL A   1      44.374  26.090  29.530  1.00  0.00    -0.354 N 
ATOM     36  C   UNL A   1      40.377  27.628  28.995  1.00  0.00     0.074 A 
ATOM     37  C   UNL A   1      39.536  26.669  28.311  1.00  0.00     0.031 C 
ATOM     38  C   UNL A   1      46.040  24.613  29.321  1.00  0.00     0.029 A 
ATOM     39  C   UNL A   1      45.714  25.953  29.801  1.00  0.00     0.049 A 
ATOM     40  H   UNL A   1      43.858  26.898  29.758  1.00  0.00     0.167 HD
ATOM     41  C   UNL A   1      39.960  28.847  29.413  1.00  0.00     0.037 A 
ATOM     42  C   UNL A   1      46.585  26.812  30.363  1.00  0.00     0.037 A 
ATOM     43  C   UNL A   1      40.792  29.789  30.115  1.00  0.00     0.049 A 
ATOM     44  C   UNL A   1      46.099  28.161  30.816  1.00  0.00     0.074 A 
ATOM     45  C   UNL A   1      40.444  31.022  30.638  1.00  0.00     0.029 A 
ATOM     46  N   UNL A   1      42.140  29.605  30.386  1.00  0.00    -0.354 N 
ATOM     47  N   UNL A   1      44.895  28.675  30.738  1.00  0.00    -0.248 NA
ATOM     48  C   UNL A   1      47.091  29.047  31.440  1.00  0.00     0.031 C 
ATOM     49  C   UNL A   1      41.592  31.606  31.182  1.00  0.00     0.029 A 
ATOM     50  C   UNL A   1      42.644  30.714  31.048  1.00  0.00     0.049 A 
ATOM     51  H   UNL A   1      42.661  28.805  30.145  1.00  0.00     0.167 HD
ATOM     52  C   UNL A   1      44.978  29.930  31.329  1.00  0.00     0.074 A 
ATOM     53  C   UNL A   1      46.347  30.093  31.772  1.00  0.00     0.031 C 
ATOM     54  C   UNL A   1      44.007  30.861  31.489  1.00  0.00     0.037 A 
BRANCH  41  55
ATOM     55  C   UNL A   1      38.538  29.231  29.123  1.00  0.00     0.057 A 
ATOM     56  C   UNL A   1      38.123  29.617  27.841  1.00  0.00     0.134 A 
ATOM     57  C   UNL A   1      37.564  29.178  30.128  1.00  0.00     0.134 A 
ATOM     58  F   UNL A   1      39.006  29.700  26.835  1.00  0.00    -0.206 F 
ATOM     59  C   UNL A   1      36.797  29.964  27.577  1.00  0.00     0.040 A 
ATOM     60  C   UNL A   1      36.229  29.494  29.868  1.00  0.00     0.040 A 
ATOM     61  F   UNL A   1      37.891  28.810  31.376  1.00  0.00    -0.206 F 
ATOM     62  C   UNL A   1      35.844  29.896  28.591  1.00  0.00     0.006 A 
ENDBRANCH  41  55
BRANCH  42  63
ATOM     63  C   UNL A   1      48.004  26.416  30.547  1.00  0.00     0.057 A 
ATOM     64  C   UNL A   1      48.973  26.734  29.588  1.00  0.00     0.134 A 
ATOM     65  C   UNL A   1      48.426  25.707  31.677  1.00  0.00     0.134 A 
ATOM     66  F   UNL A   1      48.628  27.395  28.473  1.00  0.00    -0.206 F 
ATOM     67  C   UNL A   1      50.305  26.346  29.737  1.00  0.00     0.040 A 
ATOM     68  C   UNL A   1      49.760  25.335  31.852  1.00  0.00     0.040 A 
ATOM     69  F   UNL A   1      47.549  25.379  32.637  1.00  0.00    -0.206 F 
ATOM     70  C   UNL A   1      50.703  25.648  30.875  1.00  0.00     0.006 A 
ENDBRANCH  42  63
BRANCH  54  71
ATOM     71  C   UNL A   1      44.380  32.128  32.205  1.00  0.00     0.057 A 
ATOM     72  C   UNL A   1      44.337  32.231  33.600  1.00  0.00     0.134 A 
ATOM     73  C   UNL A   1      44.823  33.247  31.487  1.00  0.00     0.134 A 
ATOM     74  F   UNL A   1      43.910  31.200  34.347  1.00  0.00    -0.206 F 
ATOM     75  C   UNL A   1      44.700  33.408  34.256  1.00  0.00     0.040 A 
ATOM     76  C   UNL A   1      45.215  34.419  32.133  1.00  0.00     0.040 A 
ATOM     77  F   UNL A   1      44.896  33.212  30.148  1.00  0.00    -0.206 F 
ATOM     78  C   UNL A   1      45.148  34.504  33.521  1.00  0.00     0.006 A 
ENDBRANCH  54  71
ENDBRANCH  28  29
ENDBRANCH  20  23
ENDBRANCH  18  19
ENDBRANCH  17  18
ENDBRANCH   1  17
TORSDOF 14
ENDMDL
MODEL 2
REMARK VINA RESULT:      -8.5      0.472      6.626
REMARK SMILES CCC[NH2+][C@H]1C[C@@H](C(=O)NCCCCNC(=O)c2ccc(-c3c4nc(c(-c5c(F)cccc5F)c5ccc([nH]5)c(-c5c(F)cccc5F)c5nc(c(-c6c(F)cccc6F)c6ccc3[nH]6)C=C5)C=C4)cc2)C1
REMARK SMILES IDX 12 1 11 2 10 3 8 4 9 5 7 7 5 8 72 9 6 10 4 11 3 14 2 15 1 16
REMARK SMILES IDX 13 17 14 18 15 19 16 20 17 22 18 23 19 24 71 25 20 26 70 27
REMARK SMILES IDX 21 28 22 29 23 30 64 31 24 32 69 33 63 34 65 35 25 36 68 37
REMARK SMILES IDX 62 38 61 39 26 41 52 42 35 43 51 44 36 45 39 46 50 47 66 48
REMARK SMILES IDX 37 49 38 50 49 52 67 53 40 54 27 55 28 56 33 57 29 58 30 59
REMARK SMILES IDX 32 60 34 61 31 62 53 63 54 64 59 65 55 66 56 67 58 68 60 69
REMARK SMILES IDX 57 70 41 71 42 72 47 73 43 74 44 75 46 76 48 77 45 78
REMARK H PARENT 10 6 4 12 4 13 15 21 65 40 39 51
REMARK Flexibility Score: inf
ROOT
ATOM      1  C   UNL A   1      44.980  21.610  23.862  1.00  0.00     0.023 C 
ENDROOT
BRANCH   1   2
ATOM      2  C   UNL A   1      45.878  22.431  24.783  1.00  0.00     0.116 C 
BRANCH   2   3
ATOM      3  N   UNL A   1      46.759  23.309  24.039  1.00  0.00    -0.356 N 
ATOM      4  C   UNL A   1      47.101  24.623  24.241  1.00  0.00     0.223 C 
ATOM      5  O   UNL A   1      47.883  25.106  23.408  1.00  0.00    -0.275 OA
ATOM      6  H   UNL A   1      47.184  22.892  23.256  1.00  0.00     0.163 HD
BRANCH   4   7
ATOM      7  C   UNL A   1      46.565  25.446  25.423  1.00  0.00     0.090 C 
ATOM      8  C   UNL A   1      45.792  27.304  26.179  1.00  0.00     0.183 C 
ATOM      9  C   UNL A   1      45.194  26.157  25.334  1.00  0.00     0.078 C 
ATOM     10  C   UNL A   1      47.202  26.799  25.808  1.00  0.00     0.078 C 
BRANCH   8  11
ATOM     11  N   UNL A   1      45.511  28.572  25.500  1.00  0.00    -0.344 N 
ATOM     12  H   UNL A   1      45.976  28.581  24.593  1.00  0.00     0.346 HD
ATOM     13  H   UNL A   1      44.504  28.669  25.370  1.00  0.00     0.346 HD
BRANCH  11  14
ATOM     14  C   UNL A   1      46.007  29.688  26.315  1.00  0.00     0.260 C 
BRANCH  14  15
ATOM     15  C   UNL A   1      45.042  30.049  27.448  1.00  0.00     0.058 C 
ATOM     16  C   UNL A   1      43.651  30.430  26.960  1.00  0.00     0.010 C 
ENDBRANCH  14  15
ENDBRANCH  11  14
ENDBRANCH   8  11
ENDBRANCH   4   7
ENDBRANCH   2   3
ENDBRANCH   1   2
BRANCH   1  17
ATOM     17  C   UNL A   1      45.077  20.095  24.050  1.00  0.00     0.023 C 
BRANCH  17  18
ATOM     18  C   UNL A   1      44.549  19.568  25.380  1.00  0.00     0.116 C 
BRANCH  18  19
ATOM     19  N   UNL A   1      43.175  19.099  25.305  1.00  0.00    -0.352 N 
ATOM     20  C   UNL A   1      42.029  19.685  25.786  1.00  0.00     0.251 C 
ATOM     21  H   UNL A   1      43.047  18.237  24.844  1.00  0.00     0.163 HD
ATOM     22  O   UNL A   1      40.961  19.081  25.744  1.00  0.00    -0.269 OA
BRANCH  20  23
ATOM     23  C   UNL A   1      42.090  21.034  26.386  1.00  0.00     0.039 A 
ATOM     24  C   UNL A   1      42.059  21.153  27.778  1.00  0.00     0.014 A 
ATOM     25  C   UNL A   1      42.196  22.174  25.585  1.00  0.00     0.014 A 
ATOM     26  C   UNL A   1      42.208  22.410  28.368  1.00  0.00     0.010 A 
ATOM     27  C   UNL A   1      42.422  23.414  26.175  1.00  0.00     0.010 A 
ATOM     28  C   UNL A   1      42.432  23.546  27.573  1.00  0.00    -0.014 A 
BRANCH  28  29
ATOM     29  C   UNL A   1      42.690  24.875  28.183  1.00  0.00     0.031 A 
ATOM     30  C   UNL A   1      44.052  25.210  28.723  1.00  0.00     0.074 A 
ATOM     31  C   UNL A   1      41.679  25.755  28.313  1.00  0.00     0.049 A 
ATOM     32  N   UNL A   1      44.452  26.289  29.348  1.00  0.00    -0.248 NA
ATOM     33  C   UNL A   1      45.099  24.188  28.564  1.00  0.00     0.031 C 
ATOM     34  C   UNL A   1      40.299  25.531  27.879  1.00  0.00     0.029 A 
ATOM     35  N   UNL A   1      41.652  27.014  28.861  1.00  0.00    -0.354 N 
ATOM     36  C   UNL A   1      45.785  26.069  29.670  1.00  0.00     0.074 A 
ATOM     37  C   UNL A   1      46.113  24.734  29.217  1.00  0.00     0.031 C 
ATOM     38  C   UNL A   1      39.566  26.622  28.156  1.00  0.00     0.029 A 
ATOM     39  C   UNL A   1      40.413  27.607  28.823  1.00  0.00     0.049 A 
ATOM     40  H   UNL A   1      42.447  27.451  29.246  1.00  0.00     0.167 HD
ATOM     41  C   UNL A   1      46.663  26.910  30.266  1.00  0.00     0.037 A 
ATOM     42  C   UNL A   1      40.001  28.804  29.280  1.00  0.00     0.037 A 
ATOM     43  C   UNL A   1      46.340  28.247  30.694  1.00  0.00     0.049 A 
ATOM     44  C   UNL A   1      40.995  29.719  29.942  1.00  0.00     0.074 A 
ATOM     45  C   UNL A   1      47.177  29.199  31.248  1.00  0.00     0.029 A 
ATOM     46  N   UNL A   1      45.078  28.817  30.620  1.00  0.00    -0.354 N 
ATOM     47  N   UNL A   1      42.271  29.526  30.172  1.00  0.00    -0.248 NA
ATOM     48  C   UNL A   1      40.492  31.020  30.402  1.00  0.00     0.031 C 
ATOM     49  C   UNL A   1      46.412  30.328  31.555  1.00  0.00     0.029 A 
ATOM     50  C   UNL A   1      45.109  30.100  31.141  1.00  0.00     0.049 A 
ATOM     51  H   UNL A   1      44.279  28.375  30.251  1.00  0.00     0.167 HD
ATOM     52  C   UNL A   1      42.730  30.690  30.776  1.00  0.00     0.074 A 
ATOM     53  C   UNL A   1      41.597  31.589  30.864  1.00  0.00     0.031 C 
ATOM     54  C   UNL A   1      43.976  30.987  31.217  1.00  0.00     0.037 A 
BRANCH  41  55
ATOM     55  C   UNL A   1      48.060  26.409  30.491  1.00  0.00     0.057 A 
ATOM     56  C   UNL A   1      49.092  26.657  29.575  1.00  0.00     0.134 A 
ATOM     57  C   UNL A   1      48.387  25.702  31.655  1.00  0.00     0.134 A 
ATOM     58  F   UNL A   1      48.845  27.319  28.435  1.00  0.00    -0.206 F 
ATOM     59  C   UNL A   1      50.391  26.196  29.796  1.00  0.00     0.040 A 
ATOM     60  C   UNL A   1      49.690  25.262  31.900  1.00  0.00     0.040 A 
ATOM     61  F   UNL A   1      47.450  25.436  32.577  1.00  0.00    -0.206 F 
ATOM     62  C   UNL A   1      50.694  25.502  30.966  1.00  0.00     0.006 A 
ENDBRANCH  41  55
BRANCH  42  63
ATOM     63  C   UNL A   1      38.586  29.217  29.112  1.00  0.00     0.057 A 
ATOM     64  C   UNL A   1      37.687  29.172  30.184  1.00  0.00     0.134 A 
ATOM     65  C   UNL A   1      38.093  29.658  27.878  1.00  0.00     0.134 A 
ATOM     66  F   UNL A   1      38.093  28.739  31.387  1.00  0.00    -0.206 F 
ATOM     67  C   UNL A   1      36.348  29.533  30.033  1.00  0.00     0.040 A 
ATOM     68  C   UNL A   1      36.762  30.047  27.718  1.00  0.00     0.040 A 
ATOM     69  F   UNL A   1      38.904  29.733  26.812  1.00  0.00    -0.206 F 
ATOM     70  C   UNL A   1      35.883  29.978  28.797  1.00  0.00     0.006 A 
ENDBRANCH  42  63
BRANCH  54  71
ATOM     71  C   UNL A   1      44.192  32.353  31.803  1.00  0.00     0.057 A 
ATOM     72  C   UNL A   1      44.547  33.452  31.011  1.00  0.00     0.134 A 
ATOM     73  C   UNL A   1      44.005  32.577  33.173  1.00  0.00     0.134 A 
ATOM     74  F   UNL A   1      44.754  33.302  29.693  1.00  0.00    -0.206 F 
ATOM     75  C   UNL A   1      44.731  34.720  31.564  1.00  0.00     0.040 A 
ATOM     76  C   UNL A   1      44.157  33.846  33.732  1.00  0.00     0.040 A 
ATOM     77  F   UNL A   1      43.656  31.570  33.987  1.00  0.00    -0.206 F 
ATOM     78  C   UNL A   1      44.528  34.921  32.927  1.00  0.00     0.006 A 
ENDBRANCH  54  71
ENDBRANCH  28  29
ENDBRANCH  20  23
ENDBRANCH  18  19
ENDBRANCH  17  18
ENDBRANCH   1  17
TORSDOF 14
ENDMDL
MODEL 3
REMARK VINA RESULT:      -8.2      4.294     10.200
REMARK SMILES CCC[NH2+][C@H]1C[C@@H](C(=O)NCCCCNC(=O)c2ccc(-c3c4nc(c(-c5c(F)cccc5F)c5ccc([nH]5)c(-c5c(F)cccc5F)c5nc(c(-c6c(F)cccc6F)c6ccc3[nH]6)C=C5)C=C4)cc2)C1
REMARK SMILES IDX 12 1 11 2 10 3 8 4 9 5 7 7 5 8 72 9 6 10 4 11 3 14 2 15 1 16
REMARK SMILES IDX 13 17 14 18 15 19 16 20 17 22 18 23 19 24 71 25 20 26 70 27
REMARK SMILES IDX 21 28 22 29 23 30 64 31 24 32 69 33 63 34 65 35 25 36 68 37
REMARK SMILES IDX 62 38 61 39 26 41 52 42 35 43 51 44 36 45 39 46 50 47 66 48
REMARK SMILES IDX 37 49 38 50 49 52 67 53 40 54 27 55 28 56 33 57 29 58 30 59
REMARK SMILES IDX 32 60 34 61 31 62 53 63 54 64 59 65 55 66 56 67 58 68 60 69
REMARK SMILES IDX 57 70 41 71 42 72 47 73 43 74 44 75 46 76 48 77 45 78
REMARK H PARENT 10 6 4 12 4 13 15 21 65 40 39 51
REMARK Flexibility Score: inf
ROOT
ATOM      1  C   UNL A   1      33.279  34.519  28.873  1.00  0.00     0.023 C 
ENDROOT
BRANCH   1   2
ATOM      2  C   UNL A   1      33.537  35.843  29.588  1.00  0.00     0.116 C 
BRANCH   2   3
ATOM      3  N   UNL A   1      32.457  36.188  30.492  1.00  0.00    -0.356 N 
ATOM      4  C   UNL A   1      32.341  36.041  31.852  1.00  0.00     0.223 C 
ATOM      5  O   UNL A   1      31.270  36.429  32.342  1.00  0.00    -0.275 OA
ATOM      6  H   UNL A   1      31.676  36.597  30.058  1.00  0.00     0.163 HD
BRANCH   4   7
ATOM      7  C   UNL A   1      33.461  35.446  32.720  1.00  0.00     0.090 C 
ATOM      8  C   UNL A   1      35.472  34.706  32.887  1.00  0.00     0.183 C 
ATOM      9  C   UNL A   1      34.852  36.117  32.786  1.00  0.00     0.078 C 
ATOM     10  C   UNL A   1      34.157  34.124  32.329  1.00  0.00     0.078 C 
BRANCH   8  11
ATOM     11  N   UNL A   1      36.540  34.599  31.889  1.00  0.00    -0.344 N 
ATOM     12  H   UNL A   1      36.165  34.186  31.035  1.00  0.00     0.346 HD
ATOM     13  H   UNL A   1      36.908  35.528  31.686  1.00  0.00     0.346 HD
BRANCH  11  14
ATOM     14  C   UNL A   1      37.618  33.751  32.410  1.00  0.00     0.260 C 
BRANCH  14  15
ATOM     15  C   UNL A   1      37.537  32.319  31.871  1.00  0.00     0.058 C 
ATOM     16  C   UNL A   1      36.742  31.379  32.767  1.00  0.00     0.010 C 
ENDBRANCH  14  15
ENDBRANCH  11  14
ENDBRANCH   8  11
ENDBRANCH   4   7
ENDBRANCH   2   3
ENDBRANCH   1   2
BRANCH   1  17
ATOM     17  C   UNL A   1      34.538  33.735  28.496  1.00  0.00     0.023 C 
BRANCH  17  18
ATOM     18  C   UNL A   1      34.751  32.434  29.263  1.00  0.00     0.116 C 
BRANCH  18  19
ATOM     19  N   UNL A   1      34.156  31.280  28.609  1.00  0.00    -0.352 N 
ATOM     20  C   UNL A   1      34.759  30.131  28.156  1.00  0.00     0.251 C 
ATOM     21  H   UNL A   1      33.182  31.329  28.468  1.00  0.00     0.163 HD
ATOM     22  O   UNL A   1      34.117  29.310  27.508  1.00  0.00    -0.269 OA
BRANCH  20  23
ATOM     23  C   UNL A   1      36.194  29.900  28.423  1.00  0.00     0.039 A 
ATOM     24  C   UNL A   1      36.573  29.386  29.666  1.00  0.00     0.014 A 
ATOM     25  C   UNL A   1      37.160  30.169  27.450  1.00  0.00     0.014 A 
ATOM     26  C   UNL A   1      37.913  29.075  29.906  1.00  0.00     0.010 A 
ATOM     27  C   UNL A   1      38.481  29.786  27.662  1.00  0.00     0.010 A 
ATOM     28  C   UNL A   1      38.871  29.233  28.892  1.00  0.00    -0.014 A 
BRANCH  28  29
ATOM     29  C   UNL A   1      40.283  28.816  29.095  1.00  0.00     0.031 A 
ATOM     30  C   UNL A   1      41.275  29.770  29.699  1.00  0.00     0.074 A 
ATOM     31  C   UNL A   1      40.687  27.603  28.673  1.00  0.00     0.049 A 
ATOM     32  N   UNL A   1      42.561  29.613  29.895  1.00  0.00    -0.248 NA
ATOM     33  C   UNL A   1      40.763  31.085  30.115  1.00  0.00     0.031 C 
ATOM     34  C   UNL A   1      39.834  26.605  28.023  1.00  0.00     0.029 A 
ATOM     35  N   UNL A   1      41.921  27.005  28.715  1.00  0.00    -0.354 N 
ATOM     36  C   UNL A   1      43.010  30.809  30.438  1.00  0.00     0.074 A 
ATOM     37  C   UNL A   1      41.872  31.701  30.494  1.00  0.00     0.031 C 
ATOM     38  C   UNL A   1      40.565  25.512  27.748  1.00  0.00     0.029 A 
ATOM     39  C   UNL A   1      41.945  25.746  28.165  1.00  0.00     0.049 A 
ATOM     40  H   UNL A   1      42.717  27.438  29.103  1.00  0.00     0.167 HD
ATOM     41  C   UNL A   1      44.252  31.128  30.873  1.00  0.00     0.037 A 
ATOM     42  C   UNL A   1      42.963  24.879  28.005  1.00  0.00     0.037 A 
ATOM     43  C   UNL A   1      45.378  30.230  30.839  1.00  0.00     0.049 A 
ATOM     44  C   UNL A   1      44.334  25.258  28.494  1.00  0.00     0.074 A 
ATOM     45  C   UNL A   1      46.660  30.437  31.316  1.00  0.00     0.029 A 
ATOM     46  N   UNL A   1      45.355  28.956  30.291  1.00  0.00    -0.354 N 
ATOM     47  N   UNL A   1      44.728  26.366  29.074  1.00  0.00    -0.248 NA
ATOM     48  C   UNL A   1      45.400  24.264  28.311  1.00  0.00     0.031 C 
ATOM     49  C   UNL A   1      47.426  29.308  31.013  1.00  0.00     0.029 A 
ATOM     50  C   UNL A   1      46.609  28.375  30.396  1.00  0.00     0.049 A 
ATOM     51  H   UNL A   1      44.566  28.528  29.888  1.00  0.00     0.167 HD
ATOM     52  C   UNL A   1      46.078  26.191  29.351  1.00  0.00     0.074 A 
ATOM     53  C   UNL A   1      46.431  24.865  28.888  1.00  0.00     0.031 C 
ATOM     54  C   UNL A   1      46.946  27.051  29.937  1.00  0.00     0.037 A 
BRANCH  41  55
ATOM     55  C   UNL A   1      44.461  32.509  31.426  1.00  0.00     0.057 A 
ATOM     56  C   UNL A   1      44.278  32.796  32.785  1.00  0.00     0.134 A 
ATOM     57  C   UNL A   1      44.885  33.554  30.596  1.00  0.00     0.134 A 
ATOM     58  F   UNL A   1      43.862  31.844  33.633  1.00  0.00    -0.206 F 
ATOM     59  C   UNL A   1      44.483  34.080  33.294  1.00  0.00     0.040 A 
ATOM     60  C   UNL A   1      45.122  34.835  31.099  1.00  0.00     0.040 A 
ATOM     61  F   UNL A   1      45.087  33.346  29.286  1.00  0.00    -0.206 F 
ATOM     62  C   UNL A   1      44.914  35.103  32.450  1.00  0.00     0.006 A 
ENDBRANCH  41  55
BRANCH  42  63
ATOM     63  C   UNL A   1      42.722  23.559  27.371  1.00  0.00     0.057 A 
ATOM     64  C   UNL A   1      42.304  22.459  28.129  1.00  0.00     0.134 A 
ATOM     65  C   UNL A   1      42.909  23.361  25.999  1.00  0.00     0.134 A 
ATOM     66  F   UNL A   1      42.126  22.580  29.453  1.00  0.00    -0.206 F 
ATOM     67  C   UNL A   1      42.099  21.206  27.550  1.00  0.00     0.040 A 
ATOM     68  C   UNL A   1      42.683  22.120  25.400  1.00  0.00     0.040 A 
ATOM     69  F   UNL A   1      43.301  24.376  25.215  1.00  0.00    -0.206 F 
ATOM     70  C   UNL A   1      42.283  21.035  26.179  1.00  0.00     0.006 A 
ENDBRANCH  42  63
BRANCH  54  71
ATOM     71  C   UNL A   1      48.355  26.575  30.144  1.00  0.00     0.057 A 
ATOM     72  C   UNL A   1      48.742  25.888  31.301  1.00  0.00     0.134 A 
ATOM     73  C   UNL A   1      49.325  26.772  29.154  1.00  0.00     0.134 A 
ATOM     74  F   UNL A   1      47.864  25.677  32.294  1.00  0.00    -0.206 F 
ATOM     75  C   UNL A   1      50.051  25.437  31.477  1.00  0.00     0.040 A 
ATOM     76  C   UNL A   1      50.629  26.300  29.305  1.00  0.00     0.040 A 
ATOM     77  F   UNL A   1      49.018  27.414  28.016  1.00  0.00    -0.206 F 
ATOM     78  C   UNL A   1      50.997  25.635  30.472  1.00  0.00     0.006 A 
ENDBRANCH  54  71
ENDBRANCH  28  29
ENDBRANCH  20  23
ENDBRANCH  18  19
ENDBRANCH  17  18
ENDBRANCH   1  17
TORSDOF 14
ENDMDL
