MODEL 1
REMARK VINA RESULT:     -11.9      0.000      0.000
REMARK SMILES COc1ncccc1NS(=O)(=O)c1ccc(C(=O)NCCCCNC(=O)c2ccc(-c3c4nc(c(-c5c(F)cccc5F)c5ccc([nH]5)c(-c5c(F)cccc5F)c5nc(c(-c6c(F)cccc6F)c6ccc3[nH]6)C=C5)C=C4)cc2)cc1
REMARK SMILES IDX 20 1 19 2 17 3 18 4 16 6 13 7 14 8 82 9 15 10 81 11 10 12
REMARK SMILES IDX 11 13 12 14 9 15 8 17 3 18 4 19 5 20 7 21 6 22 2 23 1 24
REMARK SMILES IDX 21 25 22 26 23 27 24 28 25 29 26 31 27 32 28 33 80 34 29 35
REMARK SMILES IDX 79 36 30 37 31 38 32 39 73 40 33 41 78 42 72 43 74 44 34 45
REMARK SMILES IDX 77 46 71 47 70 48 35 50 61 51 44 52 60 53 45 54 48 55 59 56
REMARK SMILES IDX 75 57 46 58 47 59 58 61 76 62 49 63 36 64 37 65 42 66 38 67
REMARK SMILES IDX 39 68 41 69 43 70 40 71 62 72 63 73 68 74 64 75 65 76 67 77
REMARK SMILES IDX 69 78 66 79 50 80 51 81 56 82 52 83 53 84 55 85 57 86 54 87
REMARK H PARENT 19 5 9 16 24 30 74 49 48 60
REMARK Flexibility Score: inf
ROOT
ATOM      1  C   UNL A   1      31.942  29.542  27.134  1.00  0.00     0.116 C 
ENDROOT
BRANCH   1   2
ATOM      2  N   UNL A   1      33.321  29.417  27.567  1.00  0.00    -0.352 N 
ATOM      3  C   UNL A   1      34.383  28.796  26.961  1.00  0.00     0.251 C 
ATOM      4  O   UNL A   1      35.509  28.961  27.424  1.00  0.00    -0.269 OA
ATOM      5  H   UNL A   1      33.526  29.845  28.430  1.00  0.00     0.163 HD
BRANCH   3   6
ATOM      6  C   UNL A   1      34.211  27.959  25.748  1.00  0.00     0.039 A 
ATOM      7  C   UNL A   1      33.667  26.297  23.570  1.00  0.00     0.087 A 
ATOM      8  C   UNL A   1      33.911  25.730  24.824  1.00  0.00     0.023 A 
ATOM      9  C   UNL A   1      33.766  27.681  23.381  1.00  0.00     0.023 A 
ATOM     10  C   UNL A   1      34.164  26.566  25.915  1.00  0.00     0.015 A 
ATOM     11  C   UNL A   1      34.004  28.511  24.478  1.00  0.00     0.015 A 
BRANCH   7  12
ATOM     12  S   UNL A   1      33.194  25.254  22.218  1.00  0.00     0.262 S 
ATOM     13  O   UNL A   1      34.009  24.060  22.302  1.00  0.00    -0.201 OA
ATOM     14  O   UNL A   1      33.204  26.065  21.016  1.00  0.00    -0.201 OA
BRANCH  12  15
ATOM     15  N   UNL A   1      31.576  24.790  22.368  1.00  0.00    -0.274 N 
ATOM     16  H   UNL A   1      31.075  24.580  21.547  1.00  0.00     0.180 HD
BRANCH  15  17
ATOM     17  C   UNL A   1      30.893  24.686  23.623  1.00  0.00     0.111 A 
ATOM     18  C   UNL A   1      31.037  23.604  24.499  1.00  0.00     0.238 A 
ATOM     19  N   UNL A   1      30.545  23.564  25.756  1.00  0.00    -0.220 NA
ATOM     20  C   UNL A   1      29.911  24.674  26.188  1.00  0.00     0.115 A 
ATOM     21  C   UNL A   1      30.279  25.830  24.126  1.00  0.00     0.034 A 
ATOM     22  C   UNL A   1      29.767  25.824  25.424  1.00  0.00     0.023 A 
BRANCH  18  23
ATOM     23  O   UNL A   1      31.652  22.463  24.056  1.00  0.00    -0.480 OA
ATOM     24  C   UNL A   1      32.700  22.071  24.923  1.00  0.00     0.280 C 
ENDBRANCH  18  23
ENDBRANCH  15  17
ENDBRANCH  12  15
ENDBRANCH   7  12
ENDBRANCH   3   6
ENDBRANCH   1   2
BRANCH   1  25
ATOM     25  C   UNL A   1      31.769  30.725  26.181  1.00  0.00     0.023 C 
BRANCH  25  26
ATOM     26  C   UNL A   1      31.419  32.048  26.869  1.00  0.00     0.023 C 
BRANCH  26  27
ATOM     27  C   UNL A   1      32.611  32.832  27.410  1.00  0.00     0.116 C 
BRANCH  27  28
ATOM     28  N   UNL A   1      32.316  34.233  27.664  1.00  0.00    -0.352 N 
ATOM     29  C   UNL A   1      32.952  35.093  28.526  1.00  0.00     0.251 C 
ATOM     30  H   UNL A   1      31.566  34.614  27.153  1.00  0.00     0.163 HD
ATOM     31  O   UNL A   1      32.526  36.229  28.704  1.00  0.00    -0.269 OA
BRANCH  29  32
ATOM     32  C   UNL A   1      34.131  34.617  29.275  1.00  0.00     0.039 A 
ATOM     33  C   UNL A   1      33.949  34.121  30.568  1.00  0.00     0.014 A 
ATOM     34  C   UNL A   1      35.400  34.629  28.690  1.00  0.00     0.014 A 
ATOM     35  C   UNL A   1      35.034  33.570  31.252  1.00  0.00     0.010 A 
ATOM     36  C   UNL A   1      36.467  34.027  29.349  1.00  0.00     0.010 A 
ATOM     37  C   UNL A   1      36.291  33.487  30.633  1.00  0.00    -0.014 A 
BRANCH  37  38
ATOM     38  C   UNL A   1      37.437  32.835  31.311  1.00  0.00     0.031 A 
ATOM     39  C   UNL A   1      38.104  31.645  30.683  1.00  0.00     0.074 A 
ATOM     40  C   UNL A   1      37.829  33.275  32.522  1.00  0.00     0.049 A 
ATOM     41  N   UNL A   1      39.066  30.894  31.155  1.00  0.00    -0.248 NA
ATOM     42  C   UNL A   1      37.607  31.229  29.363  1.00  0.00     0.031 C 
ATOM     43  C   UNL A   1      37.227  34.390  33.256  1.00  0.00     0.029 A 
ATOM     44  N   UNL A   1      38.821  32.825  33.357  1.00  0.00    -0.354 N 
ATOM     45  C   UNL A   1      39.277  29.909  30.199  1.00  0.00     0.074 A 
ATOM     46  C   UNL A   1      38.316  30.131  29.141  1.00  0.00     0.031 C 
ATOM     47  C   UNL A   1      37.873  34.548  34.423  1.00  0.00     0.029 A 
ATOM     48  C   UNL A   1      38.912  33.529  34.533  1.00  0.00     0.049 A 
ATOM     49  H   UNL A   1      39.411  32.069  33.133  1.00  0.00     0.167 HD
ATOM     50  C   UNL A   1      40.205  28.923  30.194  1.00  0.00     0.037 A 
ATOM     51  C   UNL A   1      39.738  33.365  35.583  1.00  0.00     0.037 A 
ATOM     52  C   UNL A   1      41.180  28.722  31.232  1.00  0.00     0.049 A 
ATOM     53  C   UNL A   1      40.767  32.271  35.545  1.00  0.00     0.074 A 
ATOM     54  C   UNL A   1      42.197  27.785  31.292  1.00  0.00     0.029 A 
ATOM     55  N   UNL A   1      41.262  29.478  32.391  1.00  0.00    -0.354 N 
ATOM     56  N   UNL A   1      40.995  31.384  34.607  1.00  0.00    -0.248 NA
ATOM     57  C   UNL A   1      41.658  32.159  36.709  1.00  0.00     0.031 C 
ATOM     58  C   UNL A   1      42.877  27.955  32.503  1.00  0.00     0.029 A 
ATOM     59  C   UNL A   1      42.305  29.020  33.179  1.00  0.00     0.049 A 
ATOM     60  H   UNL A   1      40.666  30.227  32.621  1.00  0.00     0.167 HD
ATOM     61  C   UNL A   1      42.069  30.627  35.053  1.00  0.00     0.074 A 
ATOM     62  C   UNL A   1      42.457  31.167  36.341  1.00  0.00     0.031 C 
ATOM     63  C   UNL A   1      42.682  29.579  34.451  1.00  0.00     0.037 A 
BRANCH  50  64
ATOM     64  C   UNL A   1      40.215  27.992  29.018  1.00  0.00     0.057 A 
ATOM     65  C   UNL A   1      39.490  26.793  29.022  1.00  0.00     0.134 A 
ATOM     66  C   UNL A   1      40.928  28.314  27.856  1.00  0.00     0.134 A 
ATOM     67  F   UNL A   1      38.799  26.422  30.111  1.00  0.00    -0.206 F 
ATOM     68  C   UNL A   1      39.491  25.936  27.922  1.00  0.00     0.040 A 
ATOM     69  C   UNL A   1      40.916  27.475  26.739  1.00  0.00     0.040 A 
ATOM     70  F   UNL A   1      41.639  29.449  27.785  1.00  0.00    -0.206 F 
ATOM     71  C   UNL A   1      40.201  26.280  26.773  1.00  0.00     0.006 A 
ENDBRANCH  50  64
BRANCH  51  72
ATOM     72  C   UNL A   1      39.647  34.276  36.751  1.00  0.00     0.057 A 
ATOM     73  C   UNL A   1      38.942  33.902  37.901  1.00  0.00     0.134 A 
ATOM     74  C   UNL A   1      40.245  35.541  36.742  1.00  0.00     0.134 A 
ATOM     75  F   UNL A   1      38.333  32.708  37.960  1.00  0.00    -0.206 F 
ATOM     76  C   UNL A   1      38.818  34.762  38.993  1.00  0.00     0.040 A 
ATOM     77  C   UNL A   1      40.147  36.402  37.836  1.00  0.00     0.040 A 
ATOM     78  F   UNL A   1      40.941  35.954  35.672  1.00  0.00    -0.206 F 
ATOM     79  C   UNL A   1      39.425  36.015  38.963  1.00  0.00     0.006 A 
ENDBRANCH  51  72
BRANCH  63  80
ATOM     80  C   UNL A   1      43.853  28.971  35.162  1.00  0.00     0.057 A 
ATOM     81  C   UNL A   1      43.694  27.947  36.102  1.00  0.00     0.134 A 
ATOM     82  C   UNL A   1      45.157  29.391  34.873  1.00  0.00     0.134 A 
ATOM     83  F   UNL A   1      42.469  27.511  36.432  1.00  0.00    -0.206 F 
ATOM     84  C   UNL A   1      44.792  27.371  36.744  1.00  0.00     0.040 A 
ATOM     85  C   UNL A   1      46.264  28.809  35.491  1.00  0.00     0.040 A 
ATOM     86  F   UNL A   1      45.376  30.365  33.976  1.00  0.00    -0.206 F 
ATOM     87  C   UNL A   1      46.082  27.798  36.434  1.00  0.00     0.006 A 
ENDBRANCH  63  80
ENDBRANCH  37  38
ENDBRANCH  29  32
ENDBRANCH  27  28
ENDBRANCH  26  27
ENDBRANCH  25  26
ENDBRANCH   1  25
TORSDOF 15
ENDMDL
MODEL 2
REMARK VINA RESULT:     -11.7      1.149      6.368
REMARK SMILES COc1ncccc1NS(=O)(=O)c1ccc(C(=O)NCCCCNC(=O)c2ccc(-c3c4nc(c(-c5c(F)cccc5F)c5ccc([nH]5)c(-c5c(F)cccc5F)c5nc(c(-c6c(F)cccc6F)c6ccc3[nH]6)C=C5)C=C4)cc2)cc1
REMARK SMILES IDX 20 1 19 2 17 3 18 4 16 6 13 7 14 8 82 9 15 10 81 11 10 12
REMARK SMILES IDX 11 13 12 14 9 15 8 17 3 18 4 19 5 20 7 21 6 22 2 23 1 24
REMARK SMILES IDX 21 25 22 26 23 27 24 28 25 29 26 31 27 32 28 33 80 34 29 35
REMARK SMILES IDX 79 36 30 37 31 38 32 39 73 40 33 41 78 42 72 43 74 44 34 45
REMARK SMILES IDX 77 46 71 47 70 48 35 50 61 51 44 52 60 53 45 54 48 55 59 56
REMARK SMILES IDX 75 57 46 58 47 59 58 61 76 62 49 63 36 64 37 65 42 66 38 67
REMARK SMILES IDX 39 68 41 69 43 70 40 71 62 72 63 73 68 74 64 75 65 76 67 77
REMARK SMILES IDX 69 78 66 79 50 80 51 81 56 82 52 83 53 84 55 85 57 86 54 87
REMARK H PARENT 19 5 9 16 24 30 74 49 48 60
REMARK Flexibility Score: inf
ROOT
ATOM      1  C   UNL A   1      31.781  29.743  27.238  1.00  0.00     0.116 C 
ENDROOT
BRANCH   1   2
ATOM      2  N   UNL A   1      33.177  29.499  27.547  1.00  0.00    -0.352 N 
ATOM      3  C   UNL A   1      34.089  28.685  26.925  1.00  0.00     0.251 C 
ATOM      4  O   UNL A   1      35.271  28.762  27.251  1.00  0.00    -0.269 OA
ATOM      5  H   UNL A   1      33.523  29.996  28.323  1.00  0.00     0.163 HD
BRANCH   3   6
ATOM      6  C   UNL A   1      33.690  27.741  25.852  1.00  0.00     0.039 A 
ATOM      7  C   UNL A   1      33.189  25.952  23.767  1.00  0.00     0.087 A 
ATOM      8  C   UNL A   1      33.680  27.228  23.476  1.00  0.00     0.023 A 
ATOM      9  C   UNL A   1      32.876  25.590  25.083  1.00  0.00     0.023 A 
ATOM     10  C   UNL A   1      33.947  28.113  24.524  1.00  0.00     0.015 A 
ATOM     11  C   UNL A   1      33.160  26.474  26.126  1.00  0.00     0.015 A 
BRANCH   7  12
ATOM     12  S   UNL A   1      32.994  24.773  22.459  1.00  0.00     0.262 S 
ATOM     13  O   UNL A   1      33.278  25.466  21.220  1.00  0.00    -0.201 OA
ATOM     14  O   UNL A   1      31.718  24.112  22.653  1.00  0.00    -0.201 OA
BRANCH  12  15
ATOM     15  N   UNL A   1      34.117  23.519  22.622  1.00  0.00    -0.274 N 
ATOM     16  H   UNL A   1      34.526  23.153  21.805  1.00  0.00     0.180 HD
BRANCH  15  17
ATOM     17  C   UNL A   1      34.505  22.961  23.882  1.00  0.00     0.111 A 
ATOM     18  C   UNL A   1      33.936  21.804  24.428  1.00  0.00     0.238 A 
ATOM     19  N   UNL A   1      34.401  21.163  25.522  1.00  0.00    -0.220 NA
ATOM     20  C   UNL A   1      35.518  21.670  26.084  1.00  0.00     0.115 A 
ATOM     21  C   UNL A   1      35.685  23.419  24.461  1.00  0.00     0.034 A 
ATOM     22  C   UNL A   1      36.196  22.775  25.588  1.00  0.00     0.023 A 
BRANCH  18  23
ATOM     23  O   UNL A   1      32.785  21.304  23.880  1.00  0.00    -0.480 OA
ATOM     24  C   UNL A   1      32.569  19.960  24.270  1.00  0.00     0.280 C 
ENDBRANCH  18  23
ENDBRANCH  15  17
ENDBRANCH  12  15
ENDBRANCH   7  12
ENDBRANCH   3   6
ENDBRANCH   1   2
BRANCH   1  25
ATOM     25  C   UNL A   1      31.637  30.742  26.090  1.00  0.00     0.023 C 
BRANCH  25  26
ATOM     26  C   UNL A   1      31.379  32.186  26.533  1.00  0.00     0.023 C 
BRANCH  26  27
ATOM     27  C   UNL A   1      32.546  32.862  27.248  1.00  0.00     0.116 C 
BRANCH  27  28
ATOM     28  N   UNL A   1      32.274  34.241  27.624  1.00  0.00    -0.352 N 
ATOM     29  C   UNL A   1      32.934  35.016  28.545  1.00  0.00     0.251 C 
ATOM     30  H   UNL A   1      31.521  34.673  27.159  1.00  0.00     0.163 HD
ATOM     31  O   UNL A   1      32.527  36.139  28.825  1.00  0.00    -0.269 OA
BRANCH  29  32
ATOM     32  C   UNL A   1      34.118  34.464  29.232  1.00  0.00     0.039 A 
ATOM     33  C   UNL A   1      33.939  33.805  30.450  1.00  0.00     0.014 A 
ATOM     34  C   UNL A   1      35.388  34.567  28.658  1.00  0.00     0.014 A 
ATOM     35  C   UNL A   1      35.030  33.185  31.063  1.00  0.00     0.010 A 
ATOM     36  C   UNL A   1      36.461  33.900  29.240  1.00  0.00     0.010 A 
ATOM     37  C   UNL A   1      36.290  33.198  30.444  1.00  0.00    -0.014 A 
BRANCH  37  38
ATOM     38  C   UNL A   1      37.442  32.480  31.037  1.00  0.00     0.031 A 
ATOM     39  C   UNL A   1      38.057  32.970  32.316  1.00  0.00     0.074 A 
ATOM     40  C   UNL A   1      37.974  31.427  30.386  1.00  0.00     0.049 A 
ATOM     41  N   UNL A   1      39.113  32.525  32.948  1.00  0.00    -0.248 NA
ATOM     42  C   UNL A   1      37.416  34.129  32.956  1.00  0.00     0.031 C 
ATOM     43  C   UNL A   1      37.497  30.888  29.111  1.00  0.00     0.029 A 
ATOM     44  N   UNL A   1      39.046  30.631  30.702  1.00  0.00    -0.354 N 
ATOM     45  C   UNL A   1      39.271  33.358  34.048  1.00  0.00     0.074 A 
ATOM     46  C   UNL A   1      38.231  34.362  33.975  1.00  0.00     0.031 C 
ATOM     47  C   UNL A   1      38.260  29.839  28.764  1.00  0.00     0.029 A 
ATOM     48  C   UNL A   1      39.298  29.652  29.772  1.00  0.00     0.049 A 
ATOM     49  H   UNL A   1      39.583  30.750  31.519  1.00  0.00     0.167 HD
ATOM     50  C   UNL A   1      40.188  33.280  35.041  1.00  0.00     0.037 A 
ATOM     51  C   UNL A   1      40.262  28.713  29.737  1.00  0.00     0.037 A 
ATOM     52  C   UNL A   1      41.202  32.264  35.129  1.00  0.00     0.049 A 
ATOM     53  C   UNL A   1      41.259  28.641  30.860  1.00  0.00     0.074 A 
ATOM     54  C   UNL A   1      42.143  32.068  36.126  1.00  0.00     0.029 A 
ATOM     55  N   UNL A   1      41.404  31.269  34.185  1.00  0.00    -0.354 N 
ATOM     56  N   UNL A   1      41.360  29.398  31.924  1.00  0.00    -0.248 NA
ATOM     57  C   UNL A   1      42.271  27.578  30.778  1.00  0.00     0.031 C 
ATOM     58  C   UNL A   1      42.933  30.969  35.769  1.00  0.00     0.029 A 
ATOM     59  C   UNL A   1      42.462  30.462  34.569  1.00  0.00     0.049 A 
ATOM     60  H   UNL A   1      40.875  31.155  33.362  1.00  0.00     0.167 HD
ATOM     61  C   UNL A   1      42.426  28.890  32.652  1.00  0.00     0.074 A 
ATOM     62  C   UNL A   1      42.933  27.750  31.914  1.00  0.00     0.031 C 
ATOM     63  C   UNL A   1      42.942  29.326  33.827  1.00  0.00     0.037 A 
BRANCH  50  64
ATOM     64  C   UNL A   1      40.124  34.318  36.122  1.00  0.00     0.057 A 
ATOM     65  C   UNL A   1      39.343  34.136  37.271  1.00  0.00     0.134 A 
ATOM     66  C   UNL A   1      40.877  35.495  36.030  1.00  0.00     0.134 A 
ATOM     67  F   UNL A   1      38.588  33.036  37.411  1.00  0.00    -0.206 F 
ATOM     68  C   UNL A   1      39.296  35.098  38.281  1.00  0.00     0.040 A 
ATOM     69  C   UNL A   1      40.857  36.453  37.046  1.00  0.00     0.040 A 
ATOM     70  F   UNL A   1      41.649  35.729  34.958  1.00  0.00    -0.206 F 
ATOM     71  C   UNL A   1      40.060  36.258  38.172  1.00  0.00     0.006 A 
ENDBRANCH  50  64
BRANCH  51  72
ATOM     72  C   UNL A   1      40.319  27.747  28.612  1.00  0.00     0.057 A 
ATOM     73  C   UNL A   1      39.635  26.528  28.676  1.00  0.00     0.134 A 
ATOM     74  C   UNL A   1      41.067  28.010  27.459  1.00  0.00     0.134 A 
ATOM     75  F   UNL A   1      38.916  26.214  29.764  1.00  0.00    -0.206 F 
ATOM     76  C   UNL A   1      39.708  25.594  27.641  1.00  0.00     0.040 A 
ATOM     77  C   UNL A   1      41.131  27.094  26.407  1.00  0.00     0.040 A 
ATOM     78  F   UNL A   1      41.740  29.164  27.335  1.00  0.00    -0.206 F 
ATOM     79  C   UNL A   1      40.456  25.879  26.501  1.00  0.00     0.006 A 
ENDBRANCH  51  72
BRANCH  63  80
ATOM     80  C   UNL A   1      44.088  28.550  34.402  1.00  0.00     0.057 A 
ATOM     81  C   UNL A   1      45.418  28.910  34.158  1.00  0.00     0.134 A 
ATOM     82  C   UNL A   1      43.855  27.452  35.239  1.00  0.00     0.134 A 
ATOM     83  F   UNL A   1      45.706  29.944  33.353  1.00  0.00    -0.206 F 
ATOM     84  C   UNL A   1      46.479  28.194  34.714  1.00  0.00     0.040 A 
ATOM     85  C   UNL A   1      44.906  26.742  35.818  1.00  0.00     0.040 A 
ATOM     86  F   UNL A   1      42.602  27.060  35.516  1.00  0.00    -0.206 F 
ATOM     87  C   UNL A   1      46.224  27.111  35.552  1.00  0.00     0.006 A 
ENDBRANCH  63  80
ENDBRANCH  37  38
ENDBRANCH  29  32
ENDBRANCH  27  28
ENDBRANCH  26  27
ENDBRANCH  25  26
ENDBRANCH   1  25
TORSDOF 15
ENDMDL
MODEL 3
REMARK VINA RESULT:     -11.6      1.570      2.677
REMARK SMILES COc1ncccc1NS(=O)(=O)c1ccc(C(=O)NCCCCNC(=O)c2ccc(-c3c4nc(c(-c5c(F)cccc5F)c5ccc([nH]5)c(-c5c(F)cccc5F)c5nc(c(-c6c(F)cccc6F)c6ccc3[nH]6)C=C5)C=C4)cc2)cc1
REMARK SMILES IDX 20 1 19 2 17 3 18 4 16 6 13 7 14 8 82 9 15 10 81 11 10 12
REMARK SMILES IDX 11 13 12 14 9 15 8 17 3 18 4 19 5 20 7 21 6 22 2 23 1 24
REMARK SMILES IDX 21 25 22 26 23 27 24 28 25 29 26 31 27 32 28 33 80 34 29 35
REMARK SMILES IDX 79 36 30 37 31 38 32 39 73 40 33 41 78 42 72 43 74 44 34 45
REMARK SMILES IDX 77 46 71 47 70 48 35 50 61 51 44 52 60 53 45 54 48 55 59 56
REMARK SMILES IDX 75 57 46 58 47 59 58 61 76 62 49 63 36 64 37 65 42 66 38 67
REMARK SMILES IDX 39 68 41 69 43 70 40 71 62 72 63 73 68 74 64 75 65 76 67 77
REMARK SMILES IDX 69 78 66 79 50 80 51 81 56 82 52 83 53 84 55 85 57 86 54 87
REMARK H PARENT 19 5 9 16 24 30 74 49 48 60
REMARK Flexibility Score: inf
ROOT
ATOM      1  C   UNL A   1      32.797  29.874  25.986  1.00  0.00     0.116 C 
ENDROOT
BRANCH   1   2
ATOM      2  N   UNL A   1      32.323  29.568  24.650  1.00  0.00    -0.352 N 
ATOM      3  C   UNL A   1      31.760  28.420  24.155  1.00  0.00     0.251 C 
ATOM      4  O   UNL A   1      31.271  28.437  23.028  1.00  0.00    -0.269 OA
ATOM      5  H   UNL A   1      32.422  30.298  23.997  1.00  0.00     0.163 HD
BRANCH   3   6
ATOM      6  C   UNL A   1      31.698  27.171  24.956  1.00  0.00     0.039 A 
ATOM      7  C   UNL A   1      31.474  24.710  26.256  1.00  0.00     0.087 A 
ATOM      8  C   UNL A   1      30.317  25.396  25.877  1.00  0.00     0.023 A 
ATOM      9  C   UNL A   1      32.738  25.279  26.058  1.00  0.00     0.023 A 
ATOM     10  C   UNL A   1      30.434  26.618  25.209  1.00  0.00     0.015 A 
ATOM     11  C   UNL A   1      32.849  26.493  25.377  1.00  0.00     0.015 A 
BRANCH   7  12
ATOM     12  S   UNL A   1      31.337  23.091  26.962  1.00  0.00     0.262 S 
ATOM     13  O   UNL A   1      29.962  22.931  27.386  1.00  0.00    -0.201 OA
ATOM     14  O   UNL A   1      32.420  22.937  27.915  1.00  0.00    -0.201 OA
BRANCH  12  15
ATOM     15  N   UNL A   1      31.663  21.909  25.798  1.00  0.00    -0.274 N 
ATOM     16  H   UNL A   1      30.920  21.598  25.232  1.00  0.00     0.180 HD
BRANCH  15  17
ATOM     17  C   UNL A   1      32.959  21.336  25.591  1.00  0.00     0.111 A 
ATOM     18  C   UNL A   1      33.169  20.003  25.220  1.00  0.00     0.238 A 
ATOM     19  N   UNL A   1      34.361  19.488  24.851  1.00  0.00    -0.220 NA
ATOM     20  C   UNL A   1      35.398  20.351  24.804  1.00  0.00     0.115 A 
ATOM     21  C   UNL A   1      34.043  22.203  25.478  1.00  0.00     0.034 A 
ATOM     22  C   UNL A   1      35.287  21.704  25.091  1.00  0.00     0.023 A 
BRANCH  18  23
ATOM     23  O   UNL A   1      32.128  19.117  25.296  1.00  0.00    -0.480 OA
ATOM     24  C   UNL A   1      32.562  17.849  25.754  1.00  0.00     0.280 C 
ENDBRANCH  18  23
ENDBRANCH  15  17
ENDBRANCH  12  15
ENDBRANCH   7  12
ENDBRANCH   3   6
ENDBRANCH   1   2
BRANCH   1  25
ATOM     25  C   UNL A   1      31.684  30.482  26.840  1.00  0.00     0.023 C 
BRANCH  25  26
ATOM     26  C   UNL A   1      31.552  32.003  26.723  1.00  0.00     0.023 C 
BRANCH  26  27
ATOM     27  C   UNL A   1      32.709  32.802  27.318  1.00  0.00     0.116 C 
BRANCH  27  28
ATOM     28  N   UNL A   1      32.362  34.179  27.629  1.00  0.00    -0.352 N 
ATOM     29  C   UNL A   1      32.962  35.023  28.532  1.00  0.00     0.251 C 
ATOM     30  H   UNL A   1      31.602  34.555  27.129  1.00  0.00     0.163 HD
ATOM     31  O   UNL A   1      32.494  36.135  28.755  1.00  0.00    -0.269 OA
BRANCH  29  32
ATOM     32  C   UNL A   1      34.153  34.558  29.269  1.00  0.00     0.039 A 
ATOM     33  C   UNL A   1      33.975  33.944  30.511  1.00  0.00     0.014 A 
ATOM     34  C   UNL A   1      35.430  34.695  28.719  1.00  0.00     0.014 A 
ATOM     35  C   UNL A   1      35.078  33.403  31.174  1.00  0.00     0.010 A 
ATOM     36  C   UNL A   1      36.519  34.105  29.353  1.00  0.00     0.010 A 
ATOM     37  C   UNL A   1      36.351  33.449  30.583  1.00  0.00    -0.014 A 
BRANCH  37  38
ATOM     38  C   UNL A   1      37.520  32.812  31.233  1.00  0.00     0.031 A 
ATOM     39  C   UNL A   1      38.172  31.615  30.603  1.00  0.00     0.074 A 
ATOM     40  C   UNL A   1      37.950  33.272  32.424  1.00  0.00     0.049 A 
ATOM     41  N   UNL A   1      39.152  30.875  31.055  1.00  0.00    -0.248 NA
ATOM     42  C   UNL A   1      37.634  31.176  29.306  1.00  0.00     0.031 C 
ATOM     43  C   UNL A   1      37.367  34.397  33.159  1.00  0.00     0.029 A 
ATOM     44  N   UNL A   1      38.970  32.840  33.233  1.00  0.00    -0.354 N 
ATOM     45  C   UNL A   1      39.336  29.876  30.108  1.00  0.00     0.074 A 
ATOM     46  C   UNL A   1      38.340  30.077  29.079  1.00  0.00     0.031 C 
ATOM     47  C   UNL A   1      38.050  34.576  34.302  1.00  0.00     0.029 A 
ATOM     48  C   UNL A   1      39.096  33.563  34.394  1.00  0.00     0.049 A 
ATOM     49  H   UNL A   1      39.556  32.083  33.002  1.00  0.00     0.167 HD
ATOM     50  C   UNL A   1      40.267  28.893  30.089  1.00  0.00     0.037 A 
ATOM     51  C   UNL A   1      39.957  33.419  35.419  1.00  0.00     0.037 A 
ATOM     52  C   UNL A   1      41.277  28.713  31.098  1.00  0.00     0.049 A 
ATOM     53  C   UNL A   1      40.989  32.328  35.365  1.00  0.00     0.074 A 
ATOM     54  C   UNL A   1      42.299  27.780  31.139  1.00  0.00     0.029 A 
ATOM     55  N   UNL A   1      41.393  29.487  32.242  1.00  0.00    -0.354 N 
ATOM     56  N   UNL A   1      41.190  31.427  34.434  1.00  0.00    -0.248 NA
ATOM     57  C   UNL A   1      41.917  32.238  36.501  1.00  0.00     0.031 C 
ATOM     58  C   UNL A   1      43.017  27.973  32.325  1.00  0.00     0.029 A 
ATOM     59  C   UNL A   1      42.463  29.046  33.002  1.00  0.00     0.049 A 
ATOM     60  H   UNL A   1      40.802  30.238  32.479  1.00  0.00     0.167 HD
ATOM     61  C   UNL A   1      42.281  30.682  34.857  1.00  0.00     0.074 A 
ATOM     62  C   UNL A   1      42.708  31.243  36.123  1.00  0.00     0.031 C 
ATOM     63  C   UNL A   1      42.878  29.626  34.253  1.00  0.00     0.037 A 
BRANCH  50  64
ATOM     64  C   UNL A   1      40.244  27.944  28.928  1.00  0.00     0.057 A 
ATOM     65  C   UNL A   1      40.947  28.210  27.746  1.00  0.00     0.134 A 
ATOM     66  C   UNL A   1      39.539  26.737  29.004  1.00  0.00     0.134 A 
ATOM     67  F   UNL A   1      41.630  29.357  27.606  1.00  0.00    -0.206 F 
ATOM     68  C   UNL A   1      40.934  27.319  26.673  1.00  0.00     0.040 A 
ATOM     69  C   UNL A   1      39.539  25.826  27.946  1.00  0.00     0.040 A 
ATOM     70  F   UNL A   1      38.847  26.419  30.109  1.00  0.00    -0.206 F 
ATOM     71  C   UNL A   1      40.233  26.119  26.774  1.00  0.00     0.006 A 
ENDBRANCH  50  64
BRANCH  51  72
ATOM     72  C   UNL A   1      39.899  34.348  36.576  1.00  0.00     0.057 A 
ATOM     73  C   UNL A   1      39.169  34.022  37.724  1.00  0.00     0.134 A 
ATOM     74  C   UNL A   1      40.556  35.583  36.555  1.00  0.00     0.134 A 
ATOM     75  F   UNL A   1      38.504  32.859  37.793  1.00  0.00    -0.206 F 
ATOM     76  C   UNL A   1      39.077  34.900  38.805  1.00  0.00     0.040 A 
ATOM     77  C   UNL A   1      40.491  36.462  37.638  1.00  0.00     0.040 A 
ATOM     78  F   UNL A   1      41.278  35.950  35.486  1.00  0.00    -0.206 F 
ATOM     79  C   UNL A   1      39.743  36.124  38.764  1.00  0.00     0.006 A 
ENDBRANCH  51  72
BRANCH  63  80
ATOM     80  C   UNL A   1      44.075  29.034  34.934  1.00  0.00     0.057 A 
ATOM     81  C   UNL A   1      43.955  27.989  35.857  1.00  0.00     0.134 A 
ATOM     82  C   UNL A   1      45.364  29.492  34.634  1.00  0.00     0.134 A 
ATOM     83  F   UNL A   1      42.746  27.518  36.197  1.00  0.00    -0.206 F 
ATOM     84  C   UNL A   1      45.076  27.430  36.472  1.00  0.00     0.040 A 
ATOM     85  C   UNL A   1      46.493  28.926  35.224  1.00  0.00     0.040 A 
ATOM     86  F   UNL A   1      45.546  30.487  33.752  1.00  0.00    -0.206 F 
ATOM     87  C   UNL A   1      46.350  27.894  36.151  1.00  0.00     0.006 A 
ENDBRANCH  63  80
ENDBRANCH  37  38
ENDBRANCH  29  32
ENDBRANCH  27  28
ENDBRANCH  26  27
ENDBRANCH  25  26
ENDBRANCH   1  25
TORSDOF 15
ENDMDL
