MODEL 1
REMARK VINA RESULT:     -12.9      0.000      0.000
REMARK SMILES C[C@@H](C(=O)NCCCCNC(=O)c1ccc(-c2c3nc(c(-c4c(F)cccc4F)c4ccc([nH]4)c(-c4c(F)cccc4F)c4nc(c(-c5c(F)cccc5F)c5ccc2[nH]5)C=C4)C=C3)cc1)[N@@H+]1CCc2n[nH]c(C(c3ccccc3)c3ccccc3)c2C1
REMARK SMILES IDX 7 1 6 2 5 3 3 4 4 5 2 7 1 8 67 9 68 10 88 11 69 13 87 14
REMARK SMILES IDX 70 15 73 16 71 17 72 18 74 20 75 21 76 22 80 23 77 24 79 25
REMARK SMILES IDX 78 26 81 27 82 28 86 29 83 30 85 31 84 32 8 33 9 34 10 35
REMARK SMILES IDX 11 36 12 38 13 39 14 40 66 41 15 42 65 43 16 44 17 45 18 46
REMARK SMILES IDX 59 47 19 48 64 49 58 50 60 51 20 52 63 53 57 54 56 55 21 57
REMARK SMILES IDX 47 58 30 59 46 60 31 61 34 62 45 63 61 64 32 65 33 66 44 68
REMARK SMILES IDX 62 69 35 70 22 71 23 72 28 73 24 74 25 75 27 76 29 77 26 78
REMARK SMILES IDX 48 79 49 80 54 81 50 82 51 83 53 84 55 85 52 86 36 87 37 88
REMARK SMILES IDX 42 89 38 90 39 91 41 92 43 93 40 94
REMARK H PARENT 5 6 67 12 72 19 10 37 60 56 34 67
REMARK Flexibility Score: inf
ROOT
ATOM      1  C   UNL A   1      33.272  28.913  24.491  1.00  0.00     0.023 C 
ENDROOT
BRANCH   1   2
ATOM      2  C   UNL A   1      33.938  28.898  23.122  1.00  0.00     0.116 C 
BRANCH   2   3
ATOM      3  N   UNL A   1      33.228  28.093  22.149  1.00  0.00    -0.351 N 
ATOM      4  C   UNL A   1      32.121  27.327  22.449  1.00  0.00     0.278 C 
ATOM      5  O   UNL A   1      31.033  27.727  22.024  1.00  0.00    -0.268 OA
ATOM      6  H   UNL A   1      33.555  28.093  21.220  1.00  0.00     0.163 HD
BRANCH   4   7
ATOM      7  C   UNL A   1      32.310  25.862  22.982  1.00  0.00     0.271 C 
ATOM      8  C   UNL A   1      32.736  24.833  21.937  1.00  0.00     0.086 C 
BRANCH   7   9
ATOM      9  N   UNL A   1      31.130  25.481  23.814  1.00  0.00    -0.321 N 
ATOM     10  C   UNL A   1      31.052  26.067  25.190  1.00  0.00     0.269 C 
ATOM     11  C   UNL A   1      30.825  24.050  23.771  1.00  0.00     0.303 C 
ATOM     12  H   UNL A   1      30.366  25.959  23.335  1.00  0.00     0.349 HD
ATOM     13  C   UNL A   1      30.350  25.193  26.298  1.00  0.00     0.120 C 
ATOM     14  C   UNL A   1      31.429  23.379  24.953  1.00  0.00     0.052 A 
ATOM     15  C   UNL A   1      30.796  23.785  26.147  1.00  0.00     0.077 A 
ATOM     16  C   UNL A   1      31.839  22.100  25.273  1.00  0.00     0.056 A 
ATOM     17  N   UNL A   1      30.271  22.722  26.767  1.00  0.00    -0.180 NA
ATOM     18  N   UNL A   1      30.759  21.696  26.031  1.00  0.00    -0.281 N 
ATOM     19  H   UNL A   1      30.391  20.784  26.036  1.00  0.00     0.190 HD
BRANCH  16  20
ATOM     20  C   UNL A   1      33.167  21.350  25.326  1.00  0.00     0.098 C 
BRANCH  20  21
ATOM     21  C   UNL A   1      33.280  20.074  24.458  1.00  0.00    -0.035 A 
ATOM     22  C   UNL A   1      32.337  19.856  23.428  1.00  0.00     0.005 A 
ATOM     23  C   UNL A   1      34.167  19.024  24.749  1.00  0.00     0.005 A 
ATOM     24  C   UNL A   1      32.279  18.649  22.725  1.00  0.00     0.000 A 
ATOM     25  C   UNL A   1      34.095  17.806  24.057  1.00  0.00     0.000 A 
ATOM     26  C   UNL A   1      33.150  17.617  23.050  1.00  0.00     0.000 A 
ENDBRANCH  20  21
BRANCH  20  27
ATOM     27  C   UNL A   1      34.345  22.315  25.108  1.00  0.00    -0.035 A 
ATOM     28  C   UNL A   1      35.015  22.947  26.170  1.00  0.00     0.005 A 
ATOM     29  C   UNL A   1      34.864  22.463  23.808  1.00  0.00     0.005 A 
ATOM     30  C   UNL A   1      36.183  23.672  25.946  1.00  0.00     0.000 A 
ATOM     31  C   UNL A   1      36.050  23.160  23.592  1.00  0.00     0.000 A 
ATOM     32  C   UNL A   1      36.711  23.760  24.661  1.00  0.00     0.000 A 
ENDBRANCH  20  27
ENDBRANCH  16  20
ENDBRANCH   7   9
ENDBRANCH   4   7
ENDBRANCH   2   3
ENDBRANCH   1   2
BRANCH   1  33
ATOM     33  C   UNL A   1      34.061  28.244  25.618  1.00  0.00     0.023 C 
BRANCH  33  34
ATOM     34  C   UNL A   1      33.567  28.440  27.039  1.00  0.00     0.116 C 
BRANCH  34  35
ATOM     35  N   UNL A   1      33.558  29.831  27.449  1.00  0.00    -0.352 N 
ATOM     36  C   UNL A   1      34.509  30.593  28.078  1.00  0.00     0.251 C 
ATOM     37  H   UNL A   1      32.725  30.313  27.239  1.00  0.00     0.163 HD
ATOM     38  O   UNL A   1      34.202  31.726  28.465  1.00  0.00    -0.269 OA
BRANCH  36  39
ATOM     39  C   UNL A   1      35.878  30.087  28.332  1.00  0.00     0.039 A 
ATOM     40  C   UNL A   1      36.834  30.199  27.316  1.00  0.00     0.014 A 
ATOM     41  C   UNL A   1      36.228  29.470  29.534  1.00  0.00     0.014 A 
ATOM     42  C   UNL A   1      38.144  29.759  27.532  1.00  0.00     0.010 A 
ATOM     43  C   UNL A   1      37.555  29.131  29.787  1.00  0.00     0.010 A 
ATOM     44  C   UNL A   1      38.527  29.259  28.785  1.00  0.00    -0.014 A 
BRANCH  44  45
ATOM     45  C   UNL A   1      39.928  28.845  29.065  1.00  0.00     0.031 A 
ATOM     46  C   UNL A   1      40.885  29.809  29.715  1.00  0.00     0.074 A 
ATOM     47  C   UNL A   1      40.360  27.631  28.668  1.00  0.00     0.049 A 
ATOM     48  N   UNL A   1      42.166  29.676  29.947  1.00  0.00    -0.248 NA
ATOM     49  C   UNL A   1      40.335  31.111  30.130  1.00  0.00     0.031 C 
ATOM     50  C   UNL A   1      39.546  26.622  27.987  1.00  0.00     0.029 A 
ATOM     51  N   UNL A   1      41.598  27.045  28.767  1.00  0.00    -0.354 N 
ATOM     52  C   UNL A   1      42.577  30.879  30.509  1.00  0.00     0.074 A 
ATOM     53  C   UNL A   1      41.423  31.750  30.534  1.00  0.00     0.031 C 
ATOM     54  C   UNL A   1      40.299  25.536  27.750  1.00  0.00     0.029 A 
ATOM     55  C   UNL A   1      41.659  25.788  28.216  1.00  0.00     0.049 A 
ATOM     56  H   UNL A   1      42.370  27.485  29.194  1.00  0.00     0.167 HD
ATOM     57  C   UNL A   1      43.799  31.219  30.983  1.00  0.00     0.037 A 
ATOM     58  C   UNL A   1      42.697  24.940  28.084  1.00  0.00     0.037 A 
ATOM     59  C   UNL A   1      44.936  30.336  30.989  1.00  0.00     0.049 A 
ATOM     60  C   UNL A   1      44.047  25.346  28.609  1.00  0.00     0.074 A 
ATOM     61  C   UNL A   1      46.195  30.559  31.517  1.00  0.00     0.029 A 
ATOM     62  N   UNL A   1      44.950  29.064  30.438  1.00  0.00    -0.354 N 
ATOM     63  N   UNL A   1      44.402  26.457  29.207  1.00  0.00    -0.248 NA
ATOM     64  C   UNL A   1      45.143  24.381  28.440  1.00  0.00     0.031 C 
ATOM     65  C   UNL A   1      46.989  29.444  31.233  1.00  0.00     0.029 A 
ATOM     66  C   UNL A   1      46.208  28.504  30.581  1.00  0.00     0.049 A 
ATOM     67  H   UNL A   1      44.181  28.625  30.007  1.00  0.00     0.167 HD
ATOM     68  C   UNL A   1      45.750  26.315  29.509  1.00  0.00     0.074 A 
ATOM     69  C   UNL A   1      46.147  25.003  29.042  1.00  0.00     0.031 C 
ATOM     70  C   UNL A   1      46.586  27.192  30.117  1.00  0.00     0.037 A 
BRANCH  57  71
ATOM     71  C   UNL A   1      43.975  32.605  31.533  1.00  0.00     0.057 A 
ATOM     72  C   UNL A   1      43.741  32.906  32.881  1.00  0.00     0.134 A 
ATOM     73  C   UNL A   1      44.428  33.646  30.711  1.00  0.00     0.134 A 
ATOM     74  F   UNL A   1      43.296  31.959  33.721  1.00  0.00    -0.206 F 
ATOM     75  C   UNL A   1      43.926  34.194  33.386  1.00  0.00     0.040 A 
ATOM     76  C   UNL A   1      44.645  34.932  31.211  1.00  0.00     0.040 A 
ATOM     77  F   UNL A   1      44.679  33.429  29.411  1.00  0.00    -0.206 F 
ATOM     78  C   UNL A   1      44.387  35.210  32.551  1.00  0.00     0.006 A 
ENDBRANCH  57  71
BRANCH  58  79
ATOM     79  C   UNL A   1      42.504  23.620  27.428  1.00  0.00     0.057 A 
ATOM     80  C   UNL A   1      42.178  22.481  28.174  1.00  0.00     0.134 A 
ATOM     81  C   UNL A   1      42.655  23.460  26.044  1.00  0.00     0.134 A 
ATOM     82  F   UNL A   1      42.038  22.565  29.505  1.00  0.00    -0.206 F 
ATOM     83  C   UNL A   1      42.032  21.229  27.575  1.00  0.00     0.040 A 
ATOM     84  C   UNL A   1      42.484  22.219  25.428  1.00  0.00     0.040 A 
ATOM     85  F   UNL A   1      42.960  24.511  25.269  1.00  0.00    -0.206 F 
ATOM     86  C   UNL A   1      42.180  21.097  26.196  1.00  0.00     0.006 A 
ENDBRANCH  58  79
BRANCH  70  87
ATOM     87  C   UNL A   1      48.004  26.756  30.340  1.00  0.00     0.057 A 
ATOM     88  C   UNL A   1      49.021  27.052  29.425  1.00  0.00     0.134 A 
ATOM     89  C   UNL A   1      48.366  26.084  31.515  1.00  0.00     0.134 A 
ATOM     90  F   UNL A   1      48.739  27.681  28.275  1.00  0.00    -0.206 F 
ATOM     91  C   UNL A   1      50.345  26.678  29.662  1.00  0.00     0.040 A 
ATOM     92  C   UNL A   1      49.689  25.732  31.777  1.00  0.00     0.040 A 
ATOM     93  F   UNL A   1      47.440  25.779  32.438  1.00  0.00    -0.206 F 
ATOM     94  C   UNL A   1      50.684  26.025  30.846  1.00  0.00     0.006 A 
ENDBRANCH  70  87
ENDBRANCH  44  45
ENDBRANCH  36  39
ENDBRANCH  34  35
ENDBRANCH  33  34
ENDBRANCH   1  33
TORSDOF 15
ENDMDL
MODEL 2
REMARK VINA RESULT:     -12.6      1.606      2.403
REMARK SMILES C[C@@H](C(=O)NCCCCNC(=O)c1ccc(-c2c3nc(c(-c4c(F)cccc4F)c4ccc([nH]4)c(-c4c(F)cccc4F)c4nc(c(-c5c(F)cccc5F)c5ccc2[nH]5)C=C4)C=C3)cc1)[N@@H+]1CCc2n[nH]c(C(c3ccccc3)c3ccccc3)c2C1
REMARK SMILES IDX 7 1 6 2 5 3 3 4 4 5 2 7 1 8 67 9 68 10 88 11 69 13 87 14
REMARK SMILES IDX 70 15 73 16 71 17 72 18 74 20 75 21 76 22 80 23 77 24 79 25
REMARK SMILES IDX 78 26 81 27 82 28 86 29 83 30 85 31 84 32 8 33 9 34 10 35
REMARK SMILES IDX 11 36 12 38 13 39 14 40 66 41 15 42 65 43 16 44 17 45 18 46
REMARK SMILES IDX 59 47 19 48 64 49 58 50 60 51 20 52 63 53 57 54 56 55 21 57
REMARK SMILES IDX 47 58 30 59 46 60 31 61 34 62 45 63 61 64 32 65 33 66 44 68
REMARK SMILES IDX 62 69 35 70 22 71 23 72 28 73 24 74 25 75 27 76 29 77 26 78
REMARK SMILES IDX 48 79 49 80 54 81 50 82 51 83 53 84 55 85 52 86 36 87 37 88
REMARK SMILES IDX 42 89 38 90 39 91 41 92 43 93 40 94
REMARK H PARENT 5 6 67 12 72 19 10 37 60 56 34 67
REMARK Flexibility Score: inf
ROOT
ATOM      1  C   UNL A   1      33.259  28.868  24.193  1.00  0.00     0.023 C 
ENDROOT
BRANCH   1   2
ATOM      2  C   UNL A   1      34.032  28.653  22.898  1.00  0.00     0.116 C 
BRANCH   2   3
ATOM      3  N   UNL A   1      33.313  27.854  21.928  1.00  0.00    -0.351 N 
ATOM      4  C   UNL A   1      32.191  27.109  22.229  1.00  0.00     0.278 C 
ATOM      5  O   UNL A   1      31.113  27.525  21.795  1.00  0.00    -0.268 OA
ATOM      6  H   UNL A   1      33.644  27.841  21.001  1.00  0.00     0.163 HD
BRANCH   4   7
ATOM      7  C   UNL A   1      32.351  25.645  22.773  1.00  0.00     0.271 C 
ATOM      8  C   UNL A   1      32.723  24.594  21.729  1.00  0.00     0.086 C 
BRANCH   7   9
ATOM      9  N   UNL A   1      31.182  25.307  23.638  1.00  0.00    -0.321 N 
ATOM     10  C   UNL A   1      31.124  25.958  24.986  1.00  0.00     0.269 C 
ATOM     11  C   UNL A   1      30.875  23.876  23.668  1.00  0.00     0.303 C 
ATOM     12  H   UNL A   1      30.412  25.763  23.147  1.00  0.00     0.349 HD
ATOM     13  C   UNL A   1      30.436  25.139  26.143  1.00  0.00     0.120 C 
ATOM     14  C   UNL A   1      31.493  23.261  24.872  1.00  0.00     0.052 A 
ATOM     15  C   UNL A   1      30.878  23.725  26.053  1.00  0.00     0.077 A 
ATOM     16  C   UNL A   1      31.907  21.998  25.248  1.00  0.00     0.056 A 
ATOM     17  N   UNL A   1      30.360  22.694  26.731  1.00  0.00    -0.180 NA
ATOM     18  N   UNL A   1      30.836  21.633  26.038  1.00  0.00    -0.281 N 
ATOM     19  H   UNL A   1      30.467  20.723  26.092  1.00  0.00     0.190 HD
BRANCH  16  20
ATOM     20  C   UNL A   1      33.234  21.249  25.318  1.00  0.00     0.098 C 
BRANCH  20  21
ATOM     21  C   UNL A   1      33.355  19.966  24.461  1.00  0.00    -0.035 A 
ATOM     22  C   UNL A   1      32.392  19.715  23.459  1.00  0.00     0.005 A 
ATOM     23  C   UNL A   1      34.274  18.940  24.741  1.00  0.00     0.005 A 
ATOM     24  C   UNL A   1      32.344  18.499  22.770  1.00  0.00     0.000 A 
ATOM     25  C   UNL A   1      34.213  17.713  24.064  1.00  0.00     0.000 A 
ATOM     26  C   UNL A   1      33.247  17.491  23.084  1.00  0.00     0.000 A 
ENDBRANCH  20  21
BRANCH  20  27
ATOM     27  C   UNL A   1      34.414  22.213  25.104  1.00  0.00    -0.035 A 
ATOM     28  C   UNL A   1      35.124  22.792  26.170  1.00  0.00     0.005 A 
ATOM     29  C   UNL A   1      34.892  22.412  23.795  1.00  0.00     0.005 A 
ATOM     30  C   UNL A   1      36.291  23.516  25.938  1.00  0.00     0.000 A 
ATOM     31  C   UNL A   1      36.077  23.108  23.570  1.00  0.00     0.000 A 
ATOM     32  C   UNL A   1      36.778  23.656  24.642  1.00  0.00     0.000 A 
ENDBRANCH  20  27
ENDBRANCH  16  20
ENDBRANCH   7   9
ENDBRANCH   4   7
ENDBRANCH   2   3
ENDBRANCH   1   2
BRANCH   1  33
ATOM     33  C   UNL A   1      33.907  28.291  25.453  1.00  0.00     0.023 C 
BRANCH  33  34
ATOM     34  C   UNL A   1      33.368  28.748  26.795  1.00  0.00     0.116 C 
BRANCH  34  35
ATOM     35  N   UNL A   1      33.498  30.178  27.002  1.00  0.00    -0.352 N 
ATOM     36  C   UNL A   1      34.453  30.912  27.657  1.00  0.00     0.251 C 
ATOM     37  H   UNL A   1      32.777  30.714  26.602  1.00  0.00     0.163 HD
ATOM     38  O   UNL A   1      34.258  32.120  27.831  1.00  0.00    -0.269 OA
BRANCH  36  39
ATOM     39  C   UNL A   1      35.692  30.295  28.186  1.00  0.00     0.039 A 
ATOM     40  C   UNL A   1      36.829  30.266  27.370  1.00  0.00     0.014 A 
ATOM     41  C   UNL A   1      35.745  29.710  29.452  1.00  0.00     0.014 A 
ATOM     42  C   UNL A   1      38.023  29.718  27.848  1.00  0.00     0.010 A 
ATOM     43  C   UNL A   1      36.959  29.263  29.966  1.00  0.00     0.010 A 
ATOM     44  C   UNL A   1      38.111  29.249  29.168  1.00  0.00    -0.014 A 
BRANCH  44  45
ATOM     45  C   UNL A   1      39.385  28.722  29.725  1.00  0.00     0.031 A 
ATOM     46  C   UNL A   1      40.022  29.390  30.915  1.00  0.00     0.074 A 
ATOM     47  C   UNL A   1      40.006  27.691  29.118  1.00  0.00     0.049 A 
ATOM     48  N   UNL A   1      41.177  29.147  31.481  1.00  0.00    -0.248 NA
ATOM     49  C   UNL A   1      39.278  30.502  31.529  1.00  0.00     0.031 C 
ATOM     50  C   UNL A   1      39.518  26.986  27.932  1.00  0.00     0.029 A 
ATOM     51  N   UNL A   1      41.194  27.065  29.408  1.00  0.00    -0.354 N 
ATOM     52  C   UNL A   1      41.306  30.088  32.497  1.00  0.00     0.074 A 
ATOM     53  C   UNL A   1      40.139  30.939  32.435  1.00  0.00     0.031 C 
ATOM     54  C   UNL A   1      40.385  26.013  27.609  1.00  0.00     0.029 A 
ATOM     55  C   UNL A   1      41.513  26.056  28.532  1.00  0.00     0.049 A 
ATOM     56  H   UNL A   1      41.763  27.317  30.172  1.00  0.00     0.167 HD
ATOM     57  C   UNL A   1      42.296  30.215  33.412  1.00  0.00     0.037 A 
ATOM     58  C   UNL A   1      42.602  25.265  28.469  1.00  0.00     0.037 A 
ATOM     59  C   UNL A   1      43.437  29.343  33.493  1.00  0.00     0.049 A 
ATOM     60  C   UNL A   1      43.692  25.433  29.491  1.00  0.00     0.074 A 
ATOM     61  C   UNL A   1      44.454  29.341  34.431  1.00  0.00     0.029 A 
ATOM     62  N   UNL A   1      43.714  28.320  32.598  1.00  0.00    -0.354 N 
ATOM     63  N   UNL A   1      43.763  26.277  30.493  1.00  0.00    -0.248 NA
ATOM     64  C   UNL A   1      44.855  24.542  29.376  1.00  0.00     0.031 C 
ATOM     65  C   UNL A   1      45.377  28.355  34.070  1.00  0.00     0.029 A 
ATOM     66  C   UNL A   1      44.905  27.704  32.942  1.00  0.00     0.049 A 
ATOM     67  H   UNL A   1      43.148  28.071  31.831  1.00  0.00     0.167 HD
ATOM     68  C   UNL A   1      44.960  26.001  31.140  1.00  0.00     0.074 A 
ATOM     69  C   UNL A   1      45.577  24.901  30.429  1.00  0.00     0.031 C 
ATOM     70  C   UNL A   1      45.503  26.605  32.226  1.00  0.00     0.037 A 
BRANCH  57  71
ATOM     71  C   UNL A   1      42.191  31.340  34.402  1.00  0.00     0.057 A 
ATOM     72  C   UNL A   1      42.754  32.600  34.159  1.00  0.00     0.134 A 
ATOM     73  C   UNL A   1      41.479  31.174  35.597  1.00  0.00     0.134 A 
ATOM     74  F   UNL A   1      43.458  32.825  33.039  1.00  0.00    -0.206 F 
ATOM     75  C   UNL A   1      42.635  33.644  35.078  1.00  0.00     0.040 A 
ATOM     76  C   UNL A   1      41.328  32.220  36.511  1.00  0.00     0.040 A 
ATOM     77  F   UNL A   1      40.908  29.997  35.893  1.00  0.00    -0.206 F 
ATOM     78  C   UNL A   1      41.912  33.457  36.254  1.00  0.00     0.006 A 
ENDBRANCH  57  71
BRANCH  58  79
ATOM     79  C   UNL A   1      42.718  24.237  27.400  1.00  0.00     0.057 A 
ATOM     80  C   UNL A   1      43.253  24.554  26.147  1.00  0.00     0.134 A 
ATOM     81  C   UNL A   1      42.282  22.920  27.600  1.00  0.00     0.134 A 
ATOM     82  F   UNL A   1      43.671  25.801  25.888  1.00  0.00    -0.206 F 
ATOM     83  C   UNL A   1      43.331  23.608  25.123  1.00  0.00     0.040 A 
ATOM     84  C   UNL A   1      42.380  21.957  26.594  1.00  0.00     0.040 A 
ATOM     85  F   UNL A   1      41.765  22.548  28.780  1.00  0.00    -0.206 F 
ATOM     86  C   UNL A   1      42.898  22.303  25.348  1.00  0.00     0.006 A 
ENDBRANCH  58  79
BRANCH  70  87
ATOM     87  C   UNL A   1      46.812  26.074  32.732  1.00  0.00     0.057 A 
ATOM     88  C   UNL A   1      46.876  25.023  33.655  1.00  0.00     0.134 A 
ATOM     89  C   UNL A   1      48.023  26.581  32.243  1.00  0.00     0.134 A 
ATOM     90  F   UNL A   1      45.753  24.502  34.171  1.00  0.00    -0.206 F 
ATOM     91  C   UNL A   1      48.099  24.507  34.087  1.00  0.00     0.040 A 
ATOM     92  C   UNL A   1      49.250  26.054  32.645  1.00  0.00     0.040 A 
ATOM     93  F   UNL A   1      48.031  27.582  31.349  1.00  0.00    -0.206 F 
ATOM     94  C   UNL A   1      49.291  25.017  33.574  1.00  0.00     0.006 A 
ENDBRANCH  70  87
ENDBRANCH  44  45
ENDBRANCH  36  39
ENDBRANCH  34  35
ENDBRANCH  33  34
ENDBRANCH   1  33
TORSDOF 15
ENDMDL
MODEL 3
REMARK VINA RESULT:     -12.5      3.274      7.285
REMARK SMILES C[C@@H](C(=O)NCCCCNC(=O)c1ccc(-c2c3nc(c(-c4c(F)cccc4F)c4ccc([nH]4)c(-c4c(F)cccc4F)c4nc(c(-c5c(F)cccc5F)c5ccc2[nH]5)C=C4)C=C3)cc1)[N@@H+]1CCc2n[nH]c(C(c3ccccc3)c3ccccc3)c2C1
REMARK SMILES IDX 7 1 6 2 5 3 3 4 4 5 2 7 1 8 67 9 68 10 88 11 69 13 87 14
REMARK SMILES IDX 70 15 73 16 71 17 72 18 74 20 75 21 76 22 80 23 77 24 79 25
REMARK SMILES IDX 78 26 81 27 82 28 86 29 83 30 85 31 84 32 8 33 9 34 10 35
REMARK SMILES IDX 11 36 12 38 13 39 14 40 66 41 15 42 65 43 16 44 17 45 18 46
REMARK SMILES IDX 59 47 19 48 64 49 58 50 60 51 20 52 63 53 57 54 56 55 21 57
REMARK SMILES IDX 47 58 30 59 46 60 31 61 34 62 45 63 61 64 32 65 33 66 44 68
REMARK SMILES IDX 62 69 35 70 22 71 23 72 28 73 24 74 25 75 27 76 29 77 26 78
REMARK SMILES IDX 48 79 49 80 54 81 50 82 51 83 53 84 55 85 52 86 36 87 37 88
REMARK SMILES IDX 42 89 38 90 39 91 41 92 43 93 40 94
REMARK H PARENT 5 6 67 12 72 19 10 37 60 56 34 67
REMARK Flexibility Score: inf
ROOT
ATOM      1  C   UNL A   1      35.082  21.647  26.517  1.00  0.00     0.023 C 
ENDROOT
BRANCH   1   2
ATOM      2  C   UNL A   1      33.622  21.390  26.865  1.00  0.00     0.116 C 
BRANCH   2   3
ATOM      3  N   UNL A   1      32.997  22.494  27.563  1.00  0.00    -0.351 N 
ATOM      4  C   UNL A   1      31.941  23.223  27.058  1.00  0.00     0.278 C 
ATOM      5  O   UNL A   1      30.838  23.047  27.585  1.00  0.00    -0.268 OA
ATOM      6  H   UNL A   1      33.347  22.739  28.451  1.00  0.00     0.163 HD
BRANCH   4   7
ATOM      7  C   UNL A   1      32.220  24.451  26.121  1.00  0.00     0.271 C 
ATOM      8  C   UNL A   1      31.220  25.600  26.230  1.00  0.00     0.086 C 
BRANCH   7   9
ATOM      9  N   UNL A   1      32.493  23.966  24.735  1.00  0.00    -0.321 N 
ATOM     10  C   UNL A   1      33.922  23.958  24.288  1.00  0.00     0.269 C 
ATOM     11  C   UNL A   1      31.572  24.512  23.736  1.00  0.00     0.303 C 
ATOM     12  H   UNL A   1      32.287  22.970  24.812  1.00  0.00     0.349 HD
ATOM     13  C   UNL A   1      34.190  24.199  22.754  1.00  0.00     0.120 C 
ATOM     14  C   UNL A   1      32.201  25.683  23.070  1.00  0.00     0.052 A 
ATOM     15  C   UNL A   1      33.302  25.290  22.281  1.00  0.00     0.077 A 
ATOM     16  C   UNL A   1      31.759  26.805  22.396  1.00  0.00     0.056 A 
ATOM     17  N   UNL A   1      33.095  25.640  21.006  1.00  0.00    -0.180 NA
ATOM     18  N   UNL A   1      31.972  26.390  21.098  1.00  0.00    -0.281 N 
ATOM     19  H   UNL A   1      31.387  26.611  20.338  1.00  0.00     0.190 HD
BRANCH  16  20
ATOM     20  C   UNL A   1      31.543  28.277  22.732  1.00  0.00     0.098 C 
BRANCH  20  21
ATOM     21  C   UNL A   1      30.102  28.822  22.580  1.00  0.00    -0.035 A 
ATOM     22  C   UNL A   1      29.908  30.108  22.029  1.00  0.00     0.005 A 
ATOM     23  C   UNL A   1      28.978  28.180  23.124  1.00  0.00     0.005 A 
ATOM     24  C   UNL A   1      28.653  30.726  22.023  1.00  0.00     0.000 A 
ATOM     25  C   UNL A   1      27.724  28.808  23.136  1.00  0.00     0.000 A 
ATOM     26  C   UNL A   1      27.562  30.080  22.591  1.00  0.00     0.000 A 
ENDBRANCH  20  21
BRANCH  20  27
ATOM     27  C   UNL A   1      32.160  28.619  24.099  1.00  0.00    -0.035 A 
ATOM     28  C   UNL A   1      31.403  29.134  25.166  1.00  0.00     0.005 A 
ATOM     29  C   UNL A   1      33.503  28.273  24.338  1.00  0.00     0.005 A 
ATOM     30  C   UNL A   1      31.959  29.265  26.436  1.00  0.00     0.000 A 
ATOM     31  C   UNL A   1      34.046  28.374  25.617  1.00  0.00     0.000 A 
ATOM     32  C   UNL A   1      33.272  28.865  26.666  1.00  0.00     0.000 A 
ENDBRANCH  20  27
ENDBRANCH  16  20
ENDBRANCH   7   9
ENDBRANCH   4   7
ENDBRANCH   2   3
ENDBRANCH   1   2
BRANCH   1  33
ATOM     33  C   UNL A   1      35.646  20.807  25.369  1.00  0.00     0.023 C 
BRANCH  33  34
ATOM     34  C   UNL A   1      37.051  21.119  24.891  1.00  0.00     0.116 C 
BRANCH  34  35
ATOM     35  N   UNL A   1      38.009  20.084  25.231  1.00  0.00    -0.352 N 
ATOM     36  C   UNL A   1      39.285  20.163  25.727  1.00  0.00     0.251 C 
ATOM     37  H   UNL A   1      37.687  19.166  25.082  1.00  0.00     0.163 HD
ATOM     38  O   UNL A   1      39.963  19.131  25.789  1.00  0.00    -0.269 OA
BRANCH  36  39
ATOM     39  C   UNL A   1      39.880  21.448  26.161  1.00  0.00     0.039 A 
ATOM     40  C   UNL A   1      41.192  21.450  26.649  1.00  0.00     0.014 A 
ATOM     41  C   UNL A   1      39.161  22.644  26.132  1.00  0.00     0.014 A 
ATOM     42  C   UNL A   1      41.796  22.650  27.039  1.00  0.00     0.010 A 
ATOM     43  C   UNL A   1      39.796  23.850  26.418  1.00  0.00     0.010 A 
ATOM     44  C   UNL A   1      41.116  23.868  26.887  1.00  0.00    -0.014 A 
BRANCH  44  45
ATOM     45  C   UNL A   1      41.756  25.166  27.230  1.00  0.00     0.031 A 
ATOM     46  C   UNL A   1      40.998  26.194  28.028  1.00  0.00     0.074 A 
ATOM     47  C   UNL A   1      42.988  25.451  26.761  1.00  0.00     0.049 A 
ATOM     48  N   UNL A   1      41.340  27.419  28.339  1.00  0.00    -0.248 NA
ATOM     49  C   UNL A   1      39.664  25.805  28.513  1.00  0.00     0.031 C 
ATOM     50  C   UNL A   1      43.809  24.560  25.939  1.00  0.00     0.029 A 
ATOM     51  N   UNL A   1      43.759  26.579  26.898  1.00  0.00    -0.354 N 
ATOM     52  C   UNL A   1      40.258  27.949  29.031  1.00  0.00     0.074 A 
ATOM     53  C   UNL A   1      39.228  26.935  29.048  1.00  0.00     0.031 C 
ATOM     54  C   UNL A   1      44.975  25.166  25.663  1.00  0.00     0.029 A 
ATOM     55  C   UNL A   1      44.966  26.504  26.246  1.00  0.00     0.049 A 
ATOM     56  H   UNL A   1      43.474  27.367  27.415  1.00  0.00     0.167 HD
ATOM     57  C   UNL A   1      40.142  29.164  29.619  1.00  0.00     0.037 A 
ATOM     58  C   UNL A   1      45.948  27.417  26.116  1.00  0.00     0.037 A 
ATOM     59  C   UNL A   1      41.184  30.157  29.631  1.00  0.00     0.049 A 
ATOM     60  C   UNL A   1      45.791  28.762  26.770  1.00  0.00     0.074 A 
ATOM     61  C   UNL A   1      41.193  31.386  30.266  1.00  0.00     0.029 A 
ATOM     62  N   UNL A   1      42.399  30.034  28.974  1.00  0.00    -0.354 N 
ATOM     63  N   UNL A   1      44.794  29.221  27.486  1.00  0.00    -0.248 NA
ATOM     64  C   UNL A   1      46.894  29.718  26.597  1.00  0.00     0.031 C 
ATOM     65  C   UNL A   1      42.390  32.033  29.944  1.00  0.00     0.029 A 
ATOM     66  C   UNL A   1      43.151  31.182  29.159  1.00  0.00     0.049 A 
ATOM     67  H   UNL A   1      42.683  29.249  28.453  1.00  0.00     0.167 HD
ATOM     68  C   UNL A   1      45.159  30.505  27.871  1.00  0.00     0.074 A 
ATOM     69  C   UNL A   1      46.477  30.747  27.322  1.00  0.00     0.031 C 
ATOM     70  C   UNL A   1      44.465  31.404  28.611  1.00  0.00     0.037 A 
BRANCH  57  71
ATOM     71  C   UNL A   1      38.843  29.491  30.299  1.00  0.00     0.057 A 
ATOM     72  C   UNL A   1      38.611  29.187  31.646  1.00  0.00     0.134 A 
ATOM     73  C   UNL A   1      37.825  30.160  29.606  1.00  0.00     0.134 A 
ATOM     74  F   UNL A   1      39.540  28.538  32.366  1.00  0.00    -0.206 F 
ATOM     75  C   UNL A   1      37.407  29.512  32.273  1.00  0.00     0.040 A 
ATOM     76  C   UNL A   1      36.628  30.516  30.230  1.00  0.00     0.040 A 
ATOM     77  F   UNL A   1      37.981  30.488  28.315  1.00  0.00    -0.206 F 
ATOM     78  C   UNL A   1      36.414  30.187  31.566  1.00  0.00     0.006 A 
ENDBRANCH  57  71
BRANCH  58  79
ATOM     79  C   UNL A   1      47.172  27.091  25.336  1.00  0.00     0.057 A 
ATOM     80  C   UNL A   1      48.218  26.355  25.904  1.00  0.00     0.134 A 
ATOM     81  C   UNL A   1      47.332  27.520  24.012  1.00  0.00     0.134 A 
ATOM     82  F   UNL A   1      48.132  25.931  27.173  1.00  0.00    -0.206 F 
ATOM     83  C   UNL A   1      49.388  26.076  25.195  1.00  0.00     0.040 A 
ATOM     84  C   UNL A   1      48.485  27.224  23.281  1.00  0.00     0.040 A 
ATOM     85  F   UNL A   1      46.366  28.224  23.404  1.00  0.00    -0.206 F 
ATOM     86  C   UNL A   1      49.520  26.507  23.877  1.00  0.00     0.006 A 
ENDBRANCH  58  79
BRANCH  70  87
ATOM     87  C   UNL A   1      45.126  32.721  28.898  1.00  0.00     0.057 A 
ATOM     88  C   UNL A   1      45.942  32.909  30.020  1.00  0.00     0.134 A 
ATOM     89  C   UNL A   1      44.992  33.794  28.007  1.00  0.00     0.134 A 
ATOM     90  F   UNL A   1      46.102  31.925  30.917  1.00  0.00    -0.206 F 
ATOM     91  C   UNL A   1      46.587  34.125  30.255  1.00  0.00     0.040 A 
ATOM     92  C   UNL A   1      45.654  35.004  28.217  1.00  0.00     0.040 A 
ATOM     93  F   UNL A   1      44.232  33.676  26.908  1.00  0.00    -0.206 F 
ATOM     94  C   UNL A   1      46.451  35.173  29.347  1.00  0.00     0.006 A 
ENDBRANCH  70  87
ENDBRANCH  44  45
ENDBRANCH  36  39
ENDBRANCH  34  35
ENDBRANCH  33  34
ENDBRANCH   1  33
TORSDOF 15
ENDMDL
