MODEL 1
REMARK VINA RESULT:     -11.8      0.000      0.000
REMARK SMILES O=C(NCCCCNC(=O)[C@H]1CC(=O)N(Cc2ccccc2CN2CCCC2=O)C1)c1ccc(-c2c3nc(c(-c4c(F)cccc4F)c4ccc([nH]4)c(-c4c(F)cccc4F)c4nc(c(-c5c(F)cccc5F)c5ccc2[nH]5)C=C4)C=C3)cc1
REMARK SMILES IDX 6 1 5 2 4 3 3 4 1 5 2 6 31 8 32 9 84 10 33 11 83 12 34 13
REMARK SMILES IDX 35 14 36 15 77 16 37 17 82 18 76 19 78 20 38 21 81 22 75 23
REMARK SMILES IDX 74 24 39 26 65 27 48 28 64 29 49 30 52 31 63 32 79 33 50 34
REMARK SMILES IDX 51 35 62 37 80 38 53 39 40 40 41 41 46 42 42 43 43 44 45 45
REMARK SMILES IDX 47 46 44 47 66 48 67 49 72 50 68 51 69 52 71 53 73 54 70 55
REMARK SMILES IDX 54 56 55 57 60 58 56 59 57 60 59 61 61 62 58 63 7 64 8 65
REMARK SMILES IDX 9 66 10 68 11 69 12 70 30 71 13 72 15 73 14 74 16 75 17 76
REMARK SMILES IDX 18 77 22 78 19 79 21 80 20 81 23 82 24 83 25 84 28 85 26 86
REMARK SMILES IDX 27 87 29 88
REMARK H PARENT 3 7 78 25 52 36 8 67
REMARK Flexibility Score: inf
ROOT
ATOM      1  C   UNL A   1      37.532  20.757  24.598  1.00  0.00     0.023 C 
ENDROOT
BRANCH   1   2
ATOM      2  C   UNL A   1      38.395  19.543  24.940  1.00  0.00     0.023 C 
BRANCH   2   3
ATOM      3  C   UNL A   1      39.451  19.784  26.009  1.00  0.00     0.116 C 
BRANCH   3   4
ATOM      4  N   UNL A   1      40.613  18.924  25.855  1.00  0.00    -0.352 N 
ATOM      5  O   UNL A   1      42.807  18.430  25.662  1.00  0.00    -0.269 OA
ATOM      6  C   UNL A   1      41.944  19.246  25.963  1.00  0.00     0.251 C 
ATOM      7  H   UNL A   1      40.420  17.983  25.645  1.00  0.00     0.163 HD
BRANCH   6   8
ATOM      8  C   UNL A   1      42.320  20.599  26.419  1.00  0.00     0.039 A 
ATOM      9  C   UNL A   1      42.299  20.912  27.779  1.00  0.00     0.014 A 
ATOM     10  C   UNL A   1      42.666  21.565  25.473  1.00  0.00     0.014 A 
ATOM     11  C   UNL A   1      42.474  22.228  28.182  1.00  0.00     0.010 A 
ATOM     12  C   UNL A   1      42.947  22.868  25.892  1.00  0.00     0.010 A 
ATOM     13  C   UNL A   1      42.829  23.214  27.247  1.00  0.00    -0.014 A 
BRANCH  13  14
ATOM     14  C   UNL A   1      43.163  24.576  27.732  1.00  0.00     0.031 A 
ATOM     15  C   UNL A   1      42.096  25.584  28.044  1.00  0.00     0.074 A 
ATOM     16  C   UNL A   1      44.464  24.884  27.905  1.00  0.00     0.049 A 
ATOM     17  N   UNL A   1      42.229  26.815  28.472  1.00  0.00    -0.248 NA
ATOM     18  C   UNL A   1      40.698  25.168  27.847  1.00  0.00     0.031 C 
ATOM     19  C   UNL A   1      45.588  23.985  27.621  1.00  0.00     0.029 A 
ATOM     20  N   UNL A   1      45.065  26.024  28.369  1.00  0.00    -0.354 N 
ATOM     21  C   UNL A   1      40.941  27.325  28.580  1.00  0.00     0.074 A 
ATOM     22  C   UNL A   1      40.038  26.279  28.150  1.00  0.00     0.031 C 
ATOM     23  C   UNL A   1      46.733  24.591  27.959  1.00  0.00     0.029 A 
ATOM     24  C   UNL A   1      46.435  25.944  28.405  1.00  0.00     0.049 A 
ATOM     25  H   UNL A   1      44.563  26.824  28.648  1.00  0.00     0.167 HD
ATOM     26  C   UNL A   1      40.555  28.551  29.005  1.00  0.00     0.037 A 
ATOM     27  C   UNL A   1      47.356  26.869  28.731  1.00  0.00     0.037 A 
ATOM     28  C   UNL A   1      41.465  29.583  29.440  1.00  0.00     0.049 A 
ATOM     29  C   UNL A   1      46.895  28.231  29.155  1.00  0.00     0.074 A 
ATOM     30  C   UNL A   1      41.168  30.845  29.924  1.00  0.00     0.029 A 
ATOM     31  N   UNL A   1      42.848  29.474  29.435  1.00  0.00    -0.354 N 
ATOM     32  N   UNL A   1      45.672  28.683  29.295  1.00  0.00    -0.248 NA
ATOM     33  C   UNL A   1      47.941  29.213  29.467  1.00  0.00     0.031 C 
ATOM     34  C   UNL A   1      42.369  31.521  30.154  1.00  0.00     0.029 A 
ATOM     35  C   UNL A   1      43.417  30.658  29.877  1.00  0.00     0.049 A 
ATOM     36  H   UNL A   1      43.352  28.675  29.157  1.00  0.00     0.167 HD
ATOM     37  C   UNL A   1      45.802  29.993  29.734  1.00  0.00     0.074 A 
ATOM     38  C   UNL A   1      47.220  30.254  29.858  1.00  0.00     0.031 C 
ATOM     39  C   UNL A   1      44.832  30.901  30.004  1.00  0.00     0.037 A 
BRANCH  26  40
ATOM     40  C   UNL A   1      39.086  28.868  29.008  1.00  0.00     0.057 A 
ATOM     41  C   UNL A   1      38.298  28.732  30.157  1.00  0.00     0.134 A 
ATOM     42  C   UNL A   1      38.470  29.395  27.864  1.00  0.00     0.134 A 
ATOM     43  F   UNL A   1      38.822  28.227  31.285  1.00  0.00    -0.206 F 
ATOM     44  C   UNL A   1      36.950  29.096  30.167  1.00  0.00     0.040 A 
ATOM     45  C   UNL A   1      37.130  29.786  27.868  1.00  0.00     0.040 A 
ATOM     46  F   UNL A   1      39.168  29.561  26.730  1.00  0.00    -0.206 F 
ATOM     47  C   UNL A   1      36.365  29.635  29.023  1.00  0.00     0.006 A 
ENDBRANCH  26  40
BRANCH  27  48
ATOM     48  C   UNL A   1      48.802  26.543  28.641  1.00  0.00     0.057 A 
ATOM     49  C   UNL A   1      49.515  26.082  29.754  1.00  0.00     0.134 A 
ATOM     50  C   UNL A   1      49.512  26.702  27.444  1.00  0.00     0.134 A 
ATOM     51  F   UNL A   1      48.895  25.920  30.932  1.00  0.00    -0.206 F 
ATOM     52  C   UNL A   1      50.884  25.820  29.687  1.00  0.00     0.040 A 
ATOM     53  C   UNL A   1      50.872  26.412  27.353  1.00  0.00     0.040 A 
ATOM     54  F   UNL A   1      48.885  27.130  26.336  1.00  0.00    -0.206 F 
ATOM     55  C   UNL A   1      51.565  25.981  28.482  1.00  0.00     0.006 A 
ENDBRANCH  27  48
BRANCH  39  56
ATOM     56  C   UNL A   1      45.277  32.243  30.506  1.00  0.00     0.057 A 
ATOM     57  C   UNL A   1      45.512  33.320  29.641  1.00  0.00     0.134 A 
ATOM     58  C   UNL A   1      45.452  32.467  31.879  1.00  0.00     0.134 A 
ATOM     59  F   UNL A   1      45.378  33.169  28.315  1.00  0.00    -0.206 F 
ATOM     60  C   UNL A   1      45.933  34.562  30.120  1.00  0.00     0.040 A 
ATOM     61  C   UNL A   1      45.841  33.712  32.371  1.00  0.00     0.040 A 
ATOM     62  F   UNL A   1      45.236  31.481  32.763  1.00  0.00    -0.206 F 
ATOM     63  C   UNL A   1      46.092  34.761  31.491  1.00  0.00     0.006 A 
ENDBRANCH  39  56
ENDBRANCH  13  14
ENDBRANCH   6   8
ENDBRANCH   3   4
ENDBRANCH   2   3
ENDBRANCH   1   2
BRANCH   1  64
ATOM     64  C   UNL A   1      37.693  21.944  25.544  1.00  0.00     0.116 C 
BRANCH  64  65
ATOM     65  N   UNL A   1      36.492  22.161  26.309  1.00  0.00    -0.356 N 
ATOM     66  C   UNL A   1      35.526  23.088  26.131  1.00  0.00     0.225 C 
ATOM     67  H   UNL A   1      36.356  21.549  27.068  1.00  0.00     0.163 HD
ATOM     68  O   UNL A   1      34.741  23.252  27.066  1.00  0.00    -0.275 OA
BRANCH  66  69
ATOM     69  C   UNL A   1      35.487  23.919  24.861  1.00  0.00     0.107 C 
ATOM     70  C   UNL A   1      34.805  23.304  23.643  1.00  0.00     0.115 C 
ATOM     71  C   UNL A   1      34.601  25.102  25.162  1.00  0.00     0.133 C 
ATOM     72  C   UNL A   1      34.048  24.461  23.011  1.00  0.00     0.223 C 
ATOM     73  N   UNL A   1      33.958  25.474  23.946  1.00  0.00    -0.338 N 
ATOM     74  O   UNL A   1      33.597  24.468  21.878  1.00  0.00    -0.275 OA
BRANCH  73  75
ATOM     75  C   UNL A   1      33.219  26.729  23.812  1.00  0.00     0.155 C 
BRANCH  75  76
ATOM     76  C   UNL A   1      32.809  27.419  25.113  1.00  0.00    -0.024 A 
ATOM     77  C   UNL A   1      33.745  28.322  25.668  1.00  0.00     0.006 A 
ATOM     78  C   UNL A   1      31.595  27.189  25.825  1.00  0.00    -0.024 A 
ATOM     79  C   UNL A   1      33.497  28.996  26.865  1.00  0.00     0.000 A 
ATOM     80  C   UNL A   1      31.355  27.917  27.009  1.00  0.00     0.006 A 
ATOM     81  C   UNL A   1      32.295  28.803  27.528  1.00  0.00     0.000 A 
BRANCH  78  82
ATOM     82  C   UNL A   1      30.472  26.311  25.321  1.00  0.00     0.155 C 
BRANCH  82  83
ATOM     83  N   UNL A   1      30.621  24.874  25.358  1.00  0.00    -0.338 N 
ATOM     84  C   UNL A   1      31.112  24.218  26.549  1.00  0.00     0.120 C 
ATOM     85  C   UNL A   1      30.689  24.049  24.244  1.00  0.00     0.222 C 
ATOM     86  C   UNL A   1      31.800  22.975  26.026  1.00  0.00     0.031 C 
ATOM     87  C   UNL A   1      31.053  22.671  24.739  1.00  0.00     0.102 C 
ATOM     88  O   UNL A   1      30.494  24.347  23.084  1.00  0.00    -0.275 OA
ENDBRANCH  82  83
ENDBRANCH  78  82
ENDBRANCH  75  76
ENDBRANCH  73  75
ENDBRANCH  66  69
ENDBRANCH  64  65
ENDBRANCH   1  64
TORSDOF 15
ENDMDL
MODEL 2
REMARK VINA RESULT:     -11.7      4.467      9.199
REMARK SMILES O=C(NCCCCNC(=O)[C@H]1CC(=O)N(Cc2ccccc2CN2CCCC2=O)C1)c1ccc(-c2c3nc(c(-c4c(F)cccc4F)c4ccc([nH]4)c(-c4c(F)cccc4F)c4nc(c(-c5c(F)cccc5F)c5ccc2[nH]5)C=C4)C=C3)cc1
REMARK SMILES IDX 6 1 5 2 4 3 3 4 1 5 2 6 31 8 32 9 84 10 33 11 83 12 34 13
REMARK SMILES IDX 35 14 36 15 77 16 37 17 82 18 76 19 78 20 38 21 81 22 75 23
REMARK SMILES IDX 74 24 39 26 65 27 48 28 64 29 49 30 52 31 63 32 79 33 50 34
REMARK SMILES IDX 51 35 62 37 80 38 53 39 40 40 41 41 46 42 42 43 43 44 45 45
REMARK SMILES IDX 47 46 44 47 66 48 67 49 72 50 68 51 69 52 71 53 73 54 70 55
REMARK SMILES IDX 54 56 55 57 60 58 56 59 57 60 59 61 61 62 58 63 7 64 8 65
REMARK SMILES IDX 9 66 10 68 11 69 12 70 30 71 13 72 15 73 14 74 16 75 17 76
REMARK SMILES IDX 18 77 22 78 19 79 21 80 20 81 23 82 24 83 25 84 28 85 26 86
REMARK SMILES IDX 27 87 29 88
REMARK H PARENT 3 7 78 25 52 36 8 67
REMARK Flexibility Score: inf
ROOT
ATOM      1  C   UNL A   1      31.509  30.954  26.138  1.00  0.00     0.023 C 
ENDROOT
BRANCH   1   2
ATOM      2  C   UNL A   1      31.355  32.396  26.621  1.00  0.00     0.023 C 
BRANCH   2   3
ATOM      3  C   UNL A   1      32.602  33.000  27.251  1.00  0.00     0.116 C 
BRANCH   3   4
ATOM      4  N   UNL A   1      32.390  34.358  27.726  1.00  0.00    -0.352 N 
ATOM      5  O   UNL A   1      32.645  36.129  29.101  1.00  0.00    -0.269 OA
ATOM      6  C   UNL A   1      33.044  35.032  28.728  1.00  0.00     0.251 C 
ATOM      7  H   UNL A   1      31.682  34.863  27.267  1.00  0.00     0.163 HD
BRANCH   6   8
ATOM      8  C   UNL A   1      34.215  34.404  29.370  1.00  0.00     0.039 A 
ATOM      9  C   UNL A   1      35.489  34.578  28.827  1.00  0.00     0.014 A 
ATOM     10  C   UNL A   1      34.028  33.611  30.504  1.00  0.00     0.014 A 
ATOM     11  C   UNL A   1      36.552  33.839  29.325  1.00  0.00     0.010 A 
ATOM     12  C   UNL A   1      35.121  32.951  31.069  1.00  0.00     0.010 A 
ATOM     13  C   UNL A   1      36.388  33.041  30.469  1.00  0.00    -0.014 A 
BRANCH  13  14
ATOM     14  C   UNL A   1      37.579  32.390  31.068  1.00  0.00     0.031 A 
ATOM     15  C   UNL A   1      38.186  32.887  32.348  1.00  0.00     0.074 A 
ATOM     16  C   UNL A   1      38.098  31.318  30.438  1.00  0.00     0.049 A 
ATOM     17  N   UNL A   1      39.228  32.427  32.994  1.00  0.00    -0.248 NA
ATOM     18  C   UNL A   1      37.553  34.052  32.986  1.00  0.00     0.031 C 
ATOM     19  C   UNL A   1      37.595  30.754  29.181  1.00  0.00     0.029 A 
ATOM     20  N   UNL A   1      39.147  30.501  30.767  1.00  0.00    -0.354 N 
ATOM     21  C   UNL A   1      39.388  33.252  34.101  1.00  0.00     0.074 A 
ATOM     22  C   UNL A   1      38.348  34.257  34.029  1.00  0.00     0.031 C 
ATOM     23  C   UNL A   1      38.306  29.663  28.870  1.00  0.00     0.029 A 
ATOM     24  C   UNL A   1      39.362  29.494  29.858  1.00  0.00     0.049 A 
ATOM     25  H   UNL A   1      39.695  30.625  31.576  1.00  0.00     0.167 HD
ATOM     26  C   UNL A   1      40.313  33.168  35.086  1.00  0.00     0.037 A 
ATOM     27  C   UNL A   1      40.323  28.555  29.806  1.00  0.00     0.037 A 
ATOM     28  C   UNL A   1      41.338  32.155  35.152  1.00  0.00     0.049 A 
ATOM     29  C   UNL A   1      41.359  28.518  30.890  1.00  0.00     0.074 A 
ATOM     30  C   UNL A   1      42.299  31.965  36.130  1.00  0.00     0.029 A 
ATOM     31  N   UNL A   1      41.542  31.170  34.198  1.00  0.00    -0.354 N 
ATOM     32  N   UNL A   1      41.469  29.277  31.954  1.00  0.00    -0.248 NA
ATOM     33  C   UNL A   1      42.405  27.496  30.767  1.00  0.00     0.031 C 
ATOM     34  C   UNL A   1      43.120  30.904  35.739  1.00  0.00     0.029 A 
ATOM     35  C   UNL A   1      42.632  30.389  34.549  1.00  0.00     0.049 A 
ATOM     36  H   UNL A   1      40.994  31.043  33.389  1.00  0.00     0.167 HD
ATOM     37  C   UNL A   1      42.580  28.808  32.639  1.00  0.00     0.074 A 
ATOM     38  C   UNL A   1      43.096  27.687  31.882  1.00  0.00     0.031 C 
ATOM     39  C   UNL A   1      43.129  29.269  33.790  1.00  0.00     0.037 A 
BRANCH  26  40
ATOM     40  C   UNL A   1      40.284  34.206  36.173  1.00  0.00     0.057 A 
ATOM     41  C   UNL A   1      40.958  35.427  36.052  1.00  0.00     0.134 A 
ATOM     42  C   UNL A   1      39.503  34.013  37.321  1.00  0.00     0.134 A 
ATOM     43  F   UNL A   1      41.729  35.675  34.982  1.00  0.00    -0.206 F 
ATOM     44  C   UNL A   1      40.867  36.413  37.037  1.00  0.00     0.040 A 
ATOM     45  C   UNL A   1      39.384  35.000  38.301  1.00  0.00     0.040 A 
ATOM     46  F   UNL A   1      38.824  32.870  37.498  1.00  0.00    -0.206 F 
ATOM     47  C   UNL A   1      40.070  36.205  38.160  1.00  0.00     0.006 A 
ENDBRANCH  26  40
BRANCH  27  48
ATOM     48  C   UNL A   1      40.365  27.594  28.675  1.00  0.00     0.057 A 
ATOM     49  C   UNL A   1      41.117  27.856  27.524  1.00  0.00     0.134 A 
ATOM     50  C   UNL A   1      39.637  26.397  28.709  1.00  0.00     0.134 A 
ATOM     51  F   UNL A   1      41.825  28.990  27.426  1.00  0.00    -0.206 F 
ATOM     52  C   UNL A   1      41.122  26.979  26.438  1.00  0.00     0.040 A 
ATOM     53  C   UNL A   1      39.660  25.495  27.646  1.00  0.00     0.040 A 
ATOM     54  F   UNL A   1      38.904  26.080  29.788  1.00  0.00    -0.206 F 
ATOM     55  C   UNL A   1      40.394  25.792  26.501  1.00  0.00     0.006 A 
ENDBRANCH  27  48
BRANCH  39  56
ATOM     56  C   UNL A   1      44.321  28.528  34.320  1.00  0.00     0.057 A 
ATOM     57  C   UNL A   1      44.193  27.422  35.170  1.00  0.00     0.134 A 
ATOM     58  C   UNL A   1      45.618  28.916  33.956  1.00  0.00     0.134 A 
ATOM     59  F   UNL A   1      42.980  27.009  35.569  1.00  0.00    -0.206 F 
ATOM     60  C   UNL A   1      45.311  26.747  35.662  1.00  0.00     0.040 A 
ATOM     61  C   UNL A   1      46.741  28.229  34.416  1.00  0.00     0.040 A 
ATOM     62  F   UNL A   1      45.813  29.962  33.138  1.00  0.00    -0.206 F 
ATOM     63  C   UNL A   1      46.589  27.147  35.279  1.00  0.00     0.006 A 
ENDBRANCH  39  56
ENDBRANCH  13  14
ENDBRANCH   6   8
ENDBRANCH   3   4
ENDBRANCH   2   3
ENDBRANCH   1   2
BRANCH   1  64
ATOM     64  C   UNL A   1      32.922  30.389  26.248  1.00  0.00     0.116 C 
BRANCH  64  65
ATOM     65  N   UNL A   1      33.277  29.651  25.063  1.00  0.00    -0.356 N 
ATOM     66  C   UNL A   1      33.485  28.325  24.917  1.00  0.00     0.225 C 
ATOM     67  H   UNL A   1      33.382  30.189  24.245  1.00  0.00     0.163 HD
ATOM     68  O   UNL A   1      34.041  27.966  23.878  1.00  0.00    -0.275 OA
BRANCH  66  69
ATOM     69  C   UNL A   1      33.111  27.364  26.031  1.00  0.00     0.107 C 
ATOM     70  C   UNL A   1      31.663  26.887  26.086  1.00  0.00     0.115 C 
ATOM     71  C   UNL A   1      33.860  26.085  25.751  1.00  0.00     0.133 C 
ATOM     72  C   UNL A   1      31.765  25.418  26.463  1.00  0.00     0.223 C 
ATOM     73  N   UNL A   1      33.065  25.009  26.242  1.00  0.00    -0.338 N 
ATOM     74  O   UNL A   1      30.843  24.735  26.876  1.00  0.00    -0.275 OA
BRANCH  73  75
ATOM     75  C   UNL A   1      33.590  23.650  26.359  1.00  0.00     0.155 C 
BRANCH  75  76
ATOM     76  C   UNL A   1      34.828  23.323  25.524  1.00  0.00    -0.024 A 
ATOM     77  C   UNL A   1      36.080  23.581  26.128  1.00  0.00     0.006 A 
ATOM     78  C   UNL A   1      34.817  22.830  24.186  1.00  0.00    -0.024 A 
ATOM     79  C   UNL A   1      37.282  23.348  25.458  1.00  0.00     0.000 A 
ATOM     80  C   UNL A   1      36.048  22.564  23.552  1.00  0.00     0.006 A 
ATOM     81  C   UNL A   1      37.266  22.826  24.175  1.00  0.00     0.000 A 
BRANCH  78  82
ATOM     82  C   UNL A   1      33.563  22.439  23.438  1.00  0.00     0.155 C 
BRANCH  82  83
ATOM     83  N   UNL A   1      32.679  23.470  22.942  1.00  0.00    -0.338 N 
ATOM     84  C   UNL A   1      33.210  24.610  22.228  1.00  0.00     0.120 C 
ATOM     85  C   UNL A   1      31.383  23.690  23.383  1.00  0.00     0.222 C 
ATOM     86  C   UNL A   1      32.223  25.719  22.522  1.00  0.00     0.031 C 
ATOM     87  C   UNL A   1      30.916  24.980  22.753  1.00  0.00     0.102 C 
ATOM     88  O   UNL A   1      30.721  22.996  24.128  1.00  0.00    -0.275 OA
ENDBRANCH  82  83
ENDBRANCH  78  82
ENDBRANCH  75  76
ENDBRANCH  73  75
ENDBRANCH  66  69
ENDBRANCH  64  65
ENDBRANCH   1  64
TORSDOF 15
ENDMDL
MODEL 3
REMARK VINA RESULT:     -11.6      1.619      2.474
REMARK SMILES O=C(NCCCCNC(=O)[C@H]1CC(=O)N(Cc2ccccc2CN2CCCC2=O)C1)c1ccc(-c2c3nc(c(-c4c(F)cccc4F)c4ccc([nH]4)c(-c4c(F)cccc4F)c4nc(c(-c5c(F)cccc5F)c5ccc2[nH]5)C=C4)C=C3)cc1
REMARK SMILES IDX 6 1 5 2 4 3 3 4 1 5 2 6 31 8 32 9 84 10 33 11 83 12 34 13
REMARK SMILES IDX 35 14 36 15 77 16 37 17 82 18 76 19 78 20 38 21 81 22 75 23
REMARK SMILES IDX 74 24 39 26 65 27 48 28 64 29 49 30 52 31 63 32 79 33 50 34
REMARK SMILES IDX 51 35 62 37 80 38 53 39 40 40 41 41 46 42 42 43 43 44 45 45
REMARK SMILES IDX 47 46 44 47 66 48 67 49 72 50 68 51 69 52 71 53 73 54 70 55
REMARK SMILES IDX 54 56 55 57 60 58 56 59 57 60 59 61 61 62 58 63 7 64 8 65
REMARK SMILES IDX 9 66 10 68 11 69 12 70 30 71 13 72 15 73 14 74 16 75 17 76
REMARK SMILES IDX 18 77 22 78 19 79 21 80 20 81 23 82 24 83 25 84 28 85 26 86
REMARK SMILES IDX 27 87 29 88
REMARK H PARENT 3 7 78 25 52 36 8 67
REMARK Flexibility Score: inf
ROOT
ATOM      1  C   UNL A   1      37.330  21.160  24.618  1.00  0.00     0.023 C 
ENDROOT
BRANCH   1   2
ATOM      2  C   UNL A   1      38.174  19.908  24.857  1.00  0.00     0.023 C 
BRANCH   2   3
ATOM      3  C   UNL A   1      39.128  19.991  26.039  1.00  0.00     0.116 C 
BRANCH   3   4
ATOM      4  N   UNL A   1      40.300  19.147  25.876  1.00  0.00    -0.352 N 
ATOM      5  O   UNL A   1      42.502  18.678  25.707  1.00  0.00    -0.269 OA
ATOM      6  C   UNL A   1      41.626  19.475  26.022  1.00  0.00     0.251 C 
ATOM      7  H   UNL A   1      40.120  18.212  25.628  1.00  0.00     0.163 HD
BRANCH   6   8
ATOM      8  C   UNL A   1      41.981  20.813  26.534  1.00  0.00     0.039 A 
ATOM      9  C   UNL A   1      41.993  21.057  27.908  1.00  0.00     0.014 A 
ATOM     10  C   UNL A   1      42.275  21.834  25.629  1.00  0.00     0.014 A 
ATOM     11  C   UNL A   1      42.146  22.356  28.372  1.00  0.00     0.010 A 
ATOM     12  C   UNL A   1      42.536  23.121  26.105  1.00  0.00     0.010 A 
ATOM     13  C   UNL A   1      42.449  23.396  27.479  1.00  0.00    -0.014 A 
BRANCH  13  14
ATOM     14  C   UNL A   1      42.763  24.741  28.023  1.00  0.00     0.031 A 
ATOM     15  C   UNL A   1      41.690  25.764  28.261  1.00  0.00     0.074 A 
ATOM     16  C   UNL A   1      44.048  25.019  28.317  1.00  0.00     0.049 A 
ATOM     17  N   UNL A   1      41.807  26.982  28.726  1.00  0.00    -0.248 NA
ATOM     18  C   UNL A   1      40.309  25.380  27.930  1.00  0.00     0.031 C 
ATOM     19  C   UNL A   1      45.177  24.104  28.115  1.00  0.00     0.029 A 
ATOM     20  N   UNL A   1      44.626  26.137  28.859  1.00  0.00    -0.354 N 
ATOM     21  C   UNL A   1      40.525  27.516  28.730  1.00  0.00     0.074 A 
ATOM     22  C   UNL A   1      39.645  26.497  28.198  1.00  0.00     0.031 C 
ATOM     23  C   UNL A   1      46.298  24.679  28.567  1.00  0.00     0.029 A 
ATOM     24  C   UNL A   1      45.986  26.028  29.015  1.00  0.00     0.049 A 
ATOM     25  H   UNL A   1      44.116  26.940  29.110  1.00  0.00     0.167 HD
ATOM     26  C   UNL A   1      40.125  28.741  29.147  1.00  0.00     0.037 A 
ATOM     27  C   UNL A   1      46.891  26.927  29.443  1.00  0.00     0.037 A 
ATOM     28  C   UNL A   1      41.011  29.744  29.684  1.00  0.00     0.049 A 
ATOM     29  C   UNL A   1      46.419  28.289  29.855  1.00  0.00     0.074 A 
ATOM     30  C   UNL A   1      40.694  31.002  30.168  1.00  0.00     0.029 A 
ATOM     31  N   UNL A   1      42.386  29.608  29.800  1.00  0.00    -0.354 N 
ATOM     32  N   UNL A   1      45.196  28.763  29.894  1.00  0.00    -0.248 NA
ATOM     33  C   UNL A   1      47.450  29.243  30.280  1.00  0.00     0.031 C 
ATOM     34  C   UNL A   1      41.883  31.649  30.520  1.00  0.00     0.029 A 
ATOM     35  C   UNL A   1      42.934  30.770  30.318  1.00  0.00     0.049 A 
ATOM     36  H   UNL A   1      42.898  28.804  29.551  1.00  0.00     0.167 HD
ATOM     37  C   UNL A   1      45.310  30.061  30.373  1.00  0.00     0.074 A 
ATOM     38  C   UNL A   1      46.716  30.290  30.630  1.00  0.00     0.031 C 
ATOM     39  C   UNL A   1      44.337  30.982  30.576  1.00  0.00     0.037 A 
BRANCH  26  40
ATOM     40  C   UNL A   1      38.667  29.087  29.025  1.00  0.00     0.057 A 
ATOM     41  C   UNL A   1      37.791  29.006  30.114  1.00  0.00     0.134 A 
ATOM     42  C   UNL A   1      38.153  29.587  27.820  1.00  0.00     0.134 A 
ATOM     43  F   UNL A   1      38.215  28.530  31.295  1.00  0.00    -0.206 F 
ATOM     44  C   UNL A   1      36.454  29.398  30.007  1.00  0.00     0.040 A 
ATOM     45  C   UNL A   1      36.825  30.004  27.708  1.00  0.00     0.040 A 
ATOM     46  F   UNL A   1      38.939  29.699  26.739  1.00  0.00    -0.206 F 
ATOM     47  C   UNL A   1      35.971  29.909  28.805  1.00  0.00     0.006 A 
ENDBRANCH  26  40
BRANCH  27  48
ATOM     48  C   UNL A   1      48.333  26.574  29.475  1.00  0.00     0.057 A 
ATOM     49  C   UNL A   1      49.181  26.876  28.404  1.00  0.00     0.134 A 
ATOM     50  C   UNL A   1      48.895  25.909  30.573  1.00  0.00     0.134 A 
ATOM     51  F   UNL A   1      48.700  27.500  27.319  1.00  0.00    -0.206 F 
ATOM     52  C   UNL A   1      50.526  26.504  28.409  1.00  0.00     0.040 A 
ATOM     53  C   UNL A   1      50.245  25.562  30.607  1.00  0.00     0.040 A 
ATOM     54  F   UNL A   1      48.139  25.600  31.639  1.00  0.00    -0.206 F 
ATOM     55  C   UNL A   1      51.061  25.848  29.516  1.00  0.00     0.006 A 
ENDBRANCH  27  48
BRANCH  39  56
ATOM     56  C   UNL A   1      44.760  32.304  31.145  1.00  0.00     0.057 A 
ATOM     57  C   UNL A   1      44.850  32.526  32.525  1.00  0.00     0.134 A 
ATOM     58  C   UNL A   1      45.102  33.366  30.296  1.00  0.00     0.134 A 
ATOM     59  F   UNL A   1      44.522  31.557  33.393  1.00  0.00    -0.206 F 
ATOM     60  C   UNL A   1      45.237  33.764  33.041  1.00  0.00     0.040 A 
ATOM     61  C   UNL A   1      45.521  34.597  30.800  1.00  0.00     0.040 A 
ATOM     62  F   UNL A   1      45.046  33.219  28.964  1.00  0.00    -0.206 F 
ATOM     63  C   UNL A   1      45.581  34.802  32.176  1.00  0.00     0.006 A 
ENDBRANCH  39  56
ENDBRANCH  13  14
ENDBRANCH   6   8
ENDBRANCH   3   4
ENDBRANCH   2   3
ENDBRANCH   1   2
BRANCH   1  64
ATOM     64  C   UNL A   1      36.084  21.269  25.492  1.00  0.00     0.116 C 
BRANCH  64  65
ATOM     65  N   UNL A   1      34.895  20.965  24.736  1.00  0.00    -0.356 N 
ATOM     66  C   UNL A   1      33.841  21.760  24.454  1.00  0.00     0.225 C 
ATOM     67  H   UNL A   1      34.845  20.051  24.374  1.00  0.00     0.163 HD
ATOM     68  O   UNL A   1      32.828  21.202  24.028  1.00  0.00    -0.275 OA
BRANCH  66  69
ATOM     69  C   UNL A   1      33.909  23.251  24.734  1.00  0.00     0.107 C 
ATOM     70  C   UNL A   1      34.370  24.156  23.596  1.00  0.00     0.115 C 
ATOM     71  C   UNL A   1      32.486  23.703  24.947  1.00  0.00     0.133 C 
ATOM     72  C   UNL A   1      33.475  25.380  23.703  1.00  0.00     0.223 C 
ATOM     73  N   UNL A   1      32.395  25.052  24.497  1.00  0.00    -0.338 N 
ATOM     74  O   UNL A   1      33.688  26.452  23.162  1.00  0.00    -0.275 OA
BRANCH  73  75
ATOM     75  C   UNL A   1      31.227  25.885  24.779  1.00  0.00     0.155 C 
BRANCH  75  76
ATOM     76  C   UNL A   1      31.497  27.233  25.448  1.00  0.00    -0.024 A 
ATOM     77  C   UNL A   1      31.921  27.192  26.796  1.00  0.00     0.006 A 
ATOM     78  C   UNL A   1      31.311  28.510  24.841  1.00  0.00    -0.024 A 
ATOM     79  C   UNL A   1      32.176  28.356  27.523  1.00  0.00     0.000 A 
ATOM     80  C   UNL A   1      31.618  29.666  25.588  1.00  0.00     0.006 A 
ATOM     81  C   UNL A   1      32.038  29.593  26.914  1.00  0.00     0.000 A 
BRANCH  78  82
ATOM     82  C   UNL A   1      30.934  28.712  23.391  1.00  0.00     0.155 C 
BRANCH  82  83
ATOM     83  N   UNL A   1      29.590  29.124  23.056  1.00  0.00    -0.338 N 
ATOM     84  C   UNL A   1      29.265  30.527  22.923  1.00  0.00     0.120 C 
ATOM     85  C   UNL A   1      28.455  28.338  23.195  1.00  0.00     0.222 C 
ATOM     86  C   UNL A   1      27.802  30.602  23.304  1.00  0.00     0.031 C 
ATOM     87  C   UNL A   1      27.267  29.230  22.931  1.00  0.00     0.102 C 
ATOM     88  O   UNL A   1      28.396  27.157  23.470  1.00  0.00    -0.275 OA
ENDBRANCH  82  83
ENDBRANCH  78  82
ENDBRANCH  75  76
ENDBRANCH  73  75
ENDBRANCH  66  69
ENDBRANCH  64  65
ENDBRANCH   1  64
TORSDOF 15
ENDMDL
