MODEL 1
REMARK VINA RESULT:     -12.3      0.000      0.000
REMARK SMILES CCOC(=O)[C@@]1(C)C/C(=N/c2cccc(C(=O)NCCCCNC(=O)c3ccc(-c4c5nc(c(-c6c(F)cccc6F)c6ccc([nH]6)c(-c6c(F)cccc6F)c6nc(c(-c7c(F)cccc7F)c7ccc4[nH]7)C=C6)C=C5)cc3)c2)C(=O)N1c1ccccc1
REMARK SMILES IDX 19 1 18 2 16 3 17 4 15 6 11 7 12 8 80 9 13 10 14 11 10 12
REMARK SMILES IDX 6 13 7 14 8 15 83 16 9 17 81 18 82 19 4 20 5 21 3 22 2 23
REMARK SMILES IDX 1 24 84 25 85 26 89 27 86 28 88 29 87 30 20 31 21 32 22 33
REMARK SMILES IDX 23 34 24 35 25 37 26 38 27 39 79 40 28 41 78 42 29 43 30 44
REMARK SMILES IDX 31 45 72 46 32 47 77 48 71 49 73 50 33 51 76 52 70 53 69 54
REMARK SMILES IDX 34 56 60 57 43 58 59 59 44 60 47 61 58 62 74 63 45 64 46 65
REMARK SMILES IDX 57 67 75 68 48 69 35 70 36 71 41 72 37 73 38 74 40 75 42 76
REMARK SMILES IDX 39 77 61 78 62 79 67 80 63 81 64 82 66 83 68 84 65 85 49 86
REMARK SMILES IDX 50 87 55 88 51 89 52 90 54 91 56 92 53 93
REMARK H PARENT 18 5 23 36 73 55 47 66
REMARK Flexibility Score: inf
ROOT
ATOM      1  C   UNL A   1      31.946  29.675  25.117  1.00  0.00     0.116 C 
ENDROOT
BRANCH   1   2
ATOM      2  N   UNL A   1      30.693  29.988  24.461  1.00  0.00    -0.352 N 
ATOM      3  C   UNL A   1      29.925  29.227  23.604  1.00  0.00     0.251 C 
ATOM      4  O   UNL A   1      28.896  29.723  23.149  1.00  0.00    -0.269 OA
ATOM      5  H   UNL A   1      30.334  30.883  24.656  1.00  0.00     0.163 HD
BRANCH   3   6
ATOM      6  C   UNL A   1      30.326  27.857  23.177  1.00  0.00     0.041 A 
ATOM      7  C   UNL A   1      30.444  25.442  23.525  1.00  0.00     0.064 A 
ATOM      8  C   UNL A   1      31.241  25.330  22.386  1.00  0.00     0.028 A 
ATOM      9  C   UNL A   1      29.969  26.709  23.888  1.00  0.00     0.042 A 
ATOM     10  C   UNL A   1      31.547  26.458  21.619  1.00  0.00     0.003 A 
ATOM     11  C   UNL A   1      31.096  27.719  22.018  1.00  0.00     0.014 A 
BRANCH   7  12
ATOM     12  N   UNL A   1      30.327  24.347  24.397  1.00  0.00    -0.248 NA
ATOM     13  C   UNL A   1      32.673  21.948  25.068  1.00  0.00     0.148 C 
ATOM     14  C   UNL A   1      32.449  21.439  23.621  1.00  0.00     0.048 C 
ATOM     15  C   UNL A   1      31.308  22.474  25.596  1.00  0.00     0.103 C 
ATOM     16  N   UNL A   1      33.547  23.147  25.083  1.00  0.00    -0.290 N 
ATOM     17  C   UNL A   1      31.353  23.840  25.004  1.00  0.00     0.109 C 
ATOM     18  C   UNL A   1      32.781  24.312  25.051  1.00  0.00     0.273 C 
ATOM     19  O   UNL A   1      33.084  25.485  25.042  1.00  0.00    -0.267 OA
BRANCH  13  20
ATOM     20  C   UNL A   1      33.157  20.757  25.932  1.00  0.00     0.332 C 
ATOM     21  O   UNL A   1      33.317  20.811  27.145  1.00  0.00    -0.249 OA
BRANCH  20  22
ATOM     22  O   UNL A   1      33.362  19.631  25.195  1.00  0.00    -0.464 OA
BRANCH  22  23
ATOM     23  C   UNL A   1      32.633  18.469  25.624  1.00  0.00     0.229 C 
ATOM     24  C   UNL A   1      32.845  17.307  24.667  1.00  0.00     0.049 C 
ENDBRANCH  22  23
ENDBRANCH  20  22
ENDBRANCH  13  20
BRANCH  16  25
ATOM     25  C   UNL A   1      34.973  23.148  25.073  1.00  0.00     0.045 A 
ATOM     26  C   UNL A   1      35.675  22.619  23.978  1.00  0.00     0.026 A 
ATOM     27  C   UNL A   1      35.732  23.652  26.135  1.00  0.00     0.026 A 
ATOM     28  C   UNL A   1      37.074  22.606  23.938  1.00  0.00     0.002 A 
ATOM     29  C   UNL A   1      37.133  23.631  26.104  1.00  0.00     0.002 A 
ATOM     30  C   UNL A   1      37.805  23.113  25.005  1.00  0.00     0.000 A 
ENDBRANCH  16  25
ENDBRANCH   7  12
ENDBRANCH   3   6
ENDBRANCH   1   2
BRANCH   1  31
ATOM     31  C   UNL A   1      31.844  29.422  26.616  1.00  0.00     0.023 C 
BRANCH  31  32
ATOM     32  C   UNL A   1      32.953  28.581  27.251  1.00  0.00     0.023 C 
BRANCH  32  33
ATOM     33  C   UNL A   1      34.347  29.201  27.320  1.00  0.00     0.116 C 
BRANCH  33  34
ATOM     34  N   UNL A   1      34.503  30.190  28.374  1.00  0.00    -0.352 N 
ATOM     35  C   UNL A   1      35.583  30.547  29.142  1.00  0.00     0.251 C 
ATOM     36  H   UNL A   1      33.682  30.699  28.572  1.00  0.00     0.163 HD
ATOM     37  O   UNL A   1      35.436  31.396  30.019  1.00  0.00    -0.269 OA
BRANCH  35  38
ATOM     38  C   UNL A   1      36.905  29.899  28.975  1.00  0.00     0.039 A 
ATOM     39  C   UNL A   1      37.512  29.956  27.715  1.00  0.00     0.014 A 
ATOM     40  C   UNL A   1      37.540  29.219  30.016  1.00  0.00     0.014 A 
ATOM     41  C   UNL A   1      38.791  29.425  27.527  1.00  0.00     0.010 A 
ATOM     42  C   UNL A   1      38.840  28.740  29.846  1.00  0.00     0.010 A 
ATOM     43  C   UNL A   1      39.487  28.859  28.605  1.00  0.00    -0.014 A 
BRANCH  43  44
ATOM     44  C   UNL A   1      40.906  28.445  28.472  1.00  0.00     0.031 A 
ATOM     45  C   UNL A   1      42.016  29.448  28.593  1.00  0.00     0.074 A 
ATOM     46  C   UNL A   1      41.194  27.169  28.152  1.00  0.00     0.049 A 
ATOM     47  N   UNL A   1      43.293  29.296  28.346  1.00  0.00    -0.248 NA
ATOM     48  C   UNL A   1      41.641  30.802  29.025  1.00  0.00     0.031 C 
ATOM     49  C   UNL A   1      40.212  26.099  27.962  1.00  0.00     0.029 A 
ATOM     50  N   UNL A   1      42.400  26.560  27.914  1.00  0.00    -0.354 N 
ATOM     51  C   UNL A   1      43.866  30.545  28.537  1.00  0.00     0.074 A 
ATOM     52  C   UNL A   1      42.801  31.440  28.942  1.00  0.00     0.031 C 
ATOM     53  C   UNL A   1      40.856  24.962  27.649  1.00  0.00     0.029 A 
ATOM     54  C   UNL A   1      42.289  25.231  27.588  1.00  0.00     0.049 A 
ATOM     55  H   UNL A   1      43.262  27.030  27.971  1.00  0.00     0.167 HD
ATOM     56  C   UNL A   1      45.158  30.916  28.380  1.00  0.00     0.037 A 
ATOM     57  C   UNL A   1      43.232  24.330  27.258  1.00  0.00     0.037 A 
ATOM     58  C   UNL A   1      46.235  30.026  28.036  1.00  0.00     0.049 A 
ATOM     59  C   UNL A   1      44.670  24.743  27.191  1.00  0.00     0.074 A 
ATOM     60  C   UNL A   1      47.583  30.314  27.896  1.00  0.00     0.029 A 
ATOM     61  N   UNL A   1      46.088  28.670  27.795  1.00  0.00    -0.354 N 
ATOM     62  N   UNL A   1      45.192  25.930  27.368  1.00  0.00    -0.248 NA
ATOM     63  C   UNL A   1      45.647  23.692  26.870  1.00  0.00     0.031 C 
ATOM     64  C   UNL A   1      48.253  29.126  27.572  1.00  0.00     0.029 A 
ATOM     65  C   UNL A   1      47.321  28.104  27.515  1.00  0.00     0.049 A 
ATOM     66  H   UNL A   1      45.234  28.182  27.819  1.00  0.00     0.167 HD
ATOM     67  C   UNL A   1      46.558  25.773  27.177  1.00  0.00     0.074 A 
ATOM     68  C   UNL A   1      46.785  24.373  26.883  1.00  0.00     0.031 C 
ATOM     69  C   UNL A   1      47.532  26.711  27.232  1.00  0.00     0.037 A 
BRANCH  56  70
ATOM     70  C   UNL A   1      45.474  32.365  28.562  1.00  0.00     0.057 A 
ATOM     71  C   UNL A   1      45.856  32.883  29.804  1.00  0.00     0.134 A 
ATOM     72  C   UNL A   1      45.417  33.246  27.474  1.00  0.00     0.134 A 
ATOM     73  F   UNL A   1      45.915  32.088  30.882  1.00  0.00    -0.206 F 
ATOM     74  C   UNL A   1      46.164  34.235  29.961  1.00  0.00     0.040 A 
ATOM     75  C   UNL A   1      45.729  34.597  27.618  1.00  0.00     0.040 A 
ATOM     76  F   UNL A   1      45.054  32.805  26.261  1.00  0.00    -0.206 F 
ATOM     77  C   UNL A   1      46.104  35.096  28.865  1.00  0.00     0.006 A 
ENDBRANCH  56  70
BRANCH  57  78
ATOM     78  C   UNL A   1      42.837  22.935  26.967  1.00  0.00     0.057 A 
ATOM     79  C   UNL A   1      42.502  22.056  28.000  1.00  0.00     0.134 A 
ATOM     80  C   UNL A   1      42.770  22.460  25.654  1.00  0.00     0.134 A 
ATOM     81  F   UNL A   1      42.564  22.460  29.278  1.00  0.00    -0.206 F 
ATOM     82  C   UNL A   1      42.116  20.741  27.738  1.00  0.00     0.040 A 
ATOM     83  C   UNL A   1      42.378  21.151  25.376  1.00  0.00     0.040 A 
ATOM     84  F   UNL A   1      43.081  23.264  24.626  1.00  0.00    -0.206 F 
ATOM     85  C   UNL A   1      42.050  20.287  26.421  1.00  0.00     0.006 A 
ENDBRANCH  57  78
BRANCH  69  86
ATOM     86  C   UNL A   1      48.929  26.247  26.975  1.00  0.00     0.057 A 
ATOM     87  C   UNL A   1      49.693  25.657  27.987  1.00  0.00     0.134 A 
ATOM     88  C   UNL A   1      49.507  26.377  25.708  1.00  0.00     0.134 A 
ATOM     89  F   UNL A   1      49.194  25.519  29.224  1.00  0.00    -0.206 F 
ATOM     90  C   UNL A   1      50.995  25.214  27.747  1.00  0.00     0.040 A 
ATOM     91  C   UNL A   1      50.806  25.934  25.455  1.00  0.00     0.040 A 
ATOM     92  F   UNL A   1      48.823  26.942  24.702  1.00  0.00    -0.206 F 
ATOM     93  C   UNL A   1      51.553  25.350  26.478  1.00  0.00     0.006 A 
ENDBRANCH  69  86
ENDBRANCH  43  44
ENDBRANCH  35  38
ENDBRANCH  33  34
ENDBRANCH  32  33
ENDBRANCH  31  32
ENDBRANCH   1  31
TORSDOF 16
ENDMDL
MODEL 2
REMARK VINA RESULT:     -12.2      5.084      9.934
REMARK SMILES CCOC(=O)[C@@]1(C)C/C(=N/c2cccc(C(=O)NCCCCNC(=O)c3ccc(-c4c5nc(c(-c6c(F)cccc6F)c6ccc([nH]6)c(-c6c(F)cccc6F)c6nc(c(-c7c(F)cccc7F)c7ccc4[nH]7)C=C6)C=C5)cc3)c2)C(=O)N1c1ccccc1
REMARK SMILES IDX 19 1 18 2 16 3 17 4 15 6 11 7 12 8 80 9 13 10 14 11 10 12
REMARK SMILES IDX 6 13 7 14 8 15 83 16 9 17 81 18 82 19 4 20 5 21 3 22 2 23
REMARK SMILES IDX 1 24 84 25 85 26 89 27 86 28 88 29 87 30 20 31 21 32 22 33
REMARK SMILES IDX 23 34 24 35 25 37 26 38 27 39 79 40 28 41 78 42 29 43 30 44
REMARK SMILES IDX 31 45 72 46 32 47 77 48 71 49 73 50 33 51 76 52 70 53 69 54
REMARK SMILES IDX 34 56 60 57 43 58 59 59 44 60 47 61 58 62 74 63 45 64 46 65
REMARK SMILES IDX 57 67 75 68 48 69 35 70 36 71 41 72 37 73 38 74 40 75 42 76
REMARK SMILES IDX 39 77 61 78 62 79 67 80 63 81 64 82 66 83 68 84 65 85 49 86
REMARK SMILES IDX 50 87 55 88 51 89 52 90 54 91 56 92 53 93
REMARK H PARENT 18 5 23 36 73 55 47 66
REMARK Flexibility Score: inf
ROOT
ATOM      1  C   UNL A   1      36.732  23.076  25.838  1.00  0.00     0.116 C 
ENDROOT
BRANCH   1   2
ATOM      2  N   UNL A   1      36.701  21.663  25.518  1.00  0.00    -0.352 N 
ATOM      3  C   UNL A   1      35.665  20.882  25.049  1.00  0.00     0.251 C 
ATOM      4  O   UNL A   1      35.874  19.683  24.870  1.00  0.00    -0.269 OA
ATOM      5  H   UNL A   1      37.550  21.187  25.657  1.00  0.00     0.163 HD
BRANCH   3   6
ATOM      6  C   UNL A   1      34.301  21.429  24.804  1.00  0.00     0.041 A 
ATOM      7  C   UNL A   1      32.720  22.776  23.518  1.00  0.00     0.064 A 
ATOM      8  C   UNL A   1      31.749  22.541  24.490  1.00  0.00     0.028 A 
ATOM      9  C   UNL A   1      33.981  22.185  23.675  1.00  0.00     0.042 A 
ATOM     10  C   UNL A   1      32.028  21.725  25.590  1.00  0.00     0.003 A 
ATOM     11  C   UNL A   1      33.302  21.176  25.750  1.00  0.00     0.014 A 
BRANCH   7  12
ATOM     12  N   UNL A   1      32.498  23.762  22.542  1.00  0.00    -0.248 NA
ATOM     13  C   UNL A   1      31.534  27.008  23.033  1.00  0.00     0.148 C 
ATOM     14  C   UNL A   1      30.158  26.448  23.475  1.00  0.00     0.048 C 
ATOM     15  C   UNL A   1      32.083  26.073  21.918  1.00  0.00     0.103 C 
ATOM     16  N   UNL A   1      32.534  26.889  24.122  1.00  0.00    -0.290 N 
ATOM     17  C   UNL A   1      32.681  25.021  22.785  1.00  0.00     0.109 C 
ATOM     18  C   UNL A   1      33.252  25.699  24.001  1.00  0.00     0.273 C 
ATOM     19  O   UNL A   1      34.139  25.212  24.667  1.00  0.00    -0.267 OA
BRANCH  13  20
ATOM     20  C   UNL A   1      31.320  28.437  22.475  1.00  0.00     0.332 C 
ATOM     21  O   UNL A   1      32.194  29.293  22.430  1.00  0.00    -0.249 OA
BRANCH  20  22
ATOM     22  O   UNL A   1      30.053  28.630  22.015  1.00  0.00    -0.464 OA
BRANCH  22  23
ATOM     23  C   UNL A   1      29.578  29.986  22.061  1.00  0.00     0.229 C 
ATOM     24  C   UNL A   1      29.142  30.366  23.467  1.00  0.00     0.049 C 
ENDBRANCH  22  23
ENDBRANCH  20  22
ENDBRANCH  13  20
BRANCH  16  25
ATOM     25  C   UNL A   1      32.724  27.811  25.193  1.00  0.00     0.045 A 
ATOM     26  C   UNL A   1      31.624  28.286  25.925  1.00  0.00     0.026 A 
ATOM     27  C   UNL A   1      33.987  28.293  25.555  1.00  0.00     0.026 A 
ATOM     28  C   UNL A   1      31.779  29.190  26.981  1.00  0.00     0.002 A 
ATOM     29  C   UNL A   1      34.146  29.208  26.605  1.00  0.00     0.002 A 
ATOM     30  C   UNL A   1      33.043  29.653  27.322  1.00  0.00     0.000 A 
ENDBRANCH  16  25
ENDBRANCH   7  12
ENDBRANCH   3   6
ENDBRANCH   1   2
BRANCH   1  31
ATOM     31  C   UNL A   1      38.123  23.654  26.070  1.00  0.00     0.023 C 
BRANCH  31  32
ATOM     32  C   UNL A   1      39.230  22.664  26.434  1.00  0.00     0.023 C 
BRANCH  32  33
ATOM     33  C   UNL A   1      40.548  23.247  26.942  1.00  0.00     0.116 C 
BRANCH  33  34
ATOM     34  N   UNL A   1      41.279  24.012  25.945  1.00  0.00    -0.352 N 
ATOM     35  C   UNL A   1      41.590  25.346  25.862  1.00  0.00     0.251 C 
ATOM     36  H   UNL A   1      41.614  23.473  25.190  1.00  0.00     0.163 HD
ATOM     37  O   UNL A   1      42.186  25.758  24.870  1.00  0.00    -0.269 OA
BRANCH  35  38
ATOM     38  C   UNL A   1      41.180  26.307  26.913  1.00  0.00     0.039 A 
ATOM     39  C   UNL A   1      40.334  25.850  27.930  1.00  0.00     0.014 A 
ATOM     40  C   UNL A   1      41.585  27.643  26.901  1.00  0.00     0.014 A 
ATOM     41  C   UNL A   1      39.981  26.698  28.984  1.00  0.00     0.010 A 
ATOM     42  C   UNL A   1      41.281  28.474  27.981  1.00  0.00     0.010 A 
ATOM     43  C   UNL A   1      40.494  28.001  29.044  1.00  0.00    -0.014 A 
BRANCH  43  44
ATOM     44  C   UNL A   1      40.273  28.861  30.235  1.00  0.00     0.031 A 
ATOM     45  C   UNL A   1      39.173  29.882  30.255  1.00  0.00     0.074 A 
ATOM     46  C   UNL A   1      41.127  28.782  31.273  1.00  0.00     0.049 A 
ATOM     47  N   UNL A   1      38.938  30.821  31.136  1.00  0.00    -0.248 NA
ATOM     48  C   UNL A   1      38.228  29.859  29.129  1.00  0.00     0.031 C 
ATOM     49  C   UNL A   1      42.266  27.865  31.369  1.00  0.00     0.029 A 
ATOM     50  N   UNL A   1      41.178  29.498  32.442  1.00  0.00    -0.354 N 
ATOM     51  C   UNL A   1      37.856  31.537  30.645  1.00  0.00     0.074 A 
ATOM     52  C   UNL A   1      37.466  30.910  29.399  1.00  0.00     0.031 C 
ATOM     53  C   UNL A   1      42.895  28.066  32.539  1.00  0.00     0.029 A 
ATOM     54  C   UNL A   1      42.223  29.143  33.258  1.00  0.00     0.049 A 
ATOM     55  H   UNL A   1      40.529  30.200  32.673  1.00  0.00     0.167 HD
ATOM     56  C   UNL A   1      37.249  32.624  31.178  1.00  0.00     0.037 A 
ATOM     57  C   UNL A   1      42.610  29.639  34.448  1.00  0.00     0.037 A 
ATOM     58  C   UNL A   1      37.588  33.220  32.442  1.00  0.00     0.049 A 
ATOM     59  C   UNL A   1      41.858  30.777  35.064  1.00  0.00     0.074 A 
ATOM     60  C   UNL A   1      36.996  34.300  33.075  1.00  0.00     0.029 A 
ATOM     61  N   UNL A   1      38.602  32.776  33.275  1.00  0.00    -0.354 N 
ATOM     62  N   UNL A   1      40.841  31.446  34.583  1.00  0.00    -0.248 NA
ATOM     63  C   UNL A   1      42.313  31.233  36.387  1.00  0.00     0.031 C 
ATOM     64  C   UNL A   1      37.652  34.507  34.296  1.00  0.00     0.029 A 
ATOM     65  C   UNL A   1      38.647  33.553  34.420  1.00  0.00     0.049 A 
ATOM     66  H   UNL A   1      39.201  32.019  33.081  1.00  0.00     0.167 HD
ATOM     67  C   UNL A   1      40.535  32.405  35.538  1.00  0.00     0.074 A 
ATOM     68  C   UNL A   1      41.465  32.223  36.633  1.00  0.00     0.031 C 
ATOM     69  C   UNL A   1      39.573  33.356  35.502  1.00  0.00     0.037 A 
BRANCH  56  70
ATOM     70  C   UNL A   1      36.158  33.252  30.373  1.00  0.00     0.057 A 
ATOM     71  C   UNL A   1      34.809  33.056  30.686  1.00  0.00     0.134 A 
ATOM     72  C   UNL A   1      36.465  34.083  29.288  1.00  0.00     0.134 A 
ATOM     73  F   UNL A   1      34.457  32.260  31.705  1.00  0.00    -0.206 F 
ATOM     74  C   UNL A   1      33.798  33.659  29.937  1.00  0.00     0.040 A 
ATOM     75  C   UNL A   1      35.463  34.697  28.538  1.00  0.00     0.040 A 
ATOM     76  F   UNL A   1      37.742  34.304  28.941  1.00  0.00    -0.206 F 
ATOM     77  C   UNL A   1      34.124  34.485  28.862  1.00  0.00     0.006 A 
ENDBRANCH  56  70
BRANCH  57  78
ATOM     78  C   UNL A   1      43.780  29.051  35.136  1.00  0.00     0.057 A 
ATOM     79  C   UNL A   1      43.618  28.022  36.068  1.00  0.00     0.134 A 
ATOM     80  C   UNL A   1      45.077  29.492  34.865  1.00  0.00     0.134 A 
ATOM     81  F   UNL A   1      42.392  27.573  36.373  1.00  0.00    -0.206 F 
ATOM     82  C   UNL A   1      44.713  27.450  36.715  1.00  0.00     0.040 A 
ATOM     83  C   UNL A   1      46.183  28.925  35.498  1.00  0.00     0.040 A 
ATOM     84  F   UNL A   1      45.287  30.476  33.978  1.00  0.00    -0.206 F 
ATOM     85  C   UNL A   1      46.002  27.900  36.427  1.00  0.00     0.006 A 
ENDBRANCH  57  78
BRANCH  69  86
ATOM     86  C   UNL A   1      39.478  34.264  36.685  1.00  0.00     0.057 A 
ATOM     87  C   UNL A   1      40.085  35.525  36.680  1.00  0.00     0.134 A 
ATOM     88  C   UNL A   1      38.766  33.884  37.827  1.00  0.00     0.134 A 
ATOM     89  F   UNL A   1      40.792  35.936  35.617  1.00  0.00    -0.206 F 
ATOM     90  C   UNL A   1      39.990  36.379  37.780  1.00  0.00     0.040 A 
ATOM     91  C   UNL A   1      38.660  34.731  38.931  1.00  0.00     0.040 A 
ATOM     92  F   UNL A   1      38.170  32.683  37.889  1.00  0.00    -0.206 F 
ATOM     93  C   UNL A   1      39.273  35.983  38.908  1.00  0.00     0.006 A 
ENDBRANCH  69  86
ENDBRANCH  43  44
ENDBRANCH  35  38
ENDBRANCH  33  34
ENDBRANCH  32  33
ENDBRANCH  31  32
ENDBRANCH   1  31
TORSDOF 16
ENDMDL
MODEL 3
REMARK VINA RESULT:     -12.0      2.445      8.136
REMARK SMILES CCOC(=O)[C@@]1(C)C/C(=N/c2cccc(C(=O)NCCCCNC(=O)c3ccc(-c4c5nc(c(-c6c(F)cccc6F)c6ccc([nH]6)c(-c6c(F)cccc6F)c6nc(c(-c7c(F)cccc7F)c7ccc4[nH]7)C=C6)C=C5)cc3)c2)C(=O)N1c1ccccc1
REMARK SMILES IDX 19 1 18 2 16 3 17 4 15 6 11 7 12 8 80 9 13 10 14 11 10 12
REMARK SMILES IDX 6 13 7 14 8 15 83 16 9 17 81 18 82 19 4 20 5 21 3 22 2 23
REMARK SMILES IDX 1 24 84 25 85 26 89 27 86 28 88 29 87 30 20 31 21 32 22 33
REMARK SMILES IDX 23 34 24 35 25 37 26 38 27 39 79 40 28 41 78 42 29 43 30 44
REMARK SMILES IDX 31 45 72 46 32 47 77 48 71 49 73 50 33 51 76 52 70 53 69 54
REMARK SMILES IDX 34 56 60 57 43 58 59 59 44 60 47 61 58 62 74 63 45 64 46 65
REMARK SMILES IDX 57 67 75 68 48 69 35 70 36 71 41 72 37 73 38 74 40 75 42 76
REMARK SMILES IDX 39 77 61 78 62 79 67 80 63 81 64 82 66 83 68 84 65 85 49 86
REMARK SMILES IDX 50 87 55 88 51 89 52 90 54 91 56 92 53 93
REMARK H PARENT 18 5 23 36 73 55 47 66
REMARK Flexibility Score: inf
ROOT
ATOM      1  C   UNL A   1      36.390  22.114  25.349  1.00  0.00     0.116 C 
ENDROOT
BRANCH   1   2
ATOM      2  N   UNL A   1      35.972  20.754  25.080  1.00  0.00    -0.352 N 
ATOM      3  C   UNL A   1      34.722  20.252  24.783  1.00  0.00     0.251 C 
ATOM      4  O   UNL A   1      34.606  19.039  24.614  1.00  0.00    -0.269 OA
ATOM      5  H   UNL A   1      36.691  20.083  25.115  1.00  0.00     0.163 HD
BRANCH   3   6
ATOM      6  C   UNL A   1      33.511  21.117  24.712  1.00  0.00     0.041 A 
ATOM      7  C   UNL A   1      32.118  22.782  23.593  1.00  0.00     0.064 A 
ATOM      8  C   UNL A   1      31.291  22.826  24.715  1.00  0.00     0.028 A 
ATOM      9  C   UNL A   1      33.204  21.899  23.596  1.00  0.00     0.042 A 
ATOM     10  C   UNL A   1      31.539  21.996  25.813  1.00  0.00     0.003 A 
ATOM     11  C   UNL A   1      32.650  21.149  25.813  1.00  0.00     0.014 A 
BRANCH   7  12
ATOM     12  N   UNL A   1      31.985  23.766  22.599  1.00  0.00    -0.248 NA
ATOM     13  C   UNL A   1      31.237  27.078  23.020  1.00  0.00     0.148 C 
ATOM     14  C   UNL A   1      29.816  26.621  23.438  1.00  0.00     0.048 C 
ATOM     15  C   UNL A   1      31.746  26.090  21.931  1.00  0.00     0.103 C 
ATOM     16  N   UNL A   1      32.203  26.909  24.134  1.00  0.00    -0.290 N 
ATOM     17  C   UNL A   1      32.250  25.013  22.827  1.00  0.00     0.109 C 
ATOM     18  C   UNL A   1      32.839  25.670  24.046  1.00  0.00     0.273 C 
ATOM     19  O   UNL A   1      33.675  25.134  24.740  1.00  0.00    -0.267 OA
BRANCH  13  20
ATOM     20  C   UNL A   1      31.135  28.509  22.437  1.00  0.00     0.332 C 
ATOM     21  O   UNL A   1      32.076  29.290  22.369  1.00  0.00    -0.249 OA
BRANCH  20  22
ATOM     22  O   UNL A   1      29.884  28.797  21.984  1.00  0.00    -0.464 OA
BRANCH  22  23
ATOM     23  C   UNL A   1      29.503  30.181  22.054  1.00  0.00     0.229 C 
ATOM     24  C   UNL A   1      29.029  30.547  23.451  1.00  0.00     0.049 C 
ENDBRANCH  22  23
ENDBRANCH  20  22
ENDBRANCH  13  20
BRANCH  16  25
ATOM     25  C   UNL A   1      32.432  27.832  25.195  1.00  0.00     0.045 A 
ATOM     26  C   UNL A   1      33.636  28.553  25.262  1.00  0.00     0.026 A 
ATOM     27  C   UNL A   1      31.498  28.056  26.213  1.00  0.00     0.026 A 
ATOM     28  C   UNL A   1      33.890  29.466  26.291  1.00  0.00     0.002 A 
ATOM     29  C   UNL A   1      31.753  28.961  27.252  1.00  0.00     0.002 A 
ATOM     30  C   UNL A   1      32.946  29.671  27.289  1.00  0.00     0.000 A 
ENDBRANCH  16  25
ENDBRANCH   7  12
ENDBRANCH   3   6
ENDBRANCH   1   2
BRANCH   1  31
ATOM     31  C   UNL A   1      37.853  22.272  25.747  1.00  0.00     0.023 C 
BRANCH  31  32
ATOM     32  C   UNL A   1      38.817  21.179  25.283  1.00  0.00     0.023 C 
BRANCH  32  33
ATOM     33  C   UNL A   1      39.211  20.116  26.308  1.00  0.00     0.116 C 
BRANCH  33  34
ATOM     34  N   UNL A   1      40.387  19.345  25.937  1.00  0.00    -0.352 N 
ATOM     35  C   UNL A   1      41.727  19.630  26.008  1.00  0.00     0.251 C 
ATOM     36  H   UNL A   1      40.184  18.454  25.568  1.00  0.00     0.163 HD
ATOM     37  O   UNL A   1      42.534  18.811  25.573  1.00  0.00    -0.269 OA
BRANCH  35  38
ATOM     38  C   UNL A   1      42.222  20.918  26.549  1.00  0.00     0.039 A 
ATOM     39  C   UNL A   1      42.688  21.878  25.642  1.00  0.00     0.014 A 
ATOM     40  C   UNL A   1      42.264  21.186  27.918  1.00  0.00     0.014 A 
ATOM     41  C   UNL A   1      43.094  23.135  26.097  1.00  0.00     0.010 A 
ATOM     42  C   UNL A   1      42.615  22.460  28.370  1.00  0.00     0.010 A 
ATOM     43  C   UNL A   1      43.012  23.453  27.460  1.00  0.00    -0.014 A 
BRANCH  43  44
ATOM     44  C   UNL A   1      43.274  24.832  27.945  1.00  0.00     0.031 A 
ATOM     45  C   UNL A   1      44.661  25.266  28.319  1.00  0.00     0.074 A 
ATOM     46  C   UNL A   1      42.240  25.673  28.135  1.00  0.00     0.049 A 
ATOM     47  N   UNL A   1      45.047  26.370  28.909  1.00  0.00    -0.248 NA
ATOM     48  C   UNL A   1      45.754  24.332  28.009  1.00  0.00     0.031 C 
ATOM     49  C   UNL A   1      40.835  25.367  27.855  1.00  0.00     0.029 A 
ATOM     50  N   UNL A   1      42.210  26.953  28.625  1.00  0.00    -0.354 N 
ATOM     51  C   UNL A   1      46.416  26.239  29.094  1.00  0.00     0.074 A 
ATOM     52  C   UNL A   1      46.799  24.959  28.533  1.00  0.00     0.031 C 
ATOM     53  C   UNL A   1      40.082  26.436  28.166  1.00  0.00     0.029 A 
ATOM     54  C   UNL A   1      40.947  27.486  28.694  1.00  0.00     0.049 A 
ATOM     55  H   UNL A   1      43.017  27.444  28.903  1.00  0.00     0.167 HD
ATOM     56  C   UNL A   1      47.275  27.103  29.687  1.00  0.00     0.037 A 
ATOM     57  C   UNL A   1      40.526  28.681  29.147  1.00  0.00     0.037 A 
ATOM     58  C   UNL A   1      46.920  28.401  30.194  1.00  0.00     0.049 A 
ATOM     59  C   UNL A   1      41.512  29.660  29.704  1.00  0.00     0.074 A 
ATOM     60  C   UNL A   1      47.739  29.356  30.774  1.00  0.00     0.029 A 
ATOM     61  N   UNL A   1      45.642  28.933  30.167  1.00  0.00    -0.354 N 
ATOM     62  N   UNL A   1      42.802  29.518  29.877  1.00  0.00    -0.248 NA
ATOM     63  C   UNL A   1      40.982  30.962  30.136  1.00  0.00     0.031 C 
ATOM     64  C   UNL A   1      46.953  30.470  31.096  1.00  0.00     0.029 A 
ATOM     65  C   UNL A   1      45.649  30.206  30.712  1.00  0.00     0.049 A 
ATOM     66  H   UNL A   1      44.846  28.474  29.814  1.00  0.00     0.167 HD
ATOM     67  C   UNL A   1      43.240  30.707  30.442  1.00  0.00     0.074 A 
ATOM     68  C   UNL A   1      42.080  31.567  30.570  1.00  0.00     0.031 C 
ATOM     69  C   UNL A   1      44.491  31.050  30.826  1.00  0.00     0.037 A 
BRANCH  56  70
ATOM     70  C   UNL A   1      48.693  26.653  29.834  1.00  0.00     0.057 A 
ATOM     71  C   UNL A   1      49.665  26.967  28.880  1.00  0.00     0.134 A 
ATOM     72  C   UNL A   1      49.090  25.916  30.957  1.00  0.00     0.134 A 
ATOM     73  F   UNL A   1      49.338  27.657  27.778  1.00  0.00    -0.206 F 
ATOM     74  C   UNL A   1      50.990  26.555  29.033  1.00  0.00     0.040 A 
ATOM     75  C   UNL A   1      50.413  25.507  31.125  1.00  0.00     0.040 A 
ATOM     76  F   UNL A   1      48.199  25.584  31.903  1.00  0.00    -0.206 F 
ATOM     77  C   UNL A   1      51.367  25.825  30.161  1.00  0.00     0.006 A 
ENDBRANCH  56  70
BRANCH  57  78
ATOM     78  C   UNL A   1      39.087  29.016  29.087  1.00  0.00     0.057 A 
ATOM     79  C   UNL A   1      38.510  29.487  27.904  1.00  0.00     0.134 A 
ATOM     80  C   UNL A   1      38.259  28.859  30.202  1.00  0.00     0.134 A 
ATOM     81  F   UNL A   1      39.265  29.669  26.810  1.00  0.00    -0.206 F 
ATOM     82  C   UNL A   1      37.152  29.795  27.830  1.00  0.00     0.040 A 
ATOM     83  C   UNL A   1      36.898  29.155  30.142  1.00  0.00     0.040 A 
ATOM     84  F   UNL A   1      38.762  28.410  31.361  1.00  0.00    -0.206 F 
ATOM     85  C   UNL A   1      36.341  29.626  28.953  1.00  0.00     0.006 A 
ENDBRANCH  57  78
BRANCH  69  86
ATOM     86  C   UNL A   1      44.666  32.413  31.414  1.00  0.00     0.057 A 
ATOM     87  C   UNL A   1      44.570  32.624  32.794  1.00  0.00     0.134 A 
ATOM     88  C   UNL A   1      44.946  33.515  30.600  1.00  0.00     0.134 A 
ATOM     89  F   UNL A   1      44.290  31.605  33.620  1.00  0.00    -0.206 F 
ATOM     90  C   UNL A   1      44.744  33.894  33.346  1.00  0.00     0.040 A 
ATOM     91  C   UNL A   1      45.126  34.789  31.141  1.00  0.00     0.040 A 
ATOM     92  F   UNL A   1      45.042  33.372  29.269  1.00  0.00    -0.206 F 
ATOM     93  C   UNL A   1      45.025  34.980  32.519  1.00  0.00     0.006 A 
ENDBRANCH  69  86
ENDBRANCH  43  44
ENDBRANCH  35  38
ENDBRANCH  33  34
ENDBRANCH  32  33
ENDBRANCH  31  32
ENDBRANCH   1  31
TORSDOF 16
ENDMDL
