MODEL 1
REMARK VINA RESULT:     -11.5      0.000      0.000
REMARK SMILES C[C@@H](c1ccccn1)S(=O)(=O)N1CC[NH2+]C[C@@H]1C(=O)NCCCCNC(=O)c1ccc(-c2c3nc(c(-c4c(F)cccc4F)c4ccc([nH]4)c(-c4c(F)cccc4F)c4nc(c(-c5c(F)cccc5F)c5ccc2[nH]5)C=C4)C=C3)cc1
REMARK SMILES IDX 22 1 21 2 20 3 18 4 19 5 17 7 12 8 13 9 14 10 16 11 15 12
REMARK SMILES IDX 9 15 10 16 11 17 2 18 1 19 3 20 4 21 8 22 5 23 7 24 6 25
REMARK SMILES IDX 23 26 24 27 25 28 26 29 27 31 28 32 29 33 81 34 30 35 80 36
REMARK SMILES IDX 31 37 32 38 33 39 74 40 34 41 79 42 73 43 75 44 35 45 78 46
REMARK SMILES IDX 72 47 71 48 36 50 62 51 45 52 61 53 46 54 49 55 60 56 76 57
REMARK SMILES IDX 47 58 48 59 59 61 77 62 50 63 37 64 38 65 43 66 39 67 40 68
REMARK SMILES IDX 42 69 44 70 41 71 63 72 64 73 69 74 65 75 66 76 68 77 70 78
REMARK SMILES IDX 67 79 51 80 52 81 57 82 53 83 54 84 56 85 58 86 55 87
REMARK H PARENT 20 6 15 13 15 14 25 30 75 49 49 60
REMARK Flexibility Score: inf
ROOT
ATOM      1  C   UNL A   1      36.870  21.424  24.416  1.00  0.00     0.023 C 
ENDROOT
BRANCH   1   2
ATOM      2  C   UNL A   1      36.529  22.497  25.443  1.00  0.00     0.116 C 
BRANCH   2   3
ATOM      3  N   UNL A   1      35.646  22.062  26.498  1.00  0.00    -0.355 N 
ATOM      4  C   UNL A   1      34.280  21.953  26.493  1.00  0.00     0.244 C 
ATOM      5  O   UNL A   1      33.782  21.559  27.553  1.00  0.00    -0.273 OA
ATOM      6  H   UNL A   1      36.087  21.807  27.341  1.00  0.00     0.163 HD
BRANCH   4   7
ATOM      7  C   UNL A   1      33.414  22.368  25.259  1.00  0.00     0.216 C 
ATOM      8  N   UNL A   1      33.144  23.855  25.292  1.00  0.00    -0.177 NA
ATOM      9  C   UNL A   1      32.200  24.169  26.445  1.00  0.00     0.164 C 
ATOM     10  C   UNL A   1      30.927  23.278  26.432  1.00  0.00     0.277 C 
ATOM     11  C   UNL A   1      32.065  21.632  25.121  1.00  0.00     0.291 C 
ATOM     12  N   UNL A   1      31.180  21.828  26.284  1.00  0.00    -0.343 N 
ATOM     13  H   UNL A   1      30.298  21.338  26.134  1.00  0.00     0.346 HD
ATOM     14  H   UNL A   1      31.619  21.458  27.128  1.00  0.00     0.346 HD
BRANCH   8  15
ATOM     15  S   UNL A   1      32.736  24.713  23.892  1.00  0.00     0.223 S 
ATOM     16  O   UNL A   1      31.325  25.033  24.036  1.00  0.00    -0.211 OA
ATOM     17  O   UNL A   1      33.117  23.897  22.755  1.00  0.00    -0.211 OA
BRANCH  15  18
ATOM     18  C   UNL A   1      33.633  26.293  23.787  1.00  0.00     0.170 C 
ATOM     19  C   UNL A   1      33.659  26.854  22.370  1.00  0.00     0.033 C 
BRANCH  18  20
ATOM     20  C   UNL A   1      33.155  27.242  24.868  1.00  0.00     0.060 A 
ATOM     21  C   UNL A   1      33.850  27.372  26.072  1.00  0.00     0.025 A 
ATOM     22  N   UNL A   1      32.029  27.967  24.630  1.00  0.00    -0.260 NA
ATOM     23  C   UNL A   1      33.337  28.190  27.077  1.00  0.00     0.004 A 
ATOM     24  C   UNL A   1      31.566  28.775  25.612  1.00  0.00     0.111 A 
ATOM     25  C   UNL A   1      32.167  28.901  26.849  1.00  0.00     0.020 A 
ENDBRANCH  18  20
ENDBRANCH  15  18
ENDBRANCH   8  15
ENDBRANCH   4   7
ENDBRANCH   2   3
ENDBRANCH   1   2
BRANCH   1  26
ATOM     26  C   UNL A   1      37.650  20.214  24.929  1.00  0.00     0.023 C 
BRANCH  26  27
ATOM     27  C   UNL A   1      38.849  20.492  25.830  1.00  0.00     0.116 C 
BRANCH  27  28
ATOM     28  N   UNL A   1      39.905  19.491  25.755  1.00  0.00    -0.352 N 
ATOM     29  C   UNL A   1      41.235  19.580  26.092  1.00  0.00     0.251 C 
ATOM     30  H   UNL A   1      39.621  18.615  25.407  1.00  0.00     0.163 HD
ATOM     31  O   UNL A   1      41.978  18.618  25.910  1.00  0.00    -0.269 OA
BRANCH  29  32
ATOM     32  C   UNL A   1      41.788  20.845  26.619  1.00  0.00     0.039 A 
ATOM     33  C   UNL A   1      42.229  21.812  25.710  1.00  0.00     0.014 A 
ATOM     34  C   UNL A   1      41.837  21.100  27.991  1.00  0.00     0.014 A 
ATOM     35  C   UNL A   1      42.615  23.072  26.172  1.00  0.00     0.010 A 
ATOM     36  C   UNL A   1      42.145  22.380  28.443  1.00  0.00     0.010 A 
ATOM     37  C   UNL A   1      42.523  23.384  27.538  1.00  0.00    -0.014 A 
BRANCH  37  38
ATOM     38  C   UNL A   1      42.796  24.757  28.036  1.00  0.00     0.031 A 
ATOM     39  C   UNL A   1      44.191  25.157  28.423  1.00  0.00     0.074 A 
ATOM     40  C   UNL A   1      41.774  25.619  28.212  1.00  0.00     0.049 A 
ATOM     41  N   UNL A   1      44.612  26.272  28.965  1.00  0.00    -0.248 NA
ATOM     42  C   UNL A   1      45.250  24.161  28.202  1.00  0.00     0.031 C 
ATOM     43  C   UNL A   1      40.366  25.340  27.924  1.00  0.00     0.029 A 
ATOM     44  N   UNL A   1      41.763  26.909  28.686  1.00  0.00    -0.354 N 
ATOM     45  C   UNL A   1      45.977  26.105  29.162  1.00  0.00     0.074 A 
ATOM     46  C   UNL A   1      46.304  24.762  28.733  1.00  0.00     0.031 C 
ATOM     47  C   UNL A   1      39.633  26.432  28.200  1.00  0.00     0.029 A 
ATOM     48  C   UNL A   1      40.512  27.476  28.717  1.00  0.00     0.049 A 
ATOM     49  H   UNL A   1      42.576  27.382  28.977  1.00  0.00     0.167 HD
ATOM     50  C   UNL A   1      46.881  26.996  29.632  1.00  0.00     0.037 A 
ATOM     51  C   UNL A   1      40.118  28.700  29.117  1.00  0.00     0.037 A 
ATOM     52  C   UNL A   1      46.564  28.342  30.029  1.00  0.00     0.049 A 
ATOM     53  C   UNL A   1      41.145  29.673  29.626  1.00  0.00     0.074 A 
ATOM     54  C   UNL A   1      47.418  29.332  30.483  1.00  0.00     0.029 A 
ATOM     55  N   UNL A   1      45.290  28.888  30.011  1.00  0.00    -0.354 N 
ATOM     56  N   UNL A   1      42.440  29.515  29.760  1.00  0.00    -0.248 NA
ATOM     57  C   UNL A   1      40.656  31.000  30.031  1.00  0.00     0.031 C 
ATOM     58  C   UNL A   1      46.658  30.473  30.760  1.00  0.00     0.029 A 
ATOM     59  C   UNL A   1      45.335  30.202  30.448  1.00  0.00     0.049 A 
ATOM     60  H   UNL A   1      44.475  28.413  29.731  1.00  0.00     0.167 HD
ATOM     61  C   UNL A   1      42.923  30.729  30.232  1.00  0.00     0.074 A 
ATOM     62  C   UNL A   1      41.784  31.616  30.353  1.00  0.00     0.031 C 
ATOM     63  C   UNL A   1      44.195  31.077  30.539  1.00  0.00     0.037 A 
BRANCH  50  64
ATOM     64  C   UNL A   1      48.308  26.541  29.725  1.00  0.00     0.057 A 
ATOM     65  C   UNL A   1      49.222  26.783  28.692  1.00  0.00     0.134 A 
ATOM     66  C   UNL A   1      48.780  25.878  30.864  1.00  0.00     0.134 A 
ATOM     67  F   UNL A   1      48.829  27.401  27.568  1.00  0.00    -0.206 F 
ATOM     68  C   UNL A   1      50.548  26.358  28.776  1.00  0.00     0.040 A 
ATOM     69  C   UNL A   1      50.110  25.471  30.971  1.00  0.00     0.040 A 
ATOM     70  F   UNL A   1      47.957  25.619  31.892  1.00  0.00    -0.206 F 
ATOM     71  C   UNL A   1      50.998  25.704  29.922  1.00  0.00     0.006 A 
ENDBRANCH  50  64
BRANCH  51  72
ATOM     72  C   UNL A   1      38.692  29.096  29.022  1.00  0.00     0.057 A 
ATOM     73  C   UNL A   1      38.154  29.554  27.813  1.00  0.00     0.134 A 
ATOM     74  C   UNL A   1      37.841  29.054  30.131  1.00  0.00     0.134 A 
ATOM     75  F   UNL A   1      38.926  29.635  26.719  1.00  0.00    -0.206 F 
ATOM     76  C   UNL A   1      36.828  29.980  27.715  1.00  0.00     0.040 A 
ATOM     77  C   UNL A   1      36.507  29.456  30.043  1.00  0.00     0.040 A 
ATOM     78  F   UNL A   1      38.293  28.619  31.316  1.00  0.00    -0.206 F 
ATOM     79  C   UNL A   1      35.999  29.928  28.834  1.00  0.00     0.006 A 
ENDBRANCH  51  72
BRANCH  63  80
ATOM     80  C   UNL A   1      44.430  32.489  30.986  1.00  0.00     0.057 A 
ATOM     81  C   UNL A   1      44.405  32.850  32.338  1.00  0.00     0.134 A 
ATOM     82  C   UNL A   1      44.716  33.490  30.050  1.00  0.00     0.134 A 
ATOM     83  F   UNL A   1      44.122  31.938  33.281  1.00  0.00    -0.206 F 
ATOM     84  C   UNL A   1      44.638  34.165  32.743  1.00  0.00     0.040 A 
ATOM     85  C   UNL A   1      44.973  34.803  30.445  1.00  0.00     0.040 A 
ATOM     86  F   UNL A   1      44.761  33.206  28.740  1.00  0.00    -0.206 F 
ATOM     87  C   UNL A   1      44.929  35.145  31.795  1.00  0.00     0.006 A 
ENDBRANCH  63  80
ENDBRANCH  37  38
ENDBRANCH  29  32
ENDBRANCH  27  28
ENDBRANCH  26  27
ENDBRANCH   1  26
TORSDOF 14
ENDMDL
MODEL 2
REMARK VINA RESULT:     -11.4      0.432      6.175
REMARK SMILES C[C@@H](c1ccccn1)S(=O)(=O)N1CC[NH2+]C[C@@H]1C(=O)NCCCCNC(=O)c1ccc(-c2c3nc(c(-c4c(F)cccc4F)c4ccc([nH]4)c(-c4c(F)cccc4F)c4nc(c(-c5c(F)cccc5F)c5ccc2[nH]5)C=C4)C=C3)cc1
REMARK SMILES IDX 22 1 21 2 20 3 18 4 19 5 17 7 12 8 13 9 14 10 16 11 15 12
REMARK SMILES IDX 9 15 10 16 11 17 2 18 1 19 3 20 4 21 8 22 5 23 7 24 6 25
REMARK SMILES IDX 23 26 24 27 25 28 26 29 27 31 28 32 29 33 81 34 30 35 80 36
REMARK SMILES IDX 31 37 32 38 33 39 74 40 34 41 79 42 73 43 75 44 35 45 78 46
REMARK SMILES IDX 72 47 71 48 36 50 62 51 45 52 61 53 46 54 49 55 60 56 76 57
REMARK SMILES IDX 47 58 48 59 59 61 77 62 50 63 37 64 38 65 43 66 39 67 40 68
REMARK SMILES IDX 42 69 44 70 41 71 63 72 64 73 69 74 65 75 66 76 68 77 70 78
REMARK SMILES IDX 67 79 51 80 52 81 57 82 53 83 54 84 56 85 58 86 55 87
REMARK H PARENT 20 6 15 13 15 14 25 30 75 49 49 60
REMARK Flexibility Score: inf
ROOT
ATOM      1  C   UNL A   1      36.848  22.211  24.367  1.00  0.00     0.023 C 
ENDROOT
BRANCH   1   2
ATOM      2  C   UNL A   1      36.428  23.125  25.512  1.00  0.00     0.116 C 
BRANCH   2   3
ATOM      3  N   UNL A   1      35.591  22.499  26.508  1.00  0.00    -0.355 N 
ATOM      4  C   UNL A   1      34.243  22.258  26.476  1.00  0.00     0.244 C 
ATOM      5  O   UNL A   1      33.785  21.709  27.485  1.00  0.00    -0.273 OA
ATOM      6  H   UNL A   1      36.054  22.203  27.325  1.00  0.00     0.163 HD
BRANCH   4   7
ATOM      7  C   UNL A   1      33.341  22.710  25.281  1.00  0.00     0.216 C 
ATOM      8  N   UNL A   1      32.903  24.144  25.478  1.00  0.00    -0.177 NA
ATOM      9  C   UNL A   1      31.924  24.215  26.642  1.00  0.00     0.164 C 
ATOM     10  C   UNL A   1      30.761  23.193  26.505  1.00  0.00     0.277 C 
ATOM     11  C   UNL A   1      32.086  21.848  25.037  1.00  0.00     0.291 C 
ATOM     12  N   UNL A   1      31.179  21.807  26.198  1.00  0.00    -0.343 N 
ATOM     13  H   UNL A   1      30.359  21.241  25.978  1.00  0.00     0.346 HD
ATOM     14  H   UNL A   1      31.652  21.396  27.002  1.00  0.00     0.346 HD
BRANCH   8  15
ATOM     15  S   UNL A   1      32.407  25.105  24.177  1.00  0.00     0.223 S 
ATOM     16  O   UNL A   1      31.064  25.546  24.516  1.00  0.00    -0.211 OA
ATOM     17  O   UNL A   1      32.559  24.316  22.969  1.00  0.00    -0.211 OA
BRANCH  15  18
ATOM     18  C   UNL A   1      33.433  26.599  24.015  1.00  0.00     0.170 C 
ATOM     19  C   UNL A   1      33.530  27.085  22.574  1.00  0.00     0.033 C 
BRANCH  18  20
ATOM     20  C   UNL A   1      33.016  27.637  25.039  1.00  0.00     0.060 A 
ATOM     21  C   UNL A   1      33.465  27.566  26.359  1.00  0.00     0.025 A 
ATOM     22  N   UNL A   1      32.194  28.641  24.633  1.00  0.00    -0.260 NA
ATOM     23  C   UNL A   1      32.996  28.488  27.294  1.00  0.00     0.004 A 
ATOM     24  C   UNL A   1      31.775  29.539  25.554  1.00  0.00     0.111 A 
ATOM     25  C   UNL A   1      32.127  29.490  26.888  1.00  0.00     0.020 A 
ENDBRANCH  18  20
ENDBRANCH  15  18
ENDBRANCH   8  15
ENDBRANCH   4   7
ENDBRANCH   2   3
ENDBRANCH   1   2
BRANCH   1  26
ATOM     26  C   UNL A   1      37.505  20.888  24.759  1.00  0.00     0.023 C 
BRANCH  26  27
ATOM     27  C   UNL A   1      38.651  20.952  25.764  1.00  0.00     0.116 C 
BRANCH  27  28
ATOM     28  N   UNL A   1      39.635  19.888  25.624  1.00  0.00    -0.352 N 
ATOM     29  C   UNL A   1      40.968  19.863  25.965  1.00  0.00     0.251 C 
ATOM     30  H   UNL A   1      39.294  19.057  25.223  1.00  0.00     0.163 HD
ATOM     31  O   UNL A   1      41.643  18.866  25.722  1.00  0.00    -0.269 OA
BRANCH  29  32
ATOM     32  C   UNL A   1      41.605  21.052  26.569  1.00  0.00     0.039 A 
ATOM     33  C   UNL A   1      42.166  22.013  25.724  1.00  0.00     0.014 A 
ATOM     34  C   UNL A   1      41.616  21.244  27.952  1.00  0.00     0.014 A 
ATOM     35  C   UNL A   1      42.640  23.214  26.257  1.00  0.00     0.010 A 
ATOM     36  C   UNL A   1      42.014  22.473  28.473  1.00  0.00     0.010 A 
ATOM     37  C   UNL A   1      42.515  23.477  27.630  1.00  0.00    -0.014 A 
BRANCH  37  38
ATOM     38  C   UNL A   1      42.884  24.798  28.201  1.00  0.00     0.031 A 
ATOM     39  C   UNL A   1      41.833  25.851  28.411  1.00  0.00     0.074 A 
ATOM     40  C   UNL A   1      44.178  25.077  28.459  1.00  0.00     0.049 A 
ATOM     41  N   UNL A   1      41.971  27.090  28.807  1.00  0.00    -0.248 NA
ATOM     42  C   UNL A   1      40.446  25.469  28.106  1.00  0.00     0.031 C 
ATOM     43  C   UNL A   1      45.303  24.162  28.252  1.00  0.00     0.029 A 
ATOM     44  N   UNL A   1      44.767  26.218  28.946  1.00  0.00    -0.354 N 
ATOM     45  C   UNL A   1      40.695  27.639  28.783  1.00  0.00     0.074 A 
ATOM     46  C   UNL A   1      39.804  26.615  28.282  1.00  0.00     0.031 C 
ATOM     47  C   UNL A   1      46.440  24.767  28.635  1.00  0.00     0.029 A 
ATOM     48  C   UNL A   1      46.131  26.122  29.081  1.00  0.00     0.049 A 
ATOM     49  H   UNL A   1      44.259  27.029  29.176  1.00  0.00     0.167 HD
ATOM     50  C   UNL A   1      40.296  28.874  29.168  1.00  0.00     0.037 A 
ATOM     51  C   UNL A   1      47.032  27.024  29.514  1.00  0.00     0.037 A 
ATOM     52  C   UNL A   1      41.175  29.884  29.697  1.00  0.00     0.049 A 
ATOM     53  C   UNL A   1      46.560  28.385  29.945  1.00  0.00     0.074 A 
ATOM     54  C   UNL A   1      40.858  31.153  30.150  1.00  0.00     0.029 A 
ATOM     55  N   UNL A   1      42.544  29.733  29.850  1.00  0.00    -0.354 N 
ATOM     56  N   UNL A   1      45.342  28.872  29.962  1.00  0.00    -0.248 NA
ATOM     57  C   UNL A   1      47.587  29.321  30.426  1.00  0.00     0.031 C 
ATOM     58  C   UNL A   1      42.040  31.779  30.559  1.00  0.00     0.029 A 
ATOM     59  C   UNL A   1      43.088  30.887  30.390  1.00  0.00     0.049 A 
ATOM     60  H   UNL A   1      43.054  28.926  29.611  1.00  0.00     0.167 HD
ATOM     61  C   UNL A   1      45.453  30.154  30.484  1.00  0.00     0.074 A 
ATOM     62  C   UNL A   1      46.855  30.367  30.779  1.00  0.00     0.031 C 
ATOM     63  C   UNL A   1      44.481  31.073  30.698  1.00  0.00     0.037 A 
BRANCH  50  64
ATOM     64  C   UNL A   1      38.835  29.192  29.045  1.00  0.00     0.057 A 
ATOM     65  C   UNL A   1      38.266  29.563  27.820  1.00  0.00     0.134 A 
ATOM     66  C   UNL A   1      37.983  29.104  30.154  1.00  0.00     0.134 A 
ATOM     67  F   UNL A   1      39.032  29.680  26.724  1.00  0.00    -0.206 F 
ATOM     68  C   UNL A   1      36.909  29.862  27.706  1.00  0.00     0.040 A 
ATOM     69  C   UNL A   1      36.619  29.375  30.046  1.00  0.00     0.040 A 
ATOM     70  F   UNL A   1      38.463  28.750  31.355  1.00  0.00    -0.206 F 
ATOM     71  C   UNL A   1      36.078  29.762  28.821  1.00  0.00     0.006 A 
ENDBRANCH  50  64
BRANCH  51  72
ATOM     72  C   UNL A   1      48.469  26.666  29.601  1.00  0.00     0.057 A 
ATOM     73  C   UNL A   1      48.978  26.013  30.730  1.00  0.00     0.134 A 
ATOM     74  C   UNL A   1      49.370  26.989  28.581  1.00  0.00     0.134 A 
ATOM     75  F   UNL A   1      48.166  25.697  31.750  1.00  0.00    -0.206 F 
ATOM     76  C   UNL A   1      50.336  25.714  30.853  1.00  0.00     0.040 A 
ATOM     77  C   UNL A   1      50.727  26.676  28.680  1.00  0.00     0.040 A 
ATOM     78  F   UNL A   1      48.944  27.608  27.471  1.00  0.00    -0.206 F 
ATOM     79  C   UNL A   1      51.214  26.044  29.823  1.00  0.00     0.006 A 
ENDBRANCH  51  72
BRANCH  63  80
ATOM     80  C   UNL A   1      44.893  32.371  31.326  1.00  0.00     0.057 A 
ATOM     81  C   UNL A   1      44.925  32.543  32.715  1.00  0.00     0.134 A 
ATOM     82  C   UNL A   1      45.294  33.449  30.527  1.00  0.00     0.134 A 
ATOM     83  F   UNL A   1      44.539  31.552  33.532  1.00  0.00    -0.206 F 
ATOM     84  C   UNL A   1      45.322  33.752  33.288  1.00  0.00     0.040 A 
ATOM     85  C   UNL A   1      45.715  34.654  31.089  1.00  0.00     0.040 A 
ATOM     86  F   UNL A   1      45.292  33.344  29.190  1.00  0.00    -0.206 F 
ATOM     87  C   UNL A   1      45.725  34.810  32.474  1.00  0.00     0.006 A 
ENDBRANCH  63  80
ENDBRANCH  37  38
ENDBRANCH  29  32
ENDBRANCH  27  28
ENDBRANCH  26  27
ENDBRANCH   1  26
TORSDOF 14
ENDMDL
MODEL 3
REMARK VINA RESULT:     -11.4      1.889      7.471
REMARK SMILES C[C@@H](c1ccccn1)S(=O)(=O)N1CC[NH2+]C[C@@H]1C(=O)NCCCCNC(=O)c1ccc(-c2c3nc(c(-c4c(F)cccc4F)c4ccc([nH]4)c(-c4c(F)cccc4F)c4nc(c(-c5c(F)cccc5F)c5ccc2[nH]5)C=C4)C=C3)cc1
REMARK SMILES IDX 22 1 21 2 20 3 18 4 19 5 17 7 12 8 13 9 14 10 16 11 15 12
REMARK SMILES IDX 9 15 10 16 11 17 2 18 1 19 3 20 4 21 8 22 5 23 7 24 6 25
REMARK SMILES IDX 23 26 24 27 25 28 26 29 27 31 28 32 29 33 81 34 30 35 80 36
REMARK SMILES IDX 31 37 32 38 33 39 74 40 34 41 79 42 73 43 75 44 35 45 78 46
REMARK SMILES IDX 72 47 71 48 36 50 62 51 45 52 61 53 46 54 49 55 60 56 76 57
REMARK SMILES IDX 47 58 48 59 59 61 77 62 50 63 37 64 38 65 43 66 39 67 40 68
REMARK SMILES IDX 42 69 44 70 41 71 63 72 64 73 69 74 65 75 66 76 68 77 70 78
REMARK SMILES IDX 67 79 51 80 52 81 57 82 53 83 54 84 56 85 58 86 55 87
REMARK H PARENT 20 6 15 13 15 14 25 30 75 49 49 60
REMARK Flexibility Score: inf
ROOT
ATOM      1  C   UNL A   1      33.669  28.594  24.639  1.00  0.00     0.023 C 
ENDROOT
BRANCH   1   2
ATOM      2  C   UNL A   1      33.187  27.154  24.511  1.00  0.00     0.116 C 
BRANCH   2   3
ATOM      3  N   UNL A   1      32.020  26.837  25.300  1.00  0.00    -0.355 N 
ATOM      4  C   UNL A   1      31.705  25.670  25.946  1.00  0.00     0.244 C 
ATOM      5  O   UNL A   1      30.623  25.680  26.544  1.00  0.00    -0.273 OA
ATOM      6  H   UNL A   1      31.358  27.560  25.386  1.00  0.00     0.163 HD
BRANCH   4   7
ATOM      7  C   UNL A   1      32.614  24.401  25.871  1.00  0.00     0.216 C 
ATOM      8  N   UNL A   1      32.419  23.702  24.544  1.00  0.00    -0.177 NA
ATOM      9  C   UNL A   1      31.028  23.083  24.502  1.00  0.00     0.164 C 
ATOM     10  C   UNL A   1      30.730  22.205  25.749  1.00  0.00     0.277 C 
ATOM     11  C   UNL A   1      32.404  23.369  26.998  1.00  0.00     0.291 C 
ATOM     12  N   UNL A   1      31.028  22.843  27.050  1.00  0.00    -0.343 N 
ATOM     13  H   UNL A   1      30.948  22.154  27.798  1.00  0.00     0.346 HD
ATOM     14  H   UNL A   1      30.367  23.599  27.232  1.00  0.00     0.346 HD
BRANCH   8  15
ATOM     15  S   UNL A   1      33.591  22.662  23.909  1.00  0.00     0.223 S 
ATOM     16  O   UNL A   1      34.626  23.531  23.374  1.00  0.00    -0.211 OA
ATOM     17  O   UNL A   1      32.925  21.773  22.976  1.00  0.00    -0.211 OA
BRANCH  15  18
ATOM     18  C   UNL A   1      34.366  21.647  25.207  1.00  0.00     0.170 C 
ATOM     19  C   UNL A   1      34.125  20.157  25.001  1.00  0.00     0.033 C 
BRANCH  18  20
ATOM     20  C   UNL A   1      35.809  22.066  25.410  1.00  0.00     0.060 A 
ATOM     21  C   UNL A   1      36.860  21.202  25.098  1.00  0.00     0.025 A 
ATOM     22  N   UNL A   1      36.050  23.310  25.904  1.00  0.00    -0.260 NA
ATOM     23  C   UNL A   1      38.170  21.588  25.374  1.00  0.00     0.004 A 
ATOM     24  C   UNL A   1      37.333  23.670  26.139  1.00  0.00     0.111 A 
ATOM     25  C   UNL A   1      38.415  22.842  25.914  1.00  0.00     0.020 A 
ENDBRANCH  18  20
ENDBRANCH  15  18
ENDBRANCH   8  15
ENDBRANCH   4   7
ENDBRANCH   2   3
ENDBRANCH   1   2
BRANCH   1  26
ATOM     26  C   UNL A   1      33.106  29.399  25.810  1.00  0.00     0.023 C 
BRANCH  26  27
ATOM     27  C   UNL A   1      33.769  29.202  27.170  1.00  0.00     0.116 C 
BRANCH  27  28
ATOM     28  N   UNL A   1      33.840  30.406  27.985  1.00  0.00    -0.352 N 
ATOM     29  C   UNL A   1      34.888  30.925  28.710  1.00  0.00     0.251 C 
ATOM     30  H   UNL A   1      33.008  30.930  28.024  1.00  0.00     0.163 HD
ATOM     31  O   UNL A   1      34.727  31.946  29.374  1.00  0.00    -0.269 OA
BRANCH  29  32
ATOM     32  C   UNL A   1      36.191  30.228  28.740  1.00  0.00     0.039 A 
ATOM     33  C   UNL A   1      36.984  30.241  27.589  1.00  0.00     0.014 A 
ATOM     34  C   UNL A   1      36.650  29.600  29.900  1.00  0.00     0.014 A 
ATOM     35  C   UNL A   1      38.280  29.722  27.634  1.00  0.00     0.010 A 
ATOM     36  C   UNL A   1      37.968  29.156  29.966  1.00  0.00     0.010 A 
ATOM     37  C   UNL A   1      38.802  29.226  28.839  1.00  0.00    -0.014 A 
BRANCH  37  38
ATOM     38  C   UNL A   1      40.220  28.795  28.947  1.00  0.00     0.031 A 
ATOM     39  C   UNL A   1      41.266  29.754  29.440  1.00  0.00     0.074 A 
ATOM     40  C   UNL A   1      40.578  27.564  28.530  1.00  0.00     0.049 A 
ATOM     41  N   UNL A   1      42.563  29.597  29.516  1.00  0.00    -0.248 NA
ATOM     42  C   UNL A   1      40.796  31.078  29.876  1.00  0.00     0.031 C 
ATOM     43  C   UNL A   1      39.670  26.553  27.984  1.00  0.00     0.029 A 
ATOM     44  N   UNL A   1      41.808  26.954  28.494  1.00  0.00    -0.354 N 
ATOM     45  C   UNL A   1      43.063  30.803  29.991  1.00  0.00     0.074 A 
ATOM     46  C   UNL A   1      41.936  31.700  30.135  1.00  0.00     0.031 C 
ATOM     47  C   UNL A   1      40.368  25.443  27.694  1.00  0.00     0.029 A 
ATOM     48  C   UNL A   1      41.776  25.673  27.999  1.00  0.00     0.049 A 
ATOM     49  H   UNL A   1      42.636  27.395  28.794  1.00  0.00     0.167 HD
ATOM     50  C   UNL A   1      44.339  31.126  30.306  1.00  0.00     0.037 A 
ATOM     51  C   UNL A   1      42.770  24.783  27.813  1.00  0.00     0.037 A 
ATOM     52  C   UNL A   1      45.456  30.226  30.194  1.00  0.00     0.049 A 
ATOM     53  C   UNL A   1      44.177  25.166  28.180  1.00  0.00     0.074 A 
ATOM     54  C   UNL A   1      46.782  30.450  30.525  1.00  0.00     0.029 A 
ATOM     55  N   UNL A   1      45.375  28.926  29.723  1.00  0.00    -0.354 N 
ATOM     56  N   UNL A   1      44.625  26.294  28.675  1.00  0.00    -0.248 NA
ATOM     57  C   UNL A   1      45.216  24.147  27.971  1.00  0.00     0.031 C 
ATOM     58  C   UNL A   1      47.507  29.290  30.233  1.00  0.00     0.029 A 
ATOM     59  C   UNL A   1      46.627  28.334  29.752  1.00  0.00     0.049 A 
ATOM     60  H   UNL A   1      44.550  28.487  29.413  1.00  0.00     0.167 HD
ATOM     61  C   UNL A   1      45.989  26.109  28.866  1.00  0.00     0.074 A 
ATOM     62  C   UNL A   1      46.293  24.758  28.442  1.00  0.00     0.031 C 
ATOM     63  C   UNL A   1      46.907  26.981  29.348  1.00  0.00     0.037 A 
BRANCH  50  64
ATOM     64  C   UNL A   1      44.589  32.514  30.819  1.00  0.00     0.057 A 
ATOM     65  C   UNL A   1      44.531  32.811  32.186  1.00  0.00     0.134 A 
ATOM     66  C   UNL A   1      44.913  33.558  29.943  1.00  0.00     0.134 A 
ATOM     67  F   UNL A   1      44.212  31.858  33.075  1.00  0.00    -0.206 F 
ATOM     68  C   UNL A   1      44.760  34.101  32.664  1.00  0.00     0.040 A 
ATOM     69  C   UNL A   1      45.169  34.847  30.411  1.00  0.00     0.040 A 
ATOM     70  F   UNL A   1      44.989  33.340  28.622  1.00  0.00    -0.206 F 
ATOM     71  C   UNL A   1      45.086  35.124  31.775  1.00  0.00     0.006 A 
ENDBRANCH  50  64
BRANCH  51  72
ATOM     72  C   UNL A   1      42.474  23.429  27.286  1.00  0.00     0.057 A 
ATOM     73  C   UNL A   1      42.559  23.159  25.915  1.00  0.00     0.134 A 
ATOM     74  C   UNL A   1      42.075  22.384  28.126  1.00  0.00     0.134 A 
ATOM     75  F   UNL A   1      42.917  24.126  25.058  1.00  0.00    -0.206 F 
ATOM     76  C   UNL A   1      42.235  21.904  25.394  1.00  0.00     0.040 A 
ATOM     77  C   UNL A   1      41.769  21.118  27.621  1.00  0.00     0.040 A 
ATOM     78  F   UNL A   1      41.980  22.576  29.450  1.00  0.00    -0.206 F 
ATOM     79  C   UNL A   1      41.841  20.879  26.250  1.00  0.00     0.006 A 
ENDBRANCH  51  72
BRANCH  63  80
ATOM     80  C   UNL A   1      48.314  26.484  29.490  1.00  0.00     0.057 A 
ATOM     81  C   UNL A   1      49.259  26.638  28.470  1.00  0.00     0.134 A 
ATOM     82  C   UNL A   1      48.733  25.873  30.679  1.00  0.00     0.134 A 
ATOM     83  F   UNL A   1      48.914  27.202  27.303  1.00  0.00    -0.206 F 
ATOM     84  C   UNL A   1      50.570  26.183  28.619  1.00  0.00     0.040 A 
ATOM     85  C   UNL A   1      50.047  25.435  30.848  1.00  0.00     0.040 A 
ATOM     86  F   UNL A   1      47.877  25.703  31.697  1.00  0.00    -0.206 F 
ATOM     87  C   UNL A   1      50.968  25.585  29.814  1.00  0.00     0.006 A 
ENDBRANCH  63  80
ENDBRANCH  37  38
ENDBRANCH  29  32
ENDBRANCH  27  28
ENDBRANCH  26  27
ENDBRANCH   1  26
TORSDOF 14
ENDMDL
