MODEL 1
REMARK VINA RESULT:     -10.7      0.000      0.000
REMARK SMILES CCC[C@H](C)C[N@H+]1[C@@H]2CC[C@H]1C[C@H](CC(=O)NCCCCNC(=O)c1ccc(-c3c4nc(c(-c5c(F)cccc5F)c5ccc([nH]5)c(-c5c(F)cccc5F)c5nc(c(-c6c(F)cccc6F)c6ccc3[nH]6)C=C5)C=C4)cc1)C2
REMARK SMILES IDX 18 1 17 2 15 3 16 4 14 6 13 7 7 8 8 9 11 10 9 12 79 13 10 14
REMARK SMILES IDX 12 15 6 16 4 17 5 18 3 19 2 20 1 21 19 22 20 23 21 24 22 25
REMARK SMILES IDX 23 26 24 28 25 29 26 30 78 31 27 32 77 33 28 34 29 35 30 36
REMARK SMILES IDX 71 37 31 38 76 39 70 40 72 41 32 42 75 43 69 44 68 45 33 47
REMARK SMILES IDX 59 48 42 49 58 50 43 51 46 52 57 53 73 54 44 55 45 56 56 58
REMARK SMILES IDX 74 59 47 60 34 61 35 62 40 63 36 64 37 65 39 66 41 67 38 68
REMARK SMILES IDX 60 69 61 70 66 71 62 72 63 73 65 74 67 75 64 76 48 77 49 78
REMARK SMILES IDX 54 79 50 80 51 81 53 82 55 83 52 84
REMARK H PARENT 17 5 7 11 22 27 72 46 46 57
REMARK Flexibility Score: inf
ROOT
ATOM      1  C   UNL A   1      34.730  32.802  27.737  1.00  0.00     0.116 C 
ENDROOT
BRANCH   1   2
ATOM      2  N   UNL A   1      35.421  31.528  27.847  1.00  0.00    -0.356 N 
ATOM      3  C   UNL A   1      34.964  30.252  27.715  1.00  0.00     0.220 C 
ATOM      4  O   UNL A   1      35.746  29.330  27.959  1.00  0.00    -0.275 OA
ATOM      5  H   UNL A   1      36.382  31.600  28.051  1.00  0.00     0.163 HD
BRANCH   3   6
ATOM      6  C   UNL A   1      33.542  29.956  27.266  1.00  0.00     0.104 C 
BRANCH   6   7
ATOM      7  C   UNL A   1      33.263  28.465  26.968  1.00  0.00     0.010 C 
ATOM      8  N   UNL A   1      31.579  27.334  24.794  1.00  0.00    -0.330 N 
ATOM      9  C   UNL A   1      33.010  27.041  24.814  1.00  0.00     0.184 C 
ATOM     10  C   UNL A   1      31.176  27.087  26.179  1.00  0.00     0.184 C 
ATOM     11  H   UNL A   1      31.186  26.741  24.064  1.00  0.00     0.348 HD
ATOM     12  C   UNL A   1      33.006  25.679  25.541  1.00  0.00     0.071 C 
ATOM     13  C   UNL A   1      33.853  28.057  25.602  1.00  0.00     0.069 C 
ATOM     14  C   UNL A   1      31.800  25.729  26.471  1.00  0.00     0.071 C 
ATOM     15  C   UNL A   1      31.763  28.158  27.098  1.00  0.00     0.069 C 
BRANCH   8  16
ATOM     16  C   UNL A   1      30.978  28.528  24.189  1.00  0.00     0.265 C 
BRANCH  16  17
ATOM     17  C   UNL A   1      29.992  28.455  22.996  1.00  0.00     0.041 C 
ATOM     18  C   UNL A   1      28.726  27.670  23.347  1.00  0.00     0.013 C 
BRANCH  17  19
ATOM     19  C   UNL A   1      29.572  29.874  22.524  1.00  0.00     0.009 C 
BRANCH  19  20
ATOM     20  C   UNL A   1      29.175  30.828  23.660  1.00  0.00    -0.003 C 
ATOM     21  C   UNL A   1      27.751  31.354  23.521  1.00  0.00     0.004 C 
ENDBRANCH  19  20
ENDBRANCH  17  19
ENDBRANCH  16  17
ENDBRANCH   8  16
ENDBRANCH   6   7
ENDBRANCH   3   6
ENDBRANCH   1   2
BRANCH   1  22
ATOM     22  C   UNL A   1      35.457  33.891  28.530  1.00  0.00     0.023 C 
BRANCH  22  23
ATOM     23  C   UNL A   1      34.584  35.016  29.051  1.00  0.00     0.023 C 
BRANCH  23  24
ATOM     24  C   UNL A   1      33.288  34.537  29.666  1.00  0.00     0.116 C 
BRANCH  24  25
ATOM     25  N   UNL A   1      32.617  35.550  30.478  1.00  0.00    -0.352 N 
ATOM     26  C   UNL A   1      32.843  35.859  31.801  1.00  0.00     0.251 C 
ATOM     27  H   UNL A   1      31.919  36.074  30.025  1.00  0.00     0.163 HD
ATOM     28  O   UNL A   1      32.153  36.682  32.392  1.00  0.00    -0.269 OA
BRANCH  26  29
ATOM     29  C   UNL A   1      33.912  35.130  32.509  1.00  0.00     0.039 A 
ATOM     30  C   UNL A   1      33.672  33.829  32.955  1.00  0.00     0.014 A 
ATOM     31  C   UNL A   1      35.192  35.684  32.570  1.00  0.00     0.014 A 
ATOM     32  C   UNL A   1      34.747  33.040  33.365  1.00  0.00     0.010 A 
ATOM     33  C   UNL A   1      36.268  34.863  32.866  1.00  0.00     0.010 A 
ATOM     34  C   UNL A   1      36.059  33.532  33.265  1.00  0.00    -0.014 A 
BRANCH  34  35
ATOM     35  C   UNL A   1      37.246  32.703  33.591  1.00  0.00     0.031 A 
ATOM     36  C   UNL A   1      37.984  32.966  34.873  1.00  0.00     0.074 A 
ATOM     37  C   UNL A   1      37.727  31.817  32.698  1.00  0.00     0.049 A 
ATOM     38  N   UNL A   1      39.151  32.526  35.264  1.00  0.00    -0.248 NA
ATOM     39  C   UNL A   1      37.345  33.898  35.819  1.00  0.00     0.031 C 
ATOM     40  C   UNL A   1      37.135  31.508  31.394  1.00  0.00     0.029 A 
ATOM     41  N   UNL A   1      38.847  31.024  32.748  1.00  0.00    -0.354 N 
ATOM     42  C   UNL A   1      39.405  33.166  36.470  1.00  0.00     0.074 A 
ATOM     43  C   UNL A   1      38.298  34.061  36.722  1.00  0.00     0.031 C 
ATOM     44  C   UNL A   1      37.884  30.577  30.779  1.00  0.00     0.029 A 
ATOM     45  C   UNL A   1      39.030  30.255  31.624  1.00  0.00     0.049 A 
ATOM     46  H   UNL A   1      39.461  31.008  33.517  1.00  0.00     0.167 HD
ATOM     47  C   UNL A   1      40.457  33.003  37.307  1.00  0.00     0.037 A 
ATOM     48  C   UNL A   1      40.018  29.397  31.308  1.00  0.00     0.037 A 
ATOM     49  C   UNL A   1      41.516  32.059  37.089  1.00  0.00     0.049 A 
ATOM     50  C   UNL A   1      41.147  29.190  32.281  1.00  0.00     0.074 A 
ATOM     51  C   UNL A   1      42.586  31.757  37.912  1.00  0.00     0.029 A 
ATOM     52  N   UNL A   1      41.625  31.247  35.970  1.00  0.00    -0.354 N 
ATOM     53  N   UNL A   1      41.355  29.768  33.439  1.00  0.00    -0.248 NA
ATOM     54  C   UNL A   1      42.176  28.210  31.905  1.00  0.00     0.031 C 
ATOM     55  C   UNL A   1      43.354  30.773  37.282  1.00  0.00     0.029 A 
ATOM     56  C   UNL A   1      42.745  30.442  36.081  1.00  0.00     0.049 A 
ATOM     57  H   UNL A   1      40.998  31.242  35.211  1.00  0.00     0.167 HD
ATOM     58  C   UNL A   1      42.518  29.203  33.943  1.00  0.00     0.074 A 
ATOM     59  C   UNL A   1      42.969  28.232  32.967  1.00  0.00     0.031 C 
ATOM     60  C   UNL A   1      43.157  29.465  35.109  1.00  0.00     0.037 A 
BRANCH  47  61
ATOM     61  C   UNL A   1      40.492  33.857  38.538  1.00  0.00     0.057 A 
ATOM     62  C   UNL A   1      41.224  35.052  38.588  1.00  0.00     0.134 A 
ATOM     63  C   UNL A   1      39.782  33.486  39.686  1.00  0.00     0.134 A 
ATOM     64  F   UNL A   1      41.943  35.453  37.528  1.00  0.00    -0.206 F 
ATOM     65  C   UNL A   1      41.275  35.828  39.746  1.00  0.00     0.040 A 
ATOM     66  C   UNL A   1      39.802  34.269  40.841  1.00  0.00     0.040 A 
ATOM     67  F   UNL A   1      39.059  32.356  39.704  1.00  0.00    -0.206 F 
ATOM     68  C   UNL A   1      40.557  35.440  40.875  1.00  0.00     0.006 A 
ENDBRANCH  47  61
BRANCH  48  69
ATOM     69  C   UNL A   1      39.973  28.643  30.031  1.00  0.00     0.057 A 
ATOM     70  C   UNL A   1      39.273  27.435  29.937  1.00  0.00     0.134 A 
ATOM     71  C   UNL A   1      40.627  29.101  28.881  1.00  0.00     0.134 A 
ATOM     72  F   UNL A   1      38.643  26.936  31.010  1.00  0.00    -0.206 F 
ATOM     73  C   UNL A   1      39.237  26.700  28.751  1.00  0.00     0.040 A 
ATOM     74  C   UNL A   1      40.582  28.387  27.682  1.00  0.00     0.040 A 
ATOM     75  F   UNL A   1      41.308  30.256  28.904  1.00  0.00    -0.206 F 
ATOM     76  C   UNL A   1      39.891  27.178  27.618  1.00  0.00     0.006 A 
ENDBRANCH  48  69
BRANCH  60  77
ATOM     77  C   UNL A   1      44.379  28.657  35.420  1.00  0.00     0.057 A 
ATOM     78  C   UNL A   1      44.303  27.445  36.116  1.00  0.00     0.134 A 
ATOM     79  C   UNL A   1      45.636  29.065  34.955  1.00  0.00     0.134 A 
ATOM     80  F   UNL A   1      43.129  27.007  36.594  1.00  0.00    -0.206 F 
ATOM     81  C   UNL A   1      45.440  26.670  36.348  1.00  0.00     0.040 A 
ATOM     82  C   UNL A   1      46.775  28.290  35.164  1.00  0.00     0.040 A 
ATOM     83  F   UNL A   1      45.769  30.214  34.274  1.00  0.00    -0.206 F 
ATOM     84  C   UNL A   1      46.679  27.089  35.865  1.00  0.00     0.006 A 
ENDBRANCH  60  77
ENDBRANCH  34  35
ENDBRANCH  26  29
ENDBRANCH  24  25
ENDBRANCH  23  24
ENDBRANCH  22  23
ENDBRANCH   1  22
TORSDOF 16
ENDMDL
MODEL 2
REMARK VINA RESULT:     -10.6      5.505     10.063
REMARK SMILES CCC[C@H](C)C[N@H+]1[C@@H]2CC[C@H]1C[C@H](CC(=O)NCCCCNC(=O)c1ccc(-c3c4nc(c(-c5c(F)cccc5F)c5ccc([nH]5)c(-c5c(F)cccc5F)c5nc(c(-c6c(F)cccc6F)c6ccc3[nH]6)C=C5)C=C4)cc1)C2
REMARK SMILES IDX 18 1 17 2 15 3 16 4 14 6 13 7 7 8 8 9 11 10 9 12 79 13 10 14
REMARK SMILES IDX 12 15 6 16 4 17 5 18 3 19 2 20 1 21 19 22 20 23 21 24 22 25
REMARK SMILES IDX 23 26 24 28 25 29 26 30 78 31 27 32 77 33 28 34 29 35 30 36
REMARK SMILES IDX 71 37 31 38 76 39 70 40 72 41 32 42 75 43 69 44 68 45 33 47
REMARK SMILES IDX 59 48 42 49 58 50 43 51 46 52 57 53 73 54 44 55 45 56 56 58
REMARK SMILES IDX 74 59 47 60 34 61 35 62 40 63 36 64 37 65 39 66 41 67 38 68
REMARK SMILES IDX 60 69 61 70 66 71 62 72 63 73 65 74 67 75 64 76 48 77 49 78
REMARK SMILES IDX 54 79 50 80 51 81 53 82 55 83 52 84
REMARK H PARENT 17 5 7 11 22 27 72 46 46 57
REMARK Flexibility Score: inf
ROOT
ATOM      1  C   UNL A   1      35.204  21.510  25.824  1.00  0.00     0.116 C 
ENDROOT
BRANCH   1   2
ATOM      2  N   UNL A   1      33.930  20.821  25.690  1.00  0.00    -0.356 N 
ATOM      3  C   UNL A   1      32.811  21.148  24.984  1.00  0.00     0.220 C 
ATOM      4  O   UNL A   1      31.815  20.433  25.120  1.00  0.00    -0.275 OA
ATOM      5  H   UNL A   1      33.866  19.978  26.193  1.00  0.00     0.163 HD
BRANCH   3   6
ATOM      6  C   UNL A   1      32.780  22.340  24.043  1.00  0.00     0.104 C 
BRANCH   6   7
ATOM      7  C   UNL A   1      31.665  23.367  24.349  1.00  0.00     0.010 C 
ATOM      8  N   UNL A   1      31.873  26.333  24.319  1.00  0.00    -0.330 N 
ATOM      9  C   UNL A   1      30.975  25.671  23.376  1.00  0.00     0.184 C 
ATOM     10  C   UNL A   1      31.556  25.676  25.587  1.00  0.00     0.184 C 
ATOM     11  H   UNL A   1      31.680  27.330  24.229  1.00  0.00     0.348 HD
ATOM     12  C   UNL A   1      29.643  25.761  24.149  1.00  0.00     0.071 C 
ATOM     13  C   UNL A   1      31.325  24.200  23.096  1.00  0.00     0.069 C 
ATOM     14  C   UNL A   1      30.035  25.732  25.621  1.00  0.00     0.071 C 
ATOM     15  C   UNL A   1      32.040  24.227  25.566  1.00  0.00     0.069 C 
BRANCH   8  16
ATOM     16  C   UNL A   1      33.305  26.560  24.092  1.00  0.00     0.265 C 
BRANCH  16  17
ATOM     17  C   UNL A   1      33.963  27.956  24.228  1.00  0.00     0.041 C 
ATOM     18  C   UNL A   1      33.238  29.015  23.395  1.00  0.00     0.013 C 
BRANCH  17  19
ATOM     19  C   UNL A   1      33.983  28.427  25.708  1.00  0.00     0.009 C 
BRANCH  19  20
ATOM     20  C   UNL A   1      32.949  29.513  26.041  1.00  0.00    -0.003 C 
ATOM     21  C   UNL A   1      32.104  29.172  27.263  1.00  0.00     0.004 C 
ENDBRANCH  19  20
ENDBRANCH  17  19
ENDBRANCH  16  17
ENDBRANCH   8  16
ENDBRANCH   6   7
ENDBRANCH   3   6
ENDBRANCH   1   2
BRANCH   1  22
ATOM     22  C   UNL A   1      36.290  20.820  24.996  1.00  0.00     0.023 C 
BRANCH  22  23
ATOM     23  C   UNL A   1      37.548  21.631  24.758  1.00  0.00     0.023 C 
BRANCH  23  24
ATOM     24  C   UNL A   1      38.601  21.435  25.825  1.00  0.00     0.116 C 
BRANCH  24  25
ATOM     25  N   UNL A   1      39.364  20.198  25.673  1.00  0.00    -0.352 N 
ATOM     26  C   UNL A   1      40.691  19.979  25.971  1.00  0.00     0.251 C 
ATOM     27  H   UNL A   1      38.868  19.428  25.314  1.00  0.00     0.163 HD
ATOM     28  O   UNL A   1      41.233  18.908  25.720  1.00  0.00    -0.269 OA
BRANCH  26  29
ATOM     29  C   UNL A   1      41.460  21.093  26.555  1.00  0.00     0.039 A 
ATOM     30  C   UNL A   1      41.981  22.078  25.714  1.00  0.00     0.014 A 
ATOM     31  C   UNL A   1      41.511  21.234  27.943  1.00  0.00     0.014 A 
ATOM     32  C   UNL A   1      42.457  23.266  26.270  1.00  0.00     0.010 A 
ATOM     33  C   UNL A   1      41.877  22.457  28.482  1.00  0.00     0.010 A 
ATOM     34  C   UNL A   1      42.352  23.487  27.653  1.00  0.00    -0.014 A 
BRANCH  34  35
ATOM     35  C   UNL A   1      42.749  24.769  28.286  1.00  0.00     0.031 A 
ATOM     36  C   UNL A   1      41.699  25.818  28.521  1.00  0.00     0.074 A 
ATOM     37  C   UNL A   1      44.046  25.038  28.531  1.00  0.00     0.049 A 
ATOM     38  N   UNL A   1      41.840  27.073  28.856  1.00  0.00    -0.248 NA
ATOM     39  C   UNL A   1      40.302  25.409  28.293  1.00  0.00     0.031 C 
ATOM     40  C   UNL A   1      45.169  24.126  28.296  1.00  0.00     0.029 A 
ATOM     41  N   UNL A   1      44.642  26.175  29.017  1.00  0.00    -0.354 N 
ATOM     42  C   UNL A   1      40.561  27.612  28.827  1.00  0.00     0.074 A 
ATOM     43  C   UNL A   1      39.664  26.564  28.394  1.00  0.00     0.031 C 
ATOM     44  C   UNL A   1      46.312  24.732  28.659  1.00  0.00     0.029 A 
ATOM     45  C   UNL A   1      46.010  26.087  29.111  1.00  0.00     0.049 A 
ATOM     46  H   UNL A   1      44.136  26.980  29.274  1.00  0.00     0.167 HD
ATOM     47  C   UNL A   1      40.165  28.864  29.155  1.00  0.00     0.037 A 
ATOM     48  C   UNL A   1      46.917  27.000  29.505  1.00  0.00     0.037 A 
ATOM     49  C   UNL A   1      41.047  29.879  29.657  1.00  0.00     0.049 A 
ATOM     50  C   UNL A   1      46.445  28.367  29.922  1.00  0.00     0.074 A 
ATOM     51  C   UNL A   1      40.738  31.153  30.095  1.00  0.00     0.029 A 
ATOM     52  N   UNL A   1      42.418  29.723  29.805  1.00  0.00    -0.354 N 
ATOM     53  N   UNL A   1      45.227  28.852  29.931  1.00  0.00    -0.248 NA
ATOM     54  C   UNL A   1      47.472  29.311  30.384  1.00  0.00     0.031 C 
ATOM     55  C   UNL A   1      41.924  31.777  30.492  1.00  0.00     0.029 A 
ATOM     56  C   UNL A   1      42.968  30.879  30.329  1.00  0.00     0.049 A 
ATOM     57  H   UNL A   1      42.924  28.911  29.572  1.00  0.00     0.167 HD
ATOM     58  C   UNL A   1      45.336  30.144  30.427  1.00  0.00     0.074 A 
ATOM     59  C   UNL A   1      46.739  30.367  30.712  1.00  0.00     0.031 C 
ATOM     60  C   UNL A   1      44.363  31.065  30.628  1.00  0.00     0.037 A 
BRANCH  47  61
ATOM     61  C   UNL A   1      38.710  29.186  28.997  1.00  0.00     0.057 A 
ATOM     62  C   UNL A   1      38.172  29.589  27.766  1.00  0.00     0.134 A 
ATOM     63  C   UNL A   1      37.833  29.089  30.084  1.00  0.00     0.134 A 
ATOM     64  F   UNL A   1      38.963  29.721  26.690  1.00  0.00    -0.206 F 
ATOM     65  C   UNL A   1      36.822  29.914  27.632  1.00  0.00     0.040 A 
ATOM     66  C   UNL A   1      36.475  29.385  29.955  1.00  0.00     0.040 A 
ATOM     67  F   UNL A   1      38.283  28.707  31.289  1.00  0.00    -0.206 F 
ATOM     68  C   UNL A   1      35.968  29.806  28.727  1.00  0.00     0.006 A 
ENDBRANCH  47  61
BRANCH  48  69
ATOM     69  C   UNL A   1      48.357  26.649  29.558  1.00  0.00     0.057 A 
ATOM     70  C   UNL A   1      49.206  26.945  28.485  1.00  0.00     0.134 A 
ATOM     71  C   UNL A   1      48.920  26.010  30.669  1.00  0.00     0.134 A 
ATOM     72  F   UNL A   1      48.721  27.539  27.386  1.00  0.00    -0.206 F 
ATOM     73  C   UNL A   1      50.559  26.603  28.506  1.00  0.00     0.040 A 
ATOM     74  C   UNL A   1      50.276  25.681  30.712  1.00  0.00     0.040 A 
ATOM     75  F   UNL A   1      48.160  25.708  31.732  1.00  0.00    -0.206 F 
ATOM     76  C   UNL A   1      51.098  25.972  29.625  1.00  0.00     0.006 A 
ENDBRANCH  48  69
BRANCH  60  77
ATOM     77  C   UNL A   1      44.770  32.375  31.230  1.00  0.00     0.057 A 
ATOM     78  C   UNL A   1      45.117  33.474  30.436  1.00  0.00     0.134 A 
ATOM     79  C   UNL A   1      44.745  32.555  32.619  1.00  0.00     0.134 A 
ATOM     80  F   UNL A   1      45.169  33.359  29.100  1.00  0.00    -0.206 F 
ATOM     81  C   UNL A   1      45.437  34.707  31.005  1.00  0.00     0.040 A 
ATOM     82  C   UNL A   1      45.043  33.787  33.198  1.00  0.00     0.040 A 
ATOM     83  F   UNL A   1      44.410  31.540  33.431  1.00  0.00    -0.206 F 
ATOM     84  C   UNL A   1      45.393  34.867  32.389  1.00  0.00     0.006 A 
ENDBRANCH  60  77
ENDBRANCH  34  35
ENDBRANCH  26  29
ENDBRANCH  24  25
ENDBRANCH  23  24
ENDBRANCH  22  23
ENDBRANCH   1  22
TORSDOF 16
ENDMDL
MODEL 3
REMARK VINA RESULT:     -10.6      4.832      7.224
REMARK SMILES CCC[C@H](C)C[N@H+]1[C@@H]2CC[C@H]1C[C@H](CC(=O)NCCCCNC(=O)c1ccc(-c3c4nc(c(-c5c(F)cccc5F)c5ccc([nH]5)c(-c5c(F)cccc5F)c5nc(c(-c6c(F)cccc6F)c6ccc3[nH]6)C=C5)C=C4)cc1)C2
REMARK SMILES IDX 18 1 17 2 15 3 16 4 14 6 13 7 7 8 8 9 11 10 9 12 79 13 10 14
REMARK SMILES IDX 12 15 6 16 4 17 5 18 3 19 2 20 1 21 19 22 20 23 21 24 22 25
REMARK SMILES IDX 23 26 24 28 25 29 26 30 78 31 27 32 77 33 28 34 29 35 30 36
REMARK SMILES IDX 71 37 31 38 76 39 70 40 72 41 32 42 75 43 69 44 68 45 33 47
REMARK SMILES IDX 59 48 42 49 58 50 43 51 46 52 57 53 73 54 44 55 45 56 56 58
REMARK SMILES IDX 74 59 47 60 34 61 35 62 40 63 36 64 37 65 39 66 41 67 38 68
REMARK SMILES IDX 60 69 61 70 66 71 62 72 63 73 65 74 67 75 64 76 48 77 49 78
REMARK SMILES IDX 54 79 50 80 51 81 53 82 55 83 52 84
REMARK H PARENT 17 5 7 11 22 27 72 46 46 57
REMARK Flexibility Score: inf
ROOT
ATOM      1  C   UNL A   1      33.913  28.387  23.296  1.00  0.00     0.116 C 
ENDROOT
BRANCH   1   2
ATOM      2  N   UNL A   1      32.927  27.707  22.472  1.00  0.00    -0.356 N 
ATOM      3  C   UNL A   1      32.695  26.379  22.273  1.00  0.00     0.220 C 
ATOM      4  O   UNL A   1      31.848  26.061  21.434  1.00  0.00    -0.275 OA
ATOM      5  H   UNL A   1      32.325  28.307  21.976  1.00  0.00     0.163 HD
BRANCH   3   6
ATOM      6  C   UNL A   1      33.435  25.312  23.062  1.00  0.00     0.104 C 
BRANCH   6   7
ATOM      7  C   UNL A   1      32.617  24.689  24.217  1.00  0.00     0.010 C 
ATOM      8  N   UNL A   1      32.992  22.019  25.470  1.00  0.00    -0.330 N 
ATOM      9  C   UNL A   1      33.180  23.220  26.280  1.00  0.00     0.184 C 
ATOM     10  C   UNL A   1      31.731  22.286  24.778  1.00  0.00     0.184 C 
ATOM     11  H   UNL A   1      33.029  21.238  26.124  1.00  0.00     0.348 HD
ATOM     12  C   UNL A   1      31.784  23.341  26.928  1.00  0.00     0.071 C 
ATOM     13  C   UNL A   1      33.496  24.487  25.468  1.00  0.00     0.069 C 
ATOM     14  C   UNL A   1      30.821  22.745  25.909  1.00  0.00     0.071 C 
ATOM     15  C   UNL A   1      31.918  23.402  23.751  1.00  0.00     0.069 C 
BRANCH   8  16
ATOM     16  C   UNL A   1      34.029  21.405  24.632  1.00  0.00     0.265 C 
BRANCH  16  17
ATOM     17  C   UNL A   1      35.541  21.545  24.935  1.00  0.00     0.041 C 
ATOM     18  C   UNL A   1      36.254  20.191  24.939  1.00  0.00     0.013 C 
BRANCH  17  19
ATOM     19  C   UNL A   1      36.242  22.464  23.896  1.00  0.00     0.009 C 
BRANCH  19  20
ATOM     20  C   UNL A   1      37.053  23.613  24.511  1.00  0.00    -0.003 C 
ATOM     21  C   UNL A   1      37.013  23.618  26.035  1.00  0.00     0.004 C 
ENDBRANCH  19  20
ENDBRANCH  17  19
ENDBRANCH  16  17
ENDBRANCH   8  16
ENDBRANCH   6   7
ENDBRANCH   3   6
ENDBRANCH   1   2
BRANCH   1  22
ATOM     22  C   UNL A   1      33.671  28.112  24.782  1.00  0.00     0.023 C 
BRANCH  22  23
ATOM     23  C   UNL A   1      33.333  29.325  25.626  1.00  0.00     0.023 C 
BRANCH  23  24
ATOM     24  C   UNL A   1      33.696  29.162  27.085  1.00  0.00     0.116 C 
BRANCH  24  25
ATOM     25  N   UNL A   1      33.772  30.426  27.813  1.00  0.00    -0.352 N 
ATOM     26  C   UNL A   1      34.838  30.930  28.527  1.00  0.00     0.251 C 
ATOM     27  H   UNL A   1      32.964  30.986  27.791  1.00  0.00     0.163 HD
ATOM     28  O   UNL A   1      34.745  31.974  29.162  1.00  0.00    -0.269 OA
BRANCH  26  29
ATOM     29  C   UNL A   1      36.086  30.146  28.549  1.00  0.00     0.039 A 
ATOM     30  C   UNL A   1      36.971  30.239  27.473  1.00  0.00     0.014 A 
ATOM     31  C   UNL A   1      36.442  29.461  29.713  1.00  0.00     0.014 A 
ATOM     32  C   UNL A   1      38.265  29.732  27.609  1.00  0.00     0.010 A 
ATOM     33  C   UNL A   1      37.758  29.064  29.885  1.00  0.00     0.010 A 
ATOM     34  C   UNL A   1      38.685  29.196  28.837  1.00  0.00    -0.014 A 
BRANCH  34  35
ATOM     35  C   UNL A   1      40.076  28.736  29.069  1.00  0.00     0.031 A 
ATOM     36  C   UNL A   1      41.070  29.699  29.657  1.00  0.00     0.074 A 
ATOM     37  C   UNL A   1      40.474  27.520  28.648  1.00  0.00     0.049 A 
ATOM     38  N   UNL A   1      42.369  29.596  29.751  1.00  0.00    -0.248 NA
ATOM     39  C   UNL A   1      40.530  30.976  30.156  1.00  0.00     0.031 C 
ATOM     40  C   UNL A   1      39.621  26.514  28.012  1.00  0.00     0.029 A 
ATOM     41  N   UNL A   1      41.714  26.933  28.673  1.00  0.00    -0.354 N 
ATOM     42  C   UNL A   1      42.802  30.809  30.268  1.00  0.00     0.074 A 
ATOM     43  C   UNL A   1      41.636  31.651  30.420  1.00  0.00     0.031 C 
ATOM     44  C   UNL A   1      40.358  25.426  27.730  1.00  0.00     0.029 A 
ATOM     45  C   UNL A   1      41.741  25.674  28.124  1.00  0.00     0.049 A 
ATOM     46  H   UNL A   1      42.510  27.372  29.051  1.00  0.00     0.167 HD
ATOM     47  C   UNL A   1      44.058  31.182  30.609  1.00  0.00     0.037 A 
ATOM     48  C   UNL A   1      42.769  24.823  27.947  1.00  0.00     0.037 A 
ATOM     49  C   UNL A   1      45.201  30.317  30.527  1.00  0.00     0.049 A 
ATOM     50  C   UNL A   1      44.147  25.237  28.388  1.00  0.00     0.074 A 
ATOM     51  C   UNL A   1      46.502  30.567  30.921  1.00  0.00     0.029 A 
ATOM     52  N   UNL A   1      45.170  29.022  30.030  1.00  0.00    -0.354 N 
ATOM     53  N   UNL A   1      44.538  26.372  28.916  1.00  0.00    -0.248 NA
ATOM     54  C   UNL A   1      45.225  24.253  28.212  1.00  0.00     0.031 C 
ATOM     55  C   UNL A   1      47.266  29.428  30.647  1.00  0.00     0.029 A 
ATOM     56  C   UNL A   1      46.431  28.459  30.109  1.00  0.00     0.049 A 
ATOM     57  H   UNL A   1      44.371  28.570  29.675  1.00  0.00     0.167 HD
ATOM     58  C   UNL A   1      45.896  26.228  29.163  1.00  0.00     0.074 A 
ATOM     59  C   UNL A   1      46.262  24.895  28.731  1.00  0.00     0.031 C 
ATOM     60  C   UNL A   1      46.764  27.121  29.698  1.00  0.00     0.037 A 
BRANCH  47  61
ATOM     61  C   UNL A   1      44.244  32.579  31.118  1.00  0.00     0.057 A 
ATOM     62  C   UNL A   1      44.531  33.648  30.256  1.00  0.00     0.134 A 
ATOM     63  C   UNL A   1      44.133  32.863  32.484  1.00  0.00     0.134 A 
ATOM     64  F   UNL A   1      44.671  33.438  28.938  1.00  0.00    -0.206 F 
ATOM     65  C   UNL A   1      44.730  34.941  30.739  1.00  0.00     0.040 A 
ATOM     66  C   UNL A   1      44.302  34.158  32.976  1.00  0.00     0.040 A 
ATOM     67  F   UNL A   1      43.858  31.887  33.362  1.00  0.00    -0.206 F 
ATOM     68  C   UNL A   1      44.610  35.200  32.103  1.00  0.00     0.006 A 
ENDBRANCH  47  61
BRANCH  48  69
ATOM     69  C   UNL A   1      42.537  23.482  27.355  1.00  0.00     0.057 A 
ATOM     70  C   UNL A   1      42.195  22.392  28.164  1.00  0.00     0.134 A 
ATOM     71  C   UNL A   1      42.653  23.253  25.979  1.00  0.00     0.134 A 
ATOM     72  F   UNL A   1      42.087  22.545  29.492  1.00  0.00    -0.206 F 
ATOM     73  C   UNL A   1      41.994  21.119  27.630  1.00  0.00     0.040 A 
ATOM     74  C   UNL A   1      42.434  21.989  25.429  1.00  0.00     0.040 A 
ATOM     75  F   UNL A   1      42.970  24.259  25.151  1.00  0.00    -0.206 F 
ATOM     76  C   UNL A   1      42.110  20.916  26.256  1.00  0.00     0.006 A 
ENDBRANCH  48  69
BRANCH  60  77
ATOM     77  C   UNL A   1      48.178  26.671  29.896  1.00  0.00     0.057 A 
ATOM     78  C   UNL A   1      48.571  25.955  31.033  1.00  0.00     0.134 A 
ATOM     79  C   UNL A   1      49.140  26.898  28.903  1.00  0.00     0.134 A 
ATOM     80  F   UNL A   1      47.698  25.717  32.022  1.00  0.00    -0.206 F 
ATOM     81  C   UNL A   1      49.878  25.488  31.180  1.00  0.00     0.040 A 
ATOM     82  C   UNL A   1      50.443  26.419  29.029  1.00  0.00     0.040 A 
ATOM     83  F   UNL A   1      48.820  27.570  27.786  1.00  0.00    -0.206 F 
ATOM     84  C   UNL A   1      50.815  25.714  30.172  1.00  0.00     0.006 A 
ENDBRANCH  60  77
ENDBRANCH  34  35
ENDBRANCH  26  29
ENDBRANCH  24  25
ENDBRANCH  23  24
ENDBRANCH  22  23
ENDBRANCH   1  22
TORSDOF 16
ENDMDL
