MODEL 1
REMARK VINA RESULT:     -13.9      0.000      0.000
REMARK SMILES Cc1sc(NC(=O)[C@@H]2[C@@H](C(=O)NCCCCNC(=O)c3ccc(-c4c5nc(c(-c6c(F)cccc6F)c6ccc([nH]6)c(-c6c(F)cccc6F)c6nc(c(-c7c(F)cccc7F)c7ccc4[nH]7)C=C6)C=C5)cc3)[C@@H]3C=C[C@H]2C3)c(C#N)c1C
REMARK SMILES IDX 14 1 13 2 12 3 10 4 11 5 9 7 8 8 77 9 74 10 76 11 78 12
REMARK SMILES IDX 75 13 6 14 5 15 7 17 4 18 1 19 2 20 3 21 82 22 79 23 83 24
REMARK SMILES IDX 80 25 81 26 15 27 16 28 17 29 18 30 19 32 20 33 21 34 73 35
REMARK SMILES IDX 22 36 72 37 23 38 24 39 25 40 66 41 26 42 71 43 65 44 67 45
REMARK SMILES IDX 27 46 70 47 64 48 63 49 28 51 54 52 37 53 53 54 38 55 41 56
REMARK SMILES IDX 52 57 68 58 39 59 40 60 51 62 69 63 42 64 29 65 30 66 35 67
REMARK SMILES IDX 31 68 32 69 34 70 36 71 33 72 55 73 56 74 61 75 57 76 58 77
REMARK SMILES IDX 60 78 62 79 59 80 43 81 44 82 49 83 45 84 46 85 48 86 50 87
REMARK SMILES IDX 47 88
REMARK H PARENT 12 6 5 16 17 31 67 50 41 61
REMARK Flexibility Score: inf
ROOT
ATOM      1  C   UNL A   1      41.428  21.437  26.144  1.00  0.00     0.023 C 
ENDROOT
BRANCH   1   2
ATOM      2  C   UNL A   1      39.183  21.723  26.087  1.00  0.00     0.116 C 
BRANCH   2   3
ATOM      3  N   UNL A   1      38.267  22.977  26.498  1.00  0.00    -0.356 N 
ATOM      4  C   UNL A   1      37.102  23.445  25.967  1.00  0.00     0.224 C 
ATOM      5  O   UNL A   1      36.768  24.596  26.252  1.00  0.00    -0.275 OA
ATOM      6  H   UNL A   1      38.605  23.496  27.264  1.00  0.00     0.163 HD
BRANCH   4   7
ATOM      7  C   UNL A   1      36.264  22.523  25.104  1.00  0.00     0.098 C 
ATOM      8  C   UNL A   1      34.895  23.078  24.585  1.00  0.00     0.099 C 
ATOM      9  C   UNL A   1      33.919  21.939  25.037  1.00  0.00     0.025 C 
ATOM     10  C   UNL A   1      35.822  21.325  26.012  1.00  0.00     0.025 C 
ATOM     11  C   UNL A   1      34.327  20.584  24.470  1.00  0.00    -0.027 C 
ATOM     12  C   UNL A   1      34.413  21.737  26.465  1.00  0.00     0.017 C 
ATOM     13  C   UNL A   1      35.462  20.209  25.077  1.00  0.00    -0.027 C 
BRANCH   8  14
ATOM     14  C   UNL A   1      34.703  23.334  23.096  1.00  0.00     0.229 C 
ATOM     15  N   UNL A   1      33.521  23.712  22.531  1.00  0.00    -0.316 N 
ATOM     16  H   UNL A   1      33.353  23.400  21.613  1.00  0.00     0.170 HD
ATOM     17  O   UNL A   1      35.621  23.167  22.283  1.00  0.00    -0.274 OA
BRANCH  15  18
ATOM     18  C   UNL A   1      32.541  24.481  23.108  1.00  0.00     0.113 A 
ATOM     19  C   UNL A   1      29.451  25.257  26.464  1.00  0.00     0.057 C 
ATOM     20  C   UNL A   1      30.352  25.602  25.281  1.00  0.00     0.008 A 
ATOM     21  S   UNL A   1      31.014  23.497  24.467  1.00  0.00    -0.122 S 
ATOM     22  C   UNL A   1      31.217  26.918  24.329  1.00  0.00    -0.017 A 
ATOM     23  C   UNL A   1      32.537  26.158  23.158  1.00  0.00     0.090 A 
ATOM     24  C   UNL A   1      30.939  28.280  23.689  1.00  0.00     0.047 C 
BRANCH  23  25
ATOM     25  C   UNL A   1      33.443  26.982  22.404  1.00  0.00     0.103 C 
ATOM     26  N   UNL A   1      34.120  27.661  21.751  1.00  0.00    -0.192 NA
ENDBRANCH  23  25
ENDBRANCH  15  18
ENDBRANCH   8  14
ENDBRANCH   4   7
ENDBRANCH   2   3
ENDBRANCH   1   2
BRANCH   1  27
ATOM     27  C   UNL A   1      42.433  19.862  26.298  1.00  0.00     0.023 C 
BRANCH  27  28
ATOM     28  C   UNL A   1      43.469  19.046  25.316  1.00  0.00     0.116 C 
BRANCH  28  29
ATOM     29  N   UNL A   1      44.912  19.321  25.364  1.00  0.00    -0.352 N 
ATOM     30  C   UNL A   1      45.729  20.257  24.756  1.00  0.00     0.251 C 
ATOM     31  H   UNL A   1      45.403  18.708  25.958  1.00  0.00     0.163 HD
ATOM     32  O   UNL A   1      46.840  20.002  24.316  1.00  0.00    -0.269 OA
BRANCH  30  33
ATOM     33  C   UNL A   1      45.365  21.654  25.022  1.00  0.00     0.039 A 
ATOM     34  C   UNL A   1      44.452  22.384  24.253  1.00  0.00     0.014 A 
ATOM     35  C   UNL A   1      45.936  22.220  26.148  1.00  0.00     0.014 A 
ATOM     36  C   UNL A   1      44.115  23.656  24.702  1.00  0.00     0.010 A 
ATOM     37  C   UNL A   1      45.149  23.091  26.786  1.00  0.00     0.010 A 
ATOM     38  C   UNL A   1      44.566  24.016  25.971  1.00  0.00    -0.014 A 
BRANCH  38  39
ATOM     39  C   UNL A   1      44.259  25.204  26.705  1.00  0.00     0.031 A 
ATOM     40  C   UNL A   1      45.254  26.255  26.464  1.00  0.00     0.074 A 
ATOM     41  C   UNL A   1      43.046  25.391  27.260  1.00  0.00     0.049 A 
ATOM     42  N   UNL A   1      46.371  26.362  27.098  1.00  0.00    -0.248 NA
ATOM     43  C   UNL A   1      45.204  27.029  25.211  1.00  0.00     0.031 C 
ATOM     44  C   UNL A   1      41.832  24.564  27.261  1.00  0.00     0.029 A 
ATOM     45  N   UNL A   1      42.688  26.447  28.024  1.00  0.00    -0.354 N 
ATOM     46  C   UNL A   1      47.006  27.439  26.514  1.00  0.00     0.074 A 
ATOM     47  C   UNL A   1      46.426  27.571  25.206  1.00  0.00     0.031 C 
ATOM     48  C   UNL A   1      40.820  25.237  27.866  1.00  0.00     0.029 A 
ATOM     49  C   UNL A   1      41.362  26.458  28.433  1.00  0.00     0.049 A 
ATOM     50  H   UNL A   1      43.323  27.157  28.272  1.00  0.00     0.167 HD
ATOM     51  C   UNL A   1      47.680  28.325  27.297  1.00  0.00     0.037 A 
ATOM     52  C   UNL A   1      40.813  27.436  29.196  1.00  0.00     0.037 A 
ATOM     53  C   UNL A   1      47.805  27.806  28.647  1.00  0.00     0.049 A 
ATOM     54  C   UNL A   1      41.953  28.092  29.913  1.00  0.00     0.074 A 
ATOM     55  C   UNL A   1      48.392  26.680  29.194  1.00  0.00     0.029 A 
ATOM     56  N   UNL A   1      46.855  28.214  29.561  1.00  0.00    -0.354 N 
ATOM     57  N   UNL A   1      42.690  27.458  30.791  1.00  0.00    -0.248 NA
ATOM     58  C   UNL A   1      42.614  29.208  29.245  1.00  0.00     0.031 C 
ATOM     59  C   UNL A   1      47.453  26.202  30.161  1.00  0.00     0.029 A 
ATOM     60  C   UNL A   1      46.390  27.105  30.232  1.00  0.00     0.049 A 
ATOM     61  H   UNL A   1      46.560  29.141  29.710  1.00  0.00     0.167 HD
ATOM     62  C   UNL A   1      44.003  27.821  30.506  1.00  0.00     0.074 A 
ATOM     63  C   UNL A   1      43.886  28.941  29.569  1.00  0.00     0.031 C 
ATOM     64  C   UNL A   1      45.055  26.990  30.789  1.00  0.00     0.037 A 
BRANCH  51  65
ATOM     65  C   UNL A   1      47.840  29.786  26.980  1.00  0.00     0.057 A 
ATOM     66  C   UNL A   1      49.125  30.347  27.057  1.00  0.00     0.134 A 
ATOM     67  C   UNL A   1      46.785  30.713  26.855  1.00  0.00     0.134 A 
ATOM     68  F   UNL A   1      50.209  29.566  27.171  1.00  0.00    -0.206 F 
ATOM     69  C   UNL A   1      49.335  31.729  27.092  1.00  0.00     0.040 A 
ATOM     70  C   UNL A   1      46.988  32.094  26.840  1.00  0.00     0.040 A 
ATOM     71  F   UNL A   1      45.497  30.355  26.841  1.00  0.00    -0.206 F 
ATOM     72  C   UNL A   1      48.263  32.607  26.994  1.00  0.00     0.006 A 
ENDBRANCH  51  65
BRANCH  52  73
ATOM     73  C   UNL A   1      39.492  28.075  28.999  1.00  0.00     0.057 A 
ATOM     74  C   UNL A   1      38.547  28.136  30.032  1.00  0.00     0.134 A 
ATOM     75  C   UNL A   1      39.230  28.881  27.876  1.00  0.00     0.134 A 
ATOM     76  F   UNL A   1      38.732  27.437  31.162  1.00  0.00    -0.206 F 
ATOM     77  C   UNL A   1      37.416  28.964  29.960  1.00  0.00     0.040 A 
ATOM     78  C   UNL A   1      38.107  29.712  27.791  1.00  0.00     0.040 A 
ATOM     79  F   UNL A   1      40.102  28.955  26.860  1.00  0.00    -0.206 F 
ATOM     80  C   UNL A   1      37.200  29.764  28.842  1.00  0.00     0.006 A 
ENDBRANCH  52  73
BRANCH  64  81
ATOM     81  C   UNL A   1      44.760  25.739  31.590  1.00  0.00     0.057 A 
ATOM     82  C   UNL A   1      44.537  25.719  32.977  1.00  0.00     0.134 A 
ATOM     83  C   UNL A   1      44.539  24.538  30.914  1.00  0.00     0.134 A 
ATOM     84  F   UNL A   1      44.624  26.834  33.705  1.00  0.00    -0.206 F 
ATOM     85  C   UNL A   1      44.152  24.560  33.662  1.00  0.00     0.040 A 
ATOM     86  C   UNL A   1      44.127  23.377  31.579  1.00  0.00     0.040 A 
ATOM     87  F   UNL A   1      44.667  24.486  29.579  1.00  0.00    -0.206 F 
ATOM     88  C   UNL A   1      43.942  23.382  32.959  1.00  0.00     0.006 A 
ENDBRANCH  64  81
ENDBRANCH  38  39
ENDBRANCH  30  33
ENDBRANCH  28  29
ENDBRANCH  27  28
ENDBRANCH   1  27
TORSDOF 14
ENDMDL
MODEL 2
REMARK VINA RESULT:     -13.0      1.420      2.137
REMARK SMILES Cc1sc(NC(=O)[C@@H]2[C@@H](C(=O)NCCCCNC(=O)c3ccc(-c4c5nc(c(-c6c(F)cccc6F)c6ccc([nH]6)c(-c6c(F)cccc6F)c6nc(c(-c7c(F)cccc7F)c7ccc4[nH]7)C=C6)C=C5)cc3)[C@@H]3C=C[C@H]2C3)c(C#N)c1C
REMARK SMILES IDX 14 1 13 2 12 3 10 4 11 5 9 7 8 8 77 9 74 10 76 11 78 12
REMARK SMILES IDX 75 13 6 14 5 15 7 17 4 18 1 19 2 20 3 21 82 22 79 23 83 24
REMARK SMILES IDX 80 25 81 26 15 27 16 28 17 29 18 30 19 32 20 33 21 34 73 35
REMARK SMILES IDX 22 36 72 37 23 38 24 39 25 40 66 41 26 42 71 43 65 44 67 45
REMARK SMILES IDX 27 46 70 47 64 48 63 49 28 51 54 52 37 53 53 54 38 55 41 56
REMARK SMILES IDX 52 57 68 58 39 59 40 60 51 62 69 63 42 64 29 65 30 66 35 67
REMARK SMILES IDX 31 68 32 69 34 70 36 71 33 72 55 73 56 74 61 75 57 76 58 77
REMARK SMILES IDX 60 78 62 79 59 80 43 81 44 82 49 83 45 84 46 85 48 86 50 87
REMARK SMILES IDX 47 88
REMARK H PARENT 12 6 5 16 17 31 67 50 41 61
REMARK Flexibility Score: inf
ROOT
ATOM      1  C   UNL A   1      39.353  19.216  25.355  1.00  0.00     0.023 C 
ENDROOT
BRANCH   1   2
ATOM      2  C   UNL A   1      37.329  20.165  24.997  1.00  0.00     0.116 C 
BRANCH   2   3
ATOM      3  N   UNL A   1      36.907  21.699  24.773  1.00  0.00    -0.356 N 
ATOM      4  C   UNL A   1      35.774  22.246  24.247  1.00  0.00     0.224 C 
ATOM      5  O   UNL A   1      35.822  23.425  23.891  1.00  0.00    -0.275 OA
ATOM      6  H   UNL A   1      37.581  22.355  25.064  1.00  0.00     0.163 HD
BRANCH   4   7
ATOM      7  C   UNL A   1      34.516  21.404  24.172  1.00  0.00     0.098 C 
ATOM      8  C   UNL A   1      33.149  22.142  24.362  1.00  0.00     0.099 C 
ATOM      9  C   UNL A   1      32.491  21.271  25.485  1.00  0.00     0.025 C 
ATOM     10  C   UNL A   1      34.548  20.428  25.397  1.00  0.00     0.025 C 
ATOM     11  C   UNL A   1      32.386  19.805  25.078  1.00  0.00    -0.027 C 
ATOM     12  C   UNL A   1      33.676  21.149  26.436  1.00  0.00     0.017 C 
ATOM     13  C   UNL A   1      33.625  19.297  25.048  1.00  0.00    -0.027 C 
BRANCH   8  14
ATOM     14  C   UNL A   1      32.184  22.252  23.189  1.00  0.00     0.229 C 
ATOM     15  N   UNL A   1      31.278  23.260  23.036  1.00  0.00    -0.316 N 
ATOM     16  H   UNL A   1      30.436  23.028  22.582  1.00  0.00     0.170 HD
ATOM     17  O   UNL A   1      32.132  21.387  22.306  1.00  0.00    -0.274 OA
BRANCH  15  18
ATOM     18  C   UNL A   1      31.417  24.562  23.447  1.00  0.00     0.113 A 
ATOM     19  C   UNL A   1      31.225  29.112  22.627  1.00  0.00     0.057 C 
ATOM     20  C   UNL A   1      31.281  27.841  23.470  1.00  0.00     0.008 A 
ATOM     21  S   UNL A   1      31.841  26.174  21.908  1.00  0.00    -0.122 S 
ATOM     22  C   UNL A   1      30.983  27.059  25.108  1.00  0.00    -0.017 A 
ATOM     23  C   UNL A   1      30.993  25.143  24.962  1.00  0.00     0.090 A 
ATOM     24  C   UNL A   1      31.284  27.288  26.592  1.00  0.00     0.047 C 
BRANCH  23  25
ATOM     25  C   UNL A   1      30.649  24.298  26.075  1.00  0.00     0.103 C 
ATOM     26  N   UNL A   1      30.304  23.633  26.960  1.00  0.00    -0.192 NA
ENDBRANCH  23  25
ENDBRANCH  15  18
ENDBRANCH   8  14
ENDBRANCH   4   7
ENDBRANCH   2   3
ENDBRANCH   1   2
BRANCH   1  27
ATOM     27  C   UNL A   1      40.901  19.946  26.120  1.00  0.00     0.023 C 
BRANCH  27  28
ATOM     28  C   UNL A   1      42.273  19.324  26.781  1.00  0.00     0.116 C 
BRANCH  28  29
ATOM     29  N   UNL A   1      43.561  19.462  26.088  1.00  0.00    -0.352 N 
ATOM     30  C   UNL A   1      44.022  20.288  25.079  1.00  0.00     0.251 C 
ATOM     31  H   UNL A   1      44.244  18.830  26.411  1.00  0.00     0.163 HD
ATOM     32  O   UNL A   1      44.747  19.909  24.170  1.00  0.00    -0.269 OA
BRANCH  30  33
ATOM     33  C   UNL A   1      43.928  21.724  25.370  1.00  0.00     0.039 A 
ATOM     34  C   UNL A   1      43.383  22.665  24.491  1.00  0.00     0.014 A 
ATOM     35  C   UNL A   1      44.356  22.111  26.627  1.00  0.00     0.014 A 
ATOM     36  C   UNL A   1      43.247  23.968  24.957  1.00  0.00     0.010 A 
ATOM     37  C   UNL A   1      43.664  23.123  27.158  1.00  0.00     0.010 A 
ATOM     38  C   UNL A   1      43.486  24.180  26.314  1.00  0.00    -0.014 A 
BRANCH  38  39
ATOM     39  C   UNL A   1      43.300  25.386  27.059  1.00  0.00     0.031 A 
ATOM     40  C   UNL A   1      44.317  26.388  26.719  1.00  0.00     0.074 A 
ATOM     41  C   UNL A   1      42.150  25.634  27.715  1.00  0.00     0.049 A 
ATOM     42  N   UNL A   1      45.489  26.448  27.251  1.00  0.00    -0.248 NA
ATOM     43  C   UNL A   1      44.192  27.153  25.466  1.00  0.00     0.031 C 
ATOM     44  C   UNL A   1      40.904  24.864  27.832  1.00  0.00     0.029 A 
ATOM     45  N   UNL A   1      41.910  26.711  28.495  1.00  0.00    -0.354 N 
ATOM     46  C   UNL A   1      46.119  27.490  26.602  1.00  0.00     0.074 A 
ATOM     47  C   UNL A   1      45.433  27.639  25.348  1.00  0.00     0.031 C 
ATOM     48  C   UNL A   1      39.982  25.588  28.516  1.00  0.00     0.029 A 
ATOM     49  C   UNL A   1      40.627  26.787  29.019  1.00  0.00     0.049 A 
ATOM     50  H   UNL A   1      42.596  27.393  28.679  1.00  0.00     0.167 HD
ATOM     51  C   UNL A   1      46.899  28.349  27.312  1.00  0.00     0.037 A 
ATOM     52  C   UNL A   1      40.192  27.795  29.815  1.00  0.00     0.037 A 
ATOM     53  C   UNL A   1      47.119  27.835  28.652  1.00  0.00     0.049 A 
ATOM     54  C   UNL A   1      41.420  28.403  30.423  1.00  0.00     0.074 A 
ATOM     55  C   UNL A   1      47.700  26.687  29.158  1.00  0.00     0.029 A 
ATOM     56  N   UNL A   1      46.273  28.293  29.641  1.00  0.00    -0.354 N 
ATOM     57  N   UNL A   1      42.202  27.742  31.240  1.00  0.00    -0.248 NA
ATOM     58  C   UNL A   1      42.071  29.482  29.687  1.00  0.00     0.031 C 
ATOM     59  C   UNL A   1      46.828  26.260  30.209  1.00  0.00     0.029 A 
ATOM     60  C   UNL A   1      45.818  27.212  30.363  1.00  0.00     0.049 A 
ATOM     61  H   UNL A   1      46.034  29.233  29.804  1.00  0.00     0.167 HD
ATOM     62  C   UNL A   1      43.500  28.040  30.837  1.00  0.00     0.074 A 
ATOM     63  C   UNL A   1      43.352  29.158  29.900  1.00  0.00     0.031 C 
ATOM     64  C   UNL A   1      44.533  27.163  31.037  1.00  0.00     0.037 A 
BRANCH  51  65
ATOM     65  C   UNL A   1      47.097  29.798  26.965  1.00  0.00     0.057 A 
ATOM     66  C   UNL A   1      48.405  30.311  26.969  1.00  0.00     0.134 A 
ATOM     67  C   UNL A   1      46.072  30.763  26.881  1.00  0.00     0.134 A 
ATOM     68  F   UNL A   1      49.463  29.491  27.039  1.00  0.00    -0.206 F 
ATOM     69  C   UNL A   1      48.668  31.684  26.972  1.00  0.00     0.040 A 
ATOM     70  C   UNL A   1      46.326  32.135  26.835  1.00  0.00     0.040 A 
ATOM     71  F   UNL A   1      44.773  30.455  26.938  1.00  0.00    -0.206 F 
ATOM     72  C   UNL A   1      47.626  32.601  26.916  1.00  0.00     0.006 A 
ENDBRANCH  51  65
BRANCH  52  73
ATOM     73  C   UNL A   1      38.890  28.493  29.728  1.00  0.00     0.057 A 
ATOM     74  C   UNL A   1      38.037  28.593  30.836  1.00  0.00     0.134 A 
ATOM     75  C   UNL A   1      38.573  29.314  28.630  1.00  0.00     0.134 A 
ATOM     76  F   UNL A   1      38.283  27.884  31.947  1.00  0.00    -0.206 F 
ATOM     77  C   UNL A   1      36.942  29.472  30.856  1.00  0.00     0.040 A 
ATOM     78  C   UNL A   1      37.485  30.195  28.638  1.00  0.00     0.040 A 
ATOM     79  F   UNL A   1      39.361  29.351  27.545  1.00  0.00    -0.206 F 
ATOM     80  C   UNL A   1      36.671  30.284  29.759  1.00  0.00     0.006 A 
ENDBRANCH  52  73
BRANCH  64  81
ATOM     81  C   UNL A   1      44.254  25.934  31.874  1.00  0.00     0.057 A 
ATOM     82  C   UNL A   1      44.109  24.636  31.354  1.00  0.00     0.134 A 
ATOM     83  C   UNL A   1      44.289  26.038  33.265  1.00  0.00     0.134 A 
ATOM     84  F   UNL A   1      44.161  24.411  30.040  1.00  0.00    -0.206 F 
ATOM     85  C   UNL A   1      43.968  23.508  32.172  1.00  0.00     0.040 A 
ATOM     86  C   UNL A   1      44.177  24.918  34.097  1.00  0.00     0.040 A 
ATOM     87  F   UNL A   1      44.488  27.233  33.843  1.00  0.00    -0.206 F 
ATOM     88  C   UNL A   1      44.006  23.648  33.552  1.00  0.00     0.006 A 
ENDBRANCH  64  81
ENDBRANCH  38  39
ENDBRANCH  30  33
ENDBRANCH  28  29
ENDBRANCH  27  28
ENDBRANCH   1  27
TORSDOF 14
ENDMDL
MODEL 3
REMARK VINA RESULT:     -12.9      2.913      8.423
REMARK SMILES Cc1sc(NC(=O)[C@@H]2[C@@H](C(=O)NCCCCNC(=O)c3ccc(-c4c5nc(c(-c6c(F)cccc6F)c6ccc([nH]6)c(-c6c(F)cccc6F)c6nc(c(-c7c(F)cccc7F)c7ccc4[nH]7)C=C6)C=C5)cc3)[C@@H]3C=C[C@H]2C3)c(C#N)c1C
REMARK SMILES IDX 14 1 13 2 12 3 10 4 11 5 9 7 8 8 77 9 74 10 76 11 78 12
REMARK SMILES IDX 75 13 6 14 5 15 7 17 4 18 1 19 2 20 3 21 82 22 79 23 83 24
REMARK SMILES IDX 80 25 81 26 15 27 16 28 17 29 18 30 19 32 20 33 21 34 73 35
REMARK SMILES IDX 22 36 72 37 23 38 24 39 25 40 66 41 26 42 71 43 65 44 67 45
REMARK SMILES IDX 27 46 70 47 64 48 63 49 28 51 54 52 37 53 53 54 38 55 41 56
REMARK SMILES IDX 52 57 68 58 39 59 40 60 51 62 69 63 42 64 29 65 30 66 35 67
REMARK SMILES IDX 31 68 32 69 34 70 36 71 33 72 55 73 56 74 61 75 57 76 58 77
REMARK SMILES IDX 60 78 62 79 59 80 43 81 44 82 49 83 45 84 46 85 48 86 50 87
REMARK SMILES IDX 47 88
REMARK H PARENT 12 6 5 16 17 31 67 50 41 61
REMARK Flexibility Score: inf
ROOT
ATOM      1  C   UNL A   1      32.155  29.488  24.705  1.00  0.00     0.023 C 
ENDROOT
BRANCH   1   2
ATOM      2  C   UNL A   1      33.168  28.946  22.754  1.00  0.00     0.116 C 
BRANCH   2   3
ATOM      3  N   UNL A   1      33.335  27.533  22.007  1.00  0.00    -0.356 N 
ATOM      4  C   UNL A   1      33.158  26.258  22.457  1.00  0.00     0.224 C 
ATOM      5  O   UNL A   1      33.653  25.346  21.793  1.00  0.00    -0.275 OA
ATOM      6  H   UNL A   1      33.614  27.599  21.065  1.00  0.00     0.163 HD
BRANCH   4   7
ATOM      7  C   UNL A   1      32.331  26.027  23.706  1.00  0.00     0.098 C 
ATOM      8  C   UNL A   1      32.630  24.730  24.532  1.00  0.00     0.099 C 
ATOM      9  C   UNL A   1      31.196  24.114  24.651  1.00  0.00     0.025 C 
ATOM     10  C   UNL A   1      30.854  25.798  23.239  1.00  0.00     0.025 C 
ATOM     11  C   UNL A   1      30.213  25.083  25.297  1.00  0.00    -0.027 C 
ATOM     12  C   UNL A   1      30.735  24.267  23.206  1.00  0.00     0.017 C 
ATOM     13  C   UNL A   1      29.993  26.083  24.434  1.00  0.00    -0.027 C 
BRANCH   8  14
ATOM     14  C   UNL A   1      33.237  24.849  25.923  1.00  0.00     0.229 C 
ATOM     15  N   UNL A   1      33.619  23.783  26.684  1.00  0.00    -0.316 N 
ATOM     16  H   UNL A   1      33.536  23.888  27.659  1.00  0.00     0.170 HD
ATOM     17  O   UNL A   1      33.382  25.944  26.479  1.00  0.00    -0.274 OA
BRANCH  15  18
ATOM     18  C   UNL A   1      34.106  22.582  26.233  1.00  0.00     0.113 A 
ATOM     19  C   UNL A   1      33.561  18.582  23.970  1.00  0.00     0.057 C 
ATOM     20  C   UNL A   1      34.326  19.727  24.628  1.00  0.00     0.008 A 
ATOM     21  S   UNL A   1      32.661  20.882  25.821  1.00  0.00    -0.122 S 
ATOM     22  C   UNL A   1      35.919  20.636  24.779  1.00  0.00    -0.017 A 
ATOM     23  C   UNL A   1      35.658  22.329  25.650  1.00  0.00     0.090 A 
ATOM     24  C   UNL A   1      37.409  20.366  25.001  1.00  0.00     0.047 C 
BRANCH  23  25
ATOM     25  C   UNL A   1      36.723  23.289  25.770  1.00  0.00     0.103 C 
ATOM     26  N   UNL A   1      37.627  24.008  25.877  1.00  0.00    -0.192 NA
ENDBRANCH  23  25
ENDBRANCH  15  18
ENDBRANCH   8  14
ENDBRANCH   4   7
ENDBRANCH   2   3
ENDBRANCH   1   2
BRANCH   1  27
ATOM     27  C   UNL A   1      32.805  29.392  26.460  1.00  0.00     0.023 C 
BRANCH  27  28
ATOM     28  C   UNL A   1      34.229  29.768  27.193  1.00  0.00     0.116 C 
BRANCH  28  29
ATOM     29  N   UNL A   1      34.652  31.170  27.321  1.00  0.00    -0.352 N 
ATOM     30  C   UNL A   1      35.390  31.865  28.262  1.00  0.00     0.251 C 
ATOM     31  H   UNL A   1      34.343  31.736  26.577  1.00  0.00     0.163 HD
ATOM     32  O   UNL A   1      35.111  32.992  28.643  1.00  0.00    -0.269 OA
BRANCH  30  33
ATOM     33  C   UNL A   1      36.745  31.346  28.485  1.00  0.00     0.039 A 
ATOM     34  C   UNL A   1      37.699  31.975  29.291  1.00  0.00     0.014 A 
ATOM     35  C   UNL A   1      37.027  30.127  27.894  1.00  0.00     0.014 A 
ATOM     36  C   UNL A   1      38.895  31.299  29.507  1.00  0.00     0.010 A 
ATOM     37  C   UNL A   1      37.845  29.346  28.605  1.00  0.00     0.010 A 
ATOM     38  C   UNL A   1      38.964  29.980  29.061  1.00  0.00    -0.014 A 
BRANCH  38  39
ATOM     39  C   UNL A   1      40.021  29.040  29.265  1.00  0.00     0.031 A 
ATOM     40  C   UNL A   1      40.198  28.734  30.690  1.00  0.00     0.074 A 
ATOM     41  C   UNL A   1      40.525  28.320  28.245  1.00  0.00     0.049 A 
ATOM     42  N   UNL A   1      40.905  29.439  31.505  1.00  0.00    -0.248 NA
ATOM     43  C   UNL A   1      39.262  27.813  31.357  1.00  0.00     0.031 C 
ATOM     44  C   UNL A   1      40.179  28.268  26.818  1.00  0.00     0.029 A 
ATOM     45  N   UNL A   1      41.564  27.460  28.331  1.00  0.00    -0.354 N 
ATOM     46  C   UNL A   1      40.745  28.828  32.731  1.00  0.00     0.074 A 
ATOM     47  C   UNL A   1      39.514  28.091  32.641  1.00  0.00     0.031 C 
ATOM     48  C   UNL A   1      40.901  27.296  26.207  1.00  0.00     0.029 A 
ATOM     49  C   UNL A   1      41.866  26.780  27.159  1.00  0.00     0.049 A 
ATOM     50  H   UNL A   1      42.070  27.326  29.165  1.00  0.00     0.167 HD
ATOM     51  C   UNL A   1      41.814  28.701  33.562  1.00  0.00     0.037 A 
ATOM     52  C   UNL A   1      42.866  25.870  27.048  1.00  0.00     0.037 A 
ATOM     53  C   UNL A   1      42.929  29.488  33.068  1.00  0.00     0.049 A 
ATOM     54  C   UNL A   1      43.831  26.177  28.153  1.00  0.00     0.074 A 
ATOM     55  C   UNL A   1      43.120  30.835  32.819  1.00  0.00     0.029 A 
ATOM     56  N   UNL A   1      43.861  28.829  32.293  1.00  0.00    -0.354 N 
ATOM     57  N   UNL A   1      44.503  27.300  28.208  1.00  0.00    -0.248 NA
ATOM     58  C   UNL A   1      43.605  25.531  29.442  1.00  0.00     0.031 C 
ATOM     59  C   UNL A   1      43.816  30.889  31.571  1.00  0.00     0.029 A 
ATOM     60  C   UNL A   1      44.105  29.584  31.167  1.00  0.00     0.049 A 
ATOM     61  H   UNL A   1      44.282  27.966  32.507  1.00  0.00     0.167 HD
ATOM     62  C   UNL A   1      44.438  27.708  29.537  1.00  0.00     0.074 A 
ATOM     63  C   UNL A   1      43.908  26.548  30.258  1.00  0.00     0.031 C 
ATOM     64  C   UNL A   1      44.506  29.031  29.886  1.00  0.00     0.037 A 
BRANCH  51  65
ATOM     65  C   UNL A   1      41.997  27.575  34.542  1.00  0.00     0.057 A 
ATOM     66  C   UNL A   1      41.666  27.803  35.888  1.00  0.00     0.134 A 
ATOM     67  C   UNL A   1      42.710  26.385  34.291  1.00  0.00     0.134 A 
ATOM     68  F   UNL A   1      40.983  28.898  36.250  1.00  0.00    -0.206 F 
ATOM     69  C   UNL A   1      42.086  26.951  36.914  1.00  0.00     0.040 A 
ATOM     70  C   UNL A   1      43.092  25.503  35.303  1.00  0.00     0.040 A 
ATOM     71  F   UNL A   1      43.166  26.049  33.080  1.00  0.00    -0.206 F 
ATOM     72  C   UNL A   1      42.810  25.802  36.624  1.00  0.00     0.006 A 
ENDBRANCH  51  65
BRANCH  52  73
ATOM     73  C   UNL A   1      42.800  24.562  26.358  1.00  0.00     0.057 A 
ATOM     74  C   UNL A   1      43.652  24.255  25.289  1.00  0.00     0.134 A 
ATOM     75  C   UNL A   1      42.085  23.481  26.907  1.00  0.00     0.134 A 
ATOM     76  F   UNL A   1      44.408  25.210  24.728  1.00  0.00    -0.206 F 
ATOM     77  C   UNL A   1      43.798  22.945  24.804  1.00  0.00     0.040 A 
ATOM     78  C   UNL A   1      42.222  22.170  26.435  1.00  0.00     0.040 A 
ATOM     79  F   UNL A   1      41.296  23.648  27.978  1.00  0.00    -0.206 F 
ATOM     80  C   UNL A   1      43.090  21.897  25.386  1.00  0.00     0.006 A 
ENDBRANCH  52  73
BRANCH  64  81
ATOM     81  C   UNL A   1      44.838  30.025  28.793  1.00  0.00     0.057 A 
ATOM     82  C   UNL A   1      43.882  30.771  28.082  1.00  0.00     0.134 A 
ATOM     83  C   UNL A   1      46.173  30.357  28.561  1.00  0.00     0.134 A 
ATOM     84  F   UNL A   1      42.576  30.604  28.302  1.00  0.00    -0.206 F 
ATOM     85  C   UNL A   1      44.234  31.766  27.162  1.00  0.00     0.040 A 
ATOM     86  C   UNL A   1      46.542  31.366  27.664  1.00  0.00     0.040 A 
ATOM     87  F   UNL A   1      47.147  29.737  29.245  1.00  0.00    -0.206 F 
ATOM     88  C   UNL A   1      45.573  32.069  26.953  1.00  0.00     0.006 A 
ENDBRANCH  64  81
ENDBRANCH  38  39
ENDBRANCH  30  33
ENDBRANCH  28  29
ENDBRANCH  27  28
ENDBRANCH   1  27
TORSDOF 14
ENDMDL
