MODEL 1
REMARK VINA RESULT:     -11.9      0.000      0.000
REMARK SMILES O=C(NCCCCNC(=O)c1ccc(-c2c3nc(c(-c4c(F)cccc4F)c4ccc([nH]4)c(-c4c(F)cccc4F)c4nc(c(-c5c(F)cccc5F)c5ccc2[nH]5)C=C4)C=C3)cc1)C1=Cc2ccc(Cl)c(Cl)c2O[C@@H]1C(F)(F)F
REMARK SMILES IDX 6 1 5 2 4 3 3 4 1 5 2 6 65 8 66 9 76 10 67 11 75 12 68 13
REMARK SMILES IDX 74 14 69 15 72 16 70 17 73 18 71 19 77 20 78 21 79 22 80 23
REMARK SMILES IDX 7 24 8 25 9 26 10 28 11 29 12 30 64 31 13 32 63 33 14 34
REMARK SMILES IDX 15 35 16 36 57 37 17 38 62 39 56 40 58 41 18 42 61 43 55 44
REMARK SMILES IDX 54 45 19 47 45 48 28 49 44 50 29 51 32 52 43 53 59 54 30 55
REMARK SMILES IDX 31 56 42 58 60 59 33 60 20 61 21 62 26 63 22 64 23 65 25 66
REMARK SMILES IDX 27 67 24 68 46 69 47 70 52 71 48 72 49 73 51 74 53 75 50 76
REMARK SMILES IDX 34 77 35 78 40 79 36 80 37 81 39 82 41 83 38 84
REMARK H PARENT 3 7 8 27 58 46 32 57
REMARK Flexibility Score: inf
ROOT
ATOM      1  C   UNL A   1      32.244  28.560  26.369  1.00  0.00     0.023 C 
ENDROOT
BRANCH   1   2
ATOM      2  C   UNL A   1      31.416  27.461  27.032  1.00  0.00     0.023 C 
BRANCH   2   3
ATOM      3  C   UNL A   1      31.239  26.212  26.164  1.00  0.00     0.116 C 
BRANCH   3   4
ATOM      4  N   UNL A   1      31.212  24.963  26.928  1.00  0.00    -0.352 N 
ATOM      5  O   UNL A   1      32.036  22.982  27.673  1.00  0.00    -0.270 OA
ATOM      6  C   UNL A   1      32.001  23.842  26.803  1.00  0.00     0.251 C 
ATOM      7  H   UNL A   1      30.530  24.919  27.636  1.00  0.00     0.163 HD
BRANCH   6   8
ATOM      8  C   UNL A   1      32.866  23.753  25.612  1.00  0.00     0.067 C 
ATOM      9  C   UNL A   1      33.955  24.533  25.582  1.00  0.00     0.025 C 
ATOM     10  C   UNL A   1      32.704  22.561  24.724  1.00  0.00     0.314 C 
ATOM     11  C   UNL A   1      35.174  23.809  25.195  1.00  0.00     0.019 A 
ATOM     12  O   UNL A   1      33.918  21.777  24.662  1.00  0.00    -0.474 OA
ATOM     13  C   UNL A   1      36.394  24.389  25.555  1.00  0.00     0.013 A 
ATOM     14  C   UNL A   1      35.109  22.428  24.905  1.00  0.00     0.148 A 
ATOM     15  C   UNL A   1      37.520  23.586  25.727  1.00  0.00     0.023 A 
ATOM     16  C   UNL A   1      36.254  21.626  25.054  1.00  0.00     0.102 A 
ATOM     17  C   UNL A   1      37.448  22.207  25.497  1.00  0.00     0.063 A 
ATOM     18  Cl  UNL A   1      36.121  19.908  24.840  1.00  0.00    -0.079 Cl
ATOM     19  Cl  UNL A   1      38.850  21.271  25.877  1.00  0.00    -0.083 Cl
BRANCH  10  20
ATOM     20  C   UNL A   1      32.229  22.953  23.314  1.00  0.00     0.429 C 
ATOM     21  F   UNL A   1      31.321  23.956  23.368  1.00  0.00    -0.167 F 
ATOM     22  F   UNL A   1      33.249  23.387  22.539  1.00  0.00    -0.167 F 
ATOM     23  F   UNL A   1      31.644  21.918  22.665  1.00  0.00    -0.167 F 
ENDBRANCH  10  20
ENDBRANCH   6   8
ENDBRANCH   3   4
ENDBRANCH   2   3
ENDBRANCH   1   2
BRANCH   1  24
ATOM     24  C   UNL A   1      33.577  28.895  27.037  1.00  0.00     0.116 C 
BRANCH  24  25
ATOM     25  N   UNL A   1      33.633  30.214  27.653  1.00  0.00    -0.352 N 
ATOM     26  C   UNL A   1      34.699  30.801  28.303  1.00  0.00     0.251 C 
ATOM     27  H   UNL A   1      32.811  30.751  27.598  1.00  0.00     0.163 HD
ATOM     28  O   UNL A   1      34.589  31.902  28.831  1.00  0.00    -0.269 OA
BRANCH  26  29
ATOM     29  C   UNL A   1      35.967  30.047  28.410  1.00  0.00     0.039 A 
ATOM     30  C   UNL A   1      36.882  30.111  27.355  1.00  0.00     0.014 A 
ATOM     31  C   UNL A   1      36.297  29.393  29.599  1.00  0.00     0.014 A 
ATOM     32  C   UNL A   1      38.175  29.615  27.538  1.00  0.00     0.010 A 
ATOM     33  C   UNL A   1      37.606  28.970  29.804  1.00  0.00     0.010 A 
ATOM     34  C   UNL A   1      38.564  29.098  28.783  1.00  0.00    -0.014 A 
BRANCH  34  35
ATOM     35  C   UNL A   1      39.970  28.708  29.064  1.00  0.00     0.031 A 
ATOM     36  C   UNL A   1      40.908  29.702  29.687  1.00  0.00     0.074 A 
ATOM     37  C   UNL A   1      40.429  27.506  28.660  1.00  0.00     0.049 A 
ATOM     38  N   UNL A   1      42.201  29.622  29.866  1.00  0.00    -0.248 NA
ATOM     39  C   UNL A   1      40.315  30.972  30.137  1.00  0.00     0.031 C 
ATOM     40  C   UNL A   1      39.633  26.470  27.995  1.00  0.00     0.029 A 
ATOM     41  N   UNL A   1      41.688  26.959  28.728  1.00  0.00    -0.354 N 
ATOM     42  C   UNL A   1      42.581  30.841  30.413  1.00  0.00     0.074 A 
ATOM     43  C   UNL A   1      41.389  31.655  30.504  1.00  0.00     0.031 C 
ATOM     44  C   UNL A   1      40.418  25.412  27.730  1.00  0.00     0.029 A 
ATOM     45  C   UNL A   1      41.778  25.707  28.168  1.00  0.00     0.049 A 
ATOM     46  H   UNL A   1      42.453  27.420  29.140  1.00  0.00     0.167 HD
ATOM     47  C   UNL A   1      43.809  31.237  30.820  1.00  0.00     0.037 A 
ATOM     48  C   UNL A   1      42.842  24.894  28.014  1.00  0.00     0.037 A 
ATOM     49  C   UNL A   1      44.982  30.406  30.776  1.00  0.00     0.049 A 
ATOM     50  C   UNL A   1      44.188  25.345  28.510  1.00  0.00     0.074 A 
ATOM     51  C   UNL A   1      46.259  30.694  31.223  1.00  0.00     0.029 A 
ATOM     52  N   UNL A   1      45.016  29.119  30.264  1.00  0.00    -0.354 N 
ATOM     53  N   UNL A   1      44.521  26.479  29.077  1.00  0.00    -0.248 NA
ATOM     54  C   UNL A   1      45.307  24.403  28.352  1.00  0.00     0.031 C 
ATOM     55  C   UNL A   1      47.073  29.588  30.961  1.00  0.00     0.029 A 
ATOM     56  C   UNL A   1      46.294  28.600  30.382  1.00  0.00     0.049 A 
ATOM     57  H   UNL A   1      44.246  28.644  29.875  1.00  0.00     0.167 HD
ATOM     58  C   UNL A   1      45.873  26.374  29.376  1.00  0.00     0.074 A 
ATOM     59  C   UNL A   1      46.300  25.064  28.931  1.00  0.00     0.031 C 
ATOM     60  C   UNL A   1      46.688  27.280  29.964  1.00  0.00     0.037 A 
BRANCH  47  61
ATOM     61  C   UNL A   1      43.945  32.630  31.357  1.00  0.00     0.057 A 
ATOM     62  C   UNL A   1      44.227  33.717  30.519  1.00  0.00     0.134 A 
ATOM     63  C   UNL A   1      43.754  32.893  32.719  1.00  0.00     0.134 A 
ATOM     64  F   UNL A   1      44.435  33.529  29.208  1.00  0.00    -0.206 F 
ATOM     65  C   UNL A   1      44.334  35.016  31.022  1.00  0.00     0.040 A 
ATOM     66  C   UNL A   1      43.835  34.191  33.229  1.00  0.00     0.040 A 
ATOM     67  F   UNL A   1      43.477  31.897  33.573  1.00  0.00    -0.206 F 
ATOM     68  C   UNL A   1      44.131  35.255  32.380  1.00  0.00     0.006 A 
ENDBRANCH  47  61
BRANCH  48  69
ATOM     69  C   UNL A   1      42.684  23.560  27.380  1.00  0.00     0.057 A 
ATOM     70  C   UNL A   1      42.376  22.429  28.148  1.00  0.00     0.134 A 
ATOM     71  C   UNL A   1      42.864  23.375  26.004  1.00  0.00     0.134 A 
ATOM     72  F   UNL A   1      42.212  22.540  29.474  1.00  0.00    -0.206 F 
ATOM     73  C   UNL A   1      42.280  21.160  27.575  1.00  0.00     0.040 A 
ATOM     74  C   UNL A   1      42.748  22.114  25.416  1.00  0.00     0.040 A 
ATOM     75  F   UNL A   1      43.154  24.417  25.212  1.00  0.00    -0.206 F 
ATOM     76  C   UNL A   1      42.464  21.000  26.204  1.00  0.00     0.006 A 
ENDBRANCH  48  69
BRANCH  60  77
ATOM     77  C   UNL A   1      48.106  26.870  30.221  1.00  0.00     0.057 A 
ATOM     78  C   UNL A   1      48.466  26.123  31.348  1.00  0.00     0.134 A 
ATOM     79  C   UNL A   1      49.110  27.174  29.292  1.00  0.00     0.134 A 
ATOM     80  F   UNL A   1      47.552  25.812  32.279  1.00  0.00    -0.206 F 
ATOM     81  C   UNL A   1      49.782  25.701  31.549  1.00  0.00     0.040 A 
ATOM     82  C   UNL A   1      50.423  26.740  29.471  1.00  0.00     0.040 A 
ATOM     83  F   UNL A   1      48.824  27.881  28.188  1.00  0.00    -0.206 F 
ATOM     84  C   UNL A   1      50.762  26.003  30.604  1.00  0.00     0.006 A 
ENDBRANCH  60  77
ENDBRANCH  34  35
ENDBRANCH  26  29
ENDBRANCH  24  25
ENDBRANCH   1  24
TORSDOF 12
ENDMDL
MODEL 2
REMARK VINA RESULT:     -11.8      2.794      7.309
REMARK SMILES O=C(NCCCCNC(=O)c1ccc(-c2c3nc(c(-c4c(F)cccc4F)c4ccc([nH]4)c(-c4c(F)cccc4F)c4nc(c(-c5c(F)cccc5F)c5ccc2[nH]5)C=C4)C=C3)cc1)C1=Cc2ccc(Cl)c(Cl)c2O[C@@H]1C(F)(F)F
REMARK SMILES IDX 6 1 5 2 4 3 3 4 1 5 2 6 65 8 66 9 76 10 67 11 75 12 68 13
REMARK SMILES IDX 74 14 69 15 72 16 70 17 73 18 71 19 77 20 78 21 79 22 80 23
REMARK SMILES IDX 7 24 8 25 9 26 10 28 11 29 12 30 64 31 13 32 63 33 14 34
REMARK SMILES IDX 15 35 16 36 57 37 17 38 62 39 56 40 58 41 18 42 61 43 55 44
REMARK SMILES IDX 54 45 19 47 45 48 28 49 44 50 29 51 32 52 43 53 59 54 30 55
REMARK SMILES IDX 31 56 42 58 60 59 33 60 20 61 21 62 26 63 22 64 23 65 25 66
REMARK SMILES IDX 27 67 24 68 46 69 47 70 52 71 48 72 49 73 51 74 53 75 50 76
REMARK SMILES IDX 34 77 35 78 40 79 36 80 37 81 39 82 41 83 38 84
REMARK H PARENT 3 7 8 27 58 46 32 57
REMARK Flexibility Score: inf
ROOT
ATOM      1  C   UNL A   1      37.496  21.481  24.774  1.00  0.00     0.023 C 
ENDROOT
BRANCH   1   2
ATOM      2  C   UNL A   1      36.270  20.618  25.068  1.00  0.00     0.023 C 
BRANCH   2   3
ATOM      3  C   UNL A   1      34.942  21.368  24.943  1.00  0.00     0.116 C 
BRANCH   3   4
ATOM      4  N   UNL A   1      34.867  22.241  23.770  1.00  0.00    -0.352 N 
ATOM      5  O   UNL A   1      34.536  24.204  22.676  1.00  0.00    -0.270 OA
ATOM      6  C   UNL A   1      34.298  23.488  23.640  1.00  0.00     0.251 C 
ATOM      7  H   UNL A   1      35.286  21.885  22.954  1.00  0.00     0.163 HD
BRANCH   6   8
ATOM      8  C   UNL A   1      33.449  23.963  24.747  1.00  0.00     0.067 C 
ATOM      9  C   UNL A   1      33.967  24.886  25.568  1.00  0.00     0.025 C 
ATOM     10  C   UNL A   1      31.981  23.695  24.661  1.00  0.00     0.314 C 
ATOM     11  C   UNL A   1      33.059  26.016  25.815  1.00  0.00     0.019 A 
ATOM     12  O   UNL A   1      31.218  24.923  24.628  1.00  0.00    -0.474 OA
ATOM     13  C   UNL A   1      33.638  27.205  26.267  1.00  0.00     0.013 A 
ATOM     14  C   UNL A   1      31.787  26.041  25.200  1.00  0.00     0.148 A 
ATOM     15  C   UNL A   1      33.006  28.422  26.020  1.00  0.00     0.023 A 
ATOM     16  C   UNL A   1      31.140  27.270  24.977  1.00  0.00     0.102 A 
ATOM     17  C   UNL A   1      31.772  28.459  25.361  1.00  0.00     0.063 A 
ATOM     18  Cl  UNL A   1      29.649  27.295  24.087  1.00  0.00    -0.079 Cl
ATOM     19  Cl  UNL A   1      31.135  30.016  24.967  1.00  0.00    -0.083 Cl
BRANCH  10  20
ATOM     20  C   UNL A   1      31.495  22.776  25.795  1.00  0.00     0.429 C 
ATOM     21  F   UNL A   1      32.166  23.027  26.946  1.00  0.00    -0.167 F 
ATOM     22  F   UNL A   1      30.180  22.951  26.061  1.00  0.00    -0.167 F 
ATOM     23  F   UNL A   1      31.675  21.465  25.505  1.00  0.00    -0.167 F 
ENDBRANCH  10  20
ENDBRANCH   6   8
ENDBRANCH   3   4
ENDBRANCH   2   3
ENDBRANCH   1   2
BRANCH   1  24
ATOM     24  C   UNL A   1      38.656  21.361  25.762  1.00  0.00     0.116 C 
BRANCH  24  25
ATOM     25  N   UNL A   1      39.446  20.146  25.626  1.00  0.00    -0.352 N 
ATOM     26  C   UNL A   1      40.765  19.947  25.981  1.00  0.00     0.251 C 
ATOM     27  H   UNL A   1      38.983  19.372  25.233  1.00  0.00     0.163 HD
ATOM     28  O   UNL A   1      41.328  18.883  25.753  1.00  0.00    -0.269 OA
BRANCH  26  29
ATOM     29  C   UNL A   1      41.514  21.071  26.585  1.00  0.00     0.039 A 
ATOM     30  C   UNL A   1      42.072  22.039  25.747  1.00  0.00     0.014 A 
ATOM     31  C   UNL A   1      41.547  21.227  27.973  1.00  0.00     0.014 A 
ATOM     32  C   UNL A   1      42.563  23.225  26.299  1.00  0.00     0.010 A 
ATOM     33  C   UNL A   1      41.966  22.438  28.512  1.00  0.00     0.010 A 
ATOM     34  C   UNL A   1      42.457  23.458  27.679  1.00  0.00    -0.014 A 
BRANCH  34  35
ATOM     35  C   UNL A   1      42.822  24.765  28.281  1.00  0.00     0.031 A 
ATOM     36  C   UNL A   1      41.760  25.806  28.501  1.00  0.00     0.074 A 
ATOM     37  C   UNL A   1      44.115  25.056  28.527  1.00  0.00     0.049 A 
ATOM     38  N   UNL A   1      41.888  27.058  28.858  1.00  0.00    -0.248 NA
ATOM     39  C   UNL A   1      40.371  25.392  28.248  1.00  0.00     0.031 C 
ATOM     40  C   UNL A   1      45.248  24.152  28.309  1.00  0.00     0.029 A 
ATOM     41  N   UNL A   1      44.701  26.209  28.995  1.00  0.00    -0.354 N 
ATOM     42  C   UNL A   1      40.605  27.587  28.838  1.00  0.00     0.074 A 
ATOM     43  C   UNL A   1      39.717  26.533  28.398  1.00  0.00     0.031 C 
ATOM     44  C   UNL A   1      46.386  24.778  28.653  1.00  0.00     0.029 A 
ATOM     45  C   UNL A   1      46.071  26.138  29.079  1.00  0.00     0.049 A 
ATOM     46  H   UNL A   1      44.187  27.009  29.247  1.00  0.00     0.167 HD
ATOM     47  C   UNL A   1      40.201  28.835  29.173  1.00  0.00     0.037 A 
ATOM     48  C   UNL A   1      46.973  27.070  29.446  1.00  0.00     0.037 A 
ATOM     49  C   UNL A   1      41.079  29.865  29.659  1.00  0.00     0.049 A 
ATOM     50  C   UNL A   1      46.492  28.437  29.851  1.00  0.00     0.074 A 
ATOM     51  C   UNL A   1      40.756  31.141  30.086  1.00  0.00     0.029 A 
ATOM     52  N   UNL A   1      42.451  29.730  29.795  1.00  0.00    -0.354 N 
ATOM     53  N   UNL A   1      45.268  28.905  29.880  1.00  0.00    -0.248 NA
ATOM     54  C   UNL A   1      47.515  29.403  30.279  1.00  0.00     0.031 C 
ATOM     55  C   UNL A   1      41.939  31.788  30.459  1.00  0.00     0.029 A 
ATOM     56  C   UNL A   1      42.991  30.902  30.296  1.00  0.00     0.049 A 
ATOM     57  H   UNL A   1      42.965  28.921  29.569  1.00  0.00     0.167 HD
ATOM     58  C   UNL A   1      45.369  30.204  30.362  1.00  0.00     0.074 A 
ATOM     59  C   UNL A   1      46.773  30.449  30.617  1.00  0.00     0.031 C 
ATOM     60  C   UNL A   1      44.388  31.112  30.575  1.00  0.00     0.037 A 
BRANCH  47  61
ATOM     61  C   UNL A   1      38.742  29.152  29.034  1.00  0.00     0.057 A 
ATOM     62  C   UNL A   1      37.873  29.110  30.133  1.00  0.00     0.134 A 
ATOM     63  C   UNL A   1      38.210  29.541  27.800  1.00  0.00     0.134 A 
ATOM     64  F   UNL A   1      38.319  28.731  31.339  1.00  0.00    -0.206 F 
ATOM     65  C   UNL A   1      36.519  29.425  30.002  1.00  0.00     0.040 A 
ATOM     66  C   UNL A   1      36.862  29.882  27.662  1.00  0.00     0.040 A 
ATOM     67  F   UNL A   1      38.990  29.606  26.711  1.00  0.00    -0.206 F 
ATOM     68  C   UNL A   1      36.012  29.819  28.764  1.00  0.00     0.006 A 
ENDBRANCH  47  61
BRANCH  48  69
ATOM     69  C   UNL A   1      48.422  26.746  29.470  1.00  0.00     0.057 A 
ATOM     70  C   UNL A   1      49.243  27.037  28.373  1.00  0.00     0.134 A 
ATOM     71  C   UNL A   1      49.016  26.116  30.570  1.00  0.00     0.134 A 
ATOM     72  F   UNL A   1      48.728  27.622  27.282  1.00  0.00    -0.206 F 
ATOM     73  C   UNL A   1      50.595  26.689  28.358  1.00  0.00     0.040 A 
ATOM     74  C   UNL A   1      50.372  25.784  30.577  1.00  0.00     0.040 A 
ATOM     75  F   UNL A   1      48.287  25.817  31.655  1.00  0.00    -0.206 F 
ATOM     76  C   UNL A   1      51.164  26.062  29.464  1.00  0.00     0.006 A 
ENDBRANCH  48  69
BRANCH  60  77
ATOM     77  C   UNL A   1      44.783  32.430  31.166  1.00  0.00     0.057 A 
ATOM     78  C   UNL A   1      45.109  33.531  30.367  1.00  0.00     0.134 A 
ATOM     79  C   UNL A   1      44.773  32.614  32.555  1.00  0.00     0.134 A 
ATOM     80  F   UNL A   1      45.148  33.414  29.031  1.00  0.00    -0.206 F 
ATOM     81  C   UNL A   1      45.424  34.769  30.929  1.00  0.00     0.040 A 
ATOM     82  C   UNL A   1      45.064  33.851  33.129  1.00  0.00     0.040 A 
ATOM     83  F   UNL A   1      44.460  31.598  33.374  1.00  0.00    -0.206 F 
ATOM     84  C   UNL A   1      45.393  34.933  32.313  1.00  0.00     0.006 A 
ENDBRANCH  60  77
ENDBRANCH  34  35
ENDBRANCH  26  29
ENDBRANCH  24  25
ENDBRANCH   1  24
TORSDOF 12
ENDMDL
MODEL 3
REMARK VINA RESULT:     -11.8      2.801      7.177
REMARK SMILES O=C(NCCCCNC(=O)c1ccc(-c2c3nc(c(-c4c(F)cccc4F)c4ccc([nH]4)c(-c4c(F)cccc4F)c4nc(c(-c5c(F)cccc5F)c5ccc2[nH]5)C=C4)C=C3)cc1)C1=Cc2ccc(Cl)c(Cl)c2O[C@@H]1C(F)(F)F
REMARK SMILES IDX 6 1 5 2 4 3 3 4 1 5 2 6 65 8 66 9 76 10 67 11 75 12 68 13
REMARK SMILES IDX 74 14 69 15 72 16 70 17 73 18 71 19 77 20 78 21 79 22 80 23
REMARK SMILES IDX 7 24 8 25 9 26 10 28 11 29 12 30 64 31 13 32 63 33 14 34
REMARK SMILES IDX 15 35 16 36 57 37 17 38 62 39 56 40 58 41 18 42 61 43 55 44
REMARK SMILES IDX 54 45 19 47 45 48 28 49 44 50 29 51 32 52 43 53 59 54 30 55
REMARK SMILES IDX 31 56 42 58 60 59 33 60 20 61 21 62 26 63 22 64 23 65 25 66
REMARK SMILES IDX 27 67 24 68 46 69 47 70 52 71 48 72 49 73 51 74 53 75 50 76
REMARK SMILES IDX 34 77 35 78 40 79 36 80 37 81 39 82 41 83 38 84
REMARK H PARENT 3 7 8 27 58 46 32 57
REMARK Flexibility Score: inf
ROOT
ATOM      1  C   UNL A   1      37.433  21.538  24.773  1.00  0.00     0.023 C 
ENDROOT
BRANCH   1   2
ATOM      2  C   UNL A   1      36.203  20.667  25.020  1.00  0.00     0.023 C 
BRANCH   2   3
ATOM      3  C   UNL A   1      34.877  21.421  24.896  1.00  0.00     0.116 C 
BRANCH   3   4
ATOM      4  N   UNL A   1      34.812  22.312  23.737  1.00  0.00    -0.352 N 
ATOM      5  O   UNL A   1      34.515  24.297  22.673  1.00  0.00    -0.270 OA
ATOM      6  C   UNL A   1      34.270  23.573  23.629  1.00  0.00     0.251 C 
ATOM      7  H   UNL A   1      35.215  21.958  22.912  1.00  0.00     0.163 HD
BRANCH   6   8
ATOM      8  C   UNL A   1      33.441  24.052  24.750  1.00  0.00     0.067 C 
ATOM      9  C   UNL A   1      33.967  24.988  25.551  1.00  0.00     0.025 C 
ATOM     10  C   UNL A   1      31.973  23.768  24.699  1.00  0.00     0.314 C 
ATOM     11  C   UNL A   1      33.054  26.110  25.805  1.00  0.00     0.019 A 
ATOM     12  O   UNL A   1      31.198  24.988  24.671  1.00  0.00    -0.474 OA
ATOM     13  C   UNL A   1      33.631  27.310  26.233  1.00  0.00     0.013 A 
ATOM     14  C   UNL A   1      31.768  26.117  25.219  1.00  0.00     0.148 A 
ATOM     15  C   UNL A   1      32.981  28.518  25.988  1.00  0.00     0.023 A 
ATOM     16  C   UNL A   1      31.105  27.337  24.998  1.00  0.00     0.102 A 
ATOM     17  C   UNL A   1      31.733  28.536  25.356  1.00  0.00     0.063 A 
ATOM     18  Cl  UNL A   1      29.594  27.339  24.142  1.00  0.00    -0.079 Cl
ATOM     19  Cl  UNL A   1      31.071  30.083  24.961  1.00  0.00    -0.083 Cl
BRANCH  10  20
ATOM     20  C   UNL A   1      31.522  22.856  25.853  1.00  0.00     0.429 C 
ATOM     21  F   UNL A   1      31.295  21.593  25.417  1.00  0.00    -0.167 F 
ATOM     22  F   UNL A   1      32.456  22.773  26.828  1.00  0.00    -0.167 F 
ATOM     23  F   UNL A   1      30.377  23.291  26.431  1.00  0.00    -0.167 F 
ENDBRANCH  10  20
ENDBRANCH   6   8
ENDBRANCH   3   4
ENDBRANCH   2   3
ENDBRANCH   1   2
BRANCH   1  24
ATOM     24  C   UNL A   1      38.580  21.381  25.769  1.00  0.00     0.116 C 
BRANCH  24  25
ATOM     25  N   UNL A   1      39.363  20.163  25.608  1.00  0.00    -0.352 N 
ATOM     26  C   UNL A   1      40.685  19.953  25.945  1.00  0.00     0.251 C 
ATOM     27  H   UNL A   1      38.892  19.397  25.209  1.00  0.00     0.163 HD
ATOM     28  O   UNL A   1      41.239  18.889  25.696  1.00  0.00    -0.269 OA
BRANCH  26  29
ATOM     29  C   UNL A   1      41.445  21.064  26.557  1.00  0.00     0.039 A 
ATOM     30  C   UNL A   1      42.024  22.026  25.725  1.00  0.00     0.014 A 
ATOM     31  C   UNL A   1      41.472  21.217  27.946  1.00  0.00     0.014 A 
ATOM     32  C   UNL A   1      42.529  23.203  26.283  1.00  0.00     0.010 A 
ATOM     33  C   UNL A   1      41.905  22.420  28.490  1.00  0.00     0.010 A 
ATOM     34  C   UNL A   1      42.417  23.435  27.662  1.00  0.00    -0.014 A 
BRANCH  34  35
ATOM     35  C   UNL A   1      42.797  24.736  28.270  1.00  0.00     0.031 A 
ATOM     36  C   UNL A   1      41.748  25.790  28.488  1.00  0.00     0.074 A 
ATOM     37  C   UNL A   1      44.093  25.009  28.522  1.00  0.00     0.049 A 
ATOM     38  N   UNL A   1      41.891  27.039  28.850  1.00  0.00    -0.248 NA
ATOM     39  C   UNL A   1      40.354  25.395  28.228  1.00  0.00     0.031 C 
ATOM     40  C   UNL A   1      45.214  24.090  28.306  1.00  0.00     0.029 A 
ATOM     41  N   UNL A   1      44.692  26.151  28.996  1.00  0.00    -0.354 N 
ATOM     42  C   UNL A   1      40.615  27.586  28.825  1.00  0.00     0.074 A 
ATOM     43  C   UNL A   1      39.716  26.545  28.379  1.00  0.00     0.031 C 
ATOM     44  C   UNL A   1      46.359  24.699  28.657  1.00  0.00     0.029 A 
ATOM     45  C   UNL A   1      46.061  26.062  29.085  1.00  0.00     0.049 A 
ATOM     46  H   UNL A   1      44.188  26.958  29.247  1.00  0.00     0.167 HD
ATOM     47  C   UNL A   1      40.227  28.838  29.163  1.00  0.00     0.037 A 
ATOM     48  C   UNL A   1      46.973  26.981  29.458  1.00  0.00     0.037 A 
ATOM     49  C   UNL A   1      41.117  29.855  29.655  1.00  0.00     0.049 A 
ATOM     50  C   UNL A   1      46.510  28.353  29.865  1.00  0.00     0.074 A 
ATOM     51  C   UNL A   1      40.810  31.134  30.084  1.00  0.00     0.029 A 
ATOM     52  N   UNL A   1      42.487  29.700  29.796  1.00  0.00    -0.354 N 
ATOM     53  N   UNL A   1      45.292  28.838  29.890  1.00  0.00    -0.248 NA
ATOM     54  C   UNL A   1      47.543  29.304  30.300  1.00  0.00     0.031 C 
ATOM     55  C   UNL A   1      41.999  31.764  30.463  1.00  0.00     0.029 A 
ATOM     56  C   UNL A   1      43.041  30.864  30.302  1.00  0.00     0.049 A 
ATOM     57  H   UNL A   1      42.991  28.885  29.570  1.00  0.00     0.167 HD
ATOM     58  C   UNL A   1      45.408  30.133  30.377  1.00  0.00     0.074 A 
ATOM     59  C   UNL A   1      46.814  30.359  30.638  1.00  0.00     0.031 C 
ATOM     60  C   UNL A   1      44.438  31.054  30.587  1.00  0.00     0.037 A 
BRANCH  47  61
ATOM     61  C   UNL A   1      38.773  29.175  29.019  1.00  0.00     0.057 A 
ATOM     62  C   UNL A   1      38.222  29.541  27.784  1.00  0.00     0.134 A 
ATOM     63  C   UNL A   1      37.909  29.095  30.117  1.00  0.00     0.134 A 
ATOM     64  F   UNL A   1      39.001  29.651  26.697  1.00  0.00    -0.206 F 
ATOM     65  C   UNL A   1      36.864  29.836  27.651  1.00  0.00     0.040 A 
ATOM     66  C   UNL A   1      36.544  29.363  29.991  1.00  0.00     0.040 A 
ATOM     67  F   UNL A   1      38.372  28.745  31.325  1.00  0.00    -0.206 F 
ATOM     68  C   UNL A   1      36.020  29.741  28.756  1.00  0.00     0.006 A 
ENDBRANCH  47  61
BRANCH  48  69
ATOM     69  C   UNL A   1      48.418  26.638  29.487  1.00  0.00     0.057 A 
ATOM     70  C   UNL A   1      48.988  26.015  30.605  1.00  0.00     0.134 A 
ATOM     71  C   UNL A   1      49.268  26.947  28.419  1.00  0.00     0.134 A 
ATOM     72  F   UNL A   1      48.228  25.712  31.668  1.00  0.00    -0.206 F 
ATOM     73  C   UNL A   1      50.355  25.737  30.671  1.00  0.00     0.040 A 
ATOM     74  C   UNL A   1      50.632  26.653  28.463  1.00  0.00     0.040 A 
ATOM     75  F   UNL A   1      48.784  27.538  27.317  1.00  0.00    -0.206 F 
ATOM     76  C   UNL A   1      51.181  26.054  29.596  1.00  0.00     0.006 A 
ENDBRANCH  48  69
BRANCH  60  77
ATOM     77  C   UNL A   1      44.849  32.365  31.185  1.00  0.00     0.057 A 
ATOM     78  C   UNL A   1      45.192  33.464  30.389  1.00  0.00     0.134 A 
ATOM     79  C   UNL A   1      44.836  32.545  32.574  1.00  0.00     0.134 A 
ATOM     80  F   UNL A   1      45.234  33.350  29.053  1.00  0.00    -0.206 F 
ATOM     81  C   UNL A   1      45.521  34.696  30.957  1.00  0.00     0.040 A 
ATOM     82  C   UNL A   1      45.142  33.777  33.152  1.00  0.00     0.040 A 
ATOM     83  F   UNL A   1      44.508  31.531  33.389  1.00  0.00    -0.206 F 
ATOM     84  C   UNL A   1      45.488  34.856  32.341  1.00  0.00     0.006 A 
ENDBRANCH  60  77
ENDBRANCH  34  35
ENDBRANCH  26  29
ENDBRANCH  24  25
ENDBRANCH   1  24
TORSDOF 12
ENDMDL
