MODEL 1
REMARK VINA RESULT:     -12.4      0.000      0.000
REMARK SMILES C/C(=N\Nc1ccc(C(=O)NCCCCNC(=O)c2ccc(-c3c4nc(c(-c5c(F)cccc5F)c5ccc([nH]5)c(-c5c(F)cccc5F)c5nc(c(-c6c(F)cccc6F)c6ccc3[nH]6)C=C5)C=C4)cc2)cc1)c1cccc(S(=O)(=O)N(C)C)c1
REMARK SMILES IDX 12 1 11 2 9 3 10 4 8 6 5 7 6 8 74 9 7 10 73 11 4 12 3 14
REMARK SMILES IDX 1 15 2 16 75 17 76 18 86 19 77 20 79 21 78 22 80 23 81 24
REMARK SMILES IDX 82 25 83 26 84 27 85 28 13 29 14 30 15 31 16 32 17 33 18 35
REMARK SMILES IDX 19 36 20 37 72 38 21 39 71 40 22 41 23 42 24 43 65 44 25 45
REMARK SMILES IDX 70 46 64 47 66 48 26 49 69 50 63 51 62 52 27 54 53 55 36 56
REMARK SMILES IDX 52 57 37 58 40 59 51 60 67 61 38 62 39 63 50 65 68 66 41 67
REMARK SMILES IDX 28 68 29 69 34 70 30 71 31 72 33 73 35 74 32 75 54 76 55 77
REMARK SMILES IDX 60 78 56 79 57 80 59 81 61 82 58 83 42 84 43 85 48 86 44 87
REMARK SMILES IDX 45 88 47 89 49 90 46 91
REMARK H PARENT 11 5 4 13 16 34 66 53 40 64
REMARK Flexibility Score: inf
ROOT
ATOM      1  C   UNL A   1      35.991  21.234  25.168  1.00  0.00     0.116 C 
ENDROOT
BRANCH   1   2
ATOM      2  N   UNL A   1      35.221  20.005  25.225  1.00  0.00    -0.352 N 
ATOM      3  C   UNL A   1      33.904  19.751  24.931  1.00  0.00     0.251 C 
ATOM      4  O   UNL A   1      33.499  18.592  25.005  1.00  0.00    -0.269 OA
ATOM      5  H   UNL A   1      35.731  19.219  25.527  1.00  0.00     0.163 HD
BRANCH   3   6
ATOM      6  C   UNL A   1      32.988  20.813  24.436  1.00  0.00     0.039 A 
ATOM      7  C   UNL A   1      31.555  22.919  23.254  1.00  0.00     0.056 A 
ATOM      8  C   UNL A   1      31.809  21.742  22.537  1.00  0.00     0.028 A 
ATOM      9  C   UNL A   1      31.909  22.975  24.601  1.00  0.00     0.028 A 
ATOM     10  C   UNL A   1      32.538  20.702  23.117  1.00  0.00     0.016 A 
ATOM     11  C   UNL A   1      32.588  21.911  25.198  1.00  0.00     0.016 A 
BRANCH   7  12
ATOM     12  N   UNL A   1      31.146  24.055  22.542  1.00  0.00    -0.278 N 
ATOM     13  H   UNL A   1      30.892  23.935  21.599  1.00  0.00     0.190 HD
BRANCH  12  14
ATOM     14  N   UNL A   1      31.073  25.307  23.056  1.00  0.00    -0.180 NA
ATOM     15  C   UNL A   1      32.362  26.211  21.098  1.00  0.00     0.069 C 
ATOM     16  C   UNL A   1      31.558  26.325  22.388  1.00  0.00     0.065 C 
BRANCH  16  17
ATOM     17  C   UNL A   1      31.242  27.706  22.905  1.00  0.00    -0.001 A 
ATOM     18  C   UNL A   1      31.844  28.153  24.091  1.00  0.00     0.010 A 
ATOM     19  C   UNL A   1      30.232  28.482  22.331  1.00  0.00     0.031 A 
ATOM     20  C   UNL A   1      31.402  29.323  24.721  1.00  0.00     0.002 A 
ATOM     21  C   UNL A   1      29.735  29.600  23.007  1.00  0.00     0.083 A 
ATOM     22  C   UNL A   1      30.322  30.031  24.199  1.00  0.00     0.022 A 
BRANCH  21  23
ATOM     23  S   UNL A   1      28.267  30.418  22.423  1.00  0.00     0.242 S 
ATOM     24  O   UNL A   1      27.823  29.716  21.232  1.00  0.00    -0.207 OA
ATOM     25  O   UNL A   1      27.410  30.585  23.571  1.00  0.00    -0.207 OA
BRANCH  23  26
ATOM     26  N   UNL A   1      28.794  31.973  21.913  1.00  0.00    -0.204 NA
ATOM     27  C   UNL A   1      28.116  32.525  20.713  1.00  0.00     0.124 C 
ATOM     28  C   UNL A   1      28.801  32.968  23.013  1.00  0.00     0.124 C 
ENDBRANCH  23  26
ENDBRANCH  21  23
ENDBRANCH  16  17
ENDBRANCH  12  14
ENDBRANCH   7  12
ENDBRANCH   3   6
ENDBRANCH   1   2
BRANCH   1  29
ATOM     29  C   UNL A   1      37.328  21.007  24.459  1.00  0.00     0.023 C 
BRANCH  29  30
ATOM     30  C   UNL A   1      38.090  19.767  24.928  1.00  0.00     0.023 C 
BRANCH  30  31
ATOM     31  C   UNL A   1      39.146  20.027  25.993  1.00  0.00     0.116 C 
BRANCH  31  32
ATOM     32  N   UNL A   1      40.297  19.147  25.878  1.00  0.00    -0.352 N 
ATOM     33  C   UNL A   1      41.630  19.440  26.004  1.00  0.00     0.251 C 
ATOM     34  H   UNL A   1      40.088  18.205  25.682  1.00  0.00     0.163 HD
ATOM     35  O   UNL A   1      42.470  18.578  25.757  1.00  0.00    -0.269 OA
BRANCH  33  36
ATOM     36  C   UNL A   1      42.064  20.796  26.406  1.00  0.00     0.039 A 
ATOM     37  C   UNL A   1      42.117  21.099  27.769  1.00  0.00     0.014 A 
ATOM     38  C   UNL A   1      42.388  21.771  25.459  1.00  0.00     0.014 A 
ATOM     39  C   UNL A   1      42.526  22.368  28.183  1.00  0.00     0.010 A 
ATOM     40  C   UNL A   1      42.859  23.014  25.873  1.00  0.00     0.010 A 
ATOM     41  C   UNL A   1      42.914  23.329  27.237  1.00  0.00    -0.014 A 
BRANCH  41  42
ATOM     42  C   UNL A   1      43.328  24.686  27.665  1.00  0.00     0.031 A 
ATOM     43  C   UNL A   1      42.288  25.706  28.038  1.00  0.00     0.074 A 
ATOM     44  C   UNL A   1      44.635  25.011  27.683  1.00  0.00     0.049 A 
ATOM     45  N   UNL A   1      42.448  26.948  28.422  1.00  0.00    -0.248 NA
ATOM     46  C   UNL A   1      40.882  25.283  27.940  1.00  0.00     0.031 C 
ATOM     47  C   UNL A   1      45.733  24.128  27.290  1.00  0.00     0.029 A 
ATOM     48  N   UNL A   1      45.257  26.178  28.046  1.00  0.00    -0.354 N 
ATOM     49  C   UNL A   1      41.167  27.455  28.595  1.00  0.00     0.074 A 
ATOM     50  C   UNL A   1      40.241  26.407  28.226  1.00  0.00     0.031 C 
ATOM     51  C   UNL A   1      46.898  24.776  27.460  1.00  0.00     0.029 A 
ATOM     52  C   UNL A   1      46.625  26.123  27.954  1.00  0.00     0.049 A 
ATOM     53  H   UNL A   1      44.768  26.980  28.344  1.00  0.00     0.167 HD
ATOM     54  C   UNL A   1      40.794  28.676  29.044  1.00  0.00     0.037 A 
ATOM     55  C   UNL A   1      47.554  27.050  28.249  1.00  0.00     0.037 A 
ATOM     56  C   UNL A   1      41.715  29.705  29.447  1.00  0.00     0.049 A 
ATOM     57  C   UNL A   1      47.117  28.381  28.793  1.00  0.00     0.074 A 
ATOM     58  C   UNL A   1      41.438  30.959  29.963  1.00  0.00     0.029 A 
ATOM     59  N   UNL A   1      43.096  29.592  29.387  1.00  0.00    -0.354 N 
ATOM     60  N   UNL A   1      45.903  28.827  29.011  1.00  0.00    -0.248 NA
ATOM     61  C   UNL A   1      48.181  29.330  29.151  1.00  0.00     0.031 C 
ATOM     62  C   UNL A   1      42.653  31.614  30.196  1.00  0.00     0.029 A 
ATOM     63  C   UNL A   1      43.685  30.755  29.855  1.00  0.00     0.049 A 
ATOM     64  H   UNL A   1      43.584  28.803  29.060  1.00  0.00     0.167 HD
ATOM     65  C   UNL A   1      46.058  30.093  29.559  1.00  0.00     0.074 A 
ATOM     66  C   UNL A   1      47.482  30.341  29.650  1.00  0.00     0.031 C 
ATOM     67  C   UNL A   1      45.105  30.973  29.954  1.00  0.00     0.037 A 
BRANCH  54  68
ATOM     68  C   UNL A   1      39.323  28.955  29.133  1.00  0.00     0.057 A 
ATOM     69  C   UNL A   1      38.594  29.415  28.028  1.00  0.00     0.134 A 
ATOM     70  C   UNL A   1      38.625  28.749  30.329  1.00  0.00     0.134 A 
ATOM     71  F   UNL A   1      39.208  29.647  26.858  1.00  0.00    -0.206 F 
ATOM     72  C   UNL A   1      37.228  29.686  28.117  1.00  0.00     0.040 A 
ATOM     73  C   UNL A   1      37.254  28.994  30.424  1.00  0.00     0.040 A 
ATOM     74  F   UNL A   1      39.263  28.308  31.423  1.00  0.00    -0.206 F 
ATOM     75  C   UNL A   1      36.553  29.470  29.317  1.00  0.00     0.006 A 
ENDBRANCH  54  68
BRANCH  55  76
ATOM     76  C   UNL A   1      48.994  26.735  28.089  1.00  0.00     0.057 A 
ATOM     77  C   UNL A   1      49.672  27.051  26.906  1.00  0.00     0.134 A 
ATOM     78  C   UNL A   1      49.724  26.110  29.106  1.00  0.00     0.134 A 
ATOM     79  F   UNL A   1      49.019  27.636  25.891  1.00  0.00    -0.206 F 
ATOM     80  C   UNL A   1      51.020  26.739  26.731  1.00  0.00     0.040 A 
ATOM     81  C   UNL A   1      51.078  25.810  28.952  1.00  0.00     0.040 A 
ATOM     82  F   UNL A   1      49.132  25.791  30.266  1.00  0.00    -0.206 F 
ATOM     83  C   UNL A   1      51.728  26.119  27.758  1.00  0.00     0.006 A 
ENDBRANCH  55  76
BRANCH  67  84
ATOM     84  C   UNL A   1      45.574  32.261  30.558  1.00  0.00     0.057 A 
ATOM     85  C   UNL A   1      45.788  33.406  29.781  1.00  0.00     0.134 A 
ATOM     86  C   UNL A   1      45.787  32.361  31.938  1.00  0.00     0.134 A 
ATOM     87  F   UNL A   1      45.612  33.369  28.452  1.00  0.00    -0.206 F 
ATOM     88  C   UNL A   1      46.221  34.603  30.355  1.00  0.00     0.040 A 
ATOM     89  C   UNL A   1      46.199  33.558  32.525  1.00  0.00     0.040 A 
ATOM     90  F   UNL A   1      45.593  31.302  32.737  1.00  0.00    -0.206 F 
ATOM     91  C   UNL A   1      46.423  34.682  31.732  1.00  0.00     0.006 A 
ENDBRANCH  67  84
ENDBRANCH  41  42
ENDBRANCH  33  36
ENDBRANCH  31  32
ENDBRANCH  30  31
ENDBRANCH  29  30
ENDBRANCH   1  29
TORSDOF 16
ENDMDL
MODEL 2
REMARK VINA RESULT:     -12.3      4.091      8.782
REMARK SMILES C/C(=N\Nc1ccc(C(=O)NCCCCNC(=O)c2ccc(-c3c4nc(c(-c5c(F)cccc5F)c5ccc([nH]5)c(-c5c(F)cccc5F)c5nc(c(-c6c(F)cccc6F)c6ccc3[nH]6)C=C5)C=C4)cc2)cc1)c1cccc(S(=O)(=O)N(C)C)c1
REMARK SMILES IDX 12 1 11 2 9 3 10 4 8 6 5 7 6 8 74 9 7 10 73 11 4 12 3 14
REMARK SMILES IDX 1 15 2 16 75 17 76 18 86 19 77 20 79 21 78 22 80 23 81 24
REMARK SMILES IDX 82 25 83 26 84 27 85 28 13 29 14 30 15 31 16 32 17 33 18 35
REMARK SMILES IDX 19 36 20 37 72 38 21 39 71 40 22 41 23 42 24 43 65 44 25 45
REMARK SMILES IDX 70 46 64 47 66 48 26 49 69 50 63 51 62 52 27 54 53 55 36 56
REMARK SMILES IDX 52 57 37 58 40 59 51 60 67 61 38 62 39 63 50 65 68 66 41 67
REMARK SMILES IDX 28 68 29 69 34 70 30 71 31 72 33 73 35 74 32 75 54 76 55 77
REMARK SMILES IDX 60 78 56 79 57 80 59 81 61 82 58 83 42 84 43 85 48 86 44 87
REMARK SMILES IDX 45 88 47 89 49 90 46 91
REMARK H PARENT 11 5 4 13 16 34 66 53 40 64
REMARK Flexibility Score: inf
ROOT
ATOM      1  C   UNL A   1      32.334  25.975  26.057  1.00  0.00     0.116 C 
ENDROOT
BRANCH   1   2
ATOM      2  N   UNL A   1      31.181  25.272  26.589  1.00  0.00    -0.352 N 
ATOM      3  C   UNL A   1      30.934  23.930  26.740  1.00  0.00     0.251 C 
ATOM      4  O   UNL A   1      29.885  23.584  27.283  1.00  0.00    -0.269 OA
ATOM      5  H   UNL A   1      30.452  25.859  26.894  1.00  0.00     0.163 HD
BRANCH   3   6
ATOM      6  C   UNL A   1      31.932  22.897  26.359  1.00  0.00     0.039 A 
ATOM      7  C   UNL A   1      34.093  21.228  25.698  1.00  0.00     0.056 A 
ATOM      8  C   UNL A   1      33.880  21.623  27.026  1.00  0.00     0.028 A 
ATOM      9  C   UNL A   1      33.143  21.567  24.736  1.00  0.00     0.028 A 
ATOM     10  C   UNL A   1      32.818  22.469  27.352  1.00  0.00     0.016 A 
ATOM     11  C   UNL A   1      32.049  22.365  25.073  1.00  0.00     0.016 A 
BRANCH   7  12
ATOM     12  N   UNL A   1      35.342  20.690  25.357  1.00  0.00    -0.278 N 
ATOM     13  H   UNL A   1      35.354  19.931  24.731  1.00  0.00     0.190 HD
BRANCH  12  14
ATOM     14  N   UNL A   1      36.533  21.138  25.823  1.00  0.00    -0.180 NA
ATOM     15  C   UNL A   1      36.572  22.934  24.066  1.00  0.00     0.069 C 
ATOM     16  C   UNL A   1      37.089  22.203  25.300  1.00  0.00     0.065 C 
BRANCH  16  17
ATOM     17  C   UNL A   1      38.289  22.777  26.011  1.00  0.00    -0.001 A 
ATOM     18  C   UNL A   1      38.259  24.109  26.451  1.00  0.00     0.010 A 
ATOM     19  C   UNL A   1      39.494  22.073  26.086  1.00  0.00     0.031 A 
ATOM     20  C   UNL A   1      39.424  24.741  26.900  1.00  0.00     0.002 A 
ATOM     21  C   UNL A   1      40.671  22.732  26.451  1.00  0.00     0.083 A 
ATOM     22  C   UNL A   1      40.642  24.064  26.868  1.00  0.00     0.022 A 
BRANCH  21  23
ATOM     23  S   UNL A   1      42.242  21.917  26.272  1.00  0.00     0.242 S 
ATOM     24  O   UNL A   1      42.737  22.214  24.940  1.00  0.00    -0.207 OA
ATOM     25  O   UNL A   1      43.003  22.238  27.455  1.00  0.00    -0.207 OA
BRANCH  23  26
ATOM     26  N   UNL A   1      41.882  20.236  26.303  1.00  0.00    -0.204 NA
ATOM     27  C   UNL A   1      42.841  19.355  25.592  1.00  0.00     0.124 C 
ATOM     28  C   UNL A   1      41.620  19.728  27.672  1.00  0.00     0.124 C 
ENDBRANCH  23  26
ENDBRANCH  21  23
ENDBRANCH  16  17
ENDBRANCH  12  14
ENDBRANCH   7  12
ENDBRANCH   3   6
ENDBRANCH   1   2
BRANCH   1  29
ATOM     29  C   UNL A   1      31.902  27.071  25.081  1.00  0.00     0.023 C 
BRANCH  29  30
ATOM     30  C   UNL A   1      33.058  27.812  24.408  1.00  0.00     0.023 C 
BRANCH  30  31
ATOM     31  C   UNL A   1      33.889  28.686  25.338  1.00  0.00     0.116 C 
BRANCH  31  32
ATOM     32  N   UNL A   1      33.168  29.856  25.812  1.00  0.00    -0.352 N 
ATOM     33  C   UNL A   1      33.491  30.724  26.822  1.00  0.00     0.251 C 
ATOM     34  H   UNL A   1      32.327  30.052  25.338  1.00  0.00     0.163 HD
ATOM     35  O   UNL A   1      32.692  31.596  27.154  1.00  0.00    -0.269 OA
BRANCH  33  36
ATOM     36  C   UNL A   1      34.781  30.599  27.534  1.00  0.00     0.039 A 
ATOM     37  C   UNL A   1      35.158  29.339  28.007  1.00  0.00     0.014 A 
ATOM     38  C   UNL A   1      35.601  31.707  27.763  1.00  0.00     0.014 A 
ATOM     39  C   UNL A   1      36.371  29.184  28.681  1.00  0.00     0.010 A 
ATOM     40  C   UNL A   1      36.841  31.541  28.374  1.00  0.00     0.010 A 
ATOM     41  C   UNL A   1      37.227  30.282  28.855  1.00  0.00    -0.014 A 
BRANCH  41  42
ATOM     42  C   UNL A   1      38.508  30.134  29.588  1.00  0.00     0.031 A 
ATOM     43  C   UNL A   1      38.642  30.681  30.982  1.00  0.00     0.074 A 
ATOM     44  C   UNL A   1      39.556  29.541  28.987  1.00  0.00     0.049 A 
ATOM     45  N   UNL A   1      39.680  30.665  31.780  1.00  0.00    -0.248 NA
ATOM     46  C   UNL A   1      37.464  31.361  31.542  1.00  0.00     0.031 C 
ATOM     47  C   UNL A   1      39.567  29.020  27.620  1.00  0.00     0.029 A 
ATOM     48  N   UNL A   1      40.819  29.280  29.454  1.00  0.00    -0.354 N 
ATOM     49  C   UNL A   1      39.285  31.342  32.925  1.00  0.00     0.074 A 
ATOM     50  C   UNL A   1      37.931  31.802  32.701  1.00  0.00     0.031 C 
ATOM     51  C   UNL A   1      40.769  28.477  27.367  1.00  0.00     0.029 A 
ATOM     52  C   UNL A   1      41.616  28.627  28.546  1.00  0.00     0.049 A 
ATOM     53  H   UNL A   1      41.124  29.535  30.354  1.00  0.00     0.167 HD
ATOM     54  C   UNL A   1      39.977  31.544  34.071  1.00  0.00     0.037 A 
ATOM     55  C   UNL A   1      42.883  28.190  28.660  1.00  0.00     0.037 A 
ATOM     56  C   UNL A   1      41.308  31.054  34.308  1.00  0.00     0.049 A 
ATOM     57  C   UNL A   1      43.613  28.381  29.960  1.00  0.00     0.074 A 
ATOM     58  C   UNL A   1      42.078  31.162  35.453  1.00  0.00     0.029 A 
ATOM     59  N   UNL A   1      42.064  30.354  33.380  1.00  0.00    -0.354 N 
ATOM     60  N   UNL A   1      43.205  28.969  31.058  1.00  0.00    -0.248 NA
ATOM     61  C   UNL A   1      44.973  27.829  30.041  1.00  0.00     0.031 C 
ATOM     62  C   UNL A   1      43.310  30.544  35.211  1.00  0.00     0.029 A 
ATOM     63  C   UNL A   1      43.293  30.024  33.927  1.00  0.00     0.049 A 
ATOM     64  H   UNL A   1      41.771  30.125  32.470  1.00  0.00     0.167 HD
ATOM     65  C   UNL A   1      44.244  28.832  31.970  1.00  0.00     0.074 A 
ATOM     66  C   UNL A   1      45.296  28.097  31.299  1.00  0.00     0.031 C 
ATOM     67  C   UNL A   1      44.319  29.275  33.249  1.00  0.00     0.037 A 
BRANCH  54  68
ATOM     68  C   UNL A   1      39.293  32.318  35.158  1.00  0.00     0.057 A 
ATOM     69  C   UNL A   1      38.456  31.692  36.093  1.00  0.00     0.134 A 
ATOM     70  C   UNL A   1      39.483  33.700  35.283  1.00  0.00     0.134 A 
ATOM     71  F   UNL A   1      38.222  30.373  36.017  1.00  0.00    -0.206 F 
ATOM     72  C   UNL A   1      37.810  32.417  37.095  1.00  0.00     0.040 A 
ATOM     73  C   UNL A   1      38.861  34.432  36.296  1.00  0.00     0.040 A 
ATOM     74  F   UNL A   1      40.272  34.359  34.424  1.00  0.00    -0.206 F 
ATOM     75  C   UNL A   1      38.017  33.791  37.202  1.00  0.00     0.006 A 
ENDBRANCH  54  68
BRANCH  55  76
ATOM     76  C   UNL A   1      43.526  27.477  27.530  1.00  0.00     0.057 A 
ATOM     77  C   UNL A   1      44.106  28.185  26.471  1.00  0.00     0.134 A 
ATOM     78  C   UNL A   1      43.573  26.080  27.477  1.00  0.00     0.134 A 
ATOM     79  F   UNL A   1      44.077  29.526  26.460  1.00  0.00    -0.206 F 
ATOM     80  C   UNL A   1      44.693  27.529  25.389  1.00  0.00     0.040 A 
ATOM     81  C   UNL A   1      44.174  25.411  26.411  1.00  0.00     0.040 A 
ATOM     82  F   UNL A   1      43.042  25.347  28.467  1.00  0.00    -0.206 F 
ATOM     83  C   UNL A   1      44.731  26.136  25.358  1.00  0.00     0.006 A 
ENDBRANCH  55  76
BRANCH  67  84
ATOM     84  C   UNL A   1      45.561  28.936  34.015  1.00  0.00     0.057 A 
ATOM     85  C   UNL A   1      46.674  29.785  34.031  1.00  0.00     0.134 A 
ATOM     86  C   UNL A   1      45.630  27.758  34.769  1.00  0.00     0.134 A 
ATOM     87  F   UNL A   1      46.672  30.922  33.320  1.00  0.00    -0.206 F 
ATOM     88  C   UNL A   1      47.824  29.462  34.752  1.00  0.00     0.040 A 
ATOM     89  C   UNL A   1      46.767  27.435  35.511  1.00  0.00     0.040 A 
ATOM     90  F   UNL A   1      44.595  26.906  34.800  1.00  0.00    -0.206 F 
ATOM     91  C   UNL A   1      47.871  28.286  35.499  1.00  0.00     0.006 A 
ENDBRANCH  67  84
ENDBRANCH  41  42
ENDBRANCH  33  36
ENDBRANCH  31  32
ENDBRANCH  30  31
ENDBRANCH  29  30
ENDBRANCH   1  29
TORSDOF 16
ENDMDL
MODEL 3
REMARK VINA RESULT:     -12.1      1.156      6.149
REMARK SMILES C/C(=N\Nc1ccc(C(=O)NCCCCNC(=O)c2ccc(-c3c4nc(c(-c5c(F)cccc5F)c5ccc([nH]5)c(-c5c(F)cccc5F)c5nc(c(-c6c(F)cccc6F)c6ccc3[nH]6)C=C5)C=C4)cc2)cc1)c1cccc(S(=O)(=O)N(C)C)c1
REMARK SMILES IDX 12 1 11 2 9 3 10 4 8 6 5 7 6 8 74 9 7 10 73 11 4 12 3 14
REMARK SMILES IDX 1 15 2 16 75 17 76 18 86 19 77 20 79 21 78 22 80 23 81 24
REMARK SMILES IDX 82 25 83 26 84 27 85 28 13 29 14 30 15 31 16 32 17 33 18 35
REMARK SMILES IDX 19 36 20 37 72 38 21 39 71 40 22 41 23 42 24 43 65 44 25 45
REMARK SMILES IDX 70 46 64 47 66 48 26 49 69 50 63 51 62 52 27 54 53 55 36 56
REMARK SMILES IDX 52 57 37 58 40 59 51 60 67 61 38 62 39 63 50 65 68 66 41 67
REMARK SMILES IDX 28 68 29 69 34 70 30 71 31 72 33 73 35 74 32 75 54 76 55 77
REMARK SMILES IDX 60 78 56 79 57 80 59 81 61 82 58 83 42 84 43 85 48 86 44 87
REMARK SMILES IDX 45 88 47 89 49 90 46 91
REMARK H PARENT 11 5 4 13 16 34 66 53 40 64
REMARK Flexibility Score: inf
ROOT
ATOM      1  C   UNL A   1      36.441  21.628  25.061  1.00  0.00     0.116 C 
ENDROOT
BRANCH   1   2
ATOM      2  N   UNL A   1      35.730  20.398  24.767  1.00  0.00    -0.352 N 
ATOM      3  C   UNL A   1      34.437  20.018  25.036  1.00  0.00     0.251 C 
ATOM      4  O   UNL A   1      34.049  18.926  24.624  1.00  0.00    -0.269 OA
ATOM      5  H   UNL A   1      36.265  19.720  24.295  1.00  0.00     0.163 HD
BRANCH   3   6
ATOM      6  C   UNL A   1      33.476  20.922  25.721  1.00  0.00     0.039 A 
ATOM      7  C   UNL A   1      31.656  22.837  26.672  1.00  0.00     0.056 A 
ATOM      8  C   UNL A   1      31.260  21.896  25.712  1.00  0.00     0.028 A 
ATOM      9  C   UNL A   1      32.923  22.724  27.241  1.00  0.00     0.028 A 
ATOM     10  C   UNL A   1      32.170  20.957  25.224  1.00  0.00     0.016 A 
ATOM     11  C   UNL A   1      33.814  21.747  26.795  1.00  0.00     0.016 A 
BRANCH   7  12
ATOM     12  N   UNL A   1      30.847  23.965  26.870  1.00  0.00    -0.278 N 
ATOM     13  H   UNL A   1      29.990  23.834  27.337  1.00  0.00     0.190 HD
BRANCH  12  14
ATOM     14  N   UNL A   1      31.156  25.222  26.469  1.00  0.00    -0.180 NA
ATOM     15  C   UNL A   1      30.459  24.669  24.120  1.00  0.00     0.069 C 
ATOM     16  C   UNL A   1      30.927  25.596  25.235  1.00  0.00     0.065 C 
BRANCH  16  17
ATOM     17  C   UNL A   1      31.079  27.063  24.918  1.00  0.00    -0.001 A 
ATOM     18  C   UNL A   1      31.761  27.897  25.817  1.00  0.00     0.010 A 
ATOM     19  C   UNL A   1      30.407  27.647  23.840  1.00  0.00     0.031 A 
ATOM     20  C   UNL A   1      31.720  29.289  25.675  1.00  0.00     0.002 A 
ATOM     21  C   UNL A   1      30.296  29.037  23.751  1.00  0.00     0.083 A 
ATOM     22  C   UNL A   1      30.957  29.864  24.660  1.00  0.00     0.022 A 
BRANCH  21  23
ATOM     23  S   UNL A   1      29.207  29.771  22.550  1.00  0.00     0.242 S 
ATOM     24  O   UNL A   1      29.995  30.055  21.365  1.00  0.00    -0.207 OA
ATOM     25  O   UNL A   1      28.033  28.934  22.500  1.00  0.00    -0.207 OA
BRANCH  23  26
ATOM     26  N   UNL A   1      28.759  31.289  23.221  1.00  0.00    -0.204 NA
ATOM     27  C   UNL A   1      28.975  32.472  22.350  1.00  0.00     0.124 C 
ATOM     28  C   UNL A   1      27.381  31.291  23.773  1.00  0.00     0.124 C 
ENDBRANCH  23  26
ENDBRANCH  21  23
ENDBRANCH  16  17
ENDBRANCH  12  14
ENDBRANCH   7  12
ENDBRANCH   3   6
ENDBRANCH   1   2
BRANCH   1  29
ATOM     29  C   UNL A   1      37.948  21.445  24.867  1.00  0.00     0.023 C 
BRANCH  29  30
ATOM     30  C   UNL A   1      38.432  19.999  24.993  1.00  0.00     0.023 C 
BRANCH  30  31
ATOM     31  C   UNL A   1      39.272  19.709  26.228  1.00  0.00     0.116 C 
BRANCH  31  32
ATOM     32  N   UNL A   1      40.503  18.998  25.923  1.00  0.00    -0.352 N 
ATOM     33  C   UNL A   1      41.797  19.447  25.963  1.00  0.00     0.251 C 
ATOM     34  H   UNL A   1      40.389  18.059  25.649  1.00  0.00     0.163 HD
ATOM     35  O   UNL A   1      42.705  18.726  25.556  1.00  0.00    -0.269 OA
BRANCH  33  36
ATOM     36  C   UNL A   1      42.104  20.804  26.464  1.00  0.00     0.039 A 
ATOM     37  C   UNL A   1      42.372  21.811  25.532  1.00  0.00     0.014 A 
ATOM     38  C   UNL A   1      42.159  21.084  27.832  1.00  0.00     0.014 A 
ATOM     39  C   UNL A   1      42.663  23.104  25.970  1.00  0.00     0.010 A 
ATOM     40  C   UNL A   1      42.383  22.387  28.267  1.00  0.00     0.010 A 
ATOM     41  C   UNL A   1      42.655  23.404  27.341  1.00  0.00    -0.014 A 
BRANCH  41  42
ATOM     42  C   UNL A   1      42.983  24.768  27.819  1.00  0.00     0.031 A 
ATOM     43  C   UNL A   1      44.419  25.194  27.944  1.00  0.00     0.074 A 
ATOM     44  C   UNL A   1      41.992  25.609  28.172  1.00  0.00     0.049 A 
ATOM     45  N   UNL A   1      44.910  26.336  28.355  1.00  0.00    -0.248 NA
ATOM     46  C   UNL A   1      45.439  24.195  27.586  1.00  0.00     0.031 C 
ATOM     47  C   UNL A   1      40.564  25.293  28.148  1.00  0.00     0.029 A 
ATOM     48  N   UNL A   1      42.041  26.902  28.624  1.00  0.00    -0.354 N 
ATOM     49  C   UNL A   1      46.290  26.187  28.320  1.00  0.00     0.074 A 
ATOM     50  C   UNL A   1      46.560  24.830  27.898  1.00  0.00     0.031 C 
ATOM     51  C   UNL A   1      39.870  26.374  28.540  1.00  0.00     0.029 A 
ATOM     52  C   UNL A   1      40.804  27.449  28.860  1.00  0.00     0.049 A 
ATOM     53  H   UNL A   1      42.883  27.393  28.765  1.00  0.00     0.167 HD
ATOM     54  C   UNL A   1      47.248  27.104  28.592  1.00  0.00     0.037 A 
ATOM     55  C   UNL A   1      40.465  28.683  29.276  1.00  0.00     0.037 A 
ATOM     56  C   UNL A   1      46.980  28.464  28.976  1.00  0.00     0.049 A 
ATOM     57  C   UNL A   1      41.545  29.699  29.523  1.00  0.00     0.074 A 
ATOM     58  C   UNL A   1      47.879  29.485  29.226  1.00  0.00     0.029 A 
ATOM     59  N   UNL A   1      45.711  28.993  29.156  1.00  0.00    -0.354 N 
ATOM     60  N   UNL A   1      42.845  29.562  29.426  1.00  0.00    -0.248 NA
ATOM     61  C   UNL A   1      41.108  31.045  29.918  1.00  0.00     0.031 C 
ATOM     62  C   UNL A   1      47.155  30.629  29.578  1.00  0.00     0.029 A 
ATOM     63  C   UNL A   1      45.804  30.328  29.515  1.00  0.00     0.049 A 
ATOM     64  H   UNL A   1      44.870  28.495  29.045  1.00  0.00     0.167 HD
ATOM     65  C   UNL A   1      43.379  30.811  29.718  1.00  0.00     0.074 A 
ATOM     66  C   UNL A   1      42.263  31.693  29.985  1.00  0.00     0.031 C 
ATOM     67  C   UNL A   1      44.679  31.192  29.758  1.00  0.00     0.037 A 
BRANCH  54  68
ATOM     68  C   UNL A   1      48.676  26.661  28.469  1.00  0.00     0.057 A 
ATOM     69  C   UNL A   1      49.351  26.688  27.241  1.00  0.00     0.134 A 
ATOM     70  C   UNL A   1      49.389  26.218  29.590  1.00  0.00     0.134 A 
ATOM     71  F   UNL A   1      48.718  27.088  26.127  1.00  0.00    -0.206 F 
ATOM     72  C   UNL A   1      50.675  26.263  27.127  1.00  0.00     0.040 A 
ATOM     73  C   UNL A   1      50.721  25.813  29.492  1.00  0.00     0.040 A 
ATOM     74  F   UNL A   1      48.803  26.170  30.795  1.00  0.00    -0.206 F 
ATOM     75  C   UNL A   1      51.366  25.829  28.257  1.00  0.00     0.006 A 
ENDBRANCH  54  68
BRANCH  55  76
ATOM     76  C   UNL A   1      39.035  29.046  29.431  1.00  0.00     0.057 A 
ATOM     77  C   UNL A   1      38.375  28.857  30.651  1.00  0.00     0.134 A 
ATOM     78  C   UNL A   1      38.297  29.583  28.371  1.00  0.00     0.134 A 
ATOM     79  F   UNL A   1      39.028  28.331  31.697  1.00  0.00    -0.206 F 
ATOM     80  C   UNL A   1      37.025  29.171  30.805  1.00  0.00     0.040 A 
ATOM     81  C   UNL A   1      36.952  29.920  28.518  1.00  0.00     0.040 A 
ATOM     82  F   UNL A   1      38.878  29.796  27.181  1.00  0.00    -0.206 F 
ATOM     83  C   UNL A   1      36.309  29.708  29.737  1.00  0.00     0.006 A 
ENDBRANCH  55  76
BRANCH  67  84
ATOM     84  C   UNL A   1      44.957  32.633  30.061  1.00  0.00     0.057 A 
ATOM     85  C   UNL A   1      45.008  33.604  29.053  1.00  0.00     0.134 A 
ATOM     86  C   UNL A   1      45.150  33.056  31.382  1.00  0.00     0.134 A 
ATOM     87  F   UNL A   1      44.843  33.259  27.768  1.00  0.00    -0.206 F 
ATOM     88  C   UNL A   1      45.263  34.944  29.347  1.00  0.00     0.040 A 
ATOM     89  C   UNL A   1      45.384  34.397  31.690  1.00  0.00     0.040 A 
ATOM     90  F   UNL A   1      45.107  32.176  32.393  1.00  0.00    -0.206 F 
ATOM     91  C   UNL A   1      45.448  35.344  30.670  1.00  0.00     0.006 A 
ENDBRANCH  67  84
ENDBRANCH  41  42
ENDBRANCH  33  36
ENDBRANCH  31  32
ENDBRANCH  30  31
ENDBRANCH  29  30
ENDBRANCH   1  29
TORSDOF 16
ENDMDL
