MODEL 1
REMARK VINA RESULT:     -11.0      0.000      0.000
REMARK SMILES CCc1c([N+](=O)[O-])cc(C(=O)NCCCCNC(=O)c2ccc(-c3c4nc(c(-c5c(F)cccc5F)c5ccc([nH]5)c(-c5c(F)cccc5F)c5nc(c(-c6c(F)cccc6F)c6ccc3[nH]6)C=C5)C=C4)cc2)n1C
REMARK SMILES IDX 15 1 14 2 13 3 12 4 10 5 11 6 9 8 3 9 4 10 74 11 8 12 75 13
REMARK SMILES IDX 2 14 1 15 5 16 6 17 7 18 16 19 17 20 18 21 19 23 20 24 21 25
REMARK SMILES IDX 73 26 22 27 72 28 23 29 24 30 25 31 66 32 26 33 71 34 65 35
REMARK SMILES IDX 67 36 27 37 70 38 64 39 63 40 28 42 54 43 37 44 53 45 38 46
REMARK SMILES IDX 41 47 52 48 68 49 39 50 40 51 51 53 69 54 42 55 29 56 30 57
REMARK SMILES IDX 35 58 31 59 32 60 34 61 36 62 33 63 55 64 56 65 61 66 57 67
REMARK SMILES IDX 58 68 60 69 62 70 59 71 43 72 44 73 49 74 45 75 46 76 48 77
REMARK SMILES IDX 50 78 47 79
REMARK H PARENT 12 7 17 22 67 41 41 52
REMARK Flexibility Score: inf
ROOT
ATOM      1  C   UNL A   1      31.410  31.914  26.880  1.00  0.00     0.023 C 
ENDROOT
BRANCH   1   2
ATOM      2  C   UNL A   1      31.927  30.474  26.876  1.00  0.00     0.023 C 
BRANCH   2   3
ATOM      3  C   UNL A   1      32.057  29.804  25.509  1.00  0.00     0.116 C 
BRANCH   3   4
ATOM      4  N   UNL A   1      30.998  30.141  24.582  1.00  0.00    -0.351 N 
ATOM      5  C   UNL A   1      30.421  29.412  23.575  1.00  0.00     0.268 C 
ATOM      6  O   UNL A   1      29.556  29.984  22.913  1.00  0.00    -0.268 OA
ATOM      7  H   UNL A   1      30.630  31.047  24.694  1.00  0.00     0.163 HD
BRANCH   5   8
ATOM      8  C   UNL A   1      30.856  28.062  23.265  1.00  0.00     0.114 A 
ATOM      9  C   UNL A   1      31.063  25.797  23.160  1.00  0.00     0.096 A 
ATOM     10  C   UNL A   1      32.099  26.347  22.413  1.00  0.00     0.290 A 
ATOM     11  N   UNL A   1      30.212  26.854  23.464  1.00  0.00    -0.338 N 
ATOM     12  C   UNL A   1      31.994  27.756  22.528  1.00  0.00     0.119 A 
ATOM     13  C   UNL A   1      28.798  26.683  23.744  1.00  0.00     0.150 C 
BRANCH   9  14
ATOM     14  C   UNL A   1      30.757  24.377  23.548  1.00  0.00     0.058 C 
ATOM     15  C   UNL A   1      31.248  24.018  24.947  1.00  0.00     0.011 C 
ENDBRANCH   9  14
BRANCH  10  16
ATOM     16  N   UNL A   1      33.110  25.638  21.667  1.00  0.00     0.064 N 
ATOM     17  O   UNL A   1      33.974  25.033  22.315  1.00  0.00    -0.258 OA
ATOM     18  O   UNL A   1      33.012  25.662  20.433  1.00  0.00    -0.258 OA
ENDBRANCH  10  16
ENDBRANCH   5   8
ENDBRANCH   3   4
ENDBRANCH   2   3
ENDBRANCH   1   2
BRANCH   1  19
ATOM     19  C   UNL A   1      32.458  33.010  26.704  1.00  0.00     0.116 C 
BRANCH  19  20
ATOM     20  N   UNL A   1      32.278  34.138  27.605  1.00  0.00    -0.352 N 
ATOM     21  C   UNL A   1      33.035  34.542  28.683  1.00  0.00     0.251 C 
ATOM     22  H   UNL A   1      31.493  34.701  27.416  1.00  0.00     0.163 HD
ATOM     23  O   UNL A   1      32.662  35.478  29.381  1.00  0.00    -0.269 OA
BRANCH  21  24
ATOM     24  C   UNL A   1      34.277  33.816  29.027  1.00  0.00     0.039 A 
ATOM     25  C   UNL A   1      35.508  34.387  28.695  1.00  0.00     0.014 A 
ATOM     26  C   UNL A   1      34.228  32.598  29.709  1.00  0.00     0.014 A 
ATOM     27  C   UNL A   1      36.691  33.799  29.151  1.00  0.00     0.010 A 
ATOM     28  C   UNL A   1      35.400  32.057  30.228  1.00  0.00     0.010 A 
ATOM     29  C   UNL A   1      36.641  32.663  29.975  1.00  0.00    -0.014 A 
BRANCH  29  30
ATOM     30  C   UNL A   1      37.856  32.101  30.620  1.00  0.00     0.031 A 
ATOM     31  C   UNL A   1      38.621  30.997  29.945  1.00  0.00     0.074 A 
ATOM     32  C   UNL A   1      38.199  32.492  31.863  1.00  0.00     0.049 A 
ATOM     33  N   UNL A   1      39.567  30.232  30.424  1.00  0.00    -0.248 NA
ATOM     34  C   UNL A   1      38.243  30.693  28.556  1.00  0.00     0.031 C 
ATOM     35  C   UNL A   1      37.522  33.529  32.646  1.00  0.00     0.029 A 
ATOM     36  N   UNL A   1      39.189  32.040  32.702  1.00  0.00    -0.354 N 
ATOM     37  C   UNL A   1      39.870  29.330  29.412  1.00  0.00     0.074 A 
ATOM     38  C   UNL A   1      38.987  29.626  28.303  1.00  0.00     0.031 C 
ATOM     39  C   UNL A   1      38.120  33.638  33.843  1.00  0.00     0.029 A 
ATOM     40  C   UNL A   1      39.189  32.648  33.934  1.00  0.00     0.049 A 
ATOM     41  H   UNL A   1      39.837  31.345  32.444  1.00  0.00     0.167 HD
ATOM     42  C   UNL A   1      40.808  28.355  29.402  1.00  0.00     0.037 A 
ATOM     43  C   UNL A   1      39.946  32.419  35.024  1.00  0.00     0.037 A 
ATOM     44  C   UNL A   1      41.716  28.091  30.486  1.00  0.00     0.049 A 
ATOM     45  C   UNL A   1      40.986  31.335  34.986  1.00  0.00     0.074 A 
ATOM     46  C   UNL A   1      42.744  27.166  30.545  1.00  0.00     0.029 A 
ATOM     47  N   UNL A   1      41.711  28.762  31.700  1.00  0.00    -0.354 N 
ATOM     48  N   UNL A   1      41.288  30.514  34.008  1.00  0.00    -0.248 NA
ATOM     49  C   UNL A   1      41.790  31.141  36.202  1.00  0.00     0.031 C 
ATOM     50  C   UNL A   1      43.343  27.257  31.805  1.00  0.00     0.029 A 
ATOM     51  C   UNL A   1      42.710  28.263  32.517  1.00  0.00     0.049 A 
ATOM     52  H   UNL A   1      41.089  29.485  31.943  1.00  0.00     0.167 HD
ATOM     53  C   UNL A   1      42.330  29.729  34.480  1.00  0.00     0.074 A 
ATOM     54  C   UNL A   1      42.614  30.171  35.829  1.00  0.00     0.031 C 
ATOM     55  C   UNL A   1      42.994  28.731  33.849  1.00  0.00     0.037 A 
BRANCH  42  56
ATOM     56  C   UNL A   1      40.899  27.497  28.175  1.00  0.00     0.057 A 
ATOM     57  C   UNL A   1      40.166  26.311  28.047  1.00  0.00     0.134 A 
ATOM     58  C   UNL A   1      41.709  27.877  27.097  1.00  0.00     0.134 A 
ATOM     59  F   UNL A   1      39.383  25.886  29.050  1.00  0.00    -0.206 F 
ATOM     60  C   UNL A   1      40.254  25.519  26.902  1.00  0.00     0.040 A 
ATOM     61  C   UNL A   1      41.786  27.106  25.936  1.00  0.00     0.040 A 
ATOM     62  F   UNL A   1      42.431  29.006  27.153  1.00  0.00    -0.206 F 
ATOM     63  C   UNL A   1      41.062  25.920  25.839  1.00  0.00     0.006 A 
ENDBRANCH  42  56
BRANCH  43  64
ATOM     64  C   UNL A   1      39.757  33.238  36.246  1.00  0.00     0.057 A 
ATOM     65  C   UNL A   1      38.842  32.853  37.233  1.00  0.00     0.134 A 
ATOM     66  C   UNL A   1      40.474  34.422  36.456  1.00  0.00     0.134 A 
ATOM     67  F   UNL A   1      38.112  31.739  37.077  1.00  0.00    -0.206 F 
ATOM     68  C   UNL A   1      38.634  33.622  38.378  1.00  0.00     0.040 A 
ATOM     69  C   UNL A   1      40.292  35.191  37.606  1.00  0.00     0.040 A 
ATOM     70  F   UNL A   1      41.370  34.841  35.550  1.00  0.00    -0.206 F 
ATOM     71  C   UNL A   1      39.365  34.795  38.569  1.00  0.00     0.006 A 
ENDBRANCH  43  64
BRANCH  55  72
ATOM     72  C   UNL A   1      44.123  28.079  34.587  1.00  0.00     0.057 A 
ATOM     73  C   UNL A   1      43.935  26.917  35.344  1.00  0.00     0.134 A 
ATOM     74  C   UNL A   1      45.425  28.584  34.482  1.00  0.00     0.134 A 
ATOM     75  F   UNL A   1      42.709  26.392  35.493  1.00  0.00    -0.206 F 
ATOM     76  C   UNL A   1      45.004  26.284  35.980  1.00  0.00     0.040 A 
ATOM     77  C   UNL A   1      46.504  27.949  35.097  1.00  0.00     0.040 A 
ATOM     78  F   UNL A   1      45.669  29.692  33.766  1.00  0.00    -0.206 F 
ATOM     79  C   UNL A   1      46.295  26.795  35.850  1.00  0.00     0.006 A 
ENDBRANCH  55  72
ENDBRANCH  29  30
ENDBRANCH  21  24
ENDBRANCH  19  20
ENDBRANCH   1  19
TORSDOF 13
ENDMDL
MODEL 2
REMARK VINA RESULT:     -10.8      0.827      6.516
REMARK SMILES CCc1c([N+](=O)[O-])cc(C(=O)NCCCCNC(=O)c2ccc(-c3c4nc(c(-c5c(F)cccc5F)c5ccc([nH]5)c(-c5c(F)cccc5F)c5nc(c(-c6c(F)cccc6F)c6ccc3[nH]6)C=C5)C=C4)cc2)n1C
REMARK SMILES IDX 15 1 14 2 13 3 12 4 10 5 11 6 9 8 3 9 4 10 74 11 8 12 75 13
REMARK SMILES IDX 2 14 1 15 5 16 6 17 7 18 16 19 17 20 18 21 19 23 20 24 21 25
REMARK SMILES IDX 73 26 22 27 72 28 23 29 24 30 25 31 66 32 26 33 71 34 65 35
REMARK SMILES IDX 67 36 27 37 70 38 64 39 63 40 28 42 54 43 37 44 53 45 38 46
REMARK SMILES IDX 41 47 52 48 68 49 39 50 40 51 51 53 69 54 42 55 29 56 30 57
REMARK SMILES IDX 35 58 31 59 32 60 34 61 36 62 33 63 55 64 56 65 61 66 57 67
REMARK SMILES IDX 58 68 60 69 62 70 59 71 43 72 44 73 49 74 45 75 46 76 48 77
REMARK SMILES IDX 50 78 47 79
REMARK H PARENT 12 7 17 22 67 41 41 52
REMARK Flexibility Score: inf
ROOT
ATOM      1  C   UNL A   1      31.614  31.984  26.827  1.00  0.00     0.023 C 
ENDROOT
BRANCH   1   2
ATOM      2  C   UNL A   1      31.804  30.467  26.887  1.00  0.00     0.023 C 
BRANCH   2   3
ATOM      3  C   UNL A   1      31.938  29.747  25.545  1.00  0.00     0.116 C 
BRANCH   3   4
ATOM      4  N   UNL A   1      30.922  30.106  24.578  1.00  0.00    -0.351 N 
ATOM      5  C   UNL A   1      30.381  29.395  23.538  1.00  0.00     0.268 C 
ATOM      6  O   UNL A   1      29.551  29.984  22.847  1.00  0.00    -0.268 OA
ATOM      7  H   UNL A   1      30.558  31.014  24.686  1.00  0.00     0.163 HD
BRANCH   5   8
ATOM      8  C   UNL A   1      30.817  28.045  23.230  1.00  0.00     0.114 A 
ATOM      9  C   UNL A   1      31.026  25.780  23.129  1.00  0.00     0.096 A 
ATOM     10  C   UNL A   1      32.059  26.329  22.378  1.00  0.00     0.290 A 
ATOM     11  N   UNL A   1      30.176  26.837  23.434  1.00  0.00    -0.338 N 
ATOM     12  C   UNL A   1      31.953  27.738  22.489  1.00  0.00     0.119 A 
ATOM     13  C   UNL A   1      28.763  26.665  23.719  1.00  0.00     0.150 C 
BRANCH   9  14
ATOM     14  C   UNL A   1      30.723  24.361  23.521  1.00  0.00     0.058 C 
ATOM     15  C   UNL A   1      31.134  24.033  24.953  1.00  0.00     0.011 C 
ENDBRANCH   9  14
BRANCH  10  16
ATOM     16  N   UNL A   1      33.069  25.620  21.629  1.00  0.00     0.064 N 
ATOM     17  O   UNL A   1      33.922  24.999  22.276  1.00  0.00    -0.258 OA
ATOM     18  O   UNL A   1      32.978  25.660  20.395  1.00  0.00    -0.258 OA
ENDBRANCH  10  16
ENDBRANCH   5   8
ENDBRANCH   3   4
ENDBRANCH   2   3
ENDBRANCH   1   2
BRANCH   1  19
ATOM     19  C   UNL A   1      32.825  32.833  27.205  1.00  0.00     0.116 C 
BRANCH  19  20
ATOM     20  N   UNL A   1      32.483  34.185  27.621  1.00  0.00    -0.352 N 
ATOM     21  C   UNL A   1      33.033  34.975  28.606  1.00  0.00     0.251 C 
ATOM     22  H   UNL A   1      31.743  34.599  27.121  1.00  0.00     0.163 HD
ATOM     23  O   UNL A   1      32.537  36.065  28.867  1.00  0.00    -0.269 OA
BRANCH  21  24
ATOM     24  C   UNL A   1      34.194  34.488  29.382  1.00  0.00     0.039 A 
ATOM     25  C   UNL A   1      33.972  33.894  30.627  1.00  0.00     0.014 A 
ATOM     26  C   UNL A   1      35.488  34.581  28.868  1.00  0.00     0.014 A 
ATOM     27  C   UNL A   1      35.033  33.285  31.303  1.00  0.00     0.010 A 
ATOM     28  C   UNL A   1      36.527  33.908  29.503  1.00  0.00     0.010 A 
ATOM     29  C   UNL A   1      36.307  33.232  30.714  1.00  0.00    -0.014 A 
BRANCH  29  30
ATOM     30  C   UNL A   1      37.422  32.455  31.313  1.00  0.00     0.031 A 
ATOM     31  C   UNL A   1      38.067  32.927  32.585  1.00  0.00     0.074 A 
ATOM     32  C   UNL A   1      37.937  31.400  30.650  1.00  0.00     0.049 A 
ATOM     33  N   UNL A   1      39.175  32.524  33.151  1.00  0.00    -0.248 NA
ATOM     34  C   UNL A   1      37.392  34.025  33.294  1.00  0.00     0.031 C 
ATOM     35  C   UNL A   1      37.429  30.857  29.388  1.00  0.00     0.029 A 
ATOM     36  N   UNL A   1      39.025  30.610  30.934  1.00  0.00    -0.354 N 
ATOM     37  C   UNL A   1      39.351  33.343  34.260  1.00  0.00     0.074 A 
ATOM     38  C   UNL A   1      38.252  34.284  34.268  1.00  0.00     0.031 C 
ATOM     39  C   UNL A   1      38.197  29.822  29.013  1.00  0.00     0.029 A 
ATOM     40  C   UNL A   1      39.281  29.658  29.977  1.00  0.00     0.049 A 
ATOM     41  H   UNL A   1      39.571  30.718  31.747  1.00  0.00     0.167 HD
ATOM     42  C   UNL A   1      40.332  33.305  35.192  1.00  0.00     0.037 A 
ATOM     43  C   UNL A   1      40.287  28.769  29.873  1.00  0.00     0.037 A 
ATOM     44  C   UNL A   1      41.398  32.340  35.209  1.00  0.00     0.049 A 
ATOM     45  C   UNL A   1      41.359  28.740  30.925  1.00  0.00     0.074 A 
ATOM     46  C   UNL A   1      42.403  32.180  36.147  1.00  0.00     0.029 A 
ATOM     47  N   UNL A   1      41.593  31.363  34.243  1.00  0.00    -0.354 N 
ATOM     48  N   UNL A   1      41.493  29.497  31.988  1.00  0.00    -0.248 NA
ATOM     49  C   UNL A   1      42.424  27.739  30.763  1.00  0.00     0.031 C 
ATOM     50  C   UNL A   1      43.222  31.124  35.736  1.00  0.00     0.029 A 
ATOM     51  C   UNL A   1      42.707  30.605  34.560  1.00  0.00     0.049 A 
ATOM     52  H   UNL A   1      41.023  31.229  33.452  1.00  0.00     0.167 HD
ATOM     53  C   UNL A   1      42.635  29.046  32.634  1.00  0.00     0.074 A 
ATOM     54  C   UNL A   1      43.158  27.948  31.847  1.00  0.00     0.031 C 
ATOM     55  C   UNL A   1      43.200  29.501  33.777  1.00  0.00     0.037 A 
BRANCH  42  56
ATOM     56  C   UNL A   1      40.294  34.341  36.276  1.00  0.00     0.057 A 
ATOM     57  C   UNL A   1      40.938  35.576  36.137  1.00  0.00     0.134 A 
ATOM     58  C   UNL A   1      39.582  34.110  37.460  1.00  0.00     0.134 A 
ATOM     59  F   UNL A   1      41.648  35.853  35.033  1.00  0.00    -0.206 F 
ATOM     60  C   UNL A   1      40.898  36.537  37.149  1.00  0.00     0.040 A 
ATOM     61  C   UNL A   1      39.514  35.072  38.468  1.00  0.00     0.040 A 
ATOM     62  F   UNL A   1      38.938  32.950  37.652  1.00  0.00    -0.206 F 
ATOM     63  C   UNL A   1      40.179  36.287  38.316  1.00  0.00     0.006 A 
ENDBRANCH  42  56
BRANCH  43  64
ATOM     64  C   UNL A   1      40.326  27.821  28.732  1.00  0.00     0.057 A 
ATOM     65  C   UNL A   1      41.044  28.126  27.571  1.00  0.00     0.134 A 
ATOM     66  C   UNL A   1      39.646  26.598  28.769  1.00  0.00     0.134 A 
ATOM     67  F   UNL A   1      41.699  29.293  27.471  1.00  0.00    -0.206 F 
ATOM     68  C   UNL A   1      41.074  27.258  26.479  1.00  0.00     0.040 A 
ATOM     69  C   UNL A   1      39.684  25.710  27.693  1.00  0.00     0.040 A 
ATOM     70  F   UNL A   1      38.945  26.245  29.856  1.00  0.00    -0.206 F 
ATOM     71  C   UNL A   1      40.395  26.042  26.540  1.00  0.00     0.006 A 
ENDBRANCH  43  64
BRANCH  55  72
ATOM     72  C   UNL A   1      44.418  28.787  34.278  1.00  0.00     0.057 A 
ATOM     73  C   UNL A   1      44.325  27.656  35.096  1.00  0.00     0.134 A 
ATOM     74  C   UNL A   1      45.696  29.198  33.879  1.00  0.00     0.134 A 
ATOM     75  F   UNL A   1      43.129  27.220  35.522  1.00  0.00    -0.206 F 
ATOM     76  C   UNL A   1      45.464  26.962  35.509  1.00  0.00     0.040 A 
ATOM     77  C   UNL A   1      46.840  28.501  34.269  1.00  0.00     0.040 A 
ATOM     78  F   UNL A   1      45.850  30.272  33.090  1.00  0.00    -0.206 F 
ATOM     79  C   UNL A   1      46.726  27.380  35.088  1.00  0.00     0.006 A 
ENDBRANCH  55  72
ENDBRANCH  29  30
ENDBRANCH  21  24
ENDBRANCH  19  20
ENDBRANCH   1  19
TORSDOF 13
ENDMDL
MODEL 3
REMARK VINA RESULT:     -10.8      5.026      9.889
REMARK SMILES CCc1c([N+](=O)[O-])cc(C(=O)NCCCCNC(=O)c2ccc(-c3c4nc(c(-c5c(F)cccc5F)c5ccc([nH]5)c(-c5c(F)cccc5F)c5nc(c(-c6c(F)cccc6F)c6ccc3[nH]6)C=C5)C=C4)cc2)n1C
REMARK SMILES IDX 15 1 14 2 13 3 12 4 10 5 11 6 9 8 3 9 4 10 74 11 8 12 75 13
REMARK SMILES IDX 2 14 1 15 5 16 6 17 7 18 16 19 17 20 18 21 19 23 20 24 21 25
REMARK SMILES IDX 73 26 22 27 72 28 23 29 24 30 25 31 66 32 26 33 71 34 65 35
REMARK SMILES IDX 67 36 27 37 70 38 64 39 63 40 28 42 54 43 37 44 53 45 38 46
REMARK SMILES IDX 41 47 52 48 68 49 39 50 40 51 51 53 69 54 42 55 29 56 30 57
REMARK SMILES IDX 35 58 31 59 32 60 34 61 36 62 33 63 55 64 56 65 61 66 57 67
REMARK SMILES IDX 58 68 60 69 62 70 59 71 43 72 44 73 49 74 45 75 46 76 48 77
REMARK SMILES IDX 50 78 47 79
REMARK H PARENT 12 7 17 22 67 41 41 52
REMARK Flexibility Score: inf
ROOT
ATOM      1  C   UNL A   1      42.301  22.140  27.935  1.00  0.00     0.023 C 
ENDROOT
BRANCH   1   2
ATOM      2  C   UNL A   1      42.770  23.325  28.782  1.00  0.00     0.023 C 
BRANCH   2   3
ATOM      3  C   UNL A   1      44.266  23.389  29.088  1.00  0.00     0.116 C 
BRANCH   3   4
ATOM      4  N   UNL A   1      45.113  22.992  27.983  1.00  0.00    -0.351 N 
ATOM      5  C   UNL A   1      45.616  23.713  26.932  1.00  0.00     0.268 C 
ATOM      6  O   UNL A   1      46.284  23.088  26.109  1.00  0.00    -0.268 OA
ATOM      7  H   UNL A   1      45.372  22.042  27.988  1.00  0.00     0.163 HD
BRANCH   5   8
ATOM      8  C   UNL A   1      45.319  25.124  26.765  1.00  0.00     0.114 A 
ATOM      9  C   UNL A   1      45.368  27.399  26.856  1.00  0.00     0.096 A 
ATOM     10  C   UNL A   1      44.226  27.033  26.153  1.00  0.00     0.290 A 
ATOM     11  N   UNL A   1      46.110  26.233  27.007  1.00  0.00    -0.338 N 
ATOM     12  C   UNL A   1      44.175  25.616  26.147  1.00  0.00     0.119 A 
ATOM     13  C   UNL A   1      47.551  26.224  27.187  1.00  0.00     0.150 C 
BRANCH   9  14
ATOM     14  C   UNL A   1      45.863  28.738  27.329  1.00  0.00     0.058 C 
ATOM     15  C   UNL A   1      46.409  29.608  26.201  1.00  0.00     0.011 C 
ENDBRANCH   9  14
BRANCH  10  16
ATOM     16  N   UNL A   1      43.253  27.910  25.546  1.00  0.00     0.064 N 
ATOM     17  O   UNL A   1      42.941  28.930  26.174  1.00  0.00    -0.258 OA
ATOM     18  O   UNL A   1      42.835  27.590  24.426  1.00  0.00    -0.258 OA
ENDBRANCH  10  16
ENDBRANCH   5   8
ENDBRANCH   3   4
ENDBRANCH   2   3
ENDBRANCH   1   2
BRANCH   1  19
ATOM     19  C   UNL A   1      42.025  22.429  26.462  1.00  0.00     0.116 C 
BRANCH  19  20
ATOM     20  N   UNL A   1      40.657  22.145  26.058  1.00  0.00    -0.352 N 
ATOM     21  C   UNL A   1      39.511  22.892  26.219  1.00  0.00     0.251 C 
ATOM     22  H   UNL A   1      40.529  21.284  25.598  1.00  0.00     0.163 HD
ATOM     23  O   UNL A   1      38.424  22.432  25.888  1.00  0.00    -0.269 OA
BRANCH  21  24
ATOM     24  C   UNL A   1      39.585  24.234  26.837  1.00  0.00     0.039 A 
ATOM     25  C   UNL A   1      39.082  24.411  28.129  1.00  0.00     0.014 A 
ATOM     26  C   UNL A   1      40.181  25.301  26.163  1.00  0.00     0.014 A 
ATOM     27  C   UNL A   1      39.286  25.624  28.792  1.00  0.00     0.010 A 
ATOM     28  C   UNL A   1      40.452  26.480  26.851  1.00  0.00     0.010 A 
ATOM     29  C   UNL A   1      40.028  26.646  28.179  1.00  0.00    -0.014 A 
BRANCH  29  30
ATOM     30  C   UNL A   1      40.413  27.885  28.903  1.00  0.00     0.031 A 
ATOM     31  C   UNL A   1      41.733  27.956  29.618  1.00  0.00     0.074 A 
ATOM     32  C   UNL A   1      39.528  28.895  29.024  1.00  0.00     0.049 A 
ATOM     33  N   UNL A   1      42.165  28.847  30.473  1.00  0.00    -0.248 NA
ATOM     34  C   UNL A   1      42.677  26.858  29.361  1.00  0.00     0.031 C 
ATOM     35  C   UNL A   1      38.199  28.940  28.410  1.00  0.00     0.029 A 
ATOM     36  N   UNL A   1      39.604  30.070  29.732  1.00  0.00    -0.354 N 
ATOM     37  C   UNL A   1      43.412  28.398  30.887  1.00  0.00     0.074 A 
ATOM     38  C   UNL A   1      43.654  27.141  30.211  1.00  0.00     0.031 C 
ATOM     39  C   UNL A   1      37.591  30.085  28.761  1.00  0.00     0.029 A 
ATOM     40  C   UNL A   1      38.462  30.831  29.663  1.00  0.00     0.049 A 
ATOM     41  H   UNL A   1      40.402  30.341  30.242  1.00  0.00     0.167 HD
ATOM     42  C   UNL A   1      44.282  28.985  31.741  1.00  0.00     0.037 A 
ATOM     43  C   UNL A   1      38.141  31.987  30.276  1.00  0.00     0.037 A 
ATOM     44  C   UNL A   1      44.061  30.257  32.377  1.00  0.00     0.049 A 
ATOM     45  C   UNL A   1      39.127  32.624  31.214  1.00  0.00     0.074 A 
ATOM     46  C   UNL A   1      44.911  30.964  33.209  1.00  0.00     0.029 A 
ATOM     47  N   UNL A   1      42.908  31.015  32.243  1.00  0.00    -0.354 N 
ATOM     48  N   UNL A   1      40.318  32.206  31.567  1.00  0.00    -0.248 NA
ATOM     49  C   UNL A   1      38.723  33.890  31.842  1.00  0.00     0.031 C 
ATOM     50  C   UNL A   1      44.261  32.139  33.601  1.00  0.00     0.029 A 
ATOM     51  C   UNL A   1      43.021  32.178  32.985  1.00  0.00     0.049 A 
ATOM     52  H   UNL A   1      42.125  30.764  31.701  1.00  0.00     0.167 HD
ATOM     53  C   UNL A   1      40.817  33.169  32.433  1.00  0.00     0.074 A 
ATOM     54  C   UNL A   1      39.802  34.195  32.551  1.00  0.00     0.031 C 
ATOM     55  C   UNL A   1      42.010  33.200  33.074  1.00  0.00     0.037 A 
BRANCH  42  56
ATOM     56  C   UNL A   1      45.558  28.255  32.038  1.00  0.00     0.057 A 
ATOM     57  C   UNL A   1      45.623  27.248  33.009  1.00  0.00     0.134 A 
ATOM     58  C   UNL A   1      46.728  28.544  31.324  1.00  0.00     0.134 A 
ATOM     59  F   UNL A   1      44.540  26.935  33.736  1.00  0.00    -0.206 F 
ATOM     60  C   UNL A   1      46.814  26.572  33.278  1.00  0.00     0.040 A 
ATOM     61  C   UNL A   1      47.918  27.857  31.567  1.00  0.00     0.040 A 
ATOM     62  F   UNL A   1      46.731  29.493  30.376  1.00  0.00    -0.206 F 
ATOM     63  C   UNL A   1      47.964  26.872  32.552  1.00  0.00     0.006 A 
ENDBRANCH  42  56
BRANCH  43  64
ATOM     64  C   UNL A   1      36.827  32.625  30.016  1.00  0.00     0.057 A 
ATOM     65  C   UNL A   1      36.688  33.599  29.020  1.00  0.00     0.134 A 
ATOM     66  C   UNL A   1      35.687  32.287  30.754  1.00  0.00     0.134 A 
ATOM     67  F   UNL A   1      37.751  33.978  28.295  1.00  0.00    -0.206 F 
ATOM     68  C   UNL A   1      35.466  34.226  28.777  1.00  0.00     0.040 A 
ATOM     69  C   UNL A   1      34.453  32.891  30.507  1.00  0.00     0.040 A 
ATOM     70  F   UNL A   1      35.754  31.356  31.717  1.00  0.00    -0.206 F 
ATOM     71  C   UNL A   1      34.341  33.869  29.520  1.00  0.00     0.006 A 
ENDBRANCH  43  64
BRANCH  55  72
ATOM     72  C   UNL A   1      42.308  34.399  33.920  1.00  0.00     0.057 A 
ATOM     73  C   UNL A   1      42.812  35.583  33.369  1.00  0.00     0.134 A 
ATOM     74  C   UNL A   1      42.026  34.388  35.292  1.00  0.00     0.134 A 
ATOM     75  F   UNL A   1      43.115  35.651  32.064  1.00  0.00    -0.206 F 
ATOM     76  C   UNL A   1      43.031  36.715  34.156  1.00  0.00     0.040 A 
ATOM     77  C   UNL A   1      42.222  35.519  36.085  1.00  0.00     0.040 A 
ATOM     78  F   UNL A   1      41.536  33.285  35.877  1.00  0.00    -0.206 F 
ATOM     79  C   UNL A   1      42.728  36.687  35.517  1.00  0.00     0.006 A 
ENDBRANCH  55  72
ENDBRANCH  29  30
ENDBRANCH  21  24
ENDBRANCH  19  20
ENDBRANCH   1  19
TORSDOF 13
ENDMDL
