MODEL 1
REMARK VINA RESULT:     -12.0      0.000      0.000
REMARK SMILES COc1cccc2cc(/C=C/c3cc(C(=O)NCCCCNC(=O)c4ccc(-c5c6nc(c(-c7c(F)cccc7F)c7ccc([nH]7)c(-c7c(F)cccc7F)c7nc(c(-c8c(F)cccc8F)c8ccc5[nH]8)C=C7)C=C6)cc4)ncn3)oc12
REMARK SMILES IDX 19 1 18 2 17 3 15 4 16 5 14 7 12 8 13 9 81 10 80 11 79 12
REMARK SMILES IDX 11 13 10 14 9 15 3 16 4 17 83 18 5 19 7 20 82 21 6 22 8 23
REMARK SMILES IDX 2 24 1 25 20 26 21 27 22 28 23 29 24 31 25 32 26 33 78 34
REMARK SMILES IDX 27 35 77 36 28 37 29 38 30 39 71 40 31 41 76 42 70 43 72 44
REMARK SMILES IDX 32 45 75 46 69 47 68 48 33 50 59 51 42 52 58 53 43 54 46 55
REMARK SMILES IDX 57 56 73 57 44 58 45 59 56 61 74 62 47 63 34 64 35 65 40 66
REMARK SMILES IDX 36 67 37 68 39 69 41 70 38 71 60 72 61 73 66 74 62 75 63 76
REMARK SMILES IDX 65 77 67 78 64 79 48 80 49 81 54 82 50 83 51 84 53 85 55 86
REMARK SMILES IDX 52 87
REMARK H PARENT 17 6 22 30 72 49 46 60
REMARK Flexibility Score: inf
ROOT
ATOM      1  C   UNL A   1      31.830  30.371  26.673  1.00  0.00     0.023 C 
ENDROOT
BRANCH   1   2
ATOM      2  C   UNL A   1      33.232  29.895  26.279  1.00  0.00     0.116 C 
BRANCH   2   3
ATOM      3  N   UNL A   1      33.358  29.810  24.836  1.00  0.00    -0.351 N 
ATOM      4  C   UNL A   1      33.173  28.773  23.945  1.00  0.00     0.270 C 
ATOM      5  O   UNL A   1      33.345  29.031  22.753  1.00  0.00    -0.268 OA
ATOM      6  H   UNL A   1      33.627  30.656  24.410  1.00  0.00     0.163 HD
BRANCH   4   7
ATOM      7  C   UNL A   1      32.747  27.390  24.360  1.00  0.00     0.132 A 
ATOM      8  C   UNL A   1      33.103  25.135  24.873  1.00  0.00     0.067 A 
ATOM      9  C   UNL A   1      33.587  26.305  24.329  1.00  0.00     0.062 A 
ATOM     10  N   UNL A   1      31.831  24.987  25.271  1.00  0.00    -0.237 NA
ATOM     11  C   UNL A   1      31.064  26.081  25.183  1.00  0.00     0.223 A 
ATOM     12  N   UNL A   1      31.463  27.290  24.771  1.00  0.00    -0.231 NA
BRANCH   8  13
ATOM     13  C   UNL A   1      33.983  23.978  25.055  1.00  0.00     0.032 C 
ATOM     14  C   UNL A   1      35.320  24.109  25.013  1.00  0.00     0.049 C 
BRANCH  14  15
ATOM     15  C   UNL A   1      36.222  23.019  25.142  1.00  0.00     0.128 A 
ATOM     16  C   UNL A   1      39.375  21.743  26.280  1.00  0.00     0.162 A 
ATOM     17  C   UNL A   1      39.878  20.446  26.106  1.00  0.00     0.050 A 
ATOM     18  C   UNL A   1      38.107  21.991  25.743  1.00  0.00     0.176 A 
ATOM     19  C   UNL A   1      39.154  19.476  25.404  1.00  0.00     0.005 A 
ATOM     20  C   UNL A   1      37.362  21.052  25.049  1.00  0.00     0.025 A 
ATOM     21  O   UNL A   1      37.426  23.169  25.797  1.00  0.00    -0.453 OA
ATOM     22  C   UNL A   1      37.893  19.764  24.865  1.00  0.00     0.012 A 
ATOM     23  C   UNL A   1      36.160  21.710  24.680  1.00  0.00     0.059 A 
BRANCH  16  24
ATOM     24  O   UNL A   1      40.025  22.717  26.991  1.00  0.00    -0.493 OA
ATOM     25  C   UNL A   1      41.123  22.228  27.757  1.00  0.00     0.278 C 
ENDBRANCH  16  24
ENDBRANCH  14  15
ENDBRANCH   8  13
ENDBRANCH   4   7
ENDBRANCH   2   3
ENDBRANCH   1   2
BRANCH   1  26
ATOM     26  C   UNL A   1      31.653  31.890  26.644  1.00  0.00     0.023 C 
BRANCH  26  27
ATOM     27  C   UNL A   1      32.747  32.673  27.361  1.00  0.00     0.116 C 
BRANCH  27  28
ATOM     28  N   UNL A   1      32.376  34.051  27.649  1.00  0.00    -0.352 N 
ATOM     29  C   UNL A   1      32.965  34.926  28.532  1.00  0.00     0.251 C 
ATOM     30  H   UNL A   1      31.607  34.401  27.145  1.00  0.00     0.163 HD
ATOM     31  O   UNL A   1      32.476  36.028  28.737  1.00  0.00    -0.269 OA
BRANCH  29  32
ATOM     32  C   UNL A   1      34.171  34.499  29.270  1.00  0.00     0.039 A 
ATOM     33  C   UNL A   1      34.013  33.919  30.530  1.00  0.00     0.014 A 
ATOM     34  C   UNL A   1      35.443  34.634  28.706  1.00  0.00     0.014 A 
ATOM     35  C   UNL A   1      35.127  33.409  31.199  1.00  0.00     0.010 A 
ATOM     36  C   UNL A   1      36.542  34.066  29.342  1.00  0.00     0.010 A 
ATOM     37  C   UNL A   1      36.394  33.446  30.592  1.00  0.00    -0.014 A 
BRANCH  37  38
ATOM     38  C   UNL A   1      37.573  32.827  31.244  1.00  0.00     0.031 A 
ATOM     39  C   UNL A   1      38.240  31.634  30.622  1.00  0.00     0.074 A 
ATOM     40  C   UNL A   1      37.996  33.296  32.433  1.00  0.00     0.049 A 
ATOM     41  N   UNL A   1      39.235  30.915  31.075  1.00  0.00    -0.248 NA
ATOM     42  C   UNL A   1      37.701  31.171  29.333  1.00  0.00     0.031 C 
ATOM     43  C   UNL A   1      37.393  34.412  33.167  1.00  0.00     0.029 A 
ATOM     44  N   UNL A   1      39.024  32.883  33.243  1.00  0.00    -0.354 N 
ATOM     45  C   UNL A   1      39.428  29.905  30.142  1.00  0.00     0.074 A 
ATOM     46  C   UNL A   1      38.419  30.078  29.117  1.00  0.00     0.031 C 
ATOM     47  C   UNL A   1      38.074  34.607  34.307  1.00  0.00     0.029 A 
ATOM     48  C   UNL A   1      39.139  33.612  34.401  1.00  0.00     0.049 A 
ATOM     49  H   UNL A   1      39.622  32.136  33.014  1.00  0.00     0.167 HD
ATOM     50  C   UNL A   1      40.371  28.936  30.129  1.00  0.00     0.037 A 
ATOM     51  C   UNL A   1      40.002  33.490  35.426  1.00  0.00     0.037 A 
ATOM     52  C   UNL A   1      41.393  28.787  31.131  1.00  0.00     0.049 A 
ATOM     53  C   UNL A   1      41.058  32.422  35.375  1.00  0.00     0.074 A 
ATOM     54  C   UNL A   1      42.438  27.880  31.167  1.00  0.00     0.029 A 
ATOM     55  N   UNL A   1      41.499  29.567  32.271  1.00  0.00    -0.354 N 
ATOM     56  N   UNL A   1      41.272  31.516  34.451  1.00  0.00    -0.248 NA
ATOM     57  C   UNL A   1      41.999  32.363  36.503  1.00  0.00     0.031 C 
ATOM     58  C   UNL A   1      43.155  28.089  32.351  1.00  0.00     0.029 A 
ATOM     59  C   UNL A   1      42.582  29.152  33.028  1.00  0.00     0.049 A 
ATOM     60  H   UNL A   1      40.894  30.307  32.509  1.00  0.00     0.167 HD
ATOM     61  C   UNL A   1      42.381  30.796  34.874  1.00  0.00     0.074 A 
ATOM     62  C   UNL A   1      42.805  31.378  36.130  1.00  0.00     0.031 C 
ATOM     63  C   UNL A   1      42.993  29.746  34.274  1.00  0.00     0.037 A 
BRANCH  50  64
ATOM     64  C   UNL A   1      40.347  27.962  28.989  1.00  0.00     0.057 A 
ATOM     65  C   UNL A   1      39.531  26.822  29.009  1.00  0.00     0.134 A 
ATOM     66  C   UNL A   1      41.118  28.184  27.841  1.00  0.00     0.134 A 
ATOM     67  F   UNL A   1      38.779  26.544  30.085  1.00  0.00    -0.206 F 
ATOM     68  C   UNL A   1      39.501  25.928  27.938  1.00  0.00     0.040 A 
ATOM     69  C   UNL A   1      41.076  27.310  26.753  1.00  0.00     0.040 A 
ATOM     70  F   UNL A   1      41.917  29.258  27.755  1.00  0.00    -0.206 F 
ATOM     71  C   UNL A   1      40.269  26.175  26.803  1.00  0.00     0.006 A 
ENDBRANCH  50  64
BRANCH  51  72
ATOM     72  C   UNL A   1      39.922  34.424  36.575  1.00  0.00     0.057 A 
ATOM     73  C   UNL A   1      39.143  34.120  37.698  1.00  0.00     0.134 A 
ATOM     74  C   UNL A   1      40.626  35.634  36.585  1.00  0.00     0.134 A 
ATOM     75  F   UNL A   1      38.432  32.984  37.738  1.00  0.00    -0.206 F 
ATOM     76  C   UNL A   1      39.054  34.994  38.783  1.00  0.00     0.040 A 
ATOM     77  C   UNL A   1      40.563  36.506  37.673  1.00  0.00     0.040 A 
ATOM     78  F   UNL A   1      41.398  35.976  35.543  1.00  0.00    -0.206 F 
ATOM     79  C   UNL A   1      39.770  36.189  38.774  1.00  0.00     0.006 A 
ENDBRANCH  51  72
BRANCH  63  80
ATOM     80  C   UNL A   1      44.202  29.177  34.955  1.00  0.00     0.057 A 
ATOM     81  C   UNL A   1      44.104  28.124  35.874  1.00  0.00     0.134 A 
ATOM     82  C   UNL A   1      45.482  29.657  34.653  1.00  0.00     0.134 A 
ATOM     83  F   UNL A   1      42.904  27.630  36.214  1.00  0.00    -0.206 F 
ATOM     84  C   UNL A   1      45.236  27.582  36.482  1.00  0.00     0.040 A 
ATOM     85  C   UNL A   1      46.623  29.107  35.237  1.00  0.00     0.040 A 
ATOM     86  F   UNL A   1      45.645  30.658  33.774  1.00  0.00    -0.206 F 
ATOM     87  C   UNL A   1      46.501  28.069  36.158  1.00  0.00     0.006 A 
ENDBRANCH  63  80
ENDBRANCH  37  38
ENDBRANCH  29  32
ENDBRANCH  27  28
ENDBRANCH  26  27
ENDBRANCH   1  26
TORSDOF 14
ENDMDL
MODEL 2
REMARK VINA RESULT:     -11.9      0.509      6.107
REMARK SMILES COc1cccc2cc(/C=C/c3cc(C(=O)NCCCCNC(=O)c4ccc(-c5c6nc(c(-c7c(F)cccc7F)c7ccc([nH]7)c(-c7c(F)cccc7F)c7nc(c(-c8c(F)cccc8F)c8ccc5[nH]8)C=C7)C=C6)cc4)ncn3)oc12
REMARK SMILES IDX 19 1 18 2 17 3 15 4 16 5 14 7 12 8 13 9 81 10 80 11 79 12
REMARK SMILES IDX 11 13 10 14 9 15 3 16 4 17 83 18 5 19 7 20 82 21 6 22 8 23
REMARK SMILES IDX 2 24 1 25 20 26 21 27 22 28 23 29 24 31 25 32 26 33 78 34
REMARK SMILES IDX 27 35 77 36 28 37 29 38 30 39 71 40 31 41 76 42 70 43 72 44
REMARK SMILES IDX 32 45 75 46 69 47 68 48 33 50 59 51 42 52 58 53 43 54 46 55
REMARK SMILES IDX 57 56 73 57 44 58 45 59 56 61 74 62 47 63 34 64 35 65 40 66
REMARK SMILES IDX 36 67 37 68 39 69 41 70 38 71 60 72 61 73 66 74 62 75 63 76
REMARK SMILES IDX 65 77 67 78 64 79 48 80 49 81 54 82 50 83 51 84 53 85 55 86
REMARK SMILES IDX 52 87
REMARK H PARENT 17 6 22 30 72 49 46 60
REMARK Flexibility Score: inf
ROOT
ATOM      1  C   UNL A   1      31.624  30.686  26.575  1.00  0.00     0.023 C 
ENDROOT
BRANCH   1   2
ATOM      2  C   UNL A   1      33.057  30.172  26.401  1.00  0.00     0.116 C 
BRANCH   2   3
ATOM      3  N   UNL A   1      33.345  29.921  25.002  1.00  0.00    -0.351 N 
ATOM      4  C   UNL A   1      33.309  28.774  24.236  1.00  0.00     0.270 C 
ATOM      5  O   UNL A   1      33.599  28.895  23.045  1.00  0.00    -0.268 OA
ATOM      6  H   UNL A   1      33.621  30.723  24.502  1.00  0.00     0.163 HD
BRANCH   4   7
ATOM      7  C   UNL A   1      32.904  27.429  24.776  1.00  0.00     0.132 A 
ATOM      8  C   UNL A   1      33.264  25.193  25.363  1.00  0.00     0.067 A 
ATOM      9  C   UNL A   1      33.705  26.317  24.700  1.00  0.00     0.062 A 
ATOM     10  N   UNL A   1      32.051  25.106  25.927  1.00  0.00    -0.237 NA
ATOM     11  C   UNL A   1      31.307  26.219  25.876  1.00  0.00     0.223 A 
ATOM     12  N   UNL A   1      31.681  27.391  25.352  1.00  0.00    -0.231 NA
BRANCH   8  13
ATOM     13  C   UNL A   1      34.130  24.018  25.496  1.00  0.00     0.032 C 
ATOM     14  C   UNL A   1      35.449  24.096  25.246  1.00  0.00     0.049 C 
BRANCH  14  15
ATOM     15  C   UNL A   1      36.330  22.985  25.318  1.00  0.00     0.128 A 
ATOM     16  C   UNL A   1      39.542  21.646  26.192  1.00  0.00     0.162 A 
ATOM     17  C   UNL A   1      39.992  20.332  26.004  1.00  0.00     0.050 A 
ATOM     18  C   UNL A   1      38.236  21.918  25.768  1.00  0.00     0.176 A 
ATOM     19  C   UNL A   1      39.181  19.368  25.396  1.00  0.00     0.005 A 
ATOM     20  C   UNL A   1      37.405  20.984  25.169  1.00  0.00     0.025 A 
ATOM     21  O   UNL A   1      37.594  23.115  25.855  1.00  0.00    -0.453 OA
ATOM     22  C   UNL A   1      37.884  19.679  24.969  1.00  0.00     0.012 A 
ATOM     23  C   UNL A   1      36.192  21.668  24.896  1.00  0.00     0.059 A 
BRANCH  16  24
ATOM     24  O   UNL A   1      40.279  22.617  26.815  1.00  0.00    -0.493 OA
ATOM     25  C   UNL A   1      41.616  22.719  26.328  1.00  0.00     0.278 C 
ENDBRANCH  16  24
ENDBRANCH  14  15
ENDBRANCH   8  13
ENDBRANCH   4   7
ENDBRANCH   2   3
ENDBRANCH   1   2
BRANCH   1  26
ATOM     26  C   UNL A   1      31.504  32.210  26.614  1.00  0.00     0.023 C 
BRANCH  26  27
ATOM     27  C   UNL A   1      32.664  32.923  27.301  1.00  0.00     0.116 C 
BRANCH  27  28
ATOM     28  N   UNL A   1      32.346  34.285  27.704  1.00  0.00    -0.352 N 
ATOM     29  C   UNL A   1      32.981  35.067  28.641  1.00  0.00     0.251 C 
ATOM     30  H   UNL A   1      31.581  34.700  27.246  1.00  0.00     0.163 HD
ATOM     31  O   UNL A   1      32.534  36.164  28.943  1.00  0.00    -0.269 OA
BRANCH  29  32
ATOM     32  C   UNL A   1      34.185  34.542  29.318  1.00  0.00     0.039 A 
ATOM     33  C   UNL A   1      34.031  33.888  30.542  1.00  0.00     0.014 A 
ATOM     34  C   UNL A   1      35.448  34.662  28.731  1.00  0.00     0.014 A 
ATOM     35  C   UNL A   1      35.138  33.290  31.147  1.00  0.00     0.010 A 
ATOM     36  C   UNL A   1      36.536  34.009  29.300  1.00  0.00     0.010 A 
ATOM     37  C   UNL A   1      36.391  33.314  30.510  1.00  0.00    -0.014 A 
BRANCH  37  38
ATOM     38  C   UNL A   1      37.557  32.606  31.089  1.00  0.00     0.031 A 
ATOM     39  C   UNL A   1      38.159  33.074  32.383  1.00  0.00     0.074 A 
ATOM     40  C   UNL A   1      38.117  31.586  30.412  1.00  0.00     0.049 A 
ATOM     41  N   UNL A   1      39.219  32.629  33.010  1.00  0.00    -0.248 NA
ATOM     42  C   UNL A   1      37.499  34.210  33.048  1.00  0.00     0.031 C 
ATOM     43  C   UNL A   1      37.660  31.076  29.117  1.00  0.00     0.029 A 
ATOM     44  N   UNL A   1      39.203  30.803  30.711  1.00  0.00    -0.354 N 
ATOM     45  C   UNL A   1      39.365  33.441  34.127  1.00  0.00     0.074 A 
ATOM     46  C   UNL A   1      38.312  34.432  34.071  1.00  0.00     0.031 C 
ATOM     47  C   UNL A   1      38.447  30.055  28.743  1.00  0.00     0.029 A 
ATOM     48  C   UNL A   1      39.482  29.858  29.754  1.00  0.00     0.049 A 
ATOM     49  H   UNL A   1      39.732  30.908  31.535  1.00  0.00     0.167 HD
ATOM     50  C   UNL A   1      40.281  33.354  35.119  1.00  0.00     0.037 A 
ATOM     51  C   UNL A   1      40.463  28.939  29.697  1.00  0.00     0.037 A 
ATOM     52  C   UNL A   1      41.305  32.347  35.189  1.00  0.00     0.049 A 
ATOM     53  C   UNL A   1      41.451  28.845  30.824  1.00  0.00     0.074 A 
ATOM     54  C   UNL A   1      42.236  32.132  36.192  1.00  0.00     0.029 A 
ATOM     55  N   UNL A   1      41.533  31.384  34.219  1.00  0.00    -0.354 N 
ATOM     56  N   UNL A   1      41.536  29.576  31.910  1.00  0.00    -0.248 NA
ATOM     57  C   UNL A   1      42.475  27.795  30.724  1.00  0.00     0.031 C 
ATOM     58  C   UNL A   1      43.050  31.061  35.810  1.00  0.00     0.029 A 
ATOM     59  C   UNL A   1      42.600  30.583  34.590  1.00  0.00     0.049 A 
ATOM     60  H   UNL A   1      41.014  31.284  33.388  1.00  0.00     0.167 HD
ATOM     61  C   UNL A   1      42.605  29.062  32.631  1.00  0.00     0.074 A 
ATOM     62  C   UNL A   1      43.130  27.949  31.868  1.00  0.00     0.031 C 
ATOM     63  C   UNL A   1      43.107  29.476  33.820  1.00  0.00     0.037 A 
BRANCH  50  64
ATOM     64  C   UNL A   1      40.211  34.375  36.216  1.00  0.00     0.057 A 
ATOM     65  C   UNL A   1      39.430  34.172  37.363  1.00  0.00     0.134 A 
ATOM     66  C   UNL A   1      40.961  35.555  36.144  1.00  0.00     0.134 A 
ATOM     67  F   UNL A   1      38.677  33.069  37.486  1.00  0.00    -0.206 F 
ATOM     68  C   UNL A   1      39.382  35.118  38.387  1.00  0.00     0.040 A 
ATOM     69  C   UNL A   1      40.941  36.496  37.175  1.00  0.00     0.040 A 
ATOM     70  F   UNL A   1      41.733  35.808  35.077  1.00  0.00    -0.206 F 
ATOM     71  C   UNL A   1      40.145  36.281  38.299  1.00  0.00     0.006 A 
ENDBRANCH  50  64
BRANCH  51  72
ATOM     72  C   UNL A   1      40.540  28.012  28.540  1.00  0.00     0.057 A 
ATOM     73  C   UNL A   1      41.325  28.320  27.422  1.00  0.00     0.134 A 
ATOM     74  C   UNL A   1      39.843  26.799  28.526  1.00  0.00     0.134 A 
ATOM     75  F   UNL A   1      42.002  29.477  27.371  1.00  0.00    -0.206 F 
ATOM     76  C   UNL A   1      41.402  27.461  26.325  1.00  0.00     0.040 A 
ATOM     77  C   UNL A   1      39.928  25.921  27.445  1.00  0.00     0.040 A 
ATOM     78  F   UNL A   1      39.082  26.445  29.572  1.00  0.00    -0.206 F 
ATOM     79  C   UNL A   1      40.705  26.254  26.338  1.00  0.00     0.006 A 
ENDBRANCH  51  72
BRANCH  63  80
ATOM     80  C   UNL A   1      44.264  28.705  34.382  1.00  0.00     0.057 A 
ATOM     81  C   UNL A   1      44.077  27.564  35.171  1.00  0.00     0.134 A 
ATOM     82  C   UNL A   1      45.581  29.084  34.091  1.00  0.00     0.134 A 
ATOM     83  F   UNL A   1      42.840  27.158  35.495  1.00  0.00    -0.206 F 
ATOM     84  C   UNL A   1      45.160  26.837  35.667  1.00  0.00     0.040 A 
ATOM     85  C   UNL A   1      46.670  28.352  34.562  1.00  0.00     0.040 A 
ATOM     86  F   UNL A   1      45.828  30.164  33.333  1.00  0.00    -0.206 F 
ATOM     87  C   UNL A   1      46.461  27.226  35.356  1.00  0.00     0.006 A 
ENDBRANCH  63  80
ENDBRANCH  37  38
ENDBRANCH  29  32
ENDBRANCH  27  28
ENDBRANCH  26  27
ENDBRANCH   1  26
TORSDOF 14
ENDMDL
MODEL 3
REMARK VINA RESULT:     -11.9      3.943      9.905
REMARK SMILES COc1cccc2cc(/C=C/c3cc(C(=O)NCCCCNC(=O)c4ccc(-c5c6nc(c(-c7c(F)cccc7F)c7ccc([nH]7)c(-c7c(F)cccc7F)c7nc(c(-c8c(F)cccc8F)c8ccc5[nH]8)C=C7)C=C6)cc4)ncn3)oc12
REMARK SMILES IDX 19 1 18 2 17 3 15 4 16 5 14 7 12 8 13 9 81 10 80 11 79 12
REMARK SMILES IDX 11 13 10 14 9 15 3 16 4 17 83 18 5 19 7 20 82 21 6 22 8 23
REMARK SMILES IDX 2 24 1 25 20 26 21 27 22 28 23 29 24 31 25 32 26 33 78 34
REMARK SMILES IDX 27 35 77 36 28 37 29 38 30 39 71 40 31 41 76 42 70 43 72 44
REMARK SMILES IDX 32 45 75 46 69 47 68 48 33 50 59 51 42 52 58 53 43 54 46 55
REMARK SMILES IDX 57 56 73 57 44 58 45 59 56 61 74 62 47 63 34 64 35 65 40 66
REMARK SMILES IDX 36 67 37 68 39 69 41 70 38 71 60 72 61 73 66 74 62 75 63 76
REMARK SMILES IDX 65 77 67 78 64 79 48 80 49 81 54 82 50 83 51 84 53 85 55 86
REMARK SMILES IDX 52 87
REMARK H PARENT 17 6 22 30 72 49 46 60
REMARK Flexibility Score: inf
ROOT
ATOM      1  C   UNL A   1      36.740  33.762  28.853  1.00  0.00     0.023 C 
ENDROOT
BRANCH   1   2
ATOM      2  C   UNL A   1      37.075  33.157  30.220  1.00  0.00     0.116 C 
BRANCH   2   3
ATOM      3  N   UNL A   1      36.570  33.996  31.290  1.00  0.00    -0.351 N 
ATOM      4  C   UNL A   1      37.056  34.296  32.546  1.00  0.00     0.270 C 
ATOM      5  O   UNL A   1      36.388  35.075  33.226  1.00  0.00    -0.268 OA
ATOM      6  H   UNL A   1      35.715  34.437  31.080  1.00  0.00     0.163 HD
BRANCH   4   7
ATOM      7  C   UNL A   1      38.352  33.752  33.084  1.00  0.00     0.132 A 
ATOM      8  C   UNL A   1      39.885  32.057  33.588  1.00  0.00     0.067 A 
ATOM      9  C   UNL A   1      38.605  32.409  33.217  1.00  0.00     0.062 A 
ATOM     10  N   UNL A   1      40.810  32.953  33.960  1.00  0.00    -0.237 NA
ATOM     11  C   UNL A   1      40.440  34.238  33.877  1.00  0.00     0.223 A 
ATOM     12  N   UNL A   1      39.263  34.689  33.431  1.00  0.00    -0.231 NA
BRANCH   8  13
ATOM     13  C   UNL A   1      40.304  30.653  33.577  1.00  0.00     0.032 C 
ATOM     14  C   UNL A   1      41.365  30.240  34.290  1.00  0.00     0.049 C 
BRANCH  14  15
ATOM     15  C   UNL A   1      41.843  28.902  34.288  1.00  0.00     0.128 A 
ATOM     16  C   UNL A   1      41.544  25.517  35.437  1.00  0.00     0.162 A 
ATOM     17  C   UNL A   1      42.396  24.443  35.143  1.00  0.00     0.050 A 
ATOM     18  C   UNL A   1      41.877  26.746  34.857  1.00  0.00     0.176 A 
ATOM     19  C   UNL A   1      43.529  24.616  34.340  1.00  0.00     0.005 A 
ATOM     20  C   UNL A   1      42.987  26.949  34.052  1.00  0.00     0.025 A 
ATOM     21  O   UNL A   1      41.194  27.915  34.999  1.00  0.00    -0.453 OA
ATOM     22  C   UNL A   1      43.841  25.865  33.788  1.00  0.00     0.012 A 
ATOM     23  C   UNL A   1      42.952  28.319  33.685  1.00  0.00     0.059 A 
BRANCH  16  24
ATOM     24  O   UNL A   1      40.403  25.395  36.185  1.00  0.00    -0.493 OA
ATOM     25  C   UNL A   1      40.624  25.526  37.587  1.00  0.00     0.278 C 
ENDBRANCH  16  24
ENDBRANCH  14  15
ENDBRANCH   8  13
ENDBRANCH   4   7
ENDBRANCH   2   3
ENDBRANCH   1   2
BRANCH   1  26
ATOM     26  C   UNL A   1      35.469  33.199  28.213  1.00  0.00     0.023 C 
BRANCH  26  27
ATOM     27  C   UNL A   1      34.614  32.343  29.140  1.00  0.00     0.116 C 
BRANCH  27  28
ATOM     28  N   UNL A   1      34.014  31.195  28.475  1.00  0.00    -0.352 N 
ATOM     29  C   UNL A   1      34.627  30.038  28.054  1.00  0.00     0.251 C 
ATOM     30  H   UNL A   1      33.047  31.255  28.308  1.00  0.00     0.163 HD
ATOM     31  O   UNL A   1      34.005  29.200  27.417  1.00  0.00    -0.269 OA
BRANCH  29  32
ATOM     32  C   UNL A   1      36.064  29.842  28.335  1.00  0.00     0.039 A 
ATOM     33  C   UNL A   1      36.441  29.386  29.600  1.00  0.00     0.014 A 
ATOM     34  C   UNL A   1      37.026  30.069  27.347  1.00  0.00     0.014 A 
ATOM     35  C   UNL A   1      37.781  29.089  29.854  1.00  0.00     0.010 A 
ATOM     36  C   UNL A   1      38.350  29.710  27.580  1.00  0.00     0.010 A 
ATOM     37  C   UNL A   1      38.738  29.214  28.834  1.00  0.00    -0.014 A 
BRANCH  37  38
ATOM     38  C   UNL A   1      40.149  28.816  29.056  1.00  0.00     0.031 A 
ATOM     39  C   UNL A   1      41.123  29.789  29.658  1.00  0.00     0.074 A 
ATOM     40  C   UNL A   1      40.568  27.604  28.647  1.00  0.00     0.049 A 
ATOM     41  N   UNL A   1      42.407  29.650  29.864  1.00  0.00    -0.248 NA
ATOM     42  C   UNL A   1      40.587  31.101  30.056  1.00  0.00     0.031 C 
ATOM     43  C   UNL A   1      39.732  26.593  27.995  1.00  0.00     0.029 A 
ATOM     44  N   UNL A   1      41.809  27.019  28.706  1.00  0.00    -0.354 N 
ATOM     45  C   UNL A   1      42.837  30.859  30.395  1.00  0.00     0.074 A 
ATOM     46  C   UNL A   1      41.686  31.735  30.439  1.00  0.00     0.031 C 
ATOM     47  C   UNL A   1      40.477  25.508  27.733  1.00  0.00     0.029 A 
ATOM     48  C   UNL A   1      41.849  25.757  28.168  1.00  0.00     0.049 A 
ATOM     49  H   UNL A   1      42.594  27.464  29.098  1.00  0.00     0.167 HD
ATOM     50  C   UNL A   1      44.074  31.200  30.825  1.00  0.00     0.037 A 
ATOM     51  C   UNL A   1      42.876  24.898  28.036  1.00  0.00     0.037 A 
ATOM     52  C   UNL A   1      45.208  30.316  30.812  1.00  0.00     0.049 A 
ATOM     53  C   UNL A   1      44.234  25.290  28.546  1.00  0.00     0.074 A 
ATOM     54  C   UNL A   1      46.486  30.546  31.293  1.00  0.00     0.029 A 
ATOM     55  N   UNL A   1      45.201  29.031  30.292  1.00  0.00    -0.354 N 
ATOM     56  N   UNL A   1      44.611  26.412  29.109  1.00  0.00    -0.248 NA
ATOM     57  C   UNL A   1      45.307  24.295  28.411  1.00  0.00     0.031 C 
ATOM     58  C   UNL A   1      47.262  29.411  31.030  1.00  0.00     0.029 A 
ATOM     59  C   UNL A   1      46.456  28.461  30.425  1.00  0.00     0.049 A 
ATOM     60  H   UNL A   1      44.419  28.589  29.887  1.00  0.00     0.167 HD
ATOM     61  C   UNL A   1      45.955  26.252  29.415  1.00  0.00     0.074 A 
ATOM     62  C   UNL A   1      46.325  24.918  28.989  1.00  0.00     0.031 C 
ATOM     63  C   UNL A   1      46.806  27.131  29.998  1.00  0.00     0.037 A 
BRANCH  50  64
ATOM     64  C   UNL A   1      44.263  32.590  31.356  1.00  0.00     0.057 A 
ATOM     65  C   UNL A   1      44.485  33.681  30.504  1.00  0.00     0.134 A 
ATOM     66  C   UNL A   1      44.183  32.848  32.730  1.00  0.00     0.134 A 
ATOM     67  F   UNL A   1      44.585  33.498  29.178  1.00  0.00    -0.206 F 
ATOM     68  C   UNL A   1      44.644  34.975  31.002  1.00  0.00     0.040 A 
ATOM     69  C   UNL A   1      44.315  34.142  33.238  1.00  0.00     0.040 A 
ATOM     70  F   UNL A   1      43.968  31.850  33.599  1.00  0.00    -0.206 F 
ATOM     71  C   UNL A   1      44.551  35.209  32.372  1.00  0.00     0.006 A 
ENDBRANCH  50  64
BRANCH  51  72
ATOM     72  C   UNL A   1      42.652  23.568  27.418  1.00  0.00     0.057 A 
ATOM     73  C   UNL A   1      42.791  23.383  26.037  1.00  0.00     0.134 A 
ATOM     74  C   UNL A   1      42.305  22.452  28.188  1.00  0.00     0.134 A 
ATOM     75  F   UNL A   1      43.105  24.419  25.246  1.00  0.00    -0.206 F 
ATOM     76  C   UNL A   1      42.577  22.138  25.442  1.00  0.00     0.040 A 
ATOM     77  C   UNL A   1      42.110  21.197  27.609  1.00  0.00     0.040 A 
ATOM     78  F   UNL A   1      42.167  22.564  29.517  1.00  0.00    -0.206 F 
ATOM     79  C   UNL A   1      42.241  21.040  26.231  1.00  0.00     0.006 A 
ENDBRANCH  51  72
BRANCH  63  80
ATOM     80  C   UNL A   1      48.214  26.669  30.233  1.00  0.00     0.057 A 
ATOM     81  C   UNL A   1      48.564  25.916  31.361  1.00  0.00     0.134 A 
ATOM     82  C   UNL A   1      49.219  26.943  29.298  1.00  0.00     0.134 A 
ATOM     83  F   UNL A   1      47.648  25.631  32.299  1.00  0.00    -0.206 F 
ATOM     84  C   UNL A   1      49.871  25.467  31.558  1.00  0.00     0.040 A 
ATOM     85  C   UNL A   1      50.523  26.480  29.473  1.00  0.00     0.040 A 
ATOM     86  F   UNL A   1      48.947  27.654  28.193  1.00  0.00    -0.206 F 
ATOM     87  C   UNL A   1      50.853  25.742  30.609  1.00  0.00     0.006 A 
ENDBRANCH  63  80
ENDBRANCH  37  38
ENDBRANCH  29  32
ENDBRANCH  27  28
ENDBRANCH  26  27
ENDBRANCH   1  26
TORSDOF 14
ENDMDL
