MODEL 1
REMARK VINA RESULT:     -12.4      0.000      0.000
REMARK SMILES CC(=O)Nc1ccc(/C(=C\c2ccc(S(C)(=O)=O)cc2)C(=O)NCCCCNC(=O)c2ccc(-c3c4nc(c(-c5c(F)cccc5F)c5ccc([nH]5)c(-c5c(F)cccc5F)c5nc(c(-c6c(F)cccc6F)c6ccc3[nH]6)C=C5)C=C4)cc2)cc1
REMARK SMILES IDX 25 1 24 2 23 3 21 4 22 5 9 7 10 8 8 9 5 10 6 11 86 12 7 13
REMARK SMILES IDX 85 14 4 15 1 16 2 17 3 18 11 20 12 21 20 22 13 23 19 24
REMARK SMILES IDX 14 25 15 26 16 27 17 28 18 29 26 30 27 31 28 32 29 33 30 35
REMARK SMILES IDX 31 36 32 37 84 38 33 39 83 40 34 41 35 42 36 43 77 44 37 45
REMARK SMILES IDX 82 46 76 47 78 48 38 49 81 50 75 51 74 52 39 54 65 55 48 56
REMARK SMILES IDX 64 57 49 58 52 59 63 60 79 61 50 62 51 63 62 65 80 66 53 67
REMARK SMILES IDX 40 68 41 69 46 70 42 71 43 72 45 73 47 74 44 75 66 76 67 77
REMARK SMILES IDX 72 78 68 79 69 80 71 81 73 82 70 83 54 84 55 85 60 86 56 87
REMARK SMILES IDX 57 88 59 89 61 90 58 91
REMARK H PARENT 23 6 4 19 28 34 78 53 52 64
REMARK Flexibility Score: inf
ROOT
ATOM      1  C   UNL A   1      35.149  23.486  24.075  1.00  0.00     0.023 C 
ENDROOT
BRANCH   1   2
ATOM      2  C   UNL A   1      33.722  23.021  23.767  1.00  0.00     0.116 C 
BRANCH   2   3
ATOM      3  N   UNL A   1      32.944  22.935  24.986  1.00  0.00    -0.352 N 
ATOM      4  C   UNL A   1      32.112  23.766  25.666  1.00  0.00     0.251 C 
ATOM      5  O   UNL A   1      31.639  23.248  26.683  1.00  0.00    -0.269 OA
ATOM      6  H   UNL A   1      33.042  22.061  25.429  1.00  0.00     0.163 HD
BRANCH   4   7
ATOM      7  C   UNL A   1      31.718  25.180  25.229  1.00  0.00     0.047 C 
ATOM      8  C   UNL A   1      30.886  25.318  24.169  1.00  0.00     0.022 C 
BRANCH   7   9
ATOM      9  C   UNL A   1      32.404  26.375  25.853  1.00  0.00    -0.013 A 
ATOM     10  C   UNL A   1      33.574  28.878  26.610  1.00  0.00     0.041 A 
ATOM     11  C   UNL A   1      32.378  28.440  27.180  1.00  0.00     0.027 A 
ATOM     12  C   UNL A   1      34.253  27.997  25.784  1.00  0.00     0.027 A 
ATOM     13  C   UNL A   1      31.822  27.194  26.834  1.00  0.00     0.011 A 
ATOM     14  C   UNL A   1      33.662  26.791  25.388  1.00  0.00     0.011 A 
BRANCH  10  15
ATOM     15  N   UNL A   1      34.014  30.176  26.915  1.00  0.00    -0.326 N 
ATOM     16  C   UNL A   1      35.994  29.717  28.384  1.00  0.00     0.114 C 
ATOM     17  C   UNL A   1      35.012  30.647  27.723  1.00  0.00     0.221 C 
ATOM     18  O   UNL A   1      35.121  31.867  27.870  1.00  0.00    -0.275 OA
ATOM     19  H   UNL A   1      33.506  30.886  26.459  1.00  0.00     0.169 HD
ENDBRANCH  10  15
ENDBRANCH   7   9
BRANCH   8  20
ATOM     20  C   UNL A   1      30.221  26.509  23.621  1.00  0.00    -0.025 A 
ATOM     21  C   UNL A   1      28.847  26.664  23.878  1.00  0.00     0.009 A 
ATOM     22  C   UNL A   1      30.905  27.486  22.895  1.00  0.00     0.009 A 
ATOM     23  C   UNL A   1      28.171  27.807  23.451  1.00  0.00     0.021 A 
ATOM     24  C   UNL A   1      30.233  28.636  22.468  1.00  0.00     0.021 A 
ATOM     25  C   UNL A   1      28.872  28.790  22.750  1.00  0.00     0.067 A 
BRANCH  25  26
ATOM     26  S   UNL A   1      28.031  30.291  22.302  1.00  0.00     0.175 S 
ATOM     27  C   UNL A   1      29.209  31.562  22.679  1.00  0.00     0.163 C 
ATOM     28  O   UNL A   1      27.839  30.259  20.866  1.00  0.00    -0.224 OA
ATOM     29  O   UNL A   1      26.903  30.446  23.202  1.00  0.00    -0.224 OA
ENDBRANCH  25  26
ENDBRANCH   8  20
ENDBRANCH   4   7
ENDBRANCH   2   3
ENDBRANCH   1   2
BRANCH   1  30
ATOM     30  C   UNL A   1      36.161  22.347  24.241  1.00  0.00     0.023 C 
BRANCH  30  31
ATOM     31  C   UNL A   1      36.725  22.187  25.648  1.00  0.00     0.116 C 
BRANCH  31  32
ATOM     32  N   UNL A   1      37.737  21.146  25.743  1.00  0.00    -0.352 N 
ATOM     33  C   UNL A   1      39.052  21.262  26.126  1.00  0.00     0.251 C 
ATOM     34  H   UNL A   1      37.441  20.239  25.502  1.00  0.00     0.163 HD
ATOM     35  O   UNL A   1      39.811  20.303  26.041  1.00  0.00    -0.269 OA
BRANCH  33  36
ATOM     36  C   UNL A   1      39.546  22.568  26.598  1.00  0.00     0.039 A 
ATOM     37  C   UNL A   1      40.569  22.597  27.546  1.00  0.00     0.014 A 
ATOM     38  C   UNL A   1      39.037  23.754  26.062  1.00  0.00     0.014 A 
ATOM     39  C   UNL A   1      41.138  23.819  27.904  1.00  0.00     0.010 A 
ATOM     40  C   UNL A   1      39.655  24.963  26.362  1.00  0.00     0.010 A 
ATOM     41  C   UNL A   1      40.716  25.006  27.280  1.00  0.00    -0.014 A 
BRANCH  41  42
ATOM     42  C   UNL A   1      41.392  26.297  27.555  1.00  0.00     0.031 A 
ATOM     43  C   UNL A   1      42.799  26.532  27.088  1.00  0.00     0.074 A 
ATOM     44  C   UNL A   1      40.758  27.229  28.294  1.00  0.00     0.049 A 
ATOM     45  N   UNL A   1      43.572  27.569  27.286  1.00  0.00    -0.248 NA
ATOM     46  C   UNL A   1      43.433  25.446  26.325  1.00  0.00     0.031 C 
ATOM     47  C   UNL A   1      39.412  27.092  28.856  1.00  0.00     0.029 A 
ATOM     48  N   UNL A   1      41.167  28.471  28.711  1.00  0.00    -0.354 N 
ATOM     49  C   UNL A   1      44.784  27.256  26.685  1.00  0.00     0.074 A 
ATOM     50  C   UNL A   1      44.663  25.912  26.165  1.00  0.00     0.031 C 
ATOM     51  C   UNL A   1      39.100  28.213  29.526  1.00  0.00     0.029 A 
ATOM     52  C   UNL A   1      40.235  29.128  29.478  1.00  0.00     0.049 A 
ATOM     53  H   UNL A   1      42.044  28.854  28.484  1.00  0.00     0.167 HD
ATOM     54  C   UNL A   1      45.890  28.028  26.561  1.00  0.00     0.037 A 
ATOM     55  C   UNL A   1      40.292  30.329  30.083  1.00  0.00     0.037 A 
ATOM     56  C   UNL A   1      45.996  29.372  27.066  1.00  0.00     0.049 A 
ATOM     57  C   UNL A   1      41.533  31.166  29.935  1.00  0.00     0.074 A 
ATOM     58  C   UNL A   1      47.043  30.265  26.922  1.00  0.00     0.029 A 
ATOM     59  N   UNL A   1      45.025  30.012  27.822  1.00  0.00    -0.354 N 
ATOM     60  N   UNL A   1      42.638  30.894  29.284  1.00  0.00    -0.248 NA
ATOM     61  C   UNL A   1      41.531  32.476  30.598  1.00  0.00     0.031 C 
ATOM     62  C   UNL A   1      46.731  31.423  27.642  1.00  0.00     0.029 A 
ATOM     63  C   UNL A   1      45.464  31.274  28.184  1.00  0.00     0.049 A 
ATOM     64  H   UNL A   1      44.154  29.625  28.066  1.00  0.00     0.167 HD
ATOM     65  C   UNL A   1      43.455  32.006  29.443  1.00  0.00     0.074 A 
ATOM     66  C   UNL A   1      42.709  32.963  30.234  1.00  0.00     0.031 C 
ATOM     67  C   UNL A   1      44.712  32.214  28.978  1.00  0.00     0.037 A 
BRANCH  54  68
ATOM     68  C   UNL A   1      47.076  27.433  25.857  1.00  0.00     0.057 A 
ATOM     69  C   UNL A   1      47.263  27.564  24.475  1.00  0.00     0.134 A 
ATOM     70  C   UNL A   1      48.058  26.741  26.577  1.00  0.00     0.134 A 
ATOM     71  F   UNL A   1      46.353  28.204  23.723  1.00  0.00    -0.206 F 
ATOM     72  C   UNL A   1      48.367  27.005  23.830  1.00  0.00     0.040 A 
ATOM     73  C   UNL A   1      49.183  26.204  25.948  1.00  0.00     0.040 A 
ATOM     74  F   UNL A   1      47.947  26.583  27.905  1.00  0.00    -0.206 F 
ATOM     75  C   UNL A   1      49.335  26.328  24.568  1.00  0.00     0.006 A 
ENDBRANCH  54  68
BRANCH  55  76
ATOM     76  C   UNL A   1      39.135  30.815  30.876  1.00  0.00     0.057 A 
ATOM     77  C   UNL A   1      38.177  31.666  30.314  1.00  0.00     0.134 A 
ATOM     78  C   UNL A   1      38.954  30.435  32.213  1.00  0.00     0.134 A 
ATOM     79  F   UNL A   1      38.304  32.081  29.045  1.00  0.00    -0.206 F 
ATOM     80  C   UNL A   1      37.092  32.138  31.055  1.00  0.00     0.040 A 
ATOM     81  C   UNL A   1      37.859  30.876  32.957  1.00  0.00     0.040 A 
ATOM     82  F   UNL A   1      39.830  29.612  32.807  1.00  0.00    -0.206 F 
ATOM     83  C   UNL A   1      36.928  31.737  32.380  1.00  0.00     0.006 A 
ENDBRANCH  55  76
BRANCH  67  84
ATOM     84  C   UNL A   1      45.352  33.536  29.293  1.00  0.00     0.057 A 
ATOM     85  C   UNL A   1      46.161  33.714  30.422  1.00  0.00     0.134 A 
ATOM     86  C   UNL A   1      45.191  34.630  28.434  1.00  0.00     0.134 A 
ATOM     87  F   UNL A   1      46.346  32.709  31.292  1.00  0.00    -0.206 F 
ATOM     88  C   UNL A   1      46.770  34.939  30.697  1.00  0.00     0.040 A 
ATOM     89  C   UNL A   1      45.818  35.852  28.682  1.00  0.00     0.040 A 
ATOM     90  F   UNL A   1      44.436  34.525  27.330  1.00  0.00    -0.206 F 
ATOM     91  C   UNL A   1      46.605  36.011  29.820  1.00  0.00     0.006 A 
ENDBRANCH  67  84
ENDBRANCH  41  42
ENDBRANCH  33  36
ENDBRANCH  31  32
ENDBRANCH  30  31
ENDBRANCH   1  30
TORSDOF 15
ENDMDL
MODEL 2
REMARK VINA RESULT:     -12.0      0.706      6.031
REMARK SMILES CC(=O)Nc1ccc(/C(=C\c2ccc(S(C)(=O)=O)cc2)C(=O)NCCCCNC(=O)c2ccc(-c3c4nc(c(-c5c(F)cccc5F)c5ccc([nH]5)c(-c5c(F)cccc5F)c5nc(c(-c6c(F)cccc6F)c6ccc3[nH]6)C=C5)C=C4)cc2)cc1
REMARK SMILES IDX 25 1 24 2 23 3 21 4 22 5 9 7 10 8 8 9 5 10 6 11 86 12 7 13
REMARK SMILES IDX 85 14 4 15 1 16 2 17 3 18 11 20 12 21 20 22 13 23 19 24
REMARK SMILES IDX 14 25 15 26 16 27 17 28 18 29 26 30 27 31 28 32 29 33 30 35
REMARK SMILES IDX 31 36 32 37 84 38 33 39 83 40 34 41 35 42 36 43 77 44 37 45
REMARK SMILES IDX 82 46 76 47 78 48 38 49 81 50 75 51 74 52 39 54 65 55 48 56
REMARK SMILES IDX 64 57 49 58 52 59 63 60 79 61 50 62 51 63 62 65 80 66 53 67
REMARK SMILES IDX 40 68 41 69 46 70 42 71 43 72 45 73 47 74 44 75 66 76 67 77
REMARK SMILES IDX 72 78 68 79 69 80 71 81 73 82 70 83 54 84 55 85 60 86 56 87
REMARK SMILES IDX 57 88 59 89 61 90 58 91
REMARK H PARENT 23 6 4 19 28 34 78 53 52 64
REMARK Flexibility Score: inf
ROOT
ATOM      1  C   UNL A   1      34.660  23.028  24.390  1.00  0.00     0.023 C 
ENDROOT
BRANCH   1   2
ATOM      2  C   UNL A   1      33.270  22.649  23.868  1.00  0.00     0.116 C 
BRANCH   2   3
ATOM      3  N   UNL A   1      32.339  22.503  24.967  1.00  0.00    -0.352 N 
ATOM      4  C   UNL A   1      31.453  23.313  25.604  1.00  0.00     0.251 C 
ATOM      5  O   UNL A   1      30.836  22.738  26.507  1.00  0.00    -0.269 OA
ATOM      6  H   UNL A   1      32.351  21.593  25.346  1.00  0.00     0.163 HD
BRANCH   4   7
ATOM      7  C   UNL A   1      31.165  24.772  25.237  1.00  0.00     0.047 C 
ATOM      8  C   UNL A   1      30.463  25.026  24.106  1.00  0.00     0.022 C 
BRANCH   7   9
ATOM      9  C   UNL A   1      31.821  25.885  26.023  1.00  0.00    -0.013 A 
ATOM     10  C   UNL A   1      32.995  28.268  27.095  1.00  0.00     0.041 A 
ATOM     11  C   UNL A   1      31.723  27.851  27.491  1.00  0.00     0.027 A 
ATOM     12  C   UNL A   1      33.729  27.415  26.288  1.00  0.00     0.027 A 
ATOM     13  C   UNL A   1      31.162  26.661  26.990  1.00  0.00     0.011 A 
ATOM     14  C   UNL A   1      33.140  26.270  25.738  1.00  0.00     0.011 A 
BRANCH  10  15
ATOM     15  N   UNL A   1      33.449  29.519  27.545  1.00  0.00    -0.326 N 
ATOM     16  C   UNL A   1      31.822  31.082  26.448  1.00  0.00     0.114 C 
ATOM     17  C   UNL A   1      33.049  30.798  27.274  1.00  0.00     0.221 C 
ATOM     18  O   UNL A   1      33.697  31.729  27.758  1.00  0.00    -0.275 OA
ATOM     19  H   UNL A   1      34.200  29.464  28.179  1.00  0.00     0.169 HD
ENDBRANCH  10  15
ENDBRANCH   7   9
BRANCH   8  20
ATOM     20  C   UNL A   1      29.909  26.282  23.584  1.00  0.00    -0.025 A 
ATOM     21  C   UNL A   1      28.568  26.578  23.884  1.00  0.00     0.009 A 
ATOM     22  C   UNL A   1      30.668  27.187  22.839  1.00  0.00     0.009 A 
ATOM     23  C   UNL A   1      28.001  27.787  23.481  1.00  0.00     0.021 A 
ATOM     24  C   UNL A   1      30.108  28.404  22.437  1.00  0.00     0.021 A 
ATOM     25  C   UNL A   1      28.779  28.697  22.762  1.00  0.00     0.067 A 
BRANCH  25  26
ATOM     26  S   UNL A   1      28.086  30.281  22.346  1.00  0.00     0.175 S 
ATOM     27  C   UNL A   1      29.302  31.436  22.918  1.00  0.00     0.163 C 
ATOM     28  O   UNL A   1      28.033  30.354  20.900  1.00  0.00    -0.224 OA
ATOM     29  O   UNL A   1      26.888  30.458  23.146  1.00  0.00    -0.224 OA
ENDBRANCH  25  26
ENDBRANCH   8  20
ENDBRANCH   4   7
ENDBRANCH   2   3
ENDBRANCH   1   2
BRANCH   1  30
ATOM     30  C   UNL A   1      35.727  21.947  24.183  1.00  0.00     0.023 C 
BRANCH  30  31
ATOM     31  C   UNL A   1      37.106  22.290  24.732  1.00  0.00     0.116 C 
BRANCH  31  32
ATOM     32  N   UNL A   1      37.873  21.118  25.125  1.00  0.00    -0.352 N 
ATOM     33  C   UNL A   1      39.020  21.059  25.879  1.00  0.00     0.251 C 
ATOM     34  H   UNL A   1      37.525  20.254  24.809  1.00  0.00     0.163 HD
ATOM     35  O   UNL A   1      39.614  19.996  26.026  1.00  0.00    -0.269 OA
BRANCH  33  36
ATOM     36  C   UNL A   1      39.550  22.300  26.474  1.00  0.00     0.039 A 
ATOM     37  C   UNL A   1      40.657  22.222  27.320  1.00  0.00     0.014 A 
ATOM     38  C   UNL A   1      38.987  23.537  26.149  1.00  0.00     0.014 A 
ATOM     39  C   UNL A   1      41.250  23.396  27.783  1.00  0.00     0.010 A 
ATOM     40  C   UNL A   1      39.624  24.706  26.549  1.00  0.00     0.010 A 
ATOM     41  C   UNL A   1      40.765  24.646  27.364  1.00  0.00    -0.014 A 
BRANCH  41  42
ATOM     42  C   UNL A   1      41.457  25.902  27.745  1.00  0.00     0.031 A 
ATOM     43  C   UNL A   1      40.723  26.974  28.499  1.00  0.00     0.074 A 
ATOM     44  C   UNL A   1      42.726  26.105  27.343  1.00  0.00     0.049 A 
ATOM     45  N   UNL A   1      41.140  28.158  28.866  1.00  0.00    -0.248 NA
ATOM     46  C   UNL A   1      39.326  26.689  28.862  1.00  0.00     0.031 C 
ATOM     47  C   UNL A   1      43.525  25.164  26.554  1.00  0.00     0.029 A 
ATOM     48  N   UNL A   1      43.565  27.174  27.532  1.00  0.00    -0.354 N 
ATOM     49  C   UNL A   1      40.057  28.763  29.488  1.00  0.00     0.074 A 
ATOM     50  C   UNL A   1      38.948  27.839  29.401  1.00  0.00     0.031 C 
ATOM     51  C   UNL A   1      44.742  25.689  26.343  1.00  0.00     0.029 A 
ATOM     52  C   UNL A   1      44.797  27.017  26.944  1.00  0.00     0.049 A 
ATOM     53  H   UNL A   1      43.309  27.978  28.038  1.00  0.00     0.167 HD
ATOM     54  C   UNL A   1      39.999  29.973  30.096  1.00  0.00     0.037 A 
ATOM     55  C   UNL A   1      45.851  27.854  26.887  1.00  0.00     0.037 A 
ATOM     56  C   UNL A   1      41.112  30.879  30.194  1.00  0.00     0.049 A 
ATOM     57  C   UNL A   1      45.760  29.193  27.565  1.00  0.00     0.074 A 
ATOM     58  C   UNL A   1      41.177  32.092  30.858  1.00  0.00     0.029 A 
ATOM     59  N   UNL A   1      42.350  30.679  29.602  1.00  0.00    -0.354 N 
ATOM     60  N   UNL A   1      44.759  29.715  28.231  1.00  0.00    -0.248 NA
ATOM     61  C   UNL A   1      46.947  30.055  27.488  1.00  0.00     0.031 C 
ATOM     62  C   UNL A   1      42.436  32.654  30.617  1.00  0.00     0.029 A 
ATOM     63  C   UNL A   1      43.175  31.763  29.854  1.00  0.00     0.049 A 
ATOM     64  H   UNL A   1      42.605  29.885  29.080  1.00  0.00     0.167 HD
ATOM     65  C   UNL A   1      45.200  30.957  28.669  1.00  0.00     0.074 A 
ATOM     66  C   UNL A   1      46.567  31.099  28.211  1.00  0.00     0.031 C 
ATOM     67  C   UNL A   1      44.532  31.895  29.386  1.00  0.00     0.037 A 
BRANCH  54  68
ATOM     68  C   UNL A   1      38.684  30.385  30.694  1.00  0.00     0.057 A 
ATOM     69  C   UNL A   1      37.709  31.063  29.951  1.00  0.00     0.134 A 
ATOM     70  C   UNL A   1      38.380  30.077  32.026  1.00  0.00     0.134 A 
ATOM     71  F   UNL A   1      37.940  31.400  28.672  1.00  0.00    -0.206 F 
ATOM     72  C   UNL A   1      36.491  31.443  30.517  1.00  0.00     0.040 A 
ATOM     73  C   UNL A   1      37.154  30.425  32.596  1.00  0.00     0.040 A 
ATOM     74  F   UNL A   1      39.265  29.425  32.795  1.00  0.00    -0.206 F 
ATOM     75  C   UNL A   1      36.208  31.118  31.841  1.00  0.00     0.006 A 
ENDBRANCH  54  68
BRANCH  55  76
ATOM     76  C   UNL A   1      47.084  27.444  26.168  1.00  0.00     0.057 A 
ATOM     77  C   UNL A   1      47.221  27.645  24.790  1.00  0.00     0.134 A 
ATOM     78  C   UNL A   1      48.157  26.845  26.842  1.00  0.00     0.134 A 
ATOM     79  F   UNL A   1      46.221  28.196  24.086  1.00  0.00    -0.206 F 
ATOM     80  C   UNL A   1      48.370  27.251  24.103  1.00  0.00     0.040 A 
ATOM     81  C   UNL A   1      49.323  26.472  26.173  1.00  0.00     0.040 A 
ATOM     82  F   UNL A   1      48.093  26.634  28.164  1.00  0.00    -0.206 F 
ATOM     83  C   UNL A   1      49.429  26.668  24.798  1.00  0.00     0.006 A 
ENDBRANCH  55  76
BRANCH  67  84
ATOM     84  C   UNL A   1      45.277  33.151  29.736  1.00  0.00     0.057 A 
ATOM     85  C   UNL A   1      45.291  34.263  28.886  1.00  0.00     0.134 A 
ATOM     86  C   UNL A   1      45.951  33.263  30.959  1.00  0.00     0.134 A 
ATOM     87  F   UNL A   1      44.675  34.216  27.694  1.00  0.00    -0.206 F 
ATOM     88  C   UNL A   1      45.968  35.435  29.228  1.00  0.00     0.040 A 
ATOM     89  C   UNL A   1      46.606  34.439  31.326  1.00  0.00     0.040 A 
ATOM     90  F   UNL A   1      45.970  32.238  31.824  1.00  0.00    -0.206 F 
ATOM     91  C   UNL A   1      46.621  35.528  30.457  1.00  0.00     0.006 A 
ENDBRANCH  67  84
ENDBRANCH  41  42
ENDBRANCH  33  36
ENDBRANCH  31  32
ENDBRANCH  30  31
ENDBRANCH   1  30
TORSDOF 15
ENDMDL
MODEL 3
REMARK VINA RESULT:     -11.5      1.468      3.567
REMARK SMILES CC(=O)Nc1ccc(/C(=C\c2ccc(S(C)(=O)=O)cc2)C(=O)NCCCCNC(=O)c2ccc(-c3c4nc(c(-c5c(F)cccc5F)c5ccc([nH]5)c(-c5c(F)cccc5F)c5nc(c(-c6c(F)cccc6F)c6ccc3[nH]6)C=C5)C=C4)cc2)cc1
REMARK SMILES IDX 25 1 24 2 23 3 21 4 22 5 9 7 10 8 8 9 5 10 6 11 86 12 7 13
REMARK SMILES IDX 85 14 4 15 1 16 2 17 3 18 11 20 12 21 20 22 13 23 19 24
REMARK SMILES IDX 14 25 15 26 16 27 17 28 18 29 26 30 27 31 28 32 29 33 30 35
REMARK SMILES IDX 31 36 32 37 84 38 33 39 83 40 34 41 35 42 36 43 77 44 37 45
REMARK SMILES IDX 82 46 76 47 78 48 38 49 81 50 75 51 74 52 39 54 65 55 48 56
REMARK SMILES IDX 64 57 49 58 52 59 63 60 79 61 50 62 51 63 62 65 80 66 53 67
REMARK SMILES IDX 40 68 41 69 46 70 42 71 43 72 45 73 47 74 44 75 66 76 67 77
REMARK SMILES IDX 72 78 68 79 69 80 71 81 73 82 70 83 54 84 55 85 60 86 56 87
REMARK SMILES IDX 57 88 59 89 61 90 58 91
REMARK H PARENT 23 6 4 19 28 34 78 53 52 64
REMARK Flexibility Score: inf
ROOT
ATOM      1  C   UNL A   1      35.428  23.641  25.961  1.00  0.00     0.023 C 
ENDROOT
BRANCH   1   2
ATOM      2  C   UNL A   1      33.948  23.765  26.339  1.00  0.00     0.116 C 
BRANCH   2   3
ATOM      3  N   UNL A   1      33.124  23.795  25.150  1.00  0.00    -0.352 N 
ATOM      4  C   UNL A   1      32.454  24.753  24.456  1.00  0.00     0.251 C 
ATOM      5  O   UNL A   1      31.880  24.312  23.456  1.00  0.00    -0.269 OA
ATOM      6  H   UNL A   1      33.026  22.904  24.743  1.00  0.00     0.163 HD
BRANCH   4   7
ATOM      7  C   UNL A   1      32.433  26.245  24.801  1.00  0.00     0.047 C 
ATOM      8  C   UNL A   1      32.839  26.627  26.037  1.00  0.00     0.022 C 
BRANCH   7   9
ATOM      9  C   UNL A   1      31.791  27.226  23.845  1.00  0.00    -0.013 A 
ATOM     10  C   UNL A   1      30.479  29.355  22.448  1.00  0.00     0.041 A 
ATOM     11  C   UNL A   1      31.866  29.210  22.402  1.00  0.00     0.027 A 
ATOM     12  C   UNL A   1      29.748  28.352  23.062  1.00  0.00     0.027 A 
ATOM     13  C   UNL A   1      32.507  28.143  23.059  1.00  0.00     0.011 A 
ATOM     14  C   UNL A   1      30.393  27.333  23.774  1.00  0.00     0.011 A 
BRANCH  10  15
ATOM     15  N   UNL A   1      29.915  30.502  21.865  1.00  0.00    -0.326 N 
ATOM     16  C   UNL A   1      28.814  31.594  23.836  1.00  0.00     0.114 C 
ATOM     17  C   UNL A   1      29.126  31.499  22.366  1.00  0.00     0.221 C 
ATOM     18  O   UNL A   1      28.699  32.356  21.588  1.00  0.00    -0.275 OA
ATOM     19  H   UNL A   1      30.130  30.609  20.910  1.00  0.00     0.169 HD
ENDBRANCH  10  15
ENDBRANCH   7   9
BRANCH   8  20
ATOM     20  C   UNL A   1      33.073  27.964  26.598  1.00  0.00    -0.025 A 
ATOM     21  C   UNL A   1      34.398  28.317  26.910  1.00  0.00     0.009 A 
ATOM     22  C   UNL A   1      32.045  28.888  26.797  1.00  0.00     0.009 A 
ATOM     23  C   UNL A   1      34.700  29.596  27.377  1.00  0.00     0.021 A 
ATOM     24  C   UNL A   1      32.342  30.174  27.260  1.00  0.00     0.021 A 
ATOM     25  C   UNL A   1      33.667  30.520  27.545  1.00  0.00     0.067 A 
BRANCH  25  26
ATOM     26  S   UNL A   1      34.070  32.181  28.036  1.00  0.00     0.175 S 
ATOM     27  C   UNL A   1      32.738  33.149  27.381  1.00  0.00     0.163 C 
ATOM     28  O   UNL A   1      33.997  32.225  29.483  1.00  0.00    -0.224 OA
ATOM     29  O   UNL A   1      35.285  32.560  27.339  1.00  0.00    -0.224 OA
ENDBRANCH  25  26
ENDBRANCH   8  20
ENDBRANCH   4   7
ENDBRANCH   2   3
ENDBRANCH   1   2
BRANCH   1  30
ATOM     30  C   UNL A   1      35.904  22.201  25.743  1.00  0.00     0.023 C 
BRANCH  30  31
ATOM     31  C   UNL A   1      37.177  22.061  24.917  1.00  0.00     0.116 C 
BRANCH  31  32
ATOM     32  N   UNL A   1      38.034  20.974  25.366  1.00  0.00    -0.352 N 
ATOM     33  C   UNL A   1      39.202  21.045  26.085  1.00  0.00     0.251 C 
ATOM     34  H   UNL A   1      37.738  20.068  25.121  1.00  0.00     0.163 HD
ATOM     35  O   UNL A   1      39.872  20.037  26.285  1.00  0.00    -0.269 OA
BRANCH  33  36
ATOM     36  C   UNL A   1      39.661  22.357  26.576  1.00  0.00     0.039 A 
ATOM     37  C   UNL A   1      40.680  22.401  27.527  1.00  0.00     0.014 A 
ATOM     38  C   UNL A   1      39.122  23.536  26.053  1.00  0.00     0.014 A 
ATOM     39  C   UNL A   1      41.216  23.634  27.901  1.00  0.00     0.010 A 
ATOM     40  C   UNL A   1      39.707  24.757  26.370  1.00  0.00     0.010 A 
ATOM     41  C   UNL A   1      40.764  24.816  27.292  1.00  0.00    -0.014 A 
BRANCH  41  42
ATOM     42  C   UNL A   1      41.405  26.122  27.585  1.00  0.00     0.031 A 
ATOM     43  C   UNL A   1      42.801  26.405  27.112  1.00  0.00     0.074 A 
ATOM     44  C   UNL A   1      40.751  27.021  28.345  1.00  0.00     0.049 A 
ATOM     45  N   UNL A   1      43.545  27.460  27.322  1.00  0.00    -0.248 NA
ATOM     46  C   UNL A   1      43.460  25.352  26.324  1.00  0.00     0.031 C 
ATOM     47  C   UNL A   1      39.414  26.836  28.914  1.00  0.00     0.029 A 
ATOM     48  N   UNL A   1      41.127  28.267  28.782  1.00  0.00    -0.354 N 
ATOM     49  C   UNL A   1      44.761  27.193  26.707  1.00  0.00     0.074 A 
ATOM     50  C   UNL A   1      44.675  25.855  26.163  1.00  0.00     0.031 C 
ATOM     51  C   UNL A   1      39.075  27.935  29.608  1.00  0.00     0.029 A 
ATOM     52  C   UNL A   1      40.183  28.883  29.567  1.00  0.00     0.049 A 
ATOM     53  H   UNL A   1      41.991  28.679  28.555  1.00  0.00     0.167 HD
ATOM     54  C   UNL A   1      45.843  27.998  26.588  1.00  0.00     0.037 A 
ATOM     55  C   UNL A   1      40.211  30.074  30.194  1.00  0.00     0.037 A 
ATOM     56  C   UNL A   1      45.915  29.335  27.117  1.00  0.00     0.049 A 
ATOM     57  C   UNL A   1      41.426  30.948  30.051  1.00  0.00     0.074 A 
ATOM     58  C   UNL A   1      46.935  30.260  26.981  1.00  0.00     0.029 A 
ATOM     59  N   UNL A   1      44.932  29.933  27.891  1.00  0.00    -0.354 N 
ATOM     60  N   UNL A   1      42.533  30.721  29.387  1.00  0.00    -0.248 NA
ATOM     61  C   UNL A   1      41.392  32.246  30.738  1.00  0.00     0.031 C 
ATOM     62  C   UNL A   1      46.596  31.396  27.724  1.00  0.00     0.029 A 
ATOM     63  C   UNL A   1      45.338  31.202  28.273  1.00  0.00     0.049 A 
ATOM     64  H   UNL A   1      44.074  29.517  28.135  1.00  0.00     0.167 HD
ATOM     65  C   UNL A   1      43.320  31.853  29.560  1.00  0.00     0.074 A 
ATOM     66  C   UNL A   1      42.553  32.773  30.374  1.00  0.00     0.031 C 
ATOM     67  C   UNL A   1      44.566  32.105  29.089  1.00  0.00     0.037 A 
BRANCH  54  68
ATOM     68  C   UNL A   1      47.040  27.450  25.865  1.00  0.00     0.057 A 
ATOM     69  C   UNL A   1      47.221  27.627  24.487  1.00  0.00     0.134 A 
ATOM     70  C   UNL A   1      48.039  26.758  26.562  1.00  0.00     0.134 A 
ATOM     71  F   UNL A   1      46.297  28.270  23.756  1.00  0.00    -0.206 F 
ATOM     72  C   UNL A   1      48.336  27.112  23.823  1.00  0.00     0.040 A 
ATOM     73  C   UNL A   1      49.173  26.264  25.915  1.00  0.00     0.040 A 
ATOM     74  F   UNL A   1      47.933  26.557  27.884  1.00  0.00    -0.206 F 
ATOM     75  C   UNL A   1      49.319  26.434  24.539  1.00  0.00     0.006 A 
ENDBRANCH  54  68
BRANCH  55  76
ATOM     76  C   UNL A   1      39.046  30.512  31.004  1.00  0.00     0.057 A 
ATOM     77  C   UNL A   1      38.916  30.137  32.347  1.00  0.00     0.134 A 
ATOM     78  C   UNL A   1      38.039  31.318  30.460  1.00  0.00     0.134 A 
ATOM     79  F   UNL A   1      39.838  29.351  32.921  1.00  0.00    -0.206 F 
ATOM     80  C   UNL A   1      37.818  30.532  33.114  1.00  0.00     0.040 A 
ATOM     81  C   UNL A   1      36.951  31.744  31.222  1.00  0.00     0.040 A 
ATOM     82  F   UNL A   1      38.110  31.721  29.183  1.00  0.00    -0.206 F 
ATOM     83  C   UNL A   1      36.834  31.345  32.552  1.00  0.00     0.006 A 
ENDBRANCH  55  76
BRANCH  67  84
ATOM     84  C   UNL A   1      45.170  33.439  29.424  1.00  0.00     0.057 A 
ATOM     85  C   UNL A   1      44.952  34.569  28.626  1.00  0.00     0.134 A 
ATOM     86  C   UNL A   1      45.943  33.603  30.580  1.00  0.00     0.134 A 
ATOM     87  F   UNL A   1      44.232  34.477  27.498  1.00  0.00    -0.206 F 
ATOM     88  C   UNL A   1      45.499  35.810  28.955  1.00  0.00     0.040 A 
ATOM     89  C   UNL A   1      46.471  34.844  30.936  1.00  0.00     0.040 A 
ATOM     90  F   UNL A   1      46.183  32.563  31.393  1.00  0.00    -0.206 F 
ATOM     91  C   UNL A   1      46.255  35.952  30.119  1.00  0.00     0.006 A 
ENDBRANCH  67  84
ENDBRANCH  41  42
ENDBRANCH  33  36
ENDBRANCH  31  32
ENDBRANCH  30  31
ENDBRANCH   1  30
TORSDOF 15
ENDMDL
