MODEL 1
REMARK VINA RESULT:     -11.8      0.000      0.000
REMARK SMILES Cc1cc(OCC(C)(C)C(=O)NCCCCNC(=O)c2ccc(-c3c4nc(c(-c5c(F)cccc5F)c5ccc([nH]5)c(-c5c(F)cccc5F)c5nc(c(-c6c(F)cccc6F)c6ccc3[nH]6)C=C5)C=C4)cc2)cc(C(C)C)c1
REMARK SMILES IDX 13 1 12 2 10 3 11 4 7 6 8 7 9 8 6 9 5 10 4 11 1 12 2 13 3 14
REMARK SMILES IDX 79 15 75 16 74 17 76 18 77 19 78 20 14 21 15 22 16 23 17 24
REMARK SMILES IDX 18 25 19 27 20 28 21 29 73 30 22 31 72 32 23 33 24 34 25 35
REMARK SMILES IDX 66 36 26 37 71 38 65 39 67 40 27 41 70 42 64 43 63 44 28 46
REMARK SMILES IDX 54 47 37 48 53 49 38 50 41 51 52 52 68 53 39 54 40 55 51 57
REMARK SMILES IDX 69 58 42 59 29 60 30 61 35 62 31 63 32 64 34 65 36 66 33 67
REMARK SMILES IDX 55 68 56 69 61 70 57 71 58 72 60 73 62 74 59 75 43 76 44 77
REMARK SMILES IDX 49 78 45 79 46 80 48 81 50 82 47 83
REMARK H PARENT 12 5 17 26 67 45 41 56
REMARK Flexibility Score: inf
ROOT
ATOM      1  C   UNL A   1      32.304  29.080  25.236  1.00  0.00     0.116 C 
ENDROOT
BRANCH   1   2
ATOM      2  N   UNL A   1      33.145  29.123  24.047  1.00  0.00    -0.356 N 
ATOM      3  C   UNL A   1      33.355  28.229  23.030  1.00  0.00     0.229 C 
ATOM      4  O   UNL A   1      34.157  28.576  22.159  1.00  0.00    -0.274 OA
ATOM      5  H   UNL A   1      33.663  29.955  23.958  1.00  0.00     0.163 HD
BRANCH   3   6
ATOM      6  C   UNL A   1      32.670  26.851  23.006  1.00  0.00     0.077 C 
ATOM      7  C   UNL A   1      32.751  26.200  24.387  1.00  0.00     0.025 C 
ATOM      8  C   UNL A   1      33.373  25.976  21.946  1.00  0.00     0.025 C 
BRANCH   6   9
ATOM      9  C   UNL A   1      31.173  26.954  22.527  1.00  0.00     0.245 C 
BRANCH   9  10
ATOM     10  O   UNL A   1      30.702  28.194  21.988  1.00  0.00    -0.492 OA
BRANCH  10  11
ATOM     11  C   UNL A   1      29.687  28.895  22.574  1.00  0.00     0.119 A 
ATOM     12  C   UNL A   1      26.272  27.852  23.864  1.00  0.00     0.044 C 
ATOM     13  C   UNL A   1      27.405  28.705  23.380  1.00  0.00    -0.047 A 
ATOM     14  C   UNL A   1      28.613  28.114  22.998  1.00  0.00     0.049 A 
ATOM     15  C   UNL A   1      27.264  30.093  23.259  1.00  0.00     0.007 A 
ATOM     16  C   UNL A   1      28.349  30.897  22.876  1.00  0.00    -0.042 A 
ATOM     17  C   UNL A   1      29.593  30.282  22.670  1.00  0.00     0.050 A 
BRANCH  16  18
ATOM     18  C   UNL A   1      28.098  32.360  22.532  1.00  0.00     0.013 C 
ATOM     19  C   UNL A   1      29.118  33.337  23.119  1.00  0.00     0.012 C 
ATOM     20  C   UNL A   1      28.023  32.545  21.006  1.00  0.00     0.012 C 
ENDBRANCH  16  18
ENDBRANCH  10  11
ENDBRANCH   9  10
ENDBRANCH   6   9
ENDBRANCH   3   6
ENDBRANCH   1   2
BRANCH   1  21
ATOM     21  C   UNL A   1      31.555  30.382  25.513  1.00  0.00     0.023 C 
BRANCH  21  22
ATOM     22  C   UNL A   1      31.982  31.133  26.768  1.00  0.00     0.023 C 
BRANCH  22  23
ATOM     23  C   UNL A   1      33.348  30.725  27.291  1.00  0.00     0.116 C 
BRANCH  23  24
ATOM     24  N   UNL A   1      34.040  31.732  28.072  1.00  0.00    -0.352 N 
ATOM     25  C   UNL A   1      35.158  31.627  28.889  1.00  0.00     0.251 C 
ATOM     26  H   UNL A   1      33.657  32.636  28.013  1.00  0.00     0.163 HD
ATOM     27  O   UNL A   1      35.467  32.585  29.576  1.00  0.00    -0.269 OA
BRANCH  25  28
ATOM     28  C   UNL A   1      36.075  30.447  28.820  1.00  0.00     0.039 A 
ATOM     29  C   UNL A   1      36.267  29.699  29.995  1.00  0.00     0.014 A 
ATOM     30  C   UNL A   1      36.918  30.223  27.741  1.00  0.00     0.014 A 
ATOM     31  C   UNL A   1      37.438  28.962  30.169  1.00  0.00     0.010 A 
ATOM     32  C   UNL A   1      38.139  29.639  27.959  1.00  0.00     0.010 A 
ATOM     33  C   UNL A   1      38.418  29.054  29.192  1.00  0.00    -0.014 A 
BRANCH  33  34
ATOM     34  C   UNL A   1      39.794  28.621  29.325  1.00  0.00     0.031 A 
ATOM     35  C   UNL A   1      40.172  27.278  28.851  1.00  0.00     0.074 A 
ATOM     36  C   UNL A   1      40.721  29.563  29.605  1.00  0.00     0.049 A 
ATOM     37  N   UNL A   1      41.297  26.714  29.111  1.00  0.00    -0.248 NA
ATOM     38  C   UNL A   1      39.290  26.444  28.038  1.00  0.00     0.031 C 
ATOM     39  C   UNL A   1      42.158  29.505  29.363  1.00  0.00     0.029 A 
ATOM     40  N   UNL A   1      40.544  30.740  30.345  1.00  0.00    -0.354 N 
ATOM     41  C   UNL A   1      41.410  25.607  28.302  1.00  0.00     0.074 A 
ATOM     42  C   UNL A   1      40.113  25.452  27.690  1.00  0.00     0.031 C 
ATOM     43  C   UNL A   1      42.769  30.397  30.159  1.00  0.00     0.029 A 
ATOM     44  C   UNL A   1      41.754  30.934  31.049  1.00  0.00     0.049 A 
ATOM     45  H   UNL A   1      39.743  31.312  30.371  1.00  0.00     0.167 HD
ATOM     46  C   UNL A   1      42.635  25.029  28.154  1.00  0.00     0.037 A 
ATOM     47  C   UNL A   1      41.790  30.838  32.411  1.00  0.00     0.037 A 
ATOM     48  C   UNL A   1      43.625  25.720  28.975  1.00  0.00     0.049 A 
ATOM     49  C   UNL A   1      42.688  29.728  32.908  1.00  0.00     0.074 A 
ATOM     50  C   UNL A   1      44.527  26.733  28.693  1.00  0.00     0.029 A 
ATOM     51  N   UNL A   1      43.526  25.650  30.358  1.00  0.00    -0.354 N 
ATOM     52  N   UNL A   1      43.026  28.690  32.193  1.00  0.00    -0.248 NA
ATOM     53  C   UNL A   1      43.295  29.709  34.235  1.00  0.00     0.031 C 
ATOM     54  C   UNL A   1      44.937  27.308  29.922  1.00  0.00     0.029 A 
ATOM     55  C   UNL A   1      44.302  26.628  30.946  1.00  0.00     0.049 A 
ATOM     56  H   UNL A   1      42.979  24.996  30.849  1.00  0.00     0.167 HD
ATOM     57  C   UNL A   1      43.874  27.888  32.915  1.00  0.00     0.074 A 
ATOM     58  C   UNL A   1      44.015  28.574  34.185  1.00  0.00     0.031 C 
ATOM     59  C   UNL A   1      44.388  26.732  32.395  1.00  0.00     0.037 A 
BRANCH  46  60
ATOM     60  C   UNL A   1      42.994  24.025  27.087  1.00  0.00     0.057 A 
ATOM     61  C   UNL A   1      43.461  24.453  25.827  1.00  0.00     0.134 A 
ATOM     62  C   UNL A   1      42.888  22.630  27.222  1.00  0.00     0.134 A 
ATOM     63  F   UNL A   1      43.695  25.744  25.560  1.00  0.00    -0.206 F 
ATOM     64  C   UNL A   1      43.712  23.574  24.765  1.00  0.00     0.040 A 
ATOM     65  C   UNL A   1      43.090  21.743  26.155  1.00  0.00     0.040 A 
ATOM     66  F   UNL A   1      42.641  22.056  28.406  1.00  0.00    -0.206 F 
ATOM     67  C   UNL A   1      43.497  22.215  24.916  1.00  0.00     0.006 A 
ENDBRANCH  46  60
BRANCH  47  68
ATOM     68  C   UNL A   1      40.518  31.287  33.042  1.00  0.00     0.057 A 
ATOM     69  C   UNL A   1      39.604  30.297  33.448  1.00  0.00     0.134 A 
ATOM     70  C   UNL A   1      40.407  32.541  33.652  1.00  0.00     0.134 A 
ATOM     71  F   UNL A   1      39.652  29.072  32.897  1.00  0.00    -0.206 F 
ATOM     72  C   UNL A   1      38.725  30.495  34.517  1.00  0.00     0.040 A 
ATOM     73  C   UNL A   1      39.517  32.755  34.713  1.00  0.00     0.040 A 
ATOM     74  F   UNL A   1      41.250  33.533  33.331  1.00  0.00    -0.206 F 
ATOM     75  C   UNL A   1      38.712  31.716  35.181  1.00  0.00     0.006 A 
ENDBRANCH  47  68
BRANCH  59  76
ATOM     76  C   UNL A   1      45.091  25.619  33.145  1.00  0.00     0.057 A 
ATOM     77  C   UNL A   1      46.482  25.463  33.217  1.00  0.00     0.134 A 
ATOM     78  C   UNL A   1      44.355  24.742  33.981  1.00  0.00     0.134 A 
ATOM     79  F   UNL A   1      47.319  26.281  32.568  1.00  0.00    -0.206 F 
ATOM     80  C   UNL A   1      47.091  24.488  34.021  1.00  0.00     0.040 A 
ATOM     81  C   UNL A   1      44.954  23.811  34.834  1.00  0.00     0.040 A 
ATOM     82  F   UNL A   1      43.015  24.766  34.037  1.00  0.00    -0.206 F 
ATOM     83  C   UNL A   1      46.330  23.671  34.846  1.00  0.00     0.006 A 
ENDBRANCH  59  76
ENDBRANCH  33  34
ENDBRANCH  25  28
ENDBRANCH  23  24
ENDBRANCH  22  23
ENDBRANCH  21  22
ENDBRANCH   1  21
TORSDOF 15
ENDMDL
MODEL 2
REMARK VINA RESULT:     -11.6      1.385      2.395
REMARK SMILES Cc1cc(OCC(C)(C)C(=O)NCCCCNC(=O)c2ccc(-c3c4nc(c(-c5c(F)cccc5F)c5ccc([nH]5)c(-c5c(F)cccc5F)c5nc(c(-c6c(F)cccc6F)c6ccc3[nH]6)C=C5)C=C4)cc2)cc(C(C)C)c1
REMARK SMILES IDX 13 1 12 2 10 3 11 4 7 6 8 7 9 8 6 9 5 10 4 11 1 12 2 13 3 14
REMARK SMILES IDX 79 15 75 16 74 17 76 18 77 19 78 20 14 21 15 22 16 23 17 24
REMARK SMILES IDX 18 25 19 27 20 28 21 29 73 30 22 31 72 32 23 33 24 34 25 35
REMARK SMILES IDX 66 36 26 37 71 38 65 39 67 40 27 41 70 42 64 43 63 44 28 46
REMARK SMILES IDX 54 47 37 48 53 49 38 50 41 51 52 52 68 53 39 54 40 55 51 57
REMARK SMILES IDX 69 58 42 59 29 60 30 61 35 62 31 63 32 64 34 65 36 66 33 67
REMARK SMILES IDX 55 68 56 69 61 70 57 71 58 72 60 73 62 74 59 75 43 76 44 77
REMARK SMILES IDX 49 78 45 79 46 80 48 81 50 82 47 83
REMARK H PARENT 12 5 17 26 67 45 41 56
REMARK Flexibility Score: inf
ROOT
ATOM      1  C   UNL A   1      32.251  27.088  26.517  1.00  0.00     0.116 C 
ENDROOT
BRANCH   1   2
ATOM      2  N   UNL A   1      31.426  25.962  26.932  1.00  0.00    -0.356 N 
ATOM      3  C   UNL A   1      31.456  24.628  26.617  1.00  0.00     0.229 C 
ATOM      4  O   UNL A   1      30.590  23.926  27.146  1.00  0.00    -0.274 OA
ATOM      5  H   UNL A   1      30.708  26.206  27.559  1.00  0.00     0.163 HD
BRANCH   3   6
ATOM      6  C   UNL A   1      32.478  24.052  25.622  1.00  0.00     0.077 C 
ATOM      7  C   UNL A   1      32.662  22.554  25.866  1.00  0.00     0.025 C 
ATOM      8  C   UNL A   1      33.813  24.805  25.804  1.00  0.00     0.025 C 
BRANCH   6   9
ATOM      9  C   UNL A   1      32.053  24.323  24.129  1.00  0.00     0.245 C 
BRANCH   9  10
ATOM     10  O   UNL A   1      30.886  25.112  23.874  1.00  0.00    -0.492 OA
BRANCH  10  11
ATOM     11  C   UNL A   1      30.965  26.351  23.307  1.00  0.00     0.119 A 
ATOM     12  C   UNL A   1      33.913  28.579  22.431  1.00  0.00     0.044 C 
ATOM     13  C   UNL A   1      32.514  28.128  22.724  1.00  0.00    -0.047 A 
ATOM     14  C   UNL A   1      32.264  26.794  23.061  1.00  0.00     0.049 A 
ATOM     15  C   UNL A   1      31.446  29.033  22.713  1.00  0.00     0.007 A 
ATOM     16  C   UNL A   1      30.127  28.595  22.915  1.00  0.00    -0.042 A 
ATOM     17  C   UNL A   1      29.900  27.220  23.077  1.00  0.00     0.050 A 
BRANCH  16  18
ATOM     18  C   UNL A   1      29.030  29.631  23.126  1.00  0.00     0.013 C 
ATOM     19  C   UNL A   1      29.143  30.870  22.236  1.00  0.00     0.012 C 
ATOM     20  C   UNL A   1      27.644  28.987  22.944  1.00  0.00     0.012 C 
ENDBRANCH  16  18
ENDBRANCH  10  11
ENDBRANCH   9  10
ENDBRANCH   6   9
ENDBRANCH   3   6
ENDBRANCH   1   2
BRANCH   1  21
ATOM     21  C   UNL A   1      31.489  28.408  26.410  1.00  0.00     0.023 C 
BRANCH  21  22
ATOM     22  C   UNL A   1      32.037  29.555  27.250  1.00  0.00     0.023 C 
BRANCH  22  23
ATOM     23  C   UNL A   1      33.240  30.246  26.633  1.00  0.00     0.116 C 
BRANCH  23  24
ATOM     24  N   UNL A   1      33.806  31.327  27.417  1.00  0.00    -0.352 N 
ATOM     25  C   UNL A   1      34.841  31.323  28.342  1.00  0.00     0.251 C 
ATOM     26  H   UNL A   1      33.389  32.206  27.269  1.00  0.00     0.163 HD
ATOM     27  O   UNL A   1      35.037  32.330  28.998  1.00  0.00    -0.269 OA
BRANCH  25  28
ATOM     28  C   UNL A   1      35.813  30.189  28.430  1.00  0.00     0.039 A 
ATOM     29  C   UNL A   1      36.032  29.611  29.694  1.00  0.00     0.014 A 
ATOM     30  C   UNL A   1      36.673  29.864  27.391  1.00  0.00     0.014 A 
ATOM     31  C   UNL A   1      37.235  28.961  29.964  1.00  0.00     0.010 A 
ATOM     32  C   UNL A   1      37.918  29.373  27.684  1.00  0.00     0.010 A 
ATOM     33  C   UNL A   1      38.216  28.969  28.983  1.00  0.00    -0.014 A 
BRANCH  33  34
ATOM     34  C   UNL A   1      39.610  28.623  29.173  1.00  0.00     0.031 A 
ATOM     35  C   UNL A   1      40.083  27.294  28.748  1.00  0.00     0.074 A 
ATOM     36  C   UNL A   1      40.469  29.626  29.458  1.00  0.00     0.049 A 
ATOM     37  N   UNL A   1      41.230  26.806  29.060  1.00  0.00    -0.248 NA
ATOM     38  C   UNL A   1      39.280  26.389  27.930  1.00  0.00     0.031 C 
ATOM     39  C   UNL A   1      41.914  29.648  29.265  1.00  0.00     0.029 A 
ATOM     40  N   UNL A   1      40.197  30.808  30.161  1.00  0.00    -0.354 N 
ATOM     41  C   UNL A   1      41.436  25.687  28.285  1.00  0.00     0.074 A 
ATOM     42  C   UNL A   1      40.173  25.439  27.636  1.00  0.00     0.031 C 
ATOM     43  C   UNL A   1      42.444  30.595  30.057  1.00  0.00     0.029 A 
ATOM     44  C   UNL A   1      41.369  31.092  30.898  1.00  0.00     0.049 A 
ATOM     45  H   UNL A   1      39.363  31.331  30.145  1.00  0.00     0.167 HD
ATOM     46  C   UNL A   1      42.697  25.181  28.193  1.00  0.00     0.037 A 
ATOM     47  C   UNL A   1      41.363  31.032  32.263  1.00  0.00     0.037 A 
ATOM     48  C   UNL A   1      43.616  25.951  29.027  1.00  0.00     0.049 A 
ATOM     49  C   UNL A   1      42.308  29.991  32.819  1.00  0.00     0.074 A 
ATOM     50  C   UNL A   1      44.466  27.008  28.748  1.00  0.00     0.029 A 
ATOM     51  N   UNL A   1      43.474  25.909  30.407  1.00  0.00    -0.354 N 
ATOM     52  N   UNL A   1      42.732  28.958  32.143  1.00  0.00    -0.248 NA
ATOM     53  C   UNL A   1      42.869  30.042  34.165  1.00  0.00     0.031 C 
ATOM     54  C   UNL A   1      44.799  27.637  29.974  1.00  0.00     0.029 A 
ATOM     55  C   UNL A   1      44.169  26.946  30.995  1.00  0.00     0.049 A 
ATOM     56  H   UNL A   1      42.950  25.235  30.898  1.00  0.00     0.167 HD
ATOM     57  C   UNL A   1      43.600  28.226  32.914  1.00  0.00     0.074 A 
ATOM     58  C   UNL A   1      43.656  28.951  34.169  1.00  0.00     0.031 C 
ATOM     59  C   UNL A   1      44.199  27.091  32.442  1.00  0.00     0.037 A 
BRANCH  46  60
ATOM     60  C   UNL A   1      43.152  24.175  27.166  1.00  0.00     0.057 A 
ATOM     61  C   UNL A   1      43.630  24.598  25.909  1.00  0.00     0.134 A 
ATOM     62  C   UNL A   1      43.129  22.780  27.337  1.00  0.00     0.134 A 
ATOM     63  F   UNL A   1      43.791  25.894  25.613  1.00  0.00    -0.206 F 
ATOM     64  C   UNL A   1      43.970  23.710  24.879  1.00  0.00     0.040 A 
ATOM     65  C   UNL A   1      43.420  21.880  26.301  1.00  0.00     0.040 A 
ATOM     66  F   UNL A   1      42.882  22.222  28.528  1.00  0.00    -0.206 F 
ATOM     67  C   UNL A   1      43.835  22.344  25.062  1.00  0.00     0.006 A 
ENDBRANCH  46  60
BRANCH  47  68
ATOM     68  C   UNL A   1      40.046  31.419  32.839  1.00  0.00     0.057 A 
ATOM     69  C   UNL A   1      39.188  30.386  33.264  1.00  0.00     0.134 A 
ATOM     70  C   UNL A   1      39.833  32.687  33.391  1.00  0.00     0.134 A 
ATOM     71  F   UNL A   1      39.335  29.146  32.769  1.00  0.00    -0.206 F 
ATOM     72  C   UNL A   1      38.267  30.568  34.299  1.00  0.00     0.040 A 
ATOM     73  C   UNL A   1      38.900  32.883  34.418  1.00  0.00     0.040 A 
ATOM     74  F   UNL A   1      40.617  33.720  33.051  1.00  0.00    -0.206 F 
ATOM     75  C   UNL A   1      38.152  31.813  34.909  1.00  0.00     0.006 A 
ENDBRANCH  47  68
BRANCH  59  76
ATOM     76  C   UNL A   1      44.941  26.042  33.244  1.00  0.00     0.057 A 
ATOM     77  C   UNL A   1      44.329  25.089  34.069  1.00  0.00     0.134 A 
ATOM     78  C   UNL A   1      46.337  25.857  33.064  1.00  0.00     0.134 A 
ATOM     79  F   UNL A   1      43.004  25.065  34.257  1.00  0.00    -0.206 F 
ATOM     80  C   UNL A   1      45.048  24.062  34.699  1.00  0.00     0.040 A 
ATOM     81  C   UNL A   1      47.051  24.800  33.634  1.00  0.00     0.040 A 
ATOM     82  F   UNL A   1      47.072  26.676  32.299  1.00  0.00    -0.206 F 
ATOM     83  C   UNL A   1      46.408  23.903  34.469  1.00  0.00     0.006 A 
ENDBRANCH  59  76
ENDBRANCH  33  34
ENDBRANCH  25  28
ENDBRANCH  23  24
ENDBRANCH  22  23
ENDBRANCH  21  22
ENDBRANCH   1  21
TORSDOF 15
ENDMDL
MODEL 3
REMARK VINA RESULT:     -11.6      2.151      4.326
REMARK SMILES Cc1cc(OCC(C)(C)C(=O)NCCCCNC(=O)c2ccc(-c3c4nc(c(-c5c(F)cccc5F)c5ccc([nH]5)c(-c5c(F)cccc5F)c5nc(c(-c6c(F)cccc6F)c6ccc3[nH]6)C=C5)C=C4)cc2)cc(C(C)C)c1
REMARK SMILES IDX 13 1 12 2 10 3 11 4 7 6 8 7 9 8 6 9 5 10 4 11 1 12 2 13 3 14
REMARK SMILES IDX 79 15 75 16 74 17 76 18 77 19 78 20 14 21 15 22 16 23 17 24
REMARK SMILES IDX 18 25 19 27 20 28 21 29 73 30 22 31 72 32 23 33 24 34 25 35
REMARK SMILES IDX 66 36 26 37 71 38 65 39 67 40 27 41 70 42 64 43 63 44 28 46
REMARK SMILES IDX 54 47 37 48 53 49 38 50 41 51 52 52 68 53 39 54 40 55 51 57
REMARK SMILES IDX 69 58 42 59 29 60 30 61 35 62 31 63 32 64 34 65 36 66 33 67
REMARK SMILES IDX 55 68 56 69 61 70 57 71 58 72 60 73 62 74 59 75 43 76 44 77
REMARK SMILES IDX 49 78 45 79 46 80 48 81 50 82 47 83
REMARK H PARENT 12 5 17 26 67 45 41 56
REMARK Flexibility Score: inf
ROOT
ATOM      1  C   UNL A   1      32.370  28.217  26.804  1.00  0.00     0.116 C 
ENDROOT
BRANCH   1   2
ATOM      2  N   UNL A   1      31.465  27.086  26.964  1.00  0.00    -0.356 N 
ATOM      3  C   UNL A   1      30.836  26.271  26.059  1.00  0.00     0.229 C 
ATOM      4  O   UNL A   1      30.112  25.392  26.534  1.00  0.00    -0.274 OA
ATOM      5  H   UNL A   1      31.268  26.866  27.902  1.00  0.00     0.163 HD
BRANCH   3   6
ATOM      6  C   UNL A   1      30.983  26.477  24.541  1.00  0.00     0.077 C 
ATOM      7  C   UNL A   1      30.554  27.893  24.159  1.00  0.00     0.025 C 
ATOM      8  C   UNL A   1      30.111  25.427  23.821  1.00  0.00     0.025 C 
BRANCH   6   9
ATOM      9  C   UNL A   1      32.454  26.192  24.055  1.00  0.00     0.245 C 
BRANCH   9  10
ATOM     10  O   UNL A   1      33.428  25.759  25.012  1.00  0.00    -0.492 OA
BRANCH  10  11
ATOM     11  C   UNL A   1      33.809  24.452  25.110  1.00  0.00     0.119 A 
ATOM     12  C   UNL A   1      37.215  22.775  25.100  1.00  0.00     0.044 C 
ATOM     13  C   UNL A   1      35.733  22.974  25.008  1.00  0.00    -0.047 A 
ATOM     14  C   UNL A   1      35.188  24.253  25.162  1.00  0.00     0.049 A 
ATOM     15  C   UNL A   1      34.876  21.905  24.724  1.00  0.00     0.007 A 
ATOM     16  C   UNL A   1      33.483  22.080  24.711  1.00  0.00    -0.042 A 
ATOM     17  C   UNL A   1      32.969  23.343  25.043  1.00  0.00     0.050 A 
BRANCH  16  18
ATOM     18  C   UNL A   1      32.603  20.959  24.173  1.00  0.00     0.013 C 
ATOM     19  C   UNL A   1      32.112  21.167  22.740  1.00  0.00     0.012 C 
ATOM     20  C   UNL A   1      33.332  19.608  24.280  1.00  0.00     0.012 C 
ENDBRANCH  16  18
ENDBRANCH  10  11
ENDBRANCH   9  10
ENDBRANCH   6   9
ENDBRANCH   3   6
ENDBRANCH   1   2
BRANCH   1  21
ATOM     21  C   UNL A   1      31.746  29.566  27.158  1.00  0.00     0.023 C 
BRANCH  21  22
ATOM     22  C   UNL A   1      32.670  30.771  27.041  1.00  0.00     0.023 C 
BRANCH  22  23
ATOM     23  C   UNL A   1      34.142  30.431  27.195  1.00  0.00     0.116 C 
BRANCH  23  24
ATOM     24  N   UNL A   1      34.952  31.455  27.827  1.00  0.00    -0.352 N 
ATOM     25  C   UNL A   1      36.126  31.348  28.560  1.00  0.00     0.251 C 
ATOM     26  H   UNL A   1      34.617  32.373  27.717  1.00  0.00     0.163 HD
ATOM     27  O   UNL A   1      36.545  32.339  29.132  1.00  0.00    -0.269 OA
BRANCH  25  28
ATOM     28  C   UNL A   1      36.966  30.110  28.526  1.00  0.00     0.039 A 
ATOM     29  C   UNL A   1      36.954  29.280  29.661  1.00  0.00     0.014 A 
ATOM     30  C   UNL A   1      37.927  29.891  27.550  1.00  0.00     0.014 A 
ATOM     31  C   UNL A   1      38.042  28.450  29.930  1.00  0.00     0.010 A 
ATOM     32  C   UNL A   1      39.068  29.207  27.879  1.00  0.00     0.010 A 
ATOM     33  C   UNL A   1      39.145  28.529  29.093  1.00  0.00    -0.014 A 
BRANCH  33  34
ATOM     34  C   UNL A   1      40.461  27.989  29.369  1.00  0.00     0.031 A 
ATOM     35  C   UNL A   1      40.850  26.704  28.762  1.00  0.00     0.074 A 
ATOM     36  C   UNL A   1      41.372  28.818  29.925  1.00  0.00     0.049 A 
ATOM     37  N   UNL A   1      41.892  26.034  29.104  1.00  0.00    -0.248 NA
ATOM     38  C   UNL A   1      40.073  26.055  27.709  1.00  0.00     0.031 C 
ATOM     39  C   UNL A   1      42.825  28.696  29.899  1.00  0.00     0.029 A 
ATOM     40  N   UNL A   1      41.130  29.888  30.797  1.00  0.00    -0.354 N 
ATOM     41  C   UNL A   1      42.084  25.046  28.165  1.00  0.00     0.074 A 
ATOM     42  C   UNL A   1      40.897  25.067  27.346  1.00  0.00     0.031 C 
ATOM     43  C   UNL A   1      43.339  29.424  30.905  1.00  0.00     0.029 A 
ATOM     44  C   UNL A   1      42.219  29.898  31.699  1.00  0.00     0.049 A 
ATOM     45  H   UNL A   1      40.362  30.503  30.786  1.00  0.00     0.167 HD
ATOM     46  C   UNL A   1      43.289  24.413  28.122  1.00  0.00     0.037 A 
ATOM     47  C   UNL A   1      42.030  29.609  33.020  1.00  0.00     0.037 A 
ATOM     48  C   UNL A   1      44.164  24.913  29.178  1.00  0.00     0.049 A 
ATOM     49  C   UNL A   1      42.786  28.382  33.477  1.00  0.00     0.074 A 
ATOM     50  C   UNL A   1      45.145  25.891  29.192  1.00  0.00     0.029 A 
ATOM     51  N   UNL A   1      43.840  24.656  30.503  1.00  0.00    -0.354 N 
ATOM     52  N   UNL A   1      43.188  27.435  32.674  1.00  0.00    -0.248 NA
ATOM     53  C   UNL A   1      43.170  28.135  34.864  1.00  0.00     0.031 C 
ATOM     54  C   UNL A   1      45.377  26.259  30.541  1.00  0.00     0.029 A 
ATOM     55  C   UNL A   1      44.554  25.487  31.343  1.00  0.00     0.049 A 
ATOM     56  H   UNL A   1      43.192  23.977  30.802  1.00  0.00     0.167 HD
ATOM     57  C   UNL A   1      43.872  26.483  33.390  1.00  0.00     0.074 A 
ATOM     58  C   UNL A   1      43.837  26.972  34.754  1.00  0.00     0.031 C 
ATOM     59  C   UNL A   1      44.410  25.379  32.787  1.00  0.00     0.037 A 
BRANCH  46  60
ATOM     60  C   UNL A   1      43.770  23.548  26.984  1.00  0.00     0.057 A 
ATOM     61  C   UNL A   1      44.609  24.079  25.982  1.00  0.00     0.134 A 
ATOM     62  C   UNL A   1      43.434  22.195  26.800  1.00  0.00     0.134 A 
ATOM     63  F   UNL A   1      45.087  25.328  26.049  1.00  0.00    -0.206 F 
ATOM     64  C   UNL A   1      45.004  23.354  24.850  1.00  0.00     0.040 A 
ATOM     65  C   UNL A   1      43.782  21.472  25.649  1.00  0.00     0.040 A 
ATOM     66  F   UNL A   1      42.804  21.493  27.750  1.00  0.00    -0.206 F 
ATOM     67  C   UNL A   1      44.565  22.054  24.663  1.00  0.00     0.006 A 
ENDBRANCH  46  60
BRANCH  47  68
ATOM     68  C   UNL A   1      40.695  30.050  33.509  1.00  0.00     0.057 A 
ATOM     69  C   UNL A   1      40.509  31.424  33.754  1.00  0.00     0.134 A 
ATOM     70  C   UNL A   1      39.545  29.284  33.289  1.00  0.00     0.134 A 
ATOM     71  F   UNL A   1      41.571  32.215  33.979  1.00  0.00    -0.206 F 
ATOM     72  C   UNL A   1      39.258  32.034  33.632  1.00  0.00     0.040 A 
ATOM     73  C   UNL A   1      38.284  29.885  33.182  1.00  0.00     0.040 A 
ATOM     74  F   UNL A   1      39.638  27.972  33.033  1.00  0.00    -0.206 F 
ATOM     75  C   UNL A   1      38.146  31.268  33.302  1.00  0.00     0.006 A 
ENDBRANCH  47  68
BRANCH  59  76
ATOM     76  C   UNL A   1      44.933  24.127  33.461  1.00  0.00     0.057 A 
ATOM     77  C   UNL A   1      46.280  23.891  33.767  1.00  0.00     0.134 A 
ATOM     78  C   UNL A   1      44.031  23.166  33.985  1.00  0.00     0.134 A 
ATOM     79  F   UNL A   1      47.243  24.757  33.431  1.00  0.00    -0.206 F 
ATOM     80  C   UNL A   1      46.702  22.770  34.497  1.00  0.00     0.040 A 
ATOM     81  C   UNL A   1      44.435  22.082  34.769  1.00  0.00     0.040 A 
ATOM     82  F   UNL A   1      42.707  23.249  33.791  1.00  0.00    -0.206 F 
ATOM     83  C   UNL A   1      45.779  21.871  35.017  1.00  0.00     0.006 A 
ENDBRANCH  59  76
ENDBRANCH  33  34
ENDBRANCH  25  28
ENDBRANCH  23  24
ENDBRANCH  22  23
ENDBRANCH  21  22
ENDBRANCH   1  21
TORSDOF 15
ENDMDL
