MODEL 1
REMARK VINA RESULT:     -11.5      0.000      0.000
REMARK SMILES CNC(=O)NC1=[NH+]N=CN[C@@H]1C(=O)NCCCCNC(=O)c1ccc(-c2c3nc(c(-c4c(F)cccc4F)c4ccc([nH]4)c(-c4c(F)cccc4F)c4nc(c(-c5c(F)cccc5F)c5ccc2[nH]5)C=C4)C=C3)cc1
REMARK SMILES IDX 17 1 16 2 15 3 14 4 12 5 13 6 11 8 1 9 2 10 3 11 4 13 5 14
REMARK SMILES IDX 6 15 7 17 8 18 10 20 9 21 18 23 19 24 20 25 21 27 22 28
REMARK SMILES IDX 23 29 75 30 24 31 74 32 25 33 26 34 27 35 68 36 28 37 73 38
REMARK SMILES IDX 67 39 69 40 29 41 72 42 66 43 65 44 30 46 56 47 39 48 55 49
REMARK SMILES IDX 40 50 43 51 54 52 70 53 41 54 42 55 53 57 71 58 44 59 31 60
REMARK SMILES IDX 32 61 37 62 33 63 34 64 36 65 38 66 35 67 57 68 58 69 63 70
REMARK SMILES IDX 59 71 60 72 62 73 64 74 61 75 45 76 46 77 51 78 47 79 48 80
REMARK SMILES IDX 50 81 52 82 49 83
REMARK H PARENT 14 7 2 12 5 16 7 19 10 22 19 26 69 45 43 56
REMARK Flexibility Score: inf
ROOT
ATOM      1  C   UNL A   1      37.597  20.080  24.960  1.00  0.00     0.023 C 
ENDROOT
BRANCH   1   2
ATOM      2  C   UNL A   1      36.603  21.220  24.738  1.00  0.00     0.023 C 
BRANCH   2   3
ATOM      3  C   UNL A   1      35.140  20.837  24.960  1.00  0.00     0.116 C 
BRANCH   3   4
ATOM      4  N   UNL A   1      34.739  21.020  26.340  1.00  0.00    -0.354 N 
ATOM      5  C   UNL A   1      33.716  21.755  26.865  1.00  0.00     0.255 C 
ATOM      6  O   UNL A   1      33.655  21.822  28.099  1.00  0.00    -0.272 OA
ATOM      7  H   UNL A   1      35.290  20.542  27.000  1.00  0.00     0.163 HD
BRANCH   5   8
ATOM      8  C   UNL A   1      32.702  22.520  25.997  1.00  0.00     0.287 C 
ATOM      9  C   UNL A   1      33.393  24.211  23.128  1.00  0.00     0.147 C 
ATOM     10  N   UNL A   1      34.608  24.096  23.912  1.00  0.00    -0.321 N 
ATOM     11  C   UNL A   1      34.836  24.517  25.185  1.00  0.00     0.406 C 
ATOM     12  H   UNL A   1      35.367  23.657  23.464  1.00  0.00     0.167 HD
ATOM     13  O   UNL A   1      35.981  24.664  25.599  1.00  0.00    -0.221 OA
ATOM     14  N   UNL A   1      33.750  24.808  25.957  1.00  0.00    -0.191 N 
ATOM     15  C   UNL A   1      32.666  24.024  26.261  1.00  0.00     0.309 C 
ATOM     16  H   UNL A   1      33.744  25.708  26.355  1.00  0.00     0.317 HD
ATOM     17  N   UNL A   1      31.645  24.664  26.745  1.00  0.00    -0.148 N 
ATOM     18  N   UNL A   1      30.430  23.977  26.940  1.00  0.00    -0.077 NA
ATOM     19  H   UNL A   1      31.719  25.619  26.973  1.00  0.00     0.342 HD
ATOM     20  N   UNL A   1      31.369  21.954  26.131  1.00  0.00    -0.352 N 
ATOM     21  C   UNL A   1      30.364  22.732  26.602  1.00  0.00     0.241 C 
ATOM     22  H   UNL A   1      31.199  21.017  25.882  1.00  0.00     0.163 HD
ENDBRANCH   5   8
ENDBRANCH   3   4
ENDBRANCH   2   3
ENDBRANCH   1   2
BRANCH   1  23
ATOM     23  C   UNL A   1      38.874  20.468  25.694  1.00  0.00     0.116 C 
BRANCH  23  24
ATOM     24  N   UNL A   1      39.886  19.422  25.692  1.00  0.00    -0.352 N 
ATOM     25  C   UNL A   1      41.208  19.522  26.055  1.00  0.00     0.251 C 
ATOM     26  H   UNL A   1      39.585  18.533  25.395  1.00  0.00     0.163 HD
ATOM     27  O   UNL A   1      41.975  18.577  25.906  1.00  0.00    -0.269 OA
BRANCH  25  28
ATOM     28  C   UNL A   1      41.703  20.806  26.588  1.00  0.00     0.039 A 
ATOM     29  C   UNL A   1      42.202  21.757  25.697  1.00  0.00     0.014 A 
ATOM     30  C   UNL A   1      41.613  21.085  27.954  1.00  0.00     0.014 A 
ATOM     31  C   UNL A   1      42.549  23.023  26.169  1.00  0.00     0.010 A 
ATOM     32  C   UNL A   1      41.893  22.368  28.411  1.00  0.00     0.010 A 
ATOM     33  C   UNL A   1      42.360  23.349  27.522  1.00  0.00    -0.014 A 
BRANCH  33  34
ATOM     34  C   UNL A   1      42.647  24.712  28.031  1.00  0.00     0.031 A 
ATOM     35  C   UNL A   1      44.043  25.082  28.441  1.00  0.00     0.074 A 
ATOM     36  C   UNL A   1      41.637  25.590  28.186  1.00  0.00     0.049 A 
ATOM     37  N   UNL A   1      44.480  26.194  28.976  1.00  0.00    -0.248 NA
ATOM     38  C   UNL A   1      45.081  24.055  28.255  1.00  0.00     0.031 C 
ATOM     39  C   UNL A   1      40.231  25.331  27.872  1.00  0.00     0.029 A 
ATOM     40  N   UNL A   1      41.640  26.879  28.658  1.00  0.00    -0.354 N 
ATOM     41  C   UNL A   1      45.837  25.996  29.198  1.00  0.00     0.074 A 
ATOM     42  C   UNL A   1      46.138  24.639  28.796  1.00  0.00     0.031 C 
ATOM     43  C   UNL A   1      39.510  26.433  28.140  1.00  0.00     0.029 A 
ATOM     44  C   UNL A   1      40.396  27.462  28.674  1.00  0.00     0.049 A 
ATOM     45  H   UNL A   1      42.456  27.341  28.957  1.00  0.00     0.167 HD
ATOM     46  C   UNL A   1      46.753  26.872  29.672  1.00  0.00     0.037 A 
ATOM     47  C   UNL A   1      40.015  28.688  29.080  1.00  0.00     0.037 A 
ATOM     48  C   UNL A   1      46.454  28.228  30.048  1.00  0.00     0.049 A 
ATOM     49  C   UNL A   1      41.052  29.644  29.599  1.00  0.00     0.074 A 
ATOM     50  C   UNL A   1      47.322  29.212  30.489  1.00  0.00     0.029 A 
ATOM     51  N   UNL A   1      45.187  28.790  30.026  1.00  0.00    -0.354 N 
ATOM     52  N   UNL A   1      42.342  29.466  29.744  1.00  0.00    -0.248 NA
ATOM     53  C   UNL A   1      40.580  30.976  30.006  1.00  0.00     0.031 C 
ATOM     54  C   UNL A   1      46.573  30.361  30.766  1.00  0.00     0.029 A 
ATOM     55  C   UNL A   1      45.246  30.105  30.458  1.00  0.00     0.049 A 
ATOM     56  H   UNL A   1      44.366  28.325  29.744  1.00  0.00     0.167 HD
ATOM     57  C   UNL A   1      42.841  30.667  30.230  1.00  0.00     0.074 A 
ATOM     58  C   UNL A   1      41.715  31.571  30.343  1.00  0.00     0.031 C 
ATOM     59  C   UNL A   1      44.116  30.993  30.554  1.00  0.00     0.037 A 
BRANCH  46  60
ATOM     60  C   UNL A   1      48.168  26.388  29.798  1.00  0.00     0.057 A 
ATOM     61  C   UNL A   1      49.090  26.534  28.753  1.00  0.00     0.134 A 
ATOM     62  C   UNL A   1      48.619  25.792  30.981  1.00  0.00     0.134 A 
ATOM     63  F   UNL A   1      48.716  27.084  27.588  1.00  0.00    -0.206 F 
ATOM     64  C   UNL A   1      50.404  26.078  28.870  1.00  0.00     0.040 A 
ATOM     65  C   UNL A   1      49.939  25.356  31.120  1.00  0.00     0.040 A 
ATOM     66  F   UNL A   1      47.790  25.626  32.022  1.00  0.00    -0.206 F 
ATOM     67  C   UNL A   1      50.833  25.493  30.059  1.00  0.00     0.006 A 
ENDBRANCH  46  60
BRANCH  47  68
ATOM     68  C   UNL A   1      38.591  29.094  28.986  1.00  0.00     0.057 A 
ATOM     69  C   UNL A   1      38.060  29.591  27.788  1.00  0.00     0.134 A 
ATOM     70  C   UNL A   1      37.729  29.008  30.085  1.00  0.00     0.134 A 
ATOM     71  F   UNL A   1      38.841  29.714  26.705  1.00  0.00    -0.206 F 
ATOM     72  C   UNL A   1      36.731  30.007  27.694  1.00  0.00     0.040 A 
ATOM     73  C   UNL A   1      36.392  29.399  29.999  1.00  0.00     0.040 A 
ATOM     74  F   UNL A   1      38.174  28.532  31.258  1.00  0.00    -0.206 F 
ATOM     75  C   UNL A   1      35.892  29.907  28.802  1.00  0.00     0.006 A 
ENDBRANCH  47  68
BRANCH  59  76
ATOM     76  C   UNL A   1      44.365  32.393  31.027  1.00  0.00     0.057 A 
ATOM     77  C   UNL A   1      44.347  32.728  32.386  1.00  0.00     0.134 A 
ATOM     78  C   UNL A   1      44.667  33.410  30.112  1.00  0.00     0.134 A 
ATOM     79  F   UNL A   1      44.052  31.802  33.311  1.00  0.00    -0.206 F 
ATOM     80  C   UNL A   1      44.601  34.032  32.818  1.00  0.00     0.040 A 
ATOM     81  C   UNL A   1      44.946  34.710  30.533  1.00  0.00     0.040 A 
ATOM     82  F   UNL A   1      44.708  33.153  28.796  1.00  0.00    -0.206 F 
ATOM     83  C   UNL A   1      44.908  35.025  31.890  1.00  0.00     0.006 A 
ENDBRANCH  59  76
ENDBRANCH  33  34
ENDBRANCH  25  28
ENDBRANCH  23  24
ENDBRANCH   1  23
TORSDOF 11
ENDMDL
MODEL 2
REMARK VINA RESULT:     -11.5      1.299      1.772
REMARK SMILES CNC(=O)NC1=[NH+]N=CN[C@@H]1C(=O)NCCCCNC(=O)c1ccc(-c2c3nc(c(-c4c(F)cccc4F)c4ccc([nH]4)c(-c4c(F)cccc4F)c4nc(c(-c5c(F)cccc5F)c5ccc2[nH]5)C=C4)C=C3)cc1
REMARK SMILES IDX 17 1 16 2 15 3 14 4 12 5 13 6 11 8 1 9 2 10 3 11 4 13 5 14
REMARK SMILES IDX 6 15 7 17 8 18 10 20 9 21 18 23 19 24 20 25 21 27 22 28
REMARK SMILES IDX 23 29 75 30 24 31 74 32 25 33 26 34 27 35 68 36 28 37 73 38
REMARK SMILES IDX 67 39 69 40 29 41 72 42 66 43 65 44 30 46 56 47 39 48 55 49
REMARK SMILES IDX 40 50 43 51 54 52 70 53 41 54 42 55 53 57 71 58 44 59 31 60
REMARK SMILES IDX 32 61 37 62 33 63 34 64 36 65 38 66 35 67 57 68 58 69 63 70
REMARK SMILES IDX 59 71 60 72 62 73 64 74 61 75 45 76 46 77 51 78 47 79 48 80
REMARK SMILES IDX 50 81 52 82 49 83
REMARK H PARENT 14 7 2 12 5 16 7 19 10 22 19 26 69 45 43 56
REMARK Flexibility Score: inf
ROOT
ATOM      1  C   UNL A   1      37.647  19.877  24.984  1.00  0.00     0.023 C 
ENDROOT
BRANCH   1   2
ATOM      2  C   UNL A   1      36.693  21.040  24.706  1.00  0.00     0.023 C 
BRANCH   2   3
ATOM      3  C   UNL A   1      35.212  20.693  24.855  1.00  0.00     0.116 C 
BRANCH   3   4
ATOM      4  N   UNL A   1      34.771  20.803  26.232  1.00  0.00    -0.354 N 
ATOM      5  C   UNL A   1      33.747  21.529  26.768  1.00  0.00     0.255 C 
ATOM      6  O   UNL A   1      33.647  21.522  28.001  1.00  0.00    -0.272 OA
ATOM      7  H   UNL A   1      35.289  20.272  26.878  1.00  0.00     0.163 HD
BRANCH   5   8
ATOM      8  C   UNL A   1      32.779  22.369  25.917  1.00  0.00     0.287 C 
ATOM      9  C   UNL A   1      33.600  24.212  23.180  1.00  0.00     0.147 C 
ATOM     10  N   UNL A   1      34.786  24.021  23.992  1.00  0.00    -0.321 N 
ATOM     11  C   UNL A   1      34.982  24.359  25.295  1.00  0.00     0.406 C 
ATOM     12  H   UNL A   1      35.550  23.592  23.542  1.00  0.00     0.167 HD
ATOM     13  O   UNL A   1      36.116  24.453  25.752  1.00  0.00    -0.221 OA
ATOM     14  N   UNL A   1      33.878  24.628  26.049  1.00  0.00    -0.191 N 
ATOM     15  C   UNL A   1      32.768  23.854  26.271  1.00  0.00     0.309 C 
ATOM     16  H   UNL A   1      33.879  25.503  26.501  1.00  0.00     0.317 HD
ATOM     17  N   UNL A   1      31.746  24.488  26.761  1.00  0.00    -0.148 N 
ATOM     18  N   UNL A   1      30.511  23.820  26.876  1.00  0.00    -0.077 NA
ATOM     19  H   UNL A   1      31.834  25.425  27.049  1.00  0.00     0.342 HD
ATOM     20  N   UNL A   1      31.431  21.828  25.975  1.00  0.00    -0.352 N 
ATOM     21  C   UNL A   1      30.428  22.600  26.461  1.00  0.00     0.241 C 
ATOM     22  H   UNL A   1      31.248  20.912  25.664  1.00  0.00     0.163 HD
ENDBRANCH   5   8
ENDBRANCH   3   4
ENDBRANCH   2   3
ENDBRANCH   1   2
BRANCH   1  23
ATOM     23  C   UNL A   1      38.944  20.258  25.686  1.00  0.00     0.116 C 
BRANCH  23  24
ATOM     24  N   UNL A   1      39.901  19.165  25.769  1.00  0.00    -0.352 N 
ATOM     25  C   UNL A   1      41.243  19.235  26.059  1.00  0.00     0.251 C 
ATOM     26  H   UNL A   1      39.542  18.265  25.599  1.00  0.00     0.163 HD
ATOM     27  O   UNL A   1      41.954  18.239  25.995  1.00  0.00    -0.269 OA
BRANCH  25  28
ATOM     28  C   UNL A   1      41.827  20.545  26.405  1.00  0.00     0.039 A 
ATOM     29  C   UNL A   1      42.225  21.399  25.376  1.00  0.00     0.014 A 
ATOM     30  C   UNL A   1      41.920  20.945  27.741  1.00  0.00     0.014 A 
ATOM     31  C   UNL A   1      42.654  22.690  25.683  1.00  0.00     0.010 A 
ATOM     32  C   UNL A   1      42.281  22.255  28.040  1.00  0.00     0.010 A 
ATOM     33  C   UNL A   1      42.648  23.139  27.014  1.00  0.00    -0.014 A 
BRANCH  33  34
ATOM     34  C   UNL A   1      43.024  24.533  27.356  1.00  0.00     0.031 A 
ATOM     35  C   UNL A   1      44.464  24.956  27.303  1.00  0.00     0.074 A 
ATOM     36  C   UNL A   1      42.077  25.392  27.780  1.00  0.00     0.049 A 
ATOM     37  N   UNL A   1      45.000  26.103  27.633  1.00  0.00    -0.248 NA
ATOM     38  C   UNL A   1      45.433  23.947  26.846  1.00  0.00     0.031 C 
ATOM     39  C   UNL A   1      40.653  25.084  27.924  1.00  0.00     0.029 A 
ATOM     40  N   UNL A   1      42.175  26.702  28.177  1.00  0.00    -0.354 N 
ATOM     41  C   UNL A   1      46.366  25.949  27.435  1.00  0.00     0.074 A 
ATOM     42  C   UNL A   1      46.582  24.582  27.013  1.00  0.00     0.031 C 
ATOM     43  C   UNL A   1      40.007  26.179  28.357  1.00  0.00     0.029 A 
ATOM     44  C   UNL A   1      40.974  27.254  28.552  1.00  0.00     0.049 A 
ATOM     45  H   UNL A   1      43.025  27.198  28.193  1.00  0.00     0.167 HD
ATOM     46  C   UNL A   1      47.349  26.871  27.570  1.00  0.00     0.037 A 
ATOM     47  C   UNL A   1      40.689  28.489  29.007  1.00  0.00     0.037 A 
ATOM     48  C   UNL A   1      47.128  28.235  27.965  1.00  0.00     0.049 A 
ATOM     49  C   UNL A   1      41.797  29.495  29.145  1.00  0.00     0.074 A 
ATOM     50  C   UNL A   1      48.050  29.261  28.080  1.00  0.00     0.029 A 
ATOM     51  N   UNL A   1      45.894  28.764  28.312  1.00  0.00    -0.354 N 
ATOM     52  N   UNL A   1      43.076  29.356  28.892  1.00  0.00    -0.248 NA
ATOM     53  C   UNL A   1      41.422  30.833  29.624  1.00  0.00     0.031 C 
ATOM     54  C   UNL A   1      47.379  30.403  28.528  1.00  0.00     0.029 A 
ATOM     55  C   UNL A   1      46.032  30.099  28.654  1.00  0.00     0.049 A 
ATOM     56  H   UNL A   1      45.045  28.266  28.315  1.00  0.00     0.167 HD
ATOM     57  C   UNL A   1      43.653  30.591  29.154  1.00  0.00     0.074 A 
ATOM     58  C   UNL A   1      42.582  31.472  29.573  1.00  0.00     0.031 C 
ATOM     59  C   UNL A   1      44.952  30.964  29.058  1.00  0.00     0.037 A 
BRANCH  46  60
ATOM     60  C   UNL A   1      48.752  26.428  27.273  1.00  0.00     0.057 A 
ATOM     61  C   UNL A   1      49.599  25.944  28.279  1.00  0.00     0.134 A 
ATOM     62  C   UNL A   1      49.254  26.465  25.966  1.00  0.00     0.134 A 
ATOM     63  F   UNL A   1      49.183  25.897  29.553  1.00  0.00    -0.206 F 
ATOM     64  C   UNL A   1      50.905  25.538  28.000  1.00  0.00     0.040 A 
ATOM     65  C   UNL A   1      50.549  26.036  25.671  1.00  0.00     0.040 A 
ATOM     66  F   UNL A   1      48.494  26.913  24.955  1.00  0.00    -0.206 F 
ATOM     67  C   UNL A   1      51.382  25.578  26.691  1.00  0.00     0.006 A 
ENDBRANCH  46  60
BRANCH  47  68
ATOM     68  C   UNL A   1      39.290  28.855  29.339  1.00  0.00     0.057 A 
ATOM     69  C   UNL A   1      38.453  29.448  28.385  1.00  0.00     0.134 A 
ATOM     70  C   UNL A   1      38.757  28.634  30.615  1.00  0.00     0.134 A 
ATOM     71  F   UNL A   1      38.912  29.703  27.152  1.00  0.00    -0.206 F 
ATOM     72  C   UNL A   1      37.146  29.828  28.693  1.00  0.00     0.040 A 
ATOM     73  C   UNL A   1      37.443  28.986  30.929  1.00  0.00     0.040 A 
ATOM     74  F   UNL A   1      39.504  28.060  31.570  1.00  0.00    -0.206 F 
ATOM     75  C   UNL A   1      36.637  29.592  29.969  1.00  0.00     0.006 A 
ENDBRANCH  47  68
BRANCH  59  76
ATOM     76  C   UNL A   1      45.281  32.391  29.376  1.00  0.00     0.057 A 
ATOM     77  C   UNL A   1      45.678  32.790  30.657  1.00  0.00     0.134 A 
ATOM     78  C   UNL A   1      45.237  33.371  28.375  1.00  0.00     0.134 A 
ATOM     79  F   UNL A   1      45.727  31.901  31.661  1.00  0.00    -0.206 F 
ATOM     80  C   UNL A   1      46.001  34.119  30.939  1.00  0.00     0.040 A 
ATOM     81  C   UNL A   1      45.581  34.697  28.639  1.00  0.00     0.040 A 
ATOM     82  F   UNL A   1      44.872  33.052  27.125  1.00  0.00    -0.206 F 
ATOM     83  C   UNL A   1      45.959  35.074  29.926  1.00  0.00     0.006 A 
ENDBRANCH  59  76
ENDBRANCH  33  34
ENDBRANCH  25  28
ENDBRANCH  23  24
ENDBRANCH   1  23
TORSDOF 11
ENDMDL
MODEL 3
REMARK VINA RESULT:     -11.4      0.441      6.488
REMARK SMILES CNC(=O)NC1=[NH+]N=CN[C@@H]1C(=O)NCCCCNC(=O)c1ccc(-c2c3nc(c(-c4c(F)cccc4F)c4ccc([nH]4)c(-c4c(F)cccc4F)c4nc(c(-c5c(F)cccc5F)c5ccc2[nH]5)C=C4)C=C3)cc1
REMARK SMILES IDX 17 1 16 2 15 3 14 4 12 5 13 6 11 8 1 9 2 10 3 11 4 13 5 14
REMARK SMILES IDX 6 15 7 17 8 18 10 20 9 21 18 23 19 24 20 25 21 27 22 28
REMARK SMILES IDX 23 29 75 30 24 31 74 32 25 33 26 34 27 35 68 36 28 37 73 38
REMARK SMILES IDX 67 39 69 40 29 41 72 42 66 43 65 44 30 46 56 47 39 48 55 49
REMARK SMILES IDX 40 50 43 51 54 52 70 53 41 54 42 55 53 57 71 58 44 59 31 60
REMARK SMILES IDX 32 61 37 62 33 63 34 64 36 65 38 66 35 67 57 68 58 69 63 70
REMARK SMILES IDX 59 71 60 72 62 73 64 74 61 75 45 76 46 77 51 78 47 79 48 80
REMARK SMILES IDX 50 81 52 82 49 83
REMARK H PARENT 14 7 2 12 5 16 7 19 10 22 19 26 69 45 43 56
REMARK Flexibility Score: inf
ROOT
ATOM      1  C   UNL A   1      37.415  20.929  24.671  1.00  0.00     0.023 C 
ENDROOT
BRANCH   1   2
ATOM      2  C   UNL A   1      36.270  19.945  24.915  1.00  0.00     0.023 C 
BRANCH   2   3
ATOM      3  C   UNL A   1      34.892  20.594  25.035  1.00  0.00     0.116 C 
BRANCH   3   4
ATOM      4  N   UNL A   1      34.542  20.863  26.416  1.00  0.00    -0.354 N 
ATOM      5  C   UNL A   1      33.585  21.688  26.932  1.00  0.00     0.255 C 
ATOM      6  O   UNL A   1      33.562  21.811  28.163  1.00  0.00    -0.272 OA
ATOM      7  H   UNL A   1      35.076  20.376  27.083  1.00  0.00     0.163 HD
BRANCH   5   8
ATOM      8  C   UNL A   1      32.604  22.485  26.055  1.00  0.00     0.287 C 
ATOM      9  C   UNL A   1      33.348  24.062  23.136  1.00  0.00     0.147 C 
ATOM     10  N   UNL A   1      34.565  23.902  23.908  1.00  0.00    -0.321 N 
ATOM     11  C   UNL A   1      34.831  24.342  25.167  1.00  0.00     0.406 C 
ATOM     12  H   UNL A   1      35.294  23.411  23.464  1.00  0.00     0.167 HD
ATOM     13  O   UNL A   1      35.988  24.437  25.564  1.00  0.00    -0.221 OA
ATOM     14  N   UNL A   1      33.773  24.710  25.944  1.00  0.00    -0.191 N 
ATOM     15  C   UNL A   1      32.652  23.994  26.280  1.00  0.00     0.309 C 
ATOM     16  H   UNL A   1      33.820  25.620  26.318  1.00  0.00     0.317 HD
ATOM     17  N   UNL A   1      31.673  24.701  26.759  1.00  0.00    -0.148 N 
ATOM     18  N   UNL A   1      30.425  24.086  26.985  1.00  0.00    -0.077 NA
ATOM     19  H   UNL A   1      31.801  25.656  26.961  1.00  0.00     0.342 HD
ATOM     20  N   UNL A   1      31.244  21.995  26.219  1.00  0.00    -0.352 N 
ATOM     21  C   UNL A   1      30.288  22.838  26.681  1.00  0.00     0.241 C 
ATOM     22  H   UNL A   1      31.020  21.063  25.997  1.00  0.00     0.163 HD
ENDBRANCH   5   8
ENDBRANCH   3   4
ENDBRANCH   2   3
ENDBRANCH   1   2
BRANCH   1  23
ATOM     23  C   UNL A   1      38.492  20.948  25.749  1.00  0.00     0.116 C 
BRANCH  23  24
ATOM     24  N   UNL A   1      39.414  19.826  25.668  1.00  0.00    -0.352 N 
ATOM     25  C   UNL A   1      40.749  19.801  25.997  1.00  0.00     0.251 C 
ATOM     26  H   UNL A   1      39.035  18.980  25.336  1.00  0.00     0.163 HD
ATOM     27  O   UNL A   1      41.432  18.806  25.782  1.00  0.00    -0.269 OA
BRANCH  25  28
ATOM     28  C   UNL A   1      41.359  21.012  26.578  1.00  0.00     0.039 A 
ATOM     29  C   UNL A   1      41.927  21.956  25.721  1.00  0.00     0.014 A 
ATOM     30  C   UNL A   1      41.312  21.235  27.956  1.00  0.00     0.014 A 
ATOM     31  C   UNL A   1      42.387  23.165  26.243  1.00  0.00     0.010 A 
ATOM     32  C   UNL A   1      41.707  22.468  28.464  1.00  0.00     0.010 A 
ATOM     33  C   UNL A   1      42.245  23.444  27.613  1.00  0.00    -0.014 A 
BRANCH  33  34
ATOM     34  C   UNL A   1      42.656  24.754  28.175  1.00  0.00     0.031 A 
ATOM     35  C   UNL A   1      41.629  25.824  28.412  1.00  0.00     0.074 A 
ATOM     36  C   UNL A   1      43.960  25.000  28.405  1.00  0.00     0.049 A 
ATOM     37  N   UNL A   1      41.797  27.053  28.827  1.00  0.00    -0.248 NA
ATOM     38  C   UNL A   1      40.230  25.475  28.116  1.00  0.00     0.031 C 
ATOM     39  C   UNL A   1      45.057  24.060  28.166  1.00  0.00     0.029 A 
ATOM     40  N   UNL A   1      44.585  26.124  28.885  1.00  0.00    -0.354 N 
ATOM     41  C   UNL A   1      40.532  27.626  28.830  1.00  0.00     0.074 A 
ATOM     42  C   UNL A   1      39.615  26.629  28.322  1.00  0.00     0.031 C 
ATOM     43  C   UNL A   1      46.217  24.638  28.519  1.00  0.00     0.029 A 
ATOM     44  C   UNL A   1      45.950  25.997  28.978  1.00  0.00     0.049 A 
ATOM     45  H   UNL A   1      44.101  26.943  29.138  1.00  0.00     0.167 HD
ATOM     46  C   UNL A   1      40.164  28.862  29.242  1.00  0.00     0.037 A 
ATOM     47  C   UNL A   1      46.880  26.882  29.383  1.00  0.00     0.037 A 
ATOM     48  C   UNL A   1      41.074  29.841  29.770  1.00  0.00     0.049 A 
ATOM     49  C   UNL A   1      46.445  28.247  29.839  1.00  0.00     0.074 A 
ATOM     50  C   UNL A   1      40.793  31.103  30.265  1.00  0.00     0.029 A 
ATOM     51  N   UNL A   1      42.446  29.667  29.872  1.00  0.00    -0.354 N 
ATOM     52  N   UNL A   1      45.238  28.753  29.897  1.00  0.00    -0.248 NA
ATOM     53  C   UNL A   1      47.503  29.162  30.291  1.00  0.00     0.031 C 
ATOM     54  C   UNL A   1      41.999  31.705  30.636  1.00  0.00     0.029 A 
ATOM     55  C   UNL A   1      43.028  30.803  30.410  1.00  0.00     0.049 A 
ATOM     56  H   UNL A   1      42.935  28.855  29.604  1.00  0.00     0.167 HD
ATOM     57  C   UNL A   1      45.385  30.032  30.418  1.00  0.00     0.074 A 
ATOM     58  C   UNL A   1      46.799  30.220  30.670  1.00  0.00     0.031 C 
ATOM     59  C   UNL A   1      44.436  30.968  30.664  1.00  0.00     0.037 A 
BRANCH  46  60
ATOM     60  C   UNL A   1      38.708  29.213  29.146  1.00  0.00     0.057 A 
ATOM     61  C   UNL A   1      37.859  29.143  30.259  1.00  0.00     0.134 A 
ATOM     62  C   UNL A   1      38.154  29.648  27.936  1.00  0.00     0.134 A 
ATOM     63  F   UNL A   1      38.326  28.720  31.443  1.00  0.00    -0.206 F 
ATOM     64  C   UNL A   1      36.505  29.465  30.166  1.00  0.00     0.040 A 
ATOM     65  C   UNL A   1      36.806  29.999  27.837  1.00  0.00     0.040 A 
ATOM     66  F   UNL A   1      38.911  29.743  26.833  1.00  0.00    -0.206 F 
ATOM     67  C   UNL A   1      35.976  29.901  28.952  1.00  0.00     0.006 A 
ENDBRANCH  46  60
BRANCH  47  68
ATOM     68  C   UNL A   1      48.314  26.499  29.404  1.00  0.00     0.057 A 
ATOM     69  C   UNL A   1      49.154  26.789  28.322  1.00  0.00     0.134 A 
ATOM     70  C   UNL A   1      48.877  25.826  30.495  1.00  0.00     0.134 A 
ATOM     71  F   UNL A   1      48.668  27.415  27.241  1.00  0.00    -0.206 F 
ATOM     72  C   UNL A   1      50.496  26.407  28.314  1.00  0.00     0.040 A 
ATOM     73  C   UNL A   1      50.223  25.458  30.511  1.00  0.00     0.040 A 
ATOM     74  F   UNL A   1      48.127  25.527  31.566  1.00  0.00    -0.206 F 
ATOM     75  C   UNL A   1      51.035  25.742  29.415  1.00  0.00     0.006 A 
ENDBRANCH  47  68
BRANCH  59  76
ATOM     76  C   UNL A   1      44.891  32.261  31.269  1.00  0.00     0.057 A 
ATOM     77  C   UNL A   1      45.250  33.359  30.478  1.00  0.00     0.134 A 
ATOM     78  C   UNL A   1      44.932  32.422  32.660  1.00  0.00     0.134 A 
ATOM     79  F   UNL A   1      45.245  33.265  29.140  1.00  0.00    -0.206 F 
ATOM     80  C   UNL A   1      45.655  34.567  31.051  1.00  0.00     0.040 A 
ATOM     81  C   UNL A   1      45.309  33.631  33.243  1.00  0.00     0.040 A 
ATOM     82  F   UNL A   1      44.592  31.410  33.473  1.00  0.00    -0.206 F 
ATOM     83  C   UNL A   1      45.678  34.707  32.437  1.00  0.00     0.006 A 
ENDBRANCH  59  76
ENDBRANCH  33  34
ENDBRANCH  25  28
ENDBRANCH  23  24
ENDBRANCH   1  23
TORSDOF 11
ENDMDL
