MODEL 1
REMARK VINA RESULT:     -12.0      0.000      0.000
REMARK SMILES O=C(NCCCCNC(=O)[C@H]1CCCC[C@H]1C(=O)Nc1ccc(Cl)cc1F)c1ccc(-c2c3nc(c(-c4c(F)cccc4F)c4ccc([nH]4)c(-c4c(F)cccc4F)c4nc(c(-c5c(F)cccc5F)c5ccc2[nH]5)C=C4)C=C3)cc1
REMARK SMILES IDX 5 1 4 2 3 3 1 4 2 5 28 7 29 8 81 9 30 10 80 11 31 12 32 13
REMARK SMILES IDX 33 14 74 15 34 16 79 17 73 18 75 19 35 20 78 21 72 22 71 23
REMARK SMILES IDX 36 25 62 26 45 27 61 28 46 29 49 30 60 31 76 32 47 33 48 34
REMARK SMILES IDX 59 36 77 37 50 38 37 39 38 40 43 41 39 42 40 43 42 44 44 45
REMARK SMILES IDX 41 46 63 47 64 48 69 49 65 50 66 51 68 52 70 53 67 54 51 55
REMARK SMILES IDX 52 56 57 57 53 58 54 59 56 60 58 61 55 62 6 63 7 64 8 65
REMARK SMILES IDX 9 66 10 68 11 69 12 70 16 71 13 72 15 73 14 74 17 75 18 76
REMARK SMILES IDX 19 77 20 79 21 80 26 81 22 82 25 83 27 84 23 85 24 86
REMARK H PARENT 3 6 75 24 49 35 8 67 19 78
REMARK Flexibility Score: inf
ROOT
ATOM      1  C   UNL A   1      32.394  28.100  27.231  1.00  0.00     0.023 C 
ENDROOT
BRANCH   1   2
ATOM      2  C   UNL A   1      33.790  28.707  27.176  1.00  0.00     0.116 C 
BRANCH   2   3
ATOM      3  N   UNL A   1      33.802  30.082  27.662  1.00  0.00    -0.352 N 
ATOM      4  O   UNL A   1      34.462  31.822  28.921  1.00  0.00    -0.269 OA
ATOM      5  C   UNL A   1      34.744  30.743  28.397  1.00  0.00     0.251 C 
ATOM      6  H   UNL A   1      33.010  30.617  27.423  1.00  0.00     0.163 HD
BRANCH   5   7
ATOM      7  C   UNL A   1      36.102  30.184  28.567  1.00  0.00     0.039 A 
ATOM      8  C   UNL A   1      37.037  30.253  27.530  1.00  0.00     0.014 A 
ATOM      9  C   UNL A   1      36.474  29.657  29.810  1.00  0.00     0.014 A 
ATOM     10  C   UNL A   1      38.306  29.709  27.700  1.00  0.00     0.010 A 
ATOM     11  C   UNL A   1      37.774  29.183  30.003  1.00  0.00     0.010 A 
ATOM     12  C   UNL A   1      38.698  29.202  28.948  1.00  0.00    -0.014 A 
BRANCH  12  13
ATOM     13  C   UNL A   1      40.116  28.823  29.167  1.00  0.00     0.031 A 
ATOM     14  C   UNL A   1      41.100  29.787  29.760  1.00  0.00     0.074 A 
ATOM     15  C   UNL A   1      40.509  27.587  28.795  1.00  0.00     0.049 A 
ATOM     16  N   UNL A   1      42.380  29.621  29.978  1.00  0.00    -0.248 NA
ATOM     17  C   UNL A   1      40.591  31.109  30.154  1.00  0.00     0.031 C 
ATOM     18  C   UNL A   1      39.640  26.576  28.185  1.00  0.00     0.029 A 
ATOM     19  N   UNL A   1      41.730  26.971  28.869  1.00  0.00    -0.354 N 
ATOM     20  C   UNL A   1      42.835  30.818  30.514  1.00  0.00     0.074 A 
ATOM     21  C   UNL A   1      41.696  31.711  30.578  1.00  0.00     0.031 C 
ATOM     22  C   UNL A   1      40.351  25.464  27.955  1.00  0.00     0.029 A 
ATOM     23  C   UNL A   1      41.736  25.702  28.340  1.00  0.00     0.049 A 
ATOM     24  H   UNL A   1      42.527  27.396  29.261  1.00  0.00     0.167 HD
ATOM     25  C   UNL A   1      44.089  31.136  30.914  1.00  0.00     0.037 A 
ATOM     26  C   UNL A   1      42.749  24.839  28.147  1.00  0.00     0.037 A 
ATOM     27  C   UNL A   1      45.209  30.230  30.866  1.00  0.00     0.049 A 
ATOM     28  C   UNL A   1      44.133  25.238  28.569  1.00  0.00     0.074 A 
ATOM     29  C   UNL A   1      46.497  30.431  31.333  1.00  0.00     0.029 A 
ATOM     30  N   UNL A   1      45.180  28.963  30.305  1.00  0.00    -0.354 N 
ATOM     31  N   UNL A   1      44.531  26.343  29.150  1.00  0.00    -0.248 NA
ATOM     32  C   UNL A   1      45.211  24.277  28.299  1.00  0.00     0.031 C 
ATOM     33  C   UNL A   1      47.262  29.310  30.998  1.00  0.00     0.029 A 
ATOM     34  C   UNL A   1      46.440  28.390  30.369  1.00  0.00     0.049 A 
ATOM     35  H   UNL A   1      44.383  28.534  29.918  1.00  0.00     0.167 HD
ATOM     36  C   UNL A   1      45.901  26.209  29.322  1.00  0.00     0.074 A 
ATOM     37  C   UNL A   1      46.262  24.903  28.810  1.00  0.00     0.031 C 
ATOM     38  C   UNL A   1      46.782  27.092  29.849  1.00  0.00     0.037 A 
BRANCH  25  39
ATOM     39  C   UNL A   1      44.341  32.523  31.426  1.00  0.00     0.057 A 
ATOM     40  C   UNL A   1      44.700  33.575  30.575  1.00  0.00     0.134 A 
ATOM     41  C   UNL A   1      44.120  32.830  32.776  1.00  0.00     0.134 A 
ATOM     42  F   UNL A   1      44.930  33.349  29.273  1.00  0.00    -0.206 F 
ATOM     43  C   UNL A   1      44.836  34.882  31.049  1.00  0.00     0.040 A 
ATOM     44  C   UNL A   1      44.234  34.134  33.257  1.00  0.00     0.040 A 
ATOM     45  F   UNL A   1      43.765  31.869  33.643  1.00  0.00    -0.206 F 
ATOM     46  C   UNL A   1      44.591  35.166  32.393  1.00  0.00     0.006 A 
ENDBRANCH  25  39
BRANCH  26  47
ATOM     47  C   UNL A   1      42.500  23.536  27.479  1.00  0.00     0.057 A 
ATOM     48  C   UNL A   1      42.182  22.390  28.215  1.00  0.00     0.134 A 
ATOM     49  C   UNL A   1      42.587  23.407  26.087  1.00  0.00     0.134 A 
ATOM     50  F   UNL A   1      42.101  22.446  29.552  1.00  0.00    -0.206 F 
ATOM     51  C   UNL A   1      41.981  21.156  27.592  1.00  0.00     0.040 A 
ATOM     52  C   UNL A   1      42.359  22.188  25.450  1.00  0.00     0.040 A 
ATOM     53  F   UNL A   1      42.881  24.470  25.324  1.00  0.00    -0.206 F 
ATOM     54  C   UNL A   1      42.065  21.055  26.205  1.00  0.00     0.006 A 
ENDBRANCH  26  47
BRANCH  38  55
ATOM     55  C   UNL A   1      48.220  26.670  29.901  1.00  0.00     0.057 A 
ATOM     56  C   UNL A   1      49.126  27.034  28.897  1.00  0.00     0.134 A 
ATOM     57  C   UNL A   1      48.711  25.931  30.984  1.00  0.00     0.134 A 
ATOM     58  F   UNL A   1      48.711  27.727  27.825  1.00  0.00    -0.206 F 
ATOM     59  C   UNL A   1      50.469  26.663  28.960  1.00  0.00     0.040 A 
ATOM     60  C   UNL A   1      50.058  25.577  31.070  1.00  0.00     0.040 A 
ATOM     61  F   UNL A   1      47.896  25.557  31.980  1.00  0.00    -0.206 F 
ATOM     62  C   UNL A   1      50.940  25.939  30.054  1.00  0.00     0.006 A 
ENDBRANCH  38  55
ENDBRANCH  12  13
ENDBRANCH   5   7
ENDBRANCH   2   3
ENDBRANCH   1   2
BRANCH   1  63
ATOM     63  C   UNL A   1      31.960  27.362  25.959  1.00  0.00     0.023 C 
BRANCH  63  64
ATOM     64  C   UNL A   1      30.779  26.399  26.127  1.00  0.00     0.116 C 
BRANCH  64  65
ATOM     65  N   UNL A   1      31.228  25.071  26.494  1.00  0.00    -0.356 N 
ATOM     66  C   UNL A   1      30.848  23.913  25.896  1.00  0.00     0.223 C 
ATOM     67  H   UNL A   1      31.864  25.002  27.244  1.00  0.00     0.163 HD
ATOM     68  O   UNL A   1      30.184  23.122  26.569  1.00  0.00    -0.275 OA
BRANCH  66  69
ATOM     69  C   UNL A   1      31.350  23.530  24.512  1.00  0.00     0.091 C 
ATOM     70  C   UNL A   1      30.685  24.192  23.294  1.00  0.00     0.014 C 
ATOM     71  C   UNL A   1      32.909  23.460  24.421  1.00  0.00     0.091 C 
ATOM     72  C   UNL A   1      31.453  25.378  22.729  1.00  0.00     0.001 C 
ATOM     73  C   UNL A   1      33.617  24.511  23.550  1.00  0.00     0.014 C 
ATOM     74  C   UNL A   1      32.840  24.920  22.313  1.00  0.00     0.001 C 
BRANCH  71  75
ATOM     75  C   UNL A   1      33.696  23.112  25.712  1.00  0.00     0.228 C 
ATOM     76  O   UNL A   1      33.989  24.028  26.492  1.00  0.00    -0.274 OA
ATOM     77  N   UNL A   1      33.959  21.836  26.142  1.00  0.00    -0.323 N 
ATOM     78  H   UNL A   1      34.238  21.772  27.084  1.00  0.00     0.170 HD
BRANCH  77  79
ATOM     79  C   UNL A   1      33.896  20.607  25.472  1.00  0.00     0.077 A 
ATOM     80  C   UNL A   1      35.075  20.035  24.988  1.00  0.00     0.031 A 
ATOM     81  C   UNL A   1      32.688  19.960  25.210  1.00  0.00     0.148 A 
ATOM     82  C   UNL A   1      35.045  18.757  24.416  1.00  0.00     0.023 A 
ATOM     83  C   UNL A   1      32.645  18.683  24.664  1.00  0.00     0.062 A 
ATOM     84  F   UNL A   1      31.531  20.613  25.351  1.00  0.00    -0.205 F 
ATOM     85  C   UNL A   1      33.835  18.071  24.292  1.00  0.00     0.044 A 
ATOM     86  Cl  UNL A   1      33.804  16.478  23.649  1.00  0.00    -0.084 Cl
ENDBRANCH  77  79
ENDBRANCH  71  75
ENDBRANCH  66  69
ENDBRANCH  64  65
ENDBRANCH  63  64
ENDBRANCH   1  63
TORSDOF 13
ENDMDL
MODEL 2
REMARK VINA RESULT:     -11.9      3.848      7.574
REMARK SMILES O=C(NCCCCNC(=O)[C@H]1CCCC[C@H]1C(=O)Nc1ccc(Cl)cc1F)c1ccc(-c2c3nc(c(-c4c(F)cccc4F)c4ccc([nH]4)c(-c4c(F)cccc4F)c4nc(c(-c5c(F)cccc5F)c5ccc2[nH]5)C=C4)C=C3)cc1
REMARK SMILES IDX 5 1 4 2 3 3 1 4 2 5 28 7 29 8 81 9 30 10 80 11 31 12 32 13
REMARK SMILES IDX 33 14 74 15 34 16 79 17 73 18 75 19 35 20 78 21 72 22 71 23
REMARK SMILES IDX 36 25 62 26 45 27 61 28 46 29 49 30 60 31 76 32 47 33 48 34
REMARK SMILES IDX 59 36 77 37 50 38 37 39 38 40 43 41 39 42 40 43 42 44 44 45
REMARK SMILES IDX 41 46 63 47 64 48 69 49 65 50 66 51 68 52 70 53 67 54 51 55
REMARK SMILES IDX 52 56 57 57 53 58 54 59 56 60 58 61 55 62 6 63 7 64 8 65
REMARK SMILES IDX 9 66 10 68 11 69 12 70 16 71 13 72 15 73 14 74 17 75 18 76
REMARK SMILES IDX 19 77 20 79 21 80 26 81 22 82 25 83 27 84 23 85 24 86
REMARK H PARENT 3 6 75 24 49 35 8 67 19 78
REMARK Flexibility Score: inf
ROOT
ATOM      1  C   UNL A   1      31.185  31.577  26.233  1.00  0.00     0.023 C 
ENDROOT
BRANCH   1   2
ATOM      2  C   UNL A   1      32.422  32.081  26.964  1.00  0.00     0.116 C 
BRANCH   2   3
ATOM      3  N   UNL A   1      32.348  33.513  27.231  1.00  0.00    -0.352 N 
ATOM      4  O   UNL A   1      32.629  35.414  28.396  1.00  0.00    -0.269 OA
ATOM      5  C   UNL A   1      33.011  34.266  28.158  1.00  0.00     0.251 C 
ATOM      6  H   UNL A   1      31.726  34.014  26.655  1.00  0.00     0.163 HD
BRANCH   5   7
ATOM      7  C   UNL A   1      34.183  33.725  28.877  1.00  0.00     0.039 A 
ATOM      8  C   UNL A   1      34.029  32.724  29.842  1.00  0.00     0.014 A 
ATOM      9  C   UNL A   1      35.465  34.163  28.523  1.00  0.00     0.014 A 
ATOM     10  C   UNL A   1      35.140  32.235  30.520  1.00  0.00     0.010 A 
ATOM     11  C   UNL A   1      36.586  33.613  29.151  1.00  0.00     0.010 A 
ATOM     12  C   UNL A   1      36.431  32.649  30.157  1.00  0.00    -0.014 A 
BRANCH  12  13
ATOM     13  C   UNL A   1      37.608  31.962  30.745  1.00  0.00     0.031 A 
ATOM     14  C   UNL A   1      38.359  30.910  29.984  1.00  0.00     0.074 A 
ATOM     15  C   UNL A   1      37.976  32.291  32.000  1.00  0.00     0.049 A 
ATOM     16  N   UNL A   1      39.382  30.191  30.373  1.00  0.00    -0.248 NA
ATOM     17  C   UNL A   1      37.906  30.618  28.616  1.00  0.00     0.031 C 
ATOM     18  C   UNL A   1      37.300  33.285  32.841  1.00  0.00     0.029 A 
ATOM     19  N   UNL A   1      38.997  31.831  32.788  1.00  0.00    -0.354 N 
ATOM     20  C   UNL A   1      39.684  29.350  29.310  1.00  0.00     0.074 A 
ATOM     21  C   UNL A   1      38.727  29.637  28.261  1.00  0.00     0.031 C 
ATOM     22  C   UNL A   1      37.934  33.369  34.019  1.00  0.00     0.029 A 
ATOM     23  C   UNL A   1      39.017  32.394  34.042  1.00  0.00     0.049 A 
ATOM     24  H   UNL A   1      39.653  31.162  32.487  1.00  0.00     0.167 HD
ATOM     25  C   UNL A   1      40.670  28.426  29.225  1.00  0.00     0.037 A 
ATOM     26  C   UNL A   1      39.793  32.130  35.108  1.00  0.00     0.037 A 
ATOM     27  C   UNL A   1      41.630  28.166  30.268  1.00  0.00     0.049 A 
ATOM     28  C   UNL A   1      40.853  31.074  34.991  1.00  0.00     0.074 A 
ATOM     29  C   UNL A   1      42.720  27.313  30.240  1.00  0.00     0.029 A 
ATOM     30  N   UNL A   1      41.604  28.741  31.529  1.00  0.00    -0.354 N 
ATOM     31  N   UNL A   1      41.178  30.346  33.951  1.00  0.00    -0.248 NA
ATOM     32  C   UNL A   1      41.646  30.794  36.195  1.00  0.00     0.031 C 
ATOM     33  C   UNL A   1      43.317  27.326  31.504  1.00  0.00     0.029 A 
ATOM     34  C   UNL A   1      42.630  28.224  32.304  1.00  0.00     0.049 A 
ATOM     35  H   UNL A   1      40.953  29.416  31.831  1.00  0.00     0.167 HD
ATOM     36  C   UNL A   1      42.216  29.527  34.371  1.00  0.00     0.074 A 
ATOM     37  C   UNL A   1      42.486  29.869  35.753  1.00  0.00     0.031 C 
ATOM     38  C   UNL A   1      42.880  28.571  33.679  1.00  0.00     0.037 A 
BRANCH  25  39
ATOM     39  C   UNL A   1      40.766  27.603  27.974  1.00  0.00     0.057 A 
ATOM     40  C   UNL A   1      41.532  28.009  26.876  1.00  0.00     0.134 A 
ATOM     41  C   UNL A   1      40.166  26.338  27.912  1.00  0.00     0.134 A 
ATOM     42  F   UNL A   1      42.130  29.211  26.869  1.00  0.00    -0.206 F 
ATOM     43  C   UNL A   1      41.693  27.190  25.756  1.00  0.00     0.040 A 
ATOM     44  C   UNL A   1      40.336  25.502  26.808  1.00  0.00     0.040 A 
ATOM     45  F   UNL A   1      39.427  25.884  28.936  1.00  0.00    -0.206 F 
ATOM     46  C   UNL A   1      41.103  25.927  25.725  1.00  0.00     0.006 A 
ENDBRANCH  25  39
BRANCH  26  47
ATOM     47  C   UNL A   1      39.563  32.842  36.391  1.00  0.00     0.057 A 
ATOM     48  C   UNL A   1      38.609  32.394  37.311  1.00  0.00     0.134 A 
ATOM     49  C   UNL A   1      40.284  33.997  36.719  1.00  0.00     0.134 A 
ATOM     50  F   UNL A   1      37.874  31.305  37.046  1.00  0.00    -0.206 F 
ATOM     51  C   UNL A   1      38.366  33.082  38.502  1.00  0.00     0.040 A 
ATOM     52  C   UNL A   1      40.073  34.676  37.918  1.00  0.00     0.040 A 
ATOM     53  F   UNL A   1      41.217  34.474  35.882  1.00  0.00    -0.206 F 
ATOM     54  C   UNL A   1      39.104  34.224  38.810  1.00  0.00     0.006 A 
ENDBRANCH  26  47
BRANCH  38  55
ATOM     55  C   UNL A   1      43.965  27.834  34.404  1.00  0.00     0.057 A 
ATOM     56  C   UNL A   1      43.720  26.608  35.037  1.00  0.00     0.134 A 
ATOM     57  C   UNL A   1      45.273  28.331  34.435  1.00  0.00     0.134 A 
ATOM     58  F   UNL A   1      42.482  26.089  35.057  1.00  0.00    -0.206 F 
ATOM     59  C   UNL A   1      44.736  25.910  35.689  1.00  0.00     0.040 A 
ATOM     60  C   UNL A   1      46.303  27.629  35.062  1.00  0.00     0.040 A 
ATOM     61  F   UNL A   1      45.574  29.495  33.843  1.00  0.00    -0.206 F 
ATOM     62  C   UNL A   1      46.035  26.417  35.695  1.00  0.00     0.006 A 
ENDBRANCH  38  55
ENDBRANCH  12  13
ENDBRANCH   5   7
ENDBRANCH   2   3
ENDBRANCH   1   2
BRANCH   1  63
ATOM     63  C   UNL A   1      31.318  30.174  25.630  1.00  0.00     0.023 C 
BRANCH  63  64
ATOM     64  C   UNL A   1      30.919  30.050  24.155  1.00  0.00     0.116 C 
BRANCH  64  65
ATOM     65  N   UNL A   1      30.462  28.711  23.841  1.00  0.00    -0.356 N 
ATOM     66  C   UNL A   1      31.138  27.797  23.098  1.00  0.00     0.223 C 
ATOM     67  H   UNL A   1      29.584  28.441  24.197  1.00  0.00     0.163 HD
ATOM     68  O   UNL A   1      30.643  27.473  22.018  1.00  0.00    -0.275 OA
BRANCH  66  69
ATOM     69  C   UNL A   1      32.366  27.083  23.641  1.00  0.00     0.091 C 
ATOM     70  C   UNL A   1      33.675  27.882  23.755  1.00  0.00     0.014 C 
ATOM     71  C   UNL A   1      32.058  26.193  24.889  1.00  0.00     0.091 C 
ATOM     72  C   UNL A   1      33.958  28.426  25.147  1.00  0.00     0.001 C 
ATOM     73  C   UNL A   1      32.660  26.628  26.237  1.00  0.00     0.014 C 
ATOM     74  C   UNL A   1      34.029  27.269  26.129  1.00  0.00     0.001 C 
BRANCH  71  75
ATOM     75  C   UNL A   1      30.630  25.601  25.025  1.00  0.00     0.228 C 
ATOM     76  O   UNL A   1      29.692  26.370  25.276  1.00  0.00    -0.274 OA
ATOM     77  N   UNL A   1      30.296  24.304  24.728  1.00  0.00    -0.323 N 
ATOM     78  H   UNL A   1      29.329  24.147  24.621  1.00  0.00     0.170 HD
BRANCH  77  79
ATOM     79  C   UNL A   1      31.091  23.165  24.550  1.00  0.00     0.077 A 
ATOM     80  C   UNL A   1      31.279  22.293  25.624  1.00  0.00     0.031 A 
ATOM     81  C   UNL A   1      31.759  22.901  23.354  1.00  0.00     0.148 A 
ATOM     82  C   UNL A   1      31.979  21.094  25.432  1.00  0.00     0.023 A 
ATOM     83  C   UNL A   1      32.436  21.706  23.143  1.00  0.00     0.062 A 
ATOM     84  F   UNL A   1      31.881  23.855  22.426  1.00  0.00    -0.205 F 
ATOM     85  C   UNL A   1      32.520  20.789  24.182  1.00  0.00     0.044 A 
ATOM     86  Cl  UNL A   1      33.323  19.291  23.928  1.00  0.00    -0.084 Cl
ENDBRANCH  77  79
ENDBRANCH  71  75
ENDBRANCH  66  69
ENDBRANCH  64  65
ENDBRANCH  63  64
ENDBRANCH   1  63
TORSDOF 13
ENDMDL
MODEL 3
REMARK VINA RESULT:     -11.8      2.861      7.586
REMARK SMILES O=C(NCCCCNC(=O)[C@H]1CCCC[C@H]1C(=O)Nc1ccc(Cl)cc1F)c1ccc(-c2c3nc(c(-c4c(F)cccc4F)c4ccc([nH]4)c(-c4c(F)cccc4F)c4nc(c(-c5c(F)cccc5F)c5ccc2[nH]5)C=C4)C=C3)cc1
REMARK SMILES IDX 5 1 4 2 3 3 1 4 2 5 28 7 29 8 81 9 30 10 80 11 31 12 32 13
REMARK SMILES IDX 33 14 74 15 34 16 79 17 73 18 75 19 35 20 78 21 72 22 71 23
REMARK SMILES IDX 36 25 62 26 45 27 61 28 46 29 49 30 60 31 76 32 47 33 48 34
REMARK SMILES IDX 59 36 77 37 50 38 37 39 38 40 43 41 39 42 40 43 42 44 44 45
REMARK SMILES IDX 41 46 63 47 64 48 69 49 65 50 66 51 68 52 70 53 67 54 51 55
REMARK SMILES IDX 52 56 57 57 53 58 54 59 56 60 58 61 55 62 6 63 7 64 8 65
REMARK SMILES IDX 9 66 10 68 11 69 12 70 16 71 13 72 15 73 14 74 17 75 18 76
REMARK SMILES IDX 19 77 20 79 21 80 26 81 22 82 25 83 27 84 23 85 24 86
REMARK H PARENT 3 6 75 24 49 35 8 67 19 78
REMARK Flexibility Score: inf
ROOT
ATOM      1  C   UNL A   1      37.602  19.967  24.654  1.00  0.00     0.023 C 
ENDROOT
BRANCH   1   2
ATOM      2  C   UNL A   1      38.646  20.358  25.691  1.00  0.00     0.116 C 
BRANCH   2   3
ATOM      3  N   UNL A   1      39.718  19.372  25.779  1.00  0.00    -0.352 N 
ATOM      4  O   UNL A   1      41.835  18.621  25.822  1.00  0.00    -0.269 OA
ATOM      5  C   UNL A   1      41.048  19.546  26.035  1.00  0.00     0.251 C 
ATOM      6  H   UNL A   1      39.440  18.439  25.634  1.00  0.00     0.163 HD
BRANCH   5   7
ATOM      7  C   UNL A   1      41.557  20.826  26.570  1.00  0.00     0.039 A 
ATOM      8  C   UNL A   1      42.003  21.833  25.708  1.00  0.00     0.014 A 
ATOM      9  C   UNL A   1      41.509  21.058  27.950  1.00  0.00     0.014 A 
ATOM     10  C   UNL A   1      42.493  23.026  26.226  1.00  0.00     0.010 A 
ATOM     11  C   UNL A   1      41.928  22.289  28.463  1.00  0.00     0.010 A 
ATOM     12  C   UNL A   1      42.428  23.279  27.605  1.00  0.00    -0.014 A 
BRANCH  12  13
ATOM     13  C   UNL A   1      42.757  24.635  28.113  1.00  0.00     0.031 A 
ATOM     14  C   UNL A   1      41.691  25.664  28.342  1.00  0.00     0.074 A 
ATOM     15  C   UNL A   1      44.053  24.930  28.343  1.00  0.00     0.049 A 
ATOM     16  N   UNL A   1      41.821  26.903  28.744  1.00  0.00    -0.248 NA
ATOM     17  C   UNL A   1      40.301  25.260  28.082  1.00  0.00     0.031 C 
ATOM     18  C   UNL A   1      45.176  24.011  28.131  1.00  0.00     0.029 A 
ATOM     19  N   UNL A   1      44.647  26.077  28.800  1.00  0.00    -0.354 N 
ATOM     20  C   UNL A   1      40.538  27.434  28.767  1.00  0.00     0.074 A 
ATOM     21  C   UNL A   1      39.640  26.386  28.326  1.00  0.00     0.031 C 
ATOM     22  C   UNL A   1      46.317  24.624  28.470  1.00  0.00     0.029 A 
ATOM     23  C   UNL A   1      46.018  25.996  28.862  1.00  0.00     0.049 A 
ATOM     24  H   UNL A   1      44.142  26.882  29.057  1.00  0.00     0.167 HD
ATOM     25  C   UNL A   1      40.153  28.682  29.125  1.00  0.00     0.037 A 
ATOM     26  C   UNL A   1      46.937  26.930  29.161  1.00  0.00     0.037 A 
ATOM     27  C   UNL A   1      41.054  29.708  29.584  1.00  0.00     0.049 A 
ATOM     28  C   UNL A   1      46.477  28.314  29.518  1.00  0.00     0.074 A 
ATOM     29  C   UNL A   1      40.747  30.974  30.055  1.00  0.00     0.029 A 
ATOM     30  N   UNL A   1      42.435  29.595  29.614  1.00  0.00    -0.354 N 
ATOM     31  N   UNL A   1      45.254  28.775  29.615  1.00  0.00    -0.248 NA
ATOM     32  C   UNL A   1      47.521  29.309  29.796  1.00  0.00     0.031 C 
ATOM     33  C   UNL A   1      41.945  31.647  30.310  1.00  0.00     0.029 A 
ATOM     34  C   UNL A   1      42.997  30.785  30.047  1.00  0.00     0.049 A 
ATOM     35  H   UNL A   1      42.942  28.789  29.362  1.00  0.00     0.167 HD
ATOM     36  C   UNL A   1      45.380  30.110  29.972  1.00  0.00     0.074 A 
ATOM     37  C   UNL A   1      46.798  30.377  30.103  1.00  0.00     0.031 C 
ATOM     38  C   UNL A   1      44.410  31.034  30.165  1.00  0.00     0.037 A 
BRANCH  25  39
ATOM     39  C   UNL A   1      38.697  29.032  29.025  1.00  0.00     0.057 A 
ATOM     40  C   UNL A   1      37.836  28.952  30.126  1.00  0.00     0.134 A 
ATOM     41  C   UNL A   1      38.176  29.554  27.833  1.00  0.00     0.134 A 
ATOM     42  F   UNL A   1      38.271  28.457  31.295  1.00  0.00    -0.206 F 
ATOM     43  C   UNL A   1      36.507  29.374  30.044  1.00  0.00     0.040 A 
ATOM     44  C   UNL A   1      36.856  29.997  27.745  1.00  0.00     0.040 A 
ATOM     45  F   UNL A   1      38.951  29.666  26.743  1.00  0.00    -0.206 F 
ATOM     46  C   UNL A   1      36.017  29.909  28.853  1.00  0.00     0.006 A 
ENDBRANCH  25  39
BRANCH  26  47
ATOM     47  C   UNL A   1      48.384  26.602  29.086  1.00  0.00     0.057 A 
ATOM     48  C   UNL A   1      49.125  26.839  27.924  1.00  0.00     0.134 A 
ATOM     49  C   UNL A   1      49.054  26.030  30.175  1.00  0.00     0.134 A 
ATOM     50  F   UNL A   1      48.535  27.368  26.843  1.00  0.00    -0.206 F 
ATOM     51  C   UNL A   1      50.477  26.498  27.840  1.00  0.00     0.040 A 
ATOM     52  C   UNL A   1      50.410  25.713  30.115  1.00  0.00     0.040 A 
ATOM     53  F   UNL A   1      48.401  25.784  31.320  1.00  0.00    -0.206 F 
ATOM     54  C   UNL A   1      51.124  25.938  28.940  1.00  0.00     0.006 A 
ENDBRANCH  26  47
BRANCH  38  55
ATOM     55  C   UNL A   1      44.851  32.416  30.542  1.00  0.00     0.057 A 
ATOM     56  C   UNL A   1      45.073  32.774  31.878  1.00  0.00     0.134 A 
ATOM     57  C   UNL A   1      45.096  33.384  29.561  1.00  0.00     0.134 A 
ATOM     58  F   UNL A   1      44.839  31.896  32.865  1.00  0.00    -0.206 F 
ATOM     59  C   UNL A   1      45.508  34.053  32.226  1.00  0.00     0.040 A 
ATOM     60  C   UNL A   1      45.556  34.658  29.895  1.00  0.00     0.040 A 
ATOM     61  F   UNL A   1      44.908  33.102  28.263  1.00  0.00    -0.206 F 
ATOM     62  C   UNL A   1      45.760  34.997  31.231  1.00  0.00     0.006 A 
ENDBRANCH  38  55
ENDBRANCH  12  13
ENDBRANCH   5   7
ENDBRANCH   2   3
ENDBRANCH   1   2
BRANCH   1  63
ATOM     63  C   UNL A   1      36.309  20.788  24.699  1.00  0.00     0.023 C 
BRANCH  63  64
ATOM     64  C   UNL A   1      35.058  20.024  25.149  1.00  0.00     0.116 C 
BRANCH  64  65
ATOM     65  N   UNL A   1      33.860  20.559  24.534  1.00  0.00    -0.356 N 
ATOM     66  C   UNL A   1      32.891  21.266  25.170  1.00  0.00     0.223 C 
ATOM     67  H   UNL A   1      33.739  20.396  23.570  1.00  0.00     0.163 HD
ATOM     68  O   UNL A   1      31.778  20.743  25.257  1.00  0.00    -0.275 OA
BRANCH  66  69
ATOM     69  C   UNL A   1      33.116  22.703  25.616  1.00  0.00     0.091 C 
ATOM     70  C   UNL A   1      34.028  22.948  26.829  1.00  0.00     0.014 C 
ATOM     71  C   UNL A   1      33.370  23.683  24.425  1.00  0.00     0.091 C 
ATOM     72  C   UNL A   1      35.456  23.333  26.471  1.00  0.00     0.001 C 
ATOM     73  C   UNL A   1      34.771  24.307  24.306  1.00  0.00     0.014 C 
ATOM     74  C   UNL A   1      35.436  24.601  25.637  1.00  0.00     0.001 C 
BRANCH  71  75
ATOM     75  C   UNL A   1      32.743  23.332  23.050  1.00  0.00     0.228 C 
ATOM     76  O   UNL A   1      33.098  22.288  22.486  1.00  0.00    -0.274 OA
ATOM     77  N   UNL A   1      31.699  24.013  22.475  1.00  0.00    -0.323 N 
ATOM     78  H   UNL A   1      31.254  23.531  21.741  1.00  0.00     0.170 HD
BRANCH  77  79
ATOM     79  C   UNL A   1      31.157  25.274  22.755  1.00  0.00     0.077 A 
ATOM     80  C   UNL A   1      31.557  26.371  21.989  1.00  0.00     0.031 A 
ATOM     81  C   UNL A   1      30.277  25.489  23.815  1.00  0.00     0.148 A 
ATOM     82  C   UNL A   1      30.943  27.615  22.181  1.00  0.00     0.023 A 
ATOM     83  C   UNL A   1      29.643  26.712  24.003  1.00  0.00     0.062 A 
ATOM     84  F   UNL A   1      30.126  24.561  24.765  1.00  0.00    -0.205 F 
ATOM     85  C   UNL A   1      29.961  27.769  23.161  1.00  0.00     0.044 A 
ATOM     86  Cl  UNL A   1      29.161  29.277  23.357  1.00  0.00    -0.084 Cl
ENDBRANCH  77  79
ENDBRANCH  71  75
ENDBRANCH  66  69
ENDBRANCH  64  65
ENDBRANCH  63  64
ENDBRANCH   1  63
TORSDOF 13
ENDMDL
