MODEL 1
REMARK VINA RESULT:      -8.9      0.000      0.000
REMARK SMILES C[C@@H](Oc1ccc(N)cc1)C(=O)NCCCCNC(=O)c1ccc(-c2c3nc(c(-c4c(F)cccc4F)c4ccc([nH]4)c(-c4c(F)cccc4F)c4nc(c(-c5c(F)cccc5F)c5ccc2[nH]5)C=C4)C=C3)cc1
REMARK SMILES IDX 15 1 14 2 13 3 11 4 12 5 2 7 1 8 3 9 4 10 5 11 10 12 6 13
REMARK SMILES IDX 9 14 7 15 8 16 16 19 17 20 18 21 19 22 20 24 21 25 22 26
REMARK SMILES IDX 74 27 23 28 73 29 24 30 25 31 26 32 67 33 27 34 72 35 66 36
REMARK SMILES IDX 68 37 28 38 71 39 65 40 64 41 29 43 55 44 38 45 54 46 39 47
REMARK SMILES IDX 42 48 53 49 69 50 40 51 41 52 52 54 70 55 43 56 30 57 31 58
REMARK SMILES IDX 36 59 32 60 33 61 35 62 37 63 34 64 56 65 57 66 62 67 58 68
REMARK SMILES IDX 59 69 61 70 63 71 60 72 44 73 45 74 50 75 46 76 47 77 49 78
REMARK SMILES IDX 51 79 48 80
REMARK H PARENT 13 6 8 17 8 18 18 23 68 42 42 53
REMARK Flexibility Score: inf
ROOT
ATOM      1  C   UNL A   1      46.116  21.246  24.630  1.00  0.00     0.023 C 
ENDROOT
BRANCH   1   2
ATOM      2  C   UNL A   1      45.826  22.728  24.837  1.00  0.00     0.116 C 
BRANCH   2   3
ATOM      3  N   UNL A   1      46.638  23.575  23.977  1.00  0.00    -0.353 N 
ATOM      4  C   UNL A   1      47.332  24.715  24.284  1.00  0.00     0.260 C 
ATOM      5  O   UNL A   1      47.985  25.251  23.385  1.00  0.00    -0.271 OA
ATOM      6  H   UNL A   1      46.698  23.285  23.038  1.00  0.00     0.163 HD
BRANCH   4   7
ATOM      7  C   UNL A   1      47.235  25.345  25.684  1.00  0.00     0.258 C 
ATOM      8  C   UNL A   1      48.485  24.950  26.468  1.00  0.00     0.064 C 
BRANCH   7   9
ATOM      9  O   UNL A   1      47.048  26.749  25.486  1.00  0.00    -0.481 OA
BRANCH   9  10
ATOM     10  C   UNL A   1      45.859  27.276  25.885  1.00  0.00     0.120 A 
ATOM     11  C   UNL A   1      45.791  28.493  26.553  1.00  0.00     0.048 A 
ATOM     12  C   UNL A   1      44.698  26.686  25.398  1.00  0.00     0.048 A 
ATOM     13  C   UNL A   1      44.550  29.090  26.790  1.00  0.00     0.029 A 
ATOM     14  C   UNL A   1      43.460  27.294  25.626  1.00  0.00     0.029 A 
ATOM     15  C   UNL A   1      43.372  28.487  26.349  1.00  0.00     0.032 A 
BRANCH  15  16
ATOM     16  N   UNL A   1      42.159  29.138  26.492  1.00  0.00    -0.399 N 
ATOM     17  H   UNL A   1      41.451  28.744  27.052  1.00  0.00     0.156 HD
ATOM     18  H   UNL A   1      42.003  29.996  26.034  1.00  0.00     0.156 HD
ENDBRANCH  15  16
ENDBRANCH   9  10
ENDBRANCH   7   9
ENDBRANCH   4   7
ENDBRANCH   2   3
ENDBRANCH   1   2
BRANCH   1  19
ATOM     19  C   UNL A   1      44.887  20.388  24.338  1.00  0.00     0.023 C 
BRANCH  19  20
ATOM     20  C   UNL A   1      44.371  19.570  25.516  1.00  0.00     0.116 C 
BRANCH  20  21
ATOM     21  N   UNL A   1      42.982  19.160  25.368  1.00  0.00    -0.352 N 
ATOM     22  C   UNL A   1      41.843  19.795  25.803  1.00  0.00     0.251 C 
ATOM     23  H   UNL A   1      42.840  18.311  24.891  1.00  0.00     0.163 HD
ATOM     24  O   UNL A   1      40.750  19.247  25.695  1.00  0.00    -0.269 OA
BRANCH  22  25
ATOM     25  C   UNL A   1      41.943  21.126  26.438  1.00  0.00     0.039 A 
ATOM     26  C   UNL A   1      41.852  21.216  27.829  1.00  0.00     0.014 A 
ATOM     27  C   UNL A   1      42.153  22.274  25.669  1.00  0.00     0.014 A 
ATOM     28  C   UNL A   1      42.047  22.449  28.455  1.00  0.00     0.010 A 
ATOM     29  C   UNL A   1      42.422  23.485  26.298  1.00  0.00     0.010 A 
ATOM     30  C   UNL A   1      42.374  23.585  27.697  1.00  0.00    -0.014 A 
BRANCH  30  31
ATOM     31  C   UNL A   1      42.679  24.884  28.348  1.00  0.00     0.031 A 
ATOM     32  C   UNL A   1      41.600  25.915  28.521  1.00  0.00     0.074 A 
ATOM     33  C   UNL A   1      43.944  25.162  28.719  1.00  0.00     0.049 A 
ATOM     34  N   UNL A   1      41.688  27.132  28.996  1.00  0.00    -0.248 NA
ATOM     35  C   UNL A   1      40.249  25.540  28.076  1.00  0.00     0.031 C 
ATOM     36  C   UNL A   1      45.091  24.265  28.559  1.00  0.00     0.029 A 
ATOM     37  N   UNL A   1      44.480  26.285  29.298  1.00  0.00    -0.354 N 
ATOM     38  C   UNL A   1      40.411  27.669  28.895  1.00  0.00     0.074 A 
ATOM     39  C   UNL A   1      39.579  26.668  28.264  1.00  0.00     0.031 C 
ATOM     40  C   UNL A   1      46.189  24.866  29.046  1.00  0.00     0.029 A 
ATOM     41  C   UNL A   1      45.834  26.200  29.517  1.00  0.00     0.049 A 
ATOM     42  H   UNL A   1      43.945  27.077  29.533  1.00  0.00     0.167 HD
ATOM     43  C   UNL A   1      39.966  28.879  29.310  1.00  0.00     0.037 A 
ATOM     44  C   UNL A   1      46.693  27.099  30.033  1.00  0.00     0.037 A 
ATOM     45  C   UNL A   1      40.790  29.866  29.958  1.00  0.00     0.049 A 
ATOM     46  C   UNL A   1      46.175  28.438  30.482  1.00  0.00     0.074 A 
ATOM     47  C   UNL A   1      40.419  31.098  30.468  1.00  0.00     0.029 A 
ATOM     48  N   UNL A   1      42.153  29.734  30.182  1.00  0.00    -0.354 N 
ATOM     49  N   UNL A   1      44.952  28.906  30.443  1.00  0.00    -0.248 NA
ATOM     50  C   UNL A   1      47.157  29.370  31.054  1.00  0.00     0.031 C 
ATOM     51  C   UNL A   1      41.565  31.730  30.963  1.00  0.00     0.029 A 
ATOM     52  C   UNL A   1      42.641  30.871  30.804  1.00  0.00     0.049 A 
ATOM     53  H   UNL A   1      42.692  28.949  29.935  1.00  0.00     0.167 HD
ATOM     54  C   UNL A   1      45.011  30.174  31.008  1.00  0.00     0.074 A 
ATOM     55  C   UNL A   1      46.389  30.394  31.396  1.00  0.00     0.031 C 
ATOM     56  C   UNL A   1      44.013  31.073  31.190  1.00  0.00     0.037 A 
BRANCH  43  57
ATOM     57  C   UNL A   1      38.517  29.197  29.083  1.00  0.00     0.057 A 
ATOM     58  C   UNL A   1      37.575  29.128  30.118  1.00  0.00     0.134 A 
ATOM     59  C   UNL A   1      38.062  29.608  27.824  1.00  0.00     0.134 A 
ATOM     60  F   UNL A   1      37.942  28.729  31.347  1.00  0.00    -0.206 F 
ATOM     61  C   UNL A   1      36.228  29.428  29.904  1.00  0.00     0.040 A 
ATOM     62  C   UNL A   1      36.724  29.938  27.603  1.00  0.00     0.040 A 
ATOM     63  F   UNL A   1      38.912  29.703  26.790  1.00  0.00    -0.206 F 
ATOM     64  C   UNL A   1      35.801  29.841  28.643  1.00  0.00     0.006 A 
ENDBRANCH  43  57
BRANCH  44  65
ATOM     65  C   UNL A   1      48.131  26.759  30.171  1.00  0.00     0.057 A 
ATOM     66  C   UNL A   1      49.063  27.163  29.209  1.00  0.00     0.134 A 
ATOM     67  C   UNL A   1      48.607  26.017  31.260  1.00  0.00     0.134 A 
ATOM     68  F   UNL A   1      48.665  27.860  28.135  1.00  0.00    -0.206 F 
ATOM     69  C   UNL A   1      50.414  26.826  29.312  1.00  0.00     0.040 A 
ATOM     70  C   UNL A   1      49.959  25.695  31.389  1.00  0.00     0.040 A 
ATOM     71  F   UNL A   1      47.765  25.606  32.220  1.00  0.00    -0.206 F 
ATOM     72  C   UNL A   1      50.865  26.093  30.408  1.00  0.00     0.006 A 
ENDBRANCH  44  65
BRANCH  56  73
ATOM     73  C   UNL A   1      44.369  32.363  31.870  1.00  0.00     0.057 A 
ATOM     74  C   UNL A   1      44.756  33.499  31.147  1.00  0.00     0.134 A 
ATOM     75  C   UNL A   1      44.283  32.480  33.264  1.00  0.00     0.134 A 
ATOM     76  F   UNL A   1      44.870  33.449  29.811  1.00  0.00    -0.206 F 
ATOM     77  C   UNL A   1      45.067  34.699  31.788  1.00  0.00     0.040 A 
ATOM     78  C   UNL A   1      44.566  33.682  33.913  1.00  0.00     0.040 A 
ATOM     79  F   UNL A   1      43.910  31.434  34.014  1.00  0.00    -0.206 F 
ATOM     80  C   UNL A   1      44.965  34.795  33.175  1.00  0.00     0.006 A 
ENDBRANCH  56  73
ENDBRANCH  30  31
ENDBRANCH  22  25
ENDBRANCH  20  21
ENDBRANCH  19  20
ENDBRANCH   1  19
TORSDOF 14
ENDMDL
MODEL 2
REMARK VINA RESULT:      -8.6      0.664      6.608
REMARK SMILES C[C@@H](Oc1ccc(N)cc1)C(=O)NCCCCNC(=O)c1ccc(-c2c3nc(c(-c4c(F)cccc4F)c4ccc([nH]4)c(-c4c(F)cccc4F)c4nc(c(-c5c(F)cccc5F)c5ccc2[nH]5)C=C4)C=C3)cc1
REMARK SMILES IDX 15 1 14 2 13 3 11 4 12 5 2 7 1 8 3 9 4 10 5 11 10 12 6 13
REMARK SMILES IDX 9 14 7 15 8 16 16 19 17 20 18 21 19 22 20 24 21 25 22 26
REMARK SMILES IDX 74 27 23 28 73 29 24 30 25 31 26 32 67 33 27 34 72 35 66 36
REMARK SMILES IDX 68 37 28 38 71 39 65 40 64 41 29 43 55 44 38 45 54 46 39 47
REMARK SMILES IDX 42 48 53 49 69 50 40 51 41 52 52 54 70 55 43 56 30 57 31 58
REMARK SMILES IDX 36 59 32 60 33 61 35 62 37 63 34 64 56 65 57 66 62 67 58 68
REMARK SMILES IDX 59 69 61 70 63 71 60 72 44 73 45 74 50 75 46 76 47 77 49 78
REMARK SMILES IDX 51 79 48 80
REMARK H PARENT 13 6 8 17 8 18 18 23 68 42 42 53
REMARK Flexibility Score: inf
ROOT
ATOM      1  C   UNL A   1      45.608  20.861  25.137  1.00  0.00     0.023 C 
ENDROOT
BRANCH   1   2
ATOM      2  C   UNL A   1      45.051  22.086  24.420  1.00  0.00     0.116 C 
BRANCH   2   3
ATOM      3  N   UNL A   1      46.087  22.850  23.745  1.00  0.00    -0.353 N 
ATOM      4  C   UNL A   1      46.774  23.953  24.175  1.00  0.00     0.260 C 
ATOM      5  O   UNL A   1      47.644  24.416  23.432  1.00  0.00    -0.271 OA
ATOM      6  H   UNL A   1      46.331  22.525  22.848  1.00  0.00     0.163 HD
BRANCH   4   7
ATOM      7  C   UNL A   1      46.418  24.635  25.508  1.00  0.00     0.258 C 
ATOM      8  C   UNL A   1      47.348  24.082  26.586  1.00  0.00     0.064 C 
BRANCH   7   9
ATOM      9  O   UNL A   1      46.507  26.044  25.280  1.00  0.00    -0.481 OA
BRANCH   9  10
ATOM     10  C   UNL A   1      45.565  26.825  25.874  1.00  0.00     0.120 A 
ATOM     11  C   UNL A   1      45.917  27.906  26.676  1.00  0.00     0.048 A 
ATOM     12  C   UNL A   1      44.245  26.664  25.469  1.00  0.00     0.048 A 
ATOM     13  C   UNL A   1      44.933  28.791  27.124  1.00  0.00     0.029 A 
ATOM     14  C   UNL A   1      43.266  27.560  25.908  1.00  0.00     0.029 A 
ATOM     15  C   UNL A   1      43.596  28.615  26.764  1.00  0.00     0.032 A 
BRANCH  15  16
ATOM     16  N   UNL A   1      42.647  29.557  27.122  1.00  0.00    -0.399 N 
ATOM     17  H   UNL A   1      41.978  29.856  26.465  1.00  0.00     0.156 HD
ATOM     18  H   UNL A   1      42.642  29.928  28.034  1.00  0.00     0.156 HD
ENDBRANCH  15  16
ENDBRANCH   9  10
ENDBRANCH   7   9
ENDBRANCH   4   7
ENDBRANCH   2   3
ENDBRANCH   1   2
BRANCH   1  19
ATOM     19  C   UNL A   1      44.788  19.586  24.958  1.00  0.00     0.023 C 
BRANCH  19  20
ATOM     20  C   UNL A   1      43.940  19.185  26.158  1.00  0.00     0.116 C 
BRANCH  20  21
ATOM     21  N   UNL A   1      42.566  18.854  25.809  1.00  0.00    -0.352 N 
ATOM     22  C   UNL A   1      41.423  19.591  26.004  1.00  0.00     0.251 C 
ATOM     23  H   UNL A   1      42.438  17.981  25.371  1.00  0.00     0.163 HD
ATOM     24  O   UNL A   1      40.324  19.108  25.752  1.00  0.00    -0.269 OA
BRANCH  22  25
ATOM     25  C   UNL A   1      41.519  20.958  26.558  1.00  0.00     0.039 A 
ATOM     26  C   UNL A   1      41.272  21.152  27.920  1.00  0.00     0.014 A 
ATOM     27  C   UNL A   1      41.878  22.038  25.746  1.00  0.00     0.014 A 
ATOM     28  C   UNL A   1      41.458  22.417  28.481  1.00  0.00     0.010 A 
ATOM     29  C   UNL A   1      42.136  23.278  26.321  1.00  0.00     0.010 A 
ATOM     30  C   UNL A   1      41.931  23.479  27.695  1.00  0.00    -0.014 A 
BRANCH  30  31
ATOM     31  C   UNL A   1      42.228  24.807  28.291  1.00  0.00     0.031 A 
ATOM     32  C   UNL A   1      43.591  25.095  28.854  1.00  0.00     0.074 A 
ATOM     33  C   UNL A   1      41.249  25.727  28.388  1.00  0.00     0.049 A 
ATOM     34  N   UNL A   1      44.019  26.163  29.479  1.00  0.00    -0.248 NA
ATOM     35  C   UNL A   1      44.600  24.033  28.722  1.00  0.00     0.031 C 
ATOM     36  C   UNL A   1      39.870  25.551  27.925  1.00  0.00     0.029 A 
ATOM     37  N   UNL A   1      41.260  26.993  28.920  1.00  0.00    -0.354 N 
ATOM     38  C   UNL A   1      45.336  25.896  29.825  1.00  0.00     0.074 A 
ATOM     39  C   UNL A   1      45.623  24.546  29.389  1.00  0.00     0.031 C 
ATOM     40  C   UNL A   1      39.177  26.673  28.175  1.00  0.00     0.029 A 
ATOM     41  C   UNL A   1      40.047  27.632  28.848  1.00  0.00     0.049 A 
ATOM     42  H   UNL A   1      42.064  27.403  29.316  1.00  0.00     0.167 HD
ATOM     43  C   UNL A   1      46.235  26.709  30.429  1.00  0.00     0.037 A 
ATOM     44  C   UNL A   1      39.675  28.851  29.283  1.00  0.00     0.037 A 
ATOM     45  C   UNL A   1      45.955  28.059  30.842  1.00  0.00     0.049 A 
ATOM     46  C   UNL A   1      40.690  29.732  29.957  1.00  0.00     0.074 A 
ATOM     47  C   UNL A   1      46.815  28.982  31.411  1.00  0.00     0.029 A 
ATOM     48  N   UNL A   1      44.719  28.679  30.734  1.00  0.00    -0.354 N 
ATOM     49  N   UNL A   1      41.951  29.492  30.216  1.00  0.00    -0.248 NA
ATOM     50  C   UNL A   1      40.229  31.059  30.393  1.00  0.00     0.031 C 
ATOM     51  C   UNL A   1      46.090  30.147  31.685  1.00  0.00     0.029 A 
ATOM     52  C   UNL A   1      44.789  29.965  31.243  1.00  0.00     0.049 A 
ATOM     53  H   UNL A   1      43.912  28.265  30.351  1.00  0.00     0.167 HD
ATOM     54  C   UNL A   1      42.443  30.643  30.818  1.00  0.00     0.074 A 
ATOM     55  C   UNL A   1      41.346  31.588  30.872  1.00  0.00     0.031 C 
ATOM     56  C   UNL A   1      43.691  30.895  31.284  1.00  0.00     0.037 A 
BRANCH  43  57
ATOM     57  C   UNL A   1      47.610  26.159  30.673  1.00  0.00     0.057 A 
ATOM     58  C   UNL A   1      48.593  26.159  29.674  1.00  0.00     0.134 A 
ATOM     59  C   UNL A   1      47.967  25.652  31.929  1.00  0.00     0.134 A 
ATOM     60  F   UNL A   1      48.313  26.619  28.445  1.00  0.00    -0.206 F 
ATOM     61  C   UNL A   1      49.872  25.649  29.906  1.00  0.00     0.040 A 
ATOM     62  C   UNL A   1      49.251  25.165  32.182  1.00  0.00     0.040 A 
ATOM     63  F   UNL A   1      47.077  25.628  32.933  1.00  0.00    -0.206 F 
ATOM     64  C   UNL A   1      50.205  25.156  31.166  1.00  0.00     0.006 A 
ENDBRANCH  43  57
BRANCH  44  65
ATOM     65  C   UNL A   1      38.281  29.320  29.079  1.00  0.00     0.057 A 
ATOM     66  C   UNL A   1      37.358  29.317  30.131  1.00  0.00     0.134 A 
ATOM     67  C   UNL A   1      37.836  29.772  27.830  1.00  0.00     0.134 A 
ATOM     68  F   UNL A   1      37.720  28.877  31.345  1.00  0.00    -0.206 F 
ATOM     69  C   UNL A   1      36.037  29.729  29.946  1.00  0.00     0.040 A 
ATOM     70  C   UNL A   1      36.525  30.211  27.638  1.00  0.00     0.040 A 
ATOM     71  F   UNL A   1      38.674  29.806  26.784  1.00  0.00    -0.206 F 
ATOM     72  C   UNL A   1      35.619  30.182  28.696  1.00  0.00     0.006 A 
ENDBRANCH  44  65
BRANCH  56  73
ATOM     73  C   UNL A   1      43.946  32.258  31.859  1.00  0.00     0.057 A 
ATOM     74  C   UNL A   1      43.794  32.525  33.225  1.00  0.00     0.134 A 
ATOM     75  C   UNL A   1      44.389  33.304  31.039  1.00  0.00     0.134 A 
ATOM     76  F   UNL A   1      43.360  31.569  34.061  1.00  0.00    -0.206 F 
ATOM     77  C   UNL A   1      44.051  33.791  33.753  1.00  0.00     0.040 A 
ATOM     78  C   UNL A   1      44.674  34.567  31.560  1.00  0.00     0.040 A 
ATOM     79  F   UNL A   1      44.563  33.113  29.724  1.00  0.00    -0.206 F 
ATOM     80  C   UNL A   1      44.499  34.815  32.921  1.00  0.00     0.006 A 
ENDBRANCH  56  73
ENDBRANCH  30  31
ENDBRANCH  22  25
ENDBRANCH  20  21
ENDBRANCH  19  20
ENDBRANCH   1  19
TORSDOF 14
ENDMDL
MODEL 3
REMARK VINA RESULT:      -8.5      5.887     11.390
REMARK SMILES C[C@@H](Oc1ccc(N)cc1)C(=O)NCCCCNC(=O)c1ccc(-c2c3nc(c(-c4c(F)cccc4F)c4ccc([nH]4)c(-c4c(F)cccc4F)c4nc(c(-c5c(F)cccc5F)c5ccc2[nH]5)C=C4)C=C3)cc1
REMARK SMILES IDX 15 1 14 2 13 3 11 4 12 5 2 7 1 8 3 9 4 10 5 11 10 12 6 13
REMARK SMILES IDX 9 14 7 15 8 16 16 19 17 20 18 21 19 22 20 24 21 25 22 26
REMARK SMILES IDX 74 27 23 28 73 29 24 30 25 31 26 32 67 33 27 34 72 35 66 36
REMARK SMILES IDX 68 37 28 38 71 39 65 40 64 41 29 43 55 44 38 45 54 46 39 47
REMARK SMILES IDX 42 48 53 49 69 50 40 51 41 52 52 54 70 55 43 56 30 57 31 58
REMARK SMILES IDX 36 59 32 60 33 61 35 62 37 63 34 64 56 65 57 66 62 67 58 68
REMARK SMILES IDX 59 69 61 70 63 71 60 72 44 73 45 74 50 75 46 76 47 77 49 78
REMARK SMILES IDX 51 79 48 80
REMARK H PARENT 13 6 8 17 8 18 18 23 68 42 42 53
REMARK Flexibility Score: inf
ROOT
ATOM      1  C   UNL A   1      31.620  30.777  26.008  1.00  0.00     0.023 C 
ENDROOT
BRANCH   1   2
ATOM      2  C   UNL A   1      32.491  29.800  26.789  1.00  0.00     0.116 C 
BRANCH   2   3
ATOM      3  N   UNL A   1      31.791  28.565  27.104  1.00  0.00    -0.353 N 
ATOM      4  C   UNL A   1      31.731  27.394  26.396  1.00  0.00     0.260 C 
ATOM      5  O   UNL A   1      31.093  26.458  26.884  1.00  0.00    -0.271 OA
ATOM      6  H   UNL A   1      31.287  28.572  27.950  1.00  0.00     0.163 HD
BRANCH   4   7
ATOM      7  C   UNL A   1      32.376  27.280  25.004  1.00  0.00     0.258 C 
ATOM      8  C   UNL A   1      33.613  26.392  25.126  1.00  0.00     0.064 C 
BRANCH   7   9
ATOM      9  O   UNL A   1      31.357  26.800  24.122  1.00  0.00    -0.481 OA
BRANCH   9  10
ATOM     10  C   UNL A   1      30.464  27.713  23.656  1.00  0.00     0.120 A 
ATOM     11  C   UNL A   1      30.877  28.845  22.961  1.00  0.00     0.048 A 
ATOM     12  C   UNL A   1      29.116  27.370  23.682  1.00  0.00     0.048 A 
ATOM     13  C   UNL A   1      29.932  29.668  22.343  1.00  0.00     0.029 A 
ATOM     14  C   UNL A   1      28.176  28.189  23.051  1.00  0.00     0.029 A 
ATOM     15  C   UNL A   1      28.572  29.361  22.401  1.00  0.00     0.032 A 
BRANCH  15  16
ATOM     16  N   UNL A   1      27.655  30.122  21.695  1.00  0.00    -0.399 N 
ATOM     17  H   UNL A   1      27.606  31.094  21.841  1.00  0.00     0.156 HD
ATOM     18  H   UNL A   1      27.052  29.689  21.047  1.00  0.00     0.156 HD
ENDBRANCH  15  16
ENDBRANCH   9  10
ENDBRANCH   7   9
ENDBRANCH   4   7
ENDBRANCH   2   3
ENDBRANCH   1   2
BRANCH   1  19
ATOM     19  C   UNL A   1      31.347  32.100  26.719  1.00  0.00     0.023 C 
BRANCH  19  20
ATOM     20  C   UNL A   1      32.583  32.831  27.230  1.00  0.00     0.116 C 
BRANCH  20  21
ATOM     21  N   UNL A   1      32.317  34.206  27.627  1.00  0.00    -0.352 N 
ATOM     22  C   UNL A   1      32.953  34.968  28.578  1.00  0.00     0.251 C 
ATOM     23  H   UNL A   1      31.580  34.650  27.149  1.00  0.00     0.163 HD
ATOM     24  O   UNL A   1      32.521  36.080  28.869  1.00  0.00    -0.269 OA
BRANCH  22  25
ATOM     25  C   UNL A   1      34.138  34.429  29.277  1.00  0.00     0.039 A 
ATOM     26  C   UNL A   1      33.954  33.742  30.481  1.00  0.00     0.014 A 
ATOM     27  C   UNL A   1      35.418  34.576  28.737  1.00  0.00     0.014 A 
ATOM     28  C   UNL A   1      35.048  33.137  31.102  1.00  0.00     0.010 A 
ATOM     29  C   UNL A   1      36.492  33.908  29.318  1.00  0.00     0.010 A 
ATOM     30  C   UNL A   1      36.318  33.181  30.505  1.00  0.00    -0.014 A 
BRANCH  30  31
ATOM     31  C   UNL A   1      37.474  32.464  31.099  1.00  0.00     0.031 A 
ATOM     32  C   UNL A   1      38.102  32.964  32.370  1.00  0.00     0.074 A 
ATOM     33  C   UNL A   1      38.003  31.404  30.457  1.00  0.00     0.049 A 
ATOM     34  N   UNL A   1      39.160  32.519  33.000  1.00  0.00    -0.248 NA
ATOM     35  C   UNL A   1      37.475  34.135  33.002  1.00  0.00     0.031 C 
ATOM     36  C   UNL A   1      37.516  30.851  29.191  1.00  0.00     0.029 A 
ATOM     37  N   UNL A   1      39.074  30.608  30.776  1.00  0.00    -0.354 N 
ATOM     38  C   UNL A   1      39.332  33.362  34.090  1.00  0.00     0.074 A 
ATOM     39  C   UNL A   1      38.303  34.376  34.007  1.00  0.00     0.031 C 
ATOM     40  C   UNL A   1      38.274  29.796  28.852  1.00  0.00     0.029 A 
ATOM     41  C   UNL A   1      39.321  29.620  29.854  1.00  0.00     0.049 A 
ATOM     42  H   UNL A   1      39.615  30.734  31.589  1.00  0.00     0.167 HD
ATOM     43  C   UNL A   1      40.249  33.285  35.084  1.00  0.00     0.037 A 
ATOM     44  C   UNL A   1      40.286  28.682  29.816  1.00  0.00     0.037 A 
ATOM     45  C   UNL A   1      41.257  32.262  35.177  1.00  0.00     0.049 A 
ATOM     46  C   UNL A   1      41.296  28.621  30.929  1.00  0.00     0.074 A 
ATOM     47  C   UNL A   1      42.195  32.065  36.176  1.00  0.00     0.029 A 
ATOM     48  N   UNL A   1      41.462  31.266  34.234  1.00  0.00    -0.354 N 
ATOM     49  N   UNL A   1      41.405  29.382  31.989  1.00  0.00    -0.248 NA
ATOM     50  C   UNL A   1      42.314  27.564  30.842  1.00  0.00     0.031 C 
ATOM     51  C   UNL A   1      42.994  30.974  35.817  1.00  0.00     0.029 A 
ATOM     52  C   UNL A   1      42.524  30.463  34.618  1.00  0.00     0.049 A 
ATOM     53  H   UNL A   1      40.931  31.146  33.414  1.00  0.00     0.167 HD
ATOM     54  C   UNL A   1      42.482  28.882  32.709  1.00  0.00     0.074 A 
ATOM     55  C   UNL A   1      42.984  27.741  31.971  1.00  0.00     0.031 C 
ATOM     56  C   UNL A   1      43.007  29.327  33.877  1.00  0.00     0.037 A 
BRANCH  43  57
ATOM     57  C   UNL A   1      40.196  34.334  36.156  1.00  0.00     0.057 A 
ATOM     58  C   UNL A   1      39.383  34.192  37.289  1.00  0.00     0.134 A 
ATOM     59  C   UNL A   1      40.988  35.486  36.071  1.00  0.00     0.134 A 
ATOM     60  F   UNL A   1      38.590  33.117  37.426  1.00  0.00    -0.206 F 
ATOM     61  C   UNL A   1      39.339  35.169  38.285  1.00  0.00     0.040 A 
ATOM     62  C   UNL A   1      40.974  36.457  37.075  1.00  0.00     0.040 A 
ATOM     63  F   UNL A   1      41.794  35.683  35.017  1.00  0.00    -0.206 F 
ATOM     64  C   UNL A   1      40.142  36.303  38.182  1.00  0.00     0.006 A 
ENDBRANCH  43  57
BRANCH  44  65
ATOM     65  C   UNL A   1      40.335  27.710  28.695  1.00  0.00     0.057 A 
ATOM     66  C   UNL A   1      41.048  27.995  27.525  1.00  0.00     0.134 A 
ATOM     67  C   UNL A   1      39.667  26.481  28.761  1.00  0.00     0.134 A 
ATOM     68  F   UNL A   1      41.692  29.164  27.395  1.00  0.00    -0.206 F 
ATOM     69  C   UNL A   1      41.079  27.102  26.452  1.00  0.00     0.040 A 
ATOM     70  C   UNL A   1      39.711  25.568  27.706  1.00  0.00     0.040 A 
ATOM     71  F   UNL A   1      38.973  26.145  29.858  1.00  0.00    -0.206 F 
ATOM     72  C   UNL A   1      40.413  25.882  26.544  1.00  0.00     0.006 A 
ENDBRANCH  44  65
BRANCH  56  73
ATOM     73  C   UNL A   1      44.163  28.557  34.447  1.00  0.00     0.057 A 
ATOM     74  C   UNL A   1      43.975  27.422  35.244  1.00  0.00     0.134 A 
ATOM     75  C   UNL A   1      45.481  28.936  34.158  1.00  0.00     0.134 A 
ATOM     76  F   UNL A   1      42.738  27.015  35.568  1.00  0.00    -0.206 F 
ATOM     77  C   UNL A   1      45.057  26.703  35.754  1.00  0.00     0.040 A 
ATOM     78  C   UNL A   1      46.570  28.210  34.640  1.00  0.00     0.040 A 
ATOM     79  F   UNL A   1      45.730  30.009  33.393  1.00  0.00    -0.206 F 
ATOM     80  C   UNL A   1      46.360  27.092  35.447  1.00  0.00     0.006 A 
ENDBRANCH  56  73
ENDBRANCH  30  31
ENDBRANCH  22  25
ENDBRANCH  20  21
ENDBRANCH  19  20
ENDBRANCH   1  19
TORSDOF 14
ENDMDL
