MODEL 1
REMARK VINA RESULT:     -12.3      0.000      0.000
REMARK SMILES Cc1ccc(O[C@H](C)C(=O)Nc2ccsc2C(=O)NCCCCNC(=O)c2ccc(-c3c4nc(c(-c5c(F)cccc5F)c5ccc([nH]5)c(-c5c(F)cccc5F)c5nc(c(-c6c(F)cccc6F)c6ccc3[nH]6)C=C5)C=C4)cc2)cc1
REMARK SMILES IDX 20 1 19 2 17 3 18 4 16 6 12 7 13 8 14 9 15 10 11 11 9 12
REMARK SMILES IDX 10 13 7 15 8 16 6 17 5 18 1 19 2 20 3 21 82 22 4 23 81 24
REMARK SMILES IDX 21 25 22 26 23 27 24 28 25 29 26 31 27 32 28 33 80 34 29 35
REMARK SMILES IDX 79 36 30 37 31 38 32 39 73 40 33 41 78 42 72 43 74 44 34 45
REMARK SMILES IDX 77 46 71 47 70 48 35 50 61 51 44 52 60 53 45 54 48 55 59 56
REMARK SMILES IDX 75 57 46 58 47 59 58 61 76 62 49 63 36 64 37 65 42 66 38 67
REMARK SMILES IDX 39 68 41 69 43 70 40 71 62 72 63 73 68 74 64 75 65 76 67 77
REMARK SMILES IDX 69 78 66 79 50 80 51 81 56 82 52 83 53 84 55 85 57 86 54 87
REMARK H PARENT 19 5 11 14 24 30 74 49 48 60
REMARK Flexibility Score: inf
ROOT
ATOM      1  C   UNL A   1      33.630  28.219  26.151  1.00  0.00     0.116 C 
ENDROOT
BRANCH   1   2
ATOM      2  N   UNL A   1      34.209  28.531  24.865  1.00  0.00    -0.351 N 
ATOM      3  C   UNL A   1      33.639  28.645  23.611  1.00  0.00     0.263 C 
ATOM      4  O   UNL A   1      34.441  28.953  22.722  1.00  0.00    -0.268 OA
ATOM      5  H   UNL A   1      35.181  28.692  24.886  1.00  0.00     0.163 HD
BRANCH   3   6
ATOM      6  C   UNL A   1      32.222  28.389  23.337  1.00  0.00     0.115 A 
ATOM      7  C   UNL A   1      31.517  27.660  22.383  1.00  0.00     0.065 A 
ATOM      8  C   UNL A   1      30.102  27.735  22.582  1.00  0.00     0.038 A 
ATOM      9  C   UNL A   1      29.749  28.546  23.631  1.00  0.00     0.068 A 
ATOM     10  S   UNL A   1      31.113  29.185  24.414  1.00  0.00    -0.137 S 
BRANCH   7  11
ATOM     11  N   UNL A   1      32.100  26.873  21.403  1.00  0.00    -0.321 N 
ATOM     12  C   UNL A   1      32.527  25.571  21.520  1.00  0.00     0.265 C 
ATOM     13  O   UNL A   1      32.904  25.007  20.483  1.00  0.00    -0.270 OA
ATOM     14  H   UNL A   1      32.223  27.294  20.522  1.00  0.00     0.170 HD
BRANCH  12  15
ATOM     15  C   UNL A   1      32.484  24.780  22.857  1.00  0.00     0.259 C 
ATOM     16  C   UNL A   1      31.027  24.439  23.126  1.00  0.00     0.064 C 
BRANCH  15  17
ATOM     17  O   UNL A   1      33.518  23.806  22.923  1.00  0.00    -0.481 OA
BRANCH  17  18
ATOM     18  C   UNL A   1      34.619  23.769  23.716  1.00  0.00     0.120 A 
ATOM     19  C   UNL A   1      38.143  22.898  26.080  1.00  0.00     0.044 C 
ATOM     20  C   UNL A   1      36.966  23.249  25.220  1.00  0.00    -0.051 A 
ATOM     21  C   UNL A   1      35.958  24.078  25.715  1.00  0.00     0.007 A 
ATOM     22  C   UNL A   1      36.809  22.702  23.947  1.00  0.00     0.007 A 
ATOM     23  C   UNL A   1      34.803  24.346  24.964  1.00  0.00     0.047 A 
ATOM     24  C   UNL A   1      35.648  22.963  23.207  1.00  0.00     0.047 A 
ENDBRANCH  17  18
ENDBRANCH  15  17
ENDBRANCH  12  15
ENDBRANCH   7  11
ENDBRANCH   3   6
ENDBRANCH   1   2
BRANCH   1  25
ATOM     25  C   UNL A   1      34.195  28.953  27.363  1.00  0.00     0.023 C 
BRANCH  25  26
ATOM     26  C   UNL A   1      33.808  30.410  27.549  1.00  0.00     0.023 C 
BRANCH  26  27
ATOM     27  C   UNL A   1      34.951  31.412  27.626  1.00  0.00     0.116 C 
BRANCH  27  28
ATOM     28  N   UNL A   1      35.334  31.828  28.969  1.00  0.00    -0.352 N 
ATOM     29  C   UNL A   1      36.224  31.232  29.862  1.00  0.00     0.251 C 
ATOM     30  H   UNL A   1      34.900  32.650  29.295  1.00  0.00     0.163 HD
ATOM     31  O   UNL A   1      36.434  31.741  30.944  1.00  0.00    -0.269 OA
BRANCH  29  32
ATOM     32  C   UNL A   1      37.023  30.051  29.429  1.00  0.00     0.039 A 
ATOM     33  C   UNL A   1      37.155  28.982  30.323  1.00  0.00     0.014 A 
ATOM     34  C   UNL A   1      37.793  30.077  28.273  1.00  0.00     0.014 A 
ATOM     35  C   UNL A   1      38.250  28.125  30.208  1.00  0.00     0.010 A 
ATOM     36  C   UNL A   1      38.943  29.317  28.223  1.00  0.00     0.010 A 
ATOM     37  C   UNL A   1      39.212  28.395  29.239  1.00  0.00    -0.014 A 
BRANCH  37  38
ATOM     38  C   UNL A   1      40.585  27.901  29.303  1.00  0.00     0.031 A 
ATOM     39  C   UNL A   1      40.958  26.591  28.741  1.00  0.00     0.074 A 
ATOM     40  C   UNL A   1      41.546  28.738  29.755  1.00  0.00     0.049 A 
ATOM     41  N   UNL A   1      42.052  25.961  29.007  1.00  0.00    -0.248 NA
ATOM     42  C   UNL A   1      40.081  25.860  27.838  1.00  0.00     0.031 C 
ATOM     43  C   UNL A   1      42.992  28.598  29.621  1.00  0.00     0.029 A 
ATOM     44  N   UNL A   1      41.383  29.806  30.645  1.00  0.00    -0.354 N 
ATOM     45  C   UNL A   1      42.163  24.910  28.124  1.00  0.00     0.074 A 
ATOM     46  C   UNL A   1      40.876  24.851  27.470  1.00  0.00     0.031 C 
ATOM     47  C   UNL A   1      43.584  29.312  30.591  1.00  0.00     0.029 A 
ATOM     48  C   UNL A   1      42.534  29.806  31.464  1.00  0.00     0.049 A 
ATOM     49  H   UNL A   1      40.622  30.429  30.690  1.00  0.00     0.167 HD
ATOM     50  C   UNL A   1      43.376  24.300  27.967  1.00  0.00     0.037 A 
ATOM     51  C   UNL A   1      42.421  29.529  32.797  1.00  0.00     0.037 A 
ATOM     52  C   UNL A   1      44.346  24.785  28.955  1.00  0.00     0.049 A 
ATOM     53  C   UNL A   1      43.127  28.263  33.240  1.00  0.00     0.074 A 
ATOM     54  C   UNL A   1      45.387  25.701  28.927  1.00  0.00     0.029 A 
ATOM     55  N   UNL A   1      44.122  24.509  30.293  1.00  0.00    -0.354 N 
ATOM     56  N   UNL A   1      43.760  27.450  32.440  1.00  0.00    -0.248 NA
ATOM     57  C   UNL A   1      43.086  27.766  34.618  1.00  0.00     0.031 C 
ATOM     58  C   UNL A   1      45.737  26.017  30.272  1.00  0.00     0.029 A 
ATOM     59  C   UNL A   1      44.915  25.289  31.113  1.00  0.00     0.049 A 
ATOM     60  H   UNL A   1      43.478  23.841  30.620  1.00  0.00     0.167 HD
ATOM     61  C   UNL A   1      44.126  26.329  33.134  1.00  0.00     0.074 A 
ATOM     62  C   UNL A   1      43.701  26.578  34.499  1.00  0.00     0.031 C 
ATOM     63  C   UNL A   1      44.704  25.245  32.550  1.00  0.00     0.037 A 
BRANCH  50  64
ATOM     64  C   UNL A   1      43.762  23.450  26.770  1.00  0.00     0.057 A 
ATOM     65  C   UNL A   1      43.320  22.114  26.666  1.00  0.00     0.134 A 
ATOM     66  C   UNL A   1      44.611  23.845  25.720  1.00  0.00     0.134 A 
ATOM     67  F   UNL A   1      42.412  21.604  27.508  1.00  0.00    -0.206 F 
ATOM     68  C   UNL A   1      43.784  21.224  25.685  1.00  0.00     0.040 A 
ATOM     69  C   UNL A   1      45.126  22.955  24.765  1.00  0.00     0.040 A 
ATOM     70  F   UNL A   1      44.932  25.125  25.514  1.00  0.00    -0.206 F 
ATOM     71  C   UNL A   1      44.724  21.631  24.755  1.00  0.00     0.006 A 
ENDBRANCH  50  64
BRANCH  51  72
ATOM     72  C   UNL A   1      41.153  30.043  33.382  1.00  0.00     0.057 A 
ATOM     73  C   UNL A   1      41.059  31.414  33.685  1.00  0.00     0.134 A 
ATOM     74  C   UNL A   1      39.955  29.326  33.303  1.00  0.00     0.134 A 
ATOM     75  F   UNL A   1      42.173  32.160  33.775  1.00  0.00    -0.206 F 
ATOM     76  C   UNL A   1      39.830  32.067  33.777  1.00  0.00     0.040 A 
ATOM     77  C   UNL A   1      38.716  29.965  33.422  1.00  0.00     0.040 A 
ATOM     78  F   UNL A   1      39.957  28.023  32.990  1.00  0.00    -0.206 F 
ATOM     79  C   UNL A   1      38.652  31.344  33.617  1.00  0.00     0.006 A 
ENDBRANCH  51  72
BRANCH  63  80
ATOM     80  C   UNL A   1      45.115  24.045  33.337  1.00  0.00     0.057 A 
ATOM     81  C   UNL A   1      44.239  22.973  33.551  1.00  0.00     0.134 A 
ATOM     82  C   UNL A   1      46.352  23.987  34.001  1.00  0.00     0.134 A 
ATOM     83  F   UNL A   1      43.028  22.952  32.976  1.00  0.00    -0.206 F 
ATOM     84  C   UNL A   1      44.577  21.897  34.376  1.00  0.00     0.040 A 
ATOM     85  C   UNL A   1      46.686  22.936  34.856  1.00  0.00     0.040 A 
ATOM     86  F   UNL A   1      47.280  24.941  33.828  1.00  0.00    -0.206 F 
ATOM     87  C   UNL A   1      45.798  21.883  35.044  1.00  0.00     0.006 A 
ENDBRANCH  63  80
ENDBRANCH  37  38
ENDBRANCH  29  32
ENDBRANCH  27  28
ENDBRANCH  26  27
ENDBRANCH  25  26
ENDBRANCH   1  25
TORSDOF 15
ENDMDL
MODEL 2
REMARK VINA RESULT:     -12.2      1.747      2.115
REMARK SMILES Cc1ccc(O[C@H](C)C(=O)Nc2ccsc2C(=O)NCCCCNC(=O)c2ccc(-c3c4nc(c(-c5c(F)cccc5F)c5ccc([nH]5)c(-c5c(F)cccc5F)c5nc(c(-c6c(F)cccc6F)c6ccc3[nH]6)C=C5)C=C4)cc2)cc1
REMARK SMILES IDX 20 1 19 2 17 3 18 4 16 6 12 7 13 8 14 9 15 10 11 11 9 12
REMARK SMILES IDX 10 13 7 15 8 16 6 17 5 18 1 19 2 20 3 21 82 22 4 23 81 24
REMARK SMILES IDX 21 25 22 26 23 27 24 28 25 29 26 31 27 32 28 33 80 34 29 35
REMARK SMILES IDX 79 36 30 37 31 38 32 39 73 40 33 41 78 42 72 43 74 44 34 45
REMARK SMILES IDX 77 46 71 47 70 48 35 50 61 51 44 52 60 53 45 54 48 55 59 56
REMARK SMILES IDX 75 57 46 58 47 59 58 61 76 62 49 63 36 64 37 65 42 66 38 67
REMARK SMILES IDX 39 68 41 69 43 70 40 71 62 72 63 73 68 74 64 75 65 76 67 77
REMARK SMILES IDX 69 78 66 79 50 80 51 81 56 82 52 83 53 84 55 85 57 86 54 87
REMARK H PARENT 19 5 11 14 24 30 74 49 48 60
REMARK Flexibility Score: inf
ROOT
ATOM      1  C   UNL A   1      33.523  29.241  25.119  1.00  0.00     0.116 C 
ENDROOT
BRANCH   1   2
ATOM      2  N   UNL A   1      33.806  28.470  23.930  1.00  0.00    -0.351 N 
ATOM      3  C   UNL A   1      33.113  27.438  23.326  1.00  0.00     0.263 C 
ATOM      4  O   UNL A   1      33.642  27.018  22.290  1.00  0.00    -0.268 OA
ATOM      5  H   UNL A   1      34.639  28.725  23.469  1.00  0.00     0.163 HD
BRANCH   3   6
ATOM      6  C   UNL A   1      31.882  26.858  23.870  1.00  0.00     0.115 A 
ATOM      7  C   UNL A   1      31.586  25.879  24.816  1.00  0.00     0.065 A 
ATOM      8  C   UNL A   1      30.177  25.702  24.988  1.00  0.00     0.038 A 
ATOM      9  C   UNL A   1      29.430  26.490  24.150  1.00  0.00     0.068 A 
ATOM     10  S   UNL A   1      30.412  27.485  23.186  1.00  0.00    -0.137 S 
BRANCH   7  11
ATOM     11  N   UNL A   1      32.530  25.211  25.580  1.00  0.00    -0.321 N 
ATOM     12  C   UNL A   1      33.148  24.018  25.290  1.00  0.00     0.265 C 
ATOM     13  O   UNL A   1      34.059  23.657  26.049  1.00  0.00    -0.270 OA
ATOM     14  H   UNL A   1      32.786  25.639  26.429  1.00  0.00     0.170 HD
BRANCH  12  15
ATOM     15  C   UNL A   1      32.806  23.167  24.036  1.00  0.00     0.259 C 
ATOM     16  C   UNL A   1      33.941  23.360  23.043  1.00  0.00     0.064 C 
BRANCH  15  17
ATOM     17  O   UNL A   1      32.319  21.879  24.393  1.00  0.00    -0.481 OA
BRANCH  17  18
ATOM     18  C   UNL A   1      32.885  20.660  24.205  1.00  0.00     0.120 A 
ATOM     19  C   UNL A   1      33.969  16.504  23.639  1.00  0.00     0.044 C 
ATOM     20  C   UNL A   1      33.626  17.958  23.766  1.00  0.00    -0.051 A 
ATOM     21  C   UNL A   1      34.357  18.778  24.628  1.00  0.00     0.007 A 
ATOM     22  C   UNL A   1      32.534  18.508  23.095  1.00  0.00     0.007 A 
ATOM     23  C   UNL A   1      33.997  20.119  24.834  1.00  0.00     0.047 A 
ATOM     24  C   UNL A   1      32.172  19.843  23.315  1.00  0.00     0.047 A 
ENDBRANCH  17  18
ENDBRANCH  15  17
ENDBRANCH  12  15
ENDBRANCH   7  11
ENDBRANCH   3   6
ENDBRANCH   1   2
BRANCH   1  25
ATOM     25  C   UNL A   1      34.031  28.683  26.445  1.00  0.00     0.023 C 
BRANCH  25  26
ATOM     26  C   UNL A   1      33.933  29.576  27.670  1.00  0.00     0.023 C 
BRANCH  26  27
ATOM     27  C   UNL A   1      34.488  30.986  27.528  1.00  0.00     0.116 C 
BRANCH  27  28
ATOM     28  N   UNL A   1      35.000  31.587  28.753  1.00  0.00    -0.352 N 
ATOM     29  C   UNL A   1      36.041  31.167  29.580  1.00  0.00     0.251 C 
ATOM     30  H   UNL A   1      34.543  32.411  29.040  1.00  0.00     0.163 HD
ATOM     31  O   UNL A   1      36.341  31.816  30.561  1.00  0.00    -0.269 OA
BRANCH  29  32
ATOM     32  C   UNL A   1      36.876  29.999  29.178  1.00  0.00     0.039 A 
ATOM     33  C   UNL A   1      37.031  28.953  30.096  1.00  0.00     0.014 A 
ATOM     34  C   UNL A   1      37.653  30.022  28.027  1.00  0.00     0.014 A 
ATOM     35  C   UNL A   1      38.149  28.125  30.007  1.00  0.00     0.010 A 
ATOM     36  C   UNL A   1      38.825  29.293  28.002  1.00  0.00     0.010 A 
ATOM     37  C   UNL A   1      39.111  28.402  29.039  1.00  0.00    -0.014 A 
BRANCH  37  38
ATOM     38  C   UNL A   1      40.497  27.947  29.125  1.00  0.00     0.031 A 
ATOM     39  C   UNL A   1      40.920  26.656  28.552  1.00  0.00     0.074 A 
ATOM     40  C   UNL A   1      41.423  28.806  29.606  1.00  0.00     0.049 A 
ATOM     41  N   UNL A   1      42.026  26.055  28.832  1.00  0.00    -0.248 NA
ATOM     42  C   UNL A   1      40.082  25.912  27.623  1.00  0.00     0.031 C 
ATOM     43  C   UNL A   1      42.876  28.711  29.499  1.00  0.00     0.029 A 
ATOM     44  N   UNL A   1      41.211  29.856  30.507  1.00  0.00    -0.354 N 
ATOM     45  C   UNL A   1      42.186  25.021  27.938  1.00  0.00     0.074 A 
ATOM     46  C   UNL A   1      40.914  24.933  27.258  1.00  0.00     0.031 C 
ATOM     47  C   UNL A   1      43.427  29.428  30.490  1.00  0.00     0.029 A 
ATOM     48  C   UNL A   1      42.345  29.879  31.348  1.00  0.00     0.049 A 
ATOM     49  H   UNL A   1      40.432  30.456  30.546  1.00  0.00     0.167 HD
ATOM     50  C   UNL A   1      43.419  24.449  27.797  1.00  0.00     0.037 A 
ATOM     51  C   UNL A   1      42.215  29.580  32.675  1.00  0.00     0.037 A 
ATOM     52  C   UNL A   1      44.355  24.949  28.810  1.00  0.00     0.049 A 
ATOM     53  C   UNL A   1      42.950  28.330  33.115  1.00  0.00     0.074 A 
ATOM     54  C   UNL A   1      45.368  25.895  28.815  1.00  0.00     0.029 A 
ATOM     55  N   UNL A   1      44.113  24.648  30.140  1.00  0.00    -0.354 N 
ATOM     56  N   UNL A   1      43.622  27.546  32.318  1.00  0.00    -0.248 NA
ATOM     57  C   UNL A   1      42.897  27.813  34.485  1.00  0.00     0.031 C 
ATOM     58  C   UNL A   1      45.683  26.203  30.171  1.00  0.00     0.029 A 
ATOM     59  C   UNL A   1      44.867  25.440  30.986  1.00  0.00     0.049 A 
ATOM     60  H   UNL A   1      43.483  23.956  30.445  1.00  0.00     0.167 HD
ATOM     61  C   UNL A   1      44.008  26.428  33.004  1.00  0.00     0.074 A 
ATOM     62  C   UNL A   1      43.549  26.645  34.364  1.00  0.00     0.031 C 
ATOM     63  C   UNL A   1      44.630  25.369  32.417  1.00  0.00     0.037 A 
BRANCH  50  64
ATOM     64  C   UNL A   1      43.853  23.627  26.596  1.00  0.00     0.057 A 
ATOM     65  C   UNL A   1      43.509  22.262  26.499  1.00  0.00     0.134 A 
ATOM     66  C   UNL A   1      44.660  24.082  25.537  1.00  0.00     0.134 A 
ATOM     67  F   UNL A   1      42.651  21.688  27.352  1.00  0.00    -0.206 F 
ATOM     68  C   UNL A   1      44.027  21.407  25.514  1.00  0.00     0.040 A 
ATOM     69  C   UNL A   1      45.228  23.230  24.577  1.00  0.00     0.040 A 
ATOM     70  F   UNL A   1      44.884  25.381  25.326  1.00  0.00    -0.206 F 
ATOM     71  C   UNL A   1      44.925  21.880  24.573  1.00  0.00     0.006 A 
ENDBRANCH  50  64
BRANCH  51  72
ATOM     72  C   UNL A   1      40.921  30.048  33.241  1.00  0.00     0.057 A 
ATOM     73  C   UNL A   1      40.778  31.414  33.553  1.00  0.00     0.134 A 
ATOM     74  C   UNL A   1      39.749  29.294  33.137  1.00  0.00     0.134 A 
ATOM     75  F   UNL A   1      41.865  32.194  33.668  1.00  0.00    -0.206 F 
ATOM     76  C   UNL A   1      39.526  32.026  33.629  1.00  0.00     0.040 A 
ATOM     77  C   UNL A   1      38.488  29.892  33.239  1.00  0.00     0.040 A 
ATOM     78  F   UNL A   1      39.798  27.994  32.815  1.00  0.00    -0.206 F 
ATOM     79  C   UNL A   1      38.376  31.267  33.443  1.00  0.00     0.006 A 
ENDBRANCH  51  72
BRANCH  63  80
ATOM     80  C   UNL A   1      45.061  24.172  33.196  1.00  0.00     0.057 A 
ATOM     81  C   UNL A   1      44.221  23.062  33.360  1.00  0.00     0.134 A 
ATOM     82  C   UNL A   1      46.275  24.149  33.903  1.00  0.00     0.134 A 
ATOM     83  F   UNL A   1      43.032  23.004  32.742  1.00  0.00    -0.206 F 
ATOM     84  C   UNL A   1      44.573  21.984  34.176  1.00  0.00     0.040 A 
ATOM     85  C   UNL A   1      46.621  23.095  34.750  1.00  0.00     0.040 A 
ATOM     86  F   UNL A   1      47.169  25.142  33.780  1.00  0.00    -0.206 F 
ATOM     87  C   UNL A   1      45.770  22.005  34.887  1.00  0.00     0.006 A 
ENDBRANCH  63  80
ENDBRANCH  37  38
ENDBRANCH  29  32
ENDBRANCH  27  28
ENDBRANCH  26  27
ENDBRANCH  25  26
ENDBRANCH   1  25
TORSDOF 15
ENDMDL
MODEL 3
REMARK VINA RESULT:     -12.2      1.298      2.084
REMARK SMILES Cc1ccc(O[C@H](C)C(=O)Nc2ccsc2C(=O)NCCCCNC(=O)c2ccc(-c3c4nc(c(-c5c(F)cccc5F)c5ccc([nH]5)c(-c5c(F)cccc5F)c5nc(c(-c6c(F)cccc6F)c6ccc3[nH]6)C=C5)C=C4)cc2)cc1
REMARK SMILES IDX 20 1 19 2 17 3 18 4 16 6 12 7 13 8 14 9 15 10 11 11 9 12
REMARK SMILES IDX 10 13 7 15 8 16 6 17 5 18 1 19 2 20 3 21 82 22 4 23 81 24
REMARK SMILES IDX 21 25 22 26 23 27 24 28 25 29 26 31 27 32 28 33 80 34 29 35
REMARK SMILES IDX 79 36 30 37 31 38 32 39 73 40 33 41 78 42 72 43 74 44 34 45
REMARK SMILES IDX 77 46 71 47 70 48 35 50 61 51 44 52 60 53 45 54 48 55 59 56
REMARK SMILES IDX 75 57 46 58 47 59 58 61 76 62 49 63 36 64 37 65 42 66 38 67
REMARK SMILES IDX 39 68 41 69 43 70 40 71 62 72 63 73 68 74 64 75 65 76 67 77
REMARK SMILES IDX 69 78 66 79 50 80 51 81 56 82 52 83 53 84 55 85 57 86 54 87
REMARK H PARENT 19 5 11 14 24 30 74 49 48 60
REMARK Flexibility Score: inf
ROOT
ATOM      1  C   UNL A   1      32.920  28.574  27.034  1.00  0.00     0.116 C 
ENDROOT
BRANCH   1   2
ATOM      2  N   UNL A   1      33.624  28.016  25.902  1.00  0.00    -0.351 N 
ATOM      3  C   UNL A   1      33.163  27.493  24.709  1.00  0.00     0.263 C 
ATOM      4  O   UNL A   1      34.061  27.119  23.946  1.00  0.00    -0.268 OA
ATOM      5  H   UNL A   1      34.605  28.007  25.999  1.00  0.00     0.163 HD
BRANCH   3   6
ATOM      6  C   UNL A   1      31.742  27.352  24.380  1.00  0.00     0.115 A 
ATOM      7  C   UNL A   1      30.675  26.623  24.901  1.00  0.00     0.065 A 
ATOM      8  C   UNL A   1      29.457  26.867  24.192  1.00  0.00     0.038 A 
ATOM      9  C   UNL A   1      29.615  27.717  23.126  1.00  0.00     0.068 A 
ATOM     10  S   UNL A   1      31.216  28.268  22.999  1.00  0.00    -0.137 S 
BRANCH   7  11
ATOM     11  N   UNL A   1      30.744  25.824  26.030  1.00  0.00    -0.321 N 
ATOM     12  C   UNL A   1      31.247  24.547  26.123  1.00  0.00     0.265 C 
ATOM     13  O   UNL A   1      31.331  24.057  27.257  1.00  0.00    -0.270 OA
ATOM     14  H   UNL A   1      30.392  26.214  26.862  1.00  0.00     0.170 HD
BRANCH  12  15
ATOM     15  C   UNL A   1      31.768  23.749  24.895  1.00  0.00     0.259 C 
ATOM     16  C   UNL A   1      30.657  23.750  23.858  1.00  0.00     0.064 C 
BRANCH  15  17
ATOM     17  O   UNL A   1      33.109  24.099  24.574  1.00  0.00    -0.481 OA
BRANCH  17  18
ATOM     18  C   UNL A   1      34.261  23.432  24.836  1.00  0.00     0.120 A 
ATOM     19  C   UNL A   1      38.280  21.980  25.546  1.00  0.00     0.044 C 
ATOM     20  C   UNL A   1      36.871  22.462  25.373  1.00  0.00    -0.051 A 
ATOM     21  C   UNL A   1      35.965  21.719  24.614  1.00  0.00     0.007 A 
ATOM     22  C   UNL A   1      36.453  23.686  25.893  1.00  0.00     0.007 A 
ATOM     23  C   UNL A   1      34.669  22.194  24.361  1.00  0.00     0.047 A 
ATOM     24  C   UNL A   1      35.163  24.161  25.625  1.00  0.00     0.047 A 
ENDBRANCH  17  18
ENDBRANCH  15  17
ENDBRANCH  12  15
ENDBRANCH   7  11
ENDBRANCH   3   6
ENDBRANCH   1   2
BRANCH   1  25
ATOM     25  C   UNL A   1      32.384  29.995  26.885  1.00  0.00     0.023 C 
BRANCH  25  26
ATOM     26  C   UNL A   1      33.198  31.124  27.495  1.00  0.00     0.023 C 
BRANCH  26  27
ATOM     27  C   UNL A   1      34.713  30.977  27.438  1.00  0.00     0.116 C 
BRANCH  27  28
ATOM     28  N   UNL A   1      35.456  31.722  28.446  1.00  0.00    -0.352 N 
ATOM     29  C   UNL A   1      36.556  31.329  29.207  1.00  0.00     0.251 C 
ATOM     30  H   UNL A   1      35.134  32.636  28.616  1.00  0.00     0.163 HD
ATOM     31  O   UNL A   1      37.061  32.103  29.995  1.00  0.00    -0.269 OA
BRANCH  29  32
ATOM     32  C   UNL A   1      37.198  30.008  28.949  1.00  0.00     0.039 A 
ATOM     33  C   UNL A   1      37.315  29.113  30.019  1.00  0.00     0.014 A 
ATOM     34  C   UNL A   1      37.853  29.739  27.754  1.00  0.00     0.014 A 
ATOM     35  C   UNL A   1      38.310  28.135  29.987  1.00  0.00     0.010 A 
ATOM     36  C   UNL A   1      38.918  28.862  27.763  1.00  0.00     0.010 A 
ATOM     37  C   UNL A   1      39.197  28.118  28.913  1.00  0.00    -0.014 A 
BRANCH  37  38
ATOM     38  C   UNL A   1      40.518  27.498  28.967  1.00  0.00     0.031 A 
ATOM     39  C   UNL A   1      40.713  26.075  28.637  1.00  0.00     0.074 A 
ATOM     40  C   UNL A   1      41.590  28.293  29.178  1.00  0.00     0.049 A 
ATOM     41  N   UNL A   1      41.765  25.389  28.935  1.00  0.00    -0.248 NA
ATOM     42  C   UNL A   1      39.691  25.292  27.958  1.00  0.00     0.031 C 
ATOM     43  C   UNL A   1      42.998  27.976  28.964  1.00  0.00     0.029 A 
ATOM     44  N   UNL A   1      41.611  29.516  29.859  1.00  0.00    -0.354 N 
ATOM     45  C   UNL A   1      41.694  24.190  28.261  1.00  0.00     0.074 A 
ATOM     46  C   UNL A   1      40.351  24.154  27.729  1.00  0.00     0.031 C 
ATOM     47  C   UNL A   1      43.742  28.785  29.734  1.00  0.00     0.029 A 
ATOM     48  C   UNL A   1      42.829  29.539  30.574  1.00  0.00     0.049 A 
ATOM     49  H   UNL A   1      40.919  30.216  29.843  1.00  0.00     0.167 HD
ATOM     50  C   UNL A   1      42.825  23.433  28.131  1.00  0.00     0.037 A 
ATOM     51  C   UNL A   1      42.817  29.522  31.940  1.00  0.00     0.037 A 
ATOM     52  C   UNL A   1      43.925  23.981  28.933  1.00  0.00     0.049 A 
ATOM     53  C   UNL A   1      43.441  28.288  32.560  1.00  0.00     0.074 A 
ATOM     54  C   UNL A   1      45.039  24.758  28.654  1.00  0.00     0.029 A 
ATOM     55  N   UNL A   1      43.803  23.978  30.312  1.00  0.00    -0.354 N 
ATOM     56  N   UNL A   1      43.919  27.280  31.885  1.00  0.00    -0.248 NA
ATOM     57  C   UNL A   1      43.485  28.056  34.007  1.00  0.00     0.031 C 
ATOM     58  C   UNL A   1      45.541  25.273  29.884  1.00  0.00     0.029 A 
ATOM     59  C   UNL A   1      44.739  24.803  30.908  1.00  0.00     0.049 A 
ATOM     60  H   UNL A   1      43.134  23.453  30.808  1.00  0.00     0.167 HD
ATOM     61  C   UNL A   1      44.243  26.271  32.749  1.00  0.00     0.074 A 
ATOM     62  C   UNL A   1      43.973  26.807  34.070  1.00  0.00     0.031 C 
ATOM     63  C   UNL A   1      44.661  25.042  32.338  1.00  0.00     0.037 A 
BRANCH  50  64
ATOM     64  C   UNL A   1      43.016  22.344  27.091  1.00  0.00     0.057 A 
ATOM     65  C   UNL A   1      42.264  21.152  27.154  1.00  0.00     0.134 A 
ATOM     66  C   UNL A   1      43.958  22.361  26.046  1.00  0.00     0.134 A 
ATOM     67  F   UNL A   1      41.243  21.007  28.008  1.00  0.00    -0.206 F 
ATOM     68  C   UNL A   1      42.517  20.039  26.338  1.00  0.00     0.040 A 
ATOM     69  C   UNL A   1      44.259  21.240  25.258  1.00  0.00     0.040 A 
ATOM     70  F   UNL A   1      44.586  23.481  25.677  1.00  0.00    -0.206 F 
ATOM     71  C   UNL A   1      43.547  20.064  25.414  1.00  0.00     0.006 A 
ENDBRANCH  50  64
BRANCH  51  72
ATOM     72  C   UNL A   1      41.662  30.268  32.511  1.00  0.00     0.057 A 
ATOM     73  C   UNL A   1      40.538  29.539  32.941  1.00  0.00     0.134 A 
ATOM     74  C   UNL A   1      41.782  31.583  32.971  1.00  0.00     0.134 A 
ATOM     75  F   UNL A   1      40.364  28.270  32.535  1.00  0.00    -0.206 F 
ATOM     76  C   UNL A   1      39.645  30.049  33.884  1.00  0.00     0.040 A 
ATOM     77  C   UNL A   1      40.877  32.114  33.895  1.00  0.00     0.040 A 
ATOM     78  F   UNL A   1      42.839  32.333  32.630  1.00  0.00    -0.206 F 
ATOM     79  C   UNL A   1      39.831  31.333  34.386  1.00  0.00     0.006 A 
ENDBRANCH  51  72
BRANCH  63  80
ATOM     80  C   UNL A   1      45.032  23.968  33.305  1.00  0.00     0.057 A 
ATOM     81  C   UNL A   1      46.326  23.871  33.834  1.00  0.00     0.134 A 
ATOM     82  C   UNL A   1      44.141  22.933  33.637  1.00  0.00     0.134 A 
ATOM     83  F   UNL A   1      47.252  24.801  33.554  1.00  0.00    -0.206 F 
ATOM     84  C   UNL A   1      46.711  22.807  34.654  1.00  0.00     0.040 A 
ATOM     85  C   UNL A   1      44.524  21.847  34.424  1.00  0.00     0.040 A 
ATOM     86  F   UNL A   1      42.866  22.954  33.218  1.00  0.00    -0.206 F 
ATOM     87  C   UNL A   1      45.814  21.782  34.939  1.00  0.00     0.006 A 
ENDBRANCH  63  80
ENDBRANCH  37  38
ENDBRANCH  29  32
ENDBRANCH  27  28
ENDBRANCH  26  27
ENDBRANCH  25  26
ENDBRANCH   1  25
TORSDOF 15
ENDMDL
