MODEL 1
REMARK VINA RESULT:     -12.0      0.000      0.000
REMARK SMILES Cc1cccc(CC(=O)N2CCCC[C@@H]2C(=O)NCCCCNC(=O)c2ccc(-c3c4nc(c(-c5c(F)cccc5F)c5ccc([nH]5)c(-c5c(F)cccc5F)c5nc(c(-c6c(F)cccc6F)c6ccc3[nH]6)C=C5)C=C4)cc2)c1
REMARK SMILES IDX 20 1 19 2 18 3 16 4 17 5 15 7 10 8 11 9 12 10 14 11 13 12
REMARK SMILES IDX 8 13 9 14 7 15 6 16 1 17 2 18 3 19 80 20 4 21 5 22 21 23
REMARK SMILES IDX 22 24 23 25 24 26 25 28 26 29 27 30 79 31 28 32 78 33 29 34
REMARK SMILES IDX 30 35 31 36 72 37 32 38 77 39 71 40 73 41 33 42 76 43 70 44
REMARK SMILES IDX 69 45 34 47 60 48 43 49 59 50 44 51 47 52 58 53 74 54 45 55
REMARK SMILES IDX 46 56 57 58 75 59 48 60 35 61 36 62 41 63 37 64 38 65 40 66
REMARK SMILES IDX 42 67 39 68 61 69 62 70 67 71 63 72 64 73 66 74 68 75 65 76
REMARK SMILES IDX 49 77 50 78 55 79 51 80 52 81 54 82 56 83 53 84
REMARK H PARENT 18 6 23 27 73 46 47 57
REMARK Flexibility Score: inf
ROOT
ATOM      1  C   UNL A   1      32.637  28.387  25.766  1.00  0.00     0.023 C 
ENDROOT
BRANCH   1   2
ATOM      2  C   UNL A   1      33.648  27.294  25.408  1.00  0.00     0.116 C 
BRANCH   2   3
ATOM      3  N   UNL A   1      33.305  26.026  26.030  1.00  0.00    -0.354 N 
ATOM      4  C   UNL A   1      33.831  24.783  25.847  1.00  0.00     0.242 C 
ATOM      5  O   UNL A   1      33.205  23.827  26.323  1.00  0.00    -0.273 OA
ATOM      6  H   UNL A   1      32.575  26.073  26.688  1.00  0.00     0.163 HD
BRANCH   4   7
ATOM      7  C   UNL A   1      35.005  24.526  24.881  1.00  0.00     0.174 C 
ATOM      8  N   UNL A   1      34.766  23.609  23.741  1.00  0.00    -0.330 N 
ATOM      9  C   UNL A   1      35.953  23.007  23.141  1.00  0.00     0.120 C 
ATOM     10  C   UNL A   1      36.842  22.320  24.158  1.00  0.00     0.022 C 
ATOM     11  C   UNL A   1      36.093  23.986  25.856  1.00  0.00     0.035 C 
ATOM     12  C   UNL A   1      37.292  23.322  25.206  1.00  0.00     0.004 C 
BRANCH   8  13
ATOM     13  C   UNL A   1      33.643  23.599  22.913  1.00  0.00     0.227 C 
ATOM     14  O   UNL A   1      33.074  22.528  22.666  1.00  0.00    -0.275 OA
BRANCH  13  15
ATOM     15  C   UNL A   1      33.214  24.855  22.172  1.00  0.00     0.135 C 
BRANCH  15  16
ATOM     16  C   UNL A   1      31.959  25.535  22.645  1.00  0.00    -0.038 A 
ATOM     17  C   UNL A   1      30.464  29.024  22.402  1.00  0.00     0.044 C 
ATOM     18  C   UNL A   1      30.613  27.568  22.730  1.00  0.00    -0.051 A 
ATOM     19  C   UNL A   1      29.730  26.935  23.611  1.00  0.00     0.003 A 
ATOM     20  C   UNL A   1      31.714  26.856  22.243  1.00  0.00     0.007 A 
ATOM     21  C   UNL A   1      29.925  25.598  23.964  1.00  0.00     0.001 A 
ATOM     22  C   UNL A   1      31.029  24.895  23.475  1.00  0.00     0.004 A 
ENDBRANCH  15  16
ENDBRANCH  13  15
ENDBRANCH   8  13
ENDBRANCH   4   7
ENDBRANCH   2   3
ENDBRANCH   1   2
BRANCH   1  23
ATOM     23  C   UNL A   1      33.252  29.757  26.055  1.00  0.00     0.023 C 
BRANCH  23  24
ATOM     24  C   UNL A   1      33.551  29.980  27.528  1.00  0.00     0.116 C 
BRANCH  24  25
ATOM     25  N   UNL A   1      34.338  31.167  27.790  1.00  0.00    -0.352 N 
ATOM     26  C   UNL A   1      35.625  31.313  28.284  1.00  0.00     0.251 C 
ATOM     27  H   UNL A   1      33.882  32.013  27.580  1.00  0.00     0.163 HD
ATOM     28  O   UNL A   1      36.011  32.440  28.565  1.00  0.00    -0.269 OA
BRANCH  26  29
ATOM     29  C   UNL A   1      36.581  30.173  28.336  1.00  0.00     0.039 A 
ATOM     30  C   UNL A   1      36.658  29.446  29.539  1.00  0.00     0.014 A 
ATOM     31  C   UNL A   1      37.522  29.928  27.344  1.00  0.00     0.014 A 
ATOM     32  C   UNL A   1      37.790  28.685  29.830  1.00  0.00     0.010 A 
ATOM     33  C   UNL A   1      38.688  29.275  27.664  1.00  0.00     0.010 A 
ATOM     34  C   UNL A   1      38.844  28.712  28.929  1.00  0.00    -0.014 A 
BRANCH  34  35
ATOM     35  C   UNL A   1      40.185  28.220  29.185  1.00  0.00     0.031 A 
ATOM     36  C   UNL A   1      40.595  26.922  28.622  1.00  0.00     0.074 A 
ATOM     37  C   UNL A   1      41.086  29.097  29.677  1.00  0.00     0.049 A 
ATOM     38  N   UNL A   1      41.712  26.338  28.871  1.00  0.00    -0.248 NA
ATOM     39  C   UNL A   1      39.733  26.148  27.737  1.00  0.00     0.031 C 
ATOM     40  C   UNL A   1      42.540  29.030  29.592  1.00  0.00     0.029 A 
ATOM     41  N   UNL A   1      40.839  30.165  30.553  1.00  0.00    -0.354 N 
ATOM     42  C   UNL A   1      41.848  25.281  27.999  1.00  0.00     0.074 A 
ATOM     43  C   UNL A   1      40.555  25.161  27.370  1.00  0.00     0.031 C 
ATOM     44  C   UNL A   1      43.065  29.779  30.575  1.00  0.00     0.029 A 
ATOM     45  C   UNL A   1      41.958  30.198  31.417  1.00  0.00     0.049 A 
ATOM     46  H   UNL A   1      40.055  30.760  30.563  1.00  0.00     0.167 HD
ATOM     47  C   UNL A   1      43.084  24.726  27.847  1.00  0.00     0.037 A 
ATOM     48  C   UNL A   1      41.833  29.879  32.739  1.00  0.00     0.037 A 
ATOM     49  C   UNL A   1      44.011  25.293  28.830  1.00  0.00     0.049 A 
ATOM     50  C   UNL A   1      42.690  28.709  33.161  1.00  0.00     0.074 A 
ATOM     51  C   UNL A   1      44.960  26.301  28.765  1.00  0.00     0.029 A 
ATOM     52  N   UNL A   1      43.798  25.038  30.180  1.00  0.00    -0.354 N 
ATOM     53  N   UNL A   1      43.118  27.784  32.345  1.00  0.00    -0.248 NA
ATOM     54  C   UNL A   1      43.150  28.499  34.531  1.00  0.00     0.031 C 
ATOM     55  C   UNL A   1      45.269  26.695  30.093  1.00  0.00     0.029 A 
ATOM     56  C   UNL A   1      44.532  25.907  30.961  1.00  0.00     0.049 A 
ATOM     57  H   UNL A   1      43.205  24.335  30.530  1.00  0.00     0.167 HD
ATOM     58  C   UNL A   1      43.897  26.887  33.033  1.00  0.00     0.074 A 
ATOM     59  C   UNL A   1      43.891  27.385  34.396  1.00  0.00     0.031 C 
ATOM     60  C   UNL A   1      44.480  25.817  32.413  1.00  0.00     0.037 A 
BRANCH  47  61
ATOM     61  C   UNL A   1      43.543  23.857  26.691  1.00  0.00     0.057 A 
ATOM     62  C   UNL A   1      43.371  22.456  26.743  1.00  0.00     0.134 A 
ATOM     63  C   UNL A   1      44.207  24.300  25.533  1.00  0.00     0.134 A 
ATOM     64  F   UNL A   1      42.696  21.863  27.737  1.00  0.00    -0.206 F 
ATOM     65  C   UNL A   1      43.887  21.578  25.777  1.00  0.00     0.040 A 
ATOM     66  C   UNL A   1      44.753  23.433  24.574  1.00  0.00     0.040 A 
ATOM     67  F   UNL A   1      44.323  25.592  25.225  1.00  0.00    -0.206 F 
ATOM     68  C   UNL A   1      44.604  22.063  24.697  1.00  0.00     0.006 A 
ENDBRANCH  47  61
BRANCH  48  69
ATOM     69  C   UNL A   1      40.489  30.215  33.285  1.00  0.00     0.057 A 
ATOM     70  C   UNL A   1      40.202  31.567  33.549  1.00  0.00     0.134 A 
ATOM     71  C   UNL A   1      39.398  29.353  33.127  1.00  0.00     0.134 A 
ATOM     72  F   UNL A   1      41.202  32.445  33.719  1.00  0.00    -0.206 F 
ATOM     73  C   UNL A   1      38.897  32.066  33.513  1.00  0.00     0.040 A 
ATOM     74  C   UNL A   1      38.085  29.841  33.112  1.00  0.00     0.040 A 
ATOM     75  F   UNL A   1      39.588  28.053  32.860  1.00  0.00    -0.206 F 
ATOM     76  C   UNL A   1      37.836  31.205  33.254  1.00  0.00     0.006 A 
ENDBRANCH  48  69
BRANCH  60  77
ATOM     77  C   UNL A   1      45.122  24.613  33.075  1.00  0.00     0.057 A 
ATOM     78  C   UNL A   1      46.387  24.615  33.679  1.00  0.00     0.134 A 
ATOM     79  C   UNL A   1      44.378  23.424  33.272  1.00  0.00     0.134 A 
ATOM     80  F   UNL A   1      47.171  25.700  33.676  1.00  0.00    -0.206 F 
ATOM     81  C   UNL A   1      46.892  23.508  34.379  1.00  0.00     0.040 A 
ATOM     82  C   UNL A   1      44.845  22.339  34.020  1.00  0.00     0.040 A 
ATOM     83  F   UNL A   1      43.143  23.265  32.772  1.00  0.00    -0.206 F 
ATOM     84  C   UNL A   1      46.115  22.373  34.567  1.00  0.00     0.006 A 
ENDBRANCH  60  77
ENDBRANCH  34  35
ENDBRANCH  26  29
ENDBRANCH  24  25
ENDBRANCH  23  24
ENDBRANCH   1  23
TORSDOF 14
ENDMDL
MODEL 2
REMARK VINA RESULT:     -11.9      1.504      2.735
REMARK SMILES Cc1cccc(CC(=O)N2CCCC[C@@H]2C(=O)NCCCCNC(=O)c2ccc(-c3c4nc(c(-c5c(F)cccc5F)c5ccc([nH]5)c(-c5c(F)cccc5F)c5nc(c(-c6c(F)cccc6F)c6ccc3[nH]6)C=C5)C=C4)cc2)c1
REMARK SMILES IDX 20 1 19 2 18 3 16 4 17 5 15 7 10 8 11 9 12 10 14 11 13 12
REMARK SMILES IDX 8 13 9 14 7 15 6 16 1 17 2 18 3 19 80 20 4 21 5 22 21 23
REMARK SMILES IDX 22 24 23 25 24 26 25 28 26 29 27 30 79 31 28 32 78 33 29 34
REMARK SMILES IDX 30 35 31 36 72 37 32 38 77 39 71 40 73 41 33 42 76 43 70 44
REMARK SMILES IDX 69 45 34 47 60 48 43 49 59 50 44 51 47 52 58 53 74 54 45 55
REMARK SMILES IDX 46 56 57 58 75 59 48 60 35 61 36 62 41 63 37 64 38 65 40 66
REMARK SMILES IDX 42 67 39 68 61 69 62 70 67 71 63 72 64 73 66 74 68 75 65 76
REMARK SMILES IDX 49 77 50 78 55 79 51 80 52 81 54 82 56 83 53 84
REMARK H PARENT 18 6 23 27 73 46 47 57
REMARK Flexibility Score: inf
ROOT
ATOM      1  C   UNL A   1      33.973  27.820  25.968  1.00  0.00     0.023 C 
ENDROOT
BRANCH   1   2
ATOM      2  C   UNL A   1      33.060  26.782  25.309  1.00  0.00     0.116 C 
BRANCH   2   3
ATOM      3  N   UNL A   1      32.970  25.569  26.105  1.00  0.00    -0.354 N 
ATOM      4  C   UNL A   1      33.741  24.445  26.091  1.00  0.00     0.242 C 
ATOM      5  O   UNL A   1      33.315  23.458  26.703  1.00  0.00    -0.273 OA
ATOM      6  H   UNL A   1      32.235  25.557  26.758  1.00  0.00     0.163 HD
BRANCH   4   7
ATOM      7  C   UNL A   1      34.960  24.302  25.158  1.00  0.00     0.174 C 
ATOM      8  N   UNL A   1      34.791  23.487  23.931  1.00  0.00    -0.330 N 
ATOM      9  C   UNL A   1      36.016  22.966  23.331  1.00  0.00     0.120 C 
ATOM     10  C   UNL A   1      36.879  22.209  24.320  1.00  0.00     0.022 C 
ATOM     11  C   UNL A   1      36.020  23.698  26.127  1.00  0.00     0.035 C 
ATOM     12  C   UNL A   1      37.261  23.121  25.473  1.00  0.00     0.004 C 
BRANCH   8  13
ATOM     13  C   UNL A   1      33.704  23.528  23.058  1.00  0.00     0.227 C 
ATOM     14  O   UNL A   1      33.760  24.232  22.042  1.00  0.00    -0.275 OA
BRANCH  13  15
ATOM     15  C   UNL A   1      32.389  22.859  23.424  1.00  0.00     0.135 C 
BRANCH  15  16
ATOM     16  C   UNL A   1      32.331  21.360  23.330  1.00  0.00    -0.038 A 
ATOM     17  C   UNL A   1      32.905  18.432  25.688  1.00  0.00     0.044 C 
ATOM     18  C   UNL A   1      32.561  19.205  24.449  1.00  0.00    -0.051 A 
ATOM     19  C   UNL A   1      32.404  18.560  23.219  1.00  0.00     0.003 A 
ATOM     20  C   UNL A   1      32.509  20.601  24.496  1.00  0.00     0.007 A 
ATOM     21  C   UNL A   1      32.156  19.300  22.061  1.00  0.00     0.001 A 
ATOM     22  C   UNL A   1      32.109  20.696  22.116  1.00  0.00     0.004 A 
ENDBRANCH  15  16
ENDBRANCH  13  15
ENDBRANCH   8  13
ENDBRANCH   4   7
ENDBRANCH   2   3
ENDBRANCH   1   2
BRANCH   1  23
ATOM     23  C   UNL A   1      33.490  29.266  25.842  1.00  0.00     0.023 C 
BRANCH  23  24
ATOM     24  C   UNL A   1      33.083  29.878  27.172  1.00  0.00     0.116 C 
BRANCH  24  25
ATOM     25  N   UNL A   1      33.781  31.107  27.486  1.00  0.00    -0.352 N 
ATOM     26  C   UNL A   1      35.006  31.325  28.097  1.00  0.00     0.251 C 
ATOM     27  H   UNL A   1      33.305  31.926  27.219  1.00  0.00     0.163 HD
ATOM     28  O   UNL A   1      35.308  32.473  28.393  1.00  0.00    -0.269 OA
BRANCH  26  29
ATOM     29  C   UNL A   1      36.009  30.236  28.258  1.00  0.00     0.039 A 
ATOM     30  C   UNL A   1      36.152  29.672  29.539  1.00  0.00     0.014 A 
ATOM     31  C   UNL A   1      36.928  29.901  27.272  1.00  0.00     0.014 A 
ATOM     32  C   UNL A   1      37.323  28.996  29.883  1.00  0.00     0.010 A 
ATOM     33  C   UNL A   1      38.129  29.337  27.629  1.00  0.00     0.010 A 
ATOM     34  C   UNL A   1      38.347  28.946  28.950  1.00  0.00    -0.014 A 
BRANCH  34  35
ATOM     35  C   UNL A   1      39.714  28.540  29.218  1.00  0.00     0.031 A 
ATOM     36  C   UNL A   1      40.165  27.205  28.789  1.00  0.00     0.074 A 
ATOM     37  C   UNL A   1      40.588  29.501  29.582  1.00  0.00     0.049 A 
ATOM     38  N   UNL A   1      41.312  26.697  29.067  1.00  0.00    -0.248 NA
ATOM     39  C   UNL A   1      39.314  26.303  28.021  1.00  0.00     0.031 C 
ATOM     40  C   UNL A   1      42.042  29.483  29.461  1.00  0.00     0.029 A 
ATOM     41  N   UNL A   1      40.317  30.649  30.343  1.00  0.00    -0.354 N 
ATOM     42  C   UNL A   1      41.470  25.556  28.313  1.00  0.00     0.074 A 
ATOM     43  C   UNL A   1      40.168  25.315  27.741  1.00  0.00     0.031 C 
ATOM     44  C   UNL A   1      42.559  30.358  30.340  1.00  0.00     0.029 A 
ATOM     45  C   UNL A   1      41.456  30.823  31.163  1.00  0.00     0.049 A 
ATOM     46  H   UNL A   1      39.509  31.211  30.311  1.00  0.00     0.167 HD
ATOM     47  C   UNL A   1      42.726  25.037  28.186  1.00  0.00     0.037 A 
ATOM     48  C   UNL A   1      41.378  30.649  32.515  1.00  0.00     0.037 A 
ATOM     49  C   UNL A   1      43.652  25.746  29.072  1.00  0.00     0.049 A 
ATOM     50  C   UNL A   1      42.296  29.568  33.038  1.00  0.00     0.074 A 
ATOM     51  C   UNL A   1      44.555  26.778  28.867  1.00  0.00     0.029 A 
ATOM     52  N   UNL A   1      43.485  25.635  30.447  1.00  0.00    -0.354 N 
ATOM     53  N   UNL A   1      42.743  28.576  32.317  1.00  0.00    -0.248 NA
ATOM     54  C   UNL A   1      42.799  29.531  34.408  1.00  0.00     0.031 C 
ATOM     55  C   UNL A   1      44.880  27.330  30.134  1.00  0.00     0.029 A 
ATOM     56  C   UNL A   1      44.200  26.615  31.106  1.00  0.00     0.049 A 
ATOM     57  H   UNL A   1      42.931  24.952  30.890  1.00  0.00     0.167 HD
ATOM     58  C   UNL A   1      43.577  27.793  33.074  1.00  0.00     0.074 A 
ATOM     59  C   UNL A   1      43.584  28.439  34.374  1.00  0.00     0.031 C 
ATOM     60  C   UNL A   1      44.189  26.685  32.560  1.00  0.00     0.037 A 
BRANCH  47  61
ATOM     61  C   UNL A   1      43.191  24.063  27.119  1.00  0.00     0.057 A 
ATOM     62  C   UNL A   1      43.667  24.542  25.878  1.00  0.00     0.134 A 
ATOM     63  C   UNL A   1      43.151  22.660  27.203  1.00  0.00     0.134 A 
ATOM     64  F   UNL A   1      43.842  25.850  25.646  1.00  0.00    -0.206 F 
ATOM     65  C   UNL A   1      43.988  23.704  24.800  1.00  0.00     0.040 A 
ATOM     66  C   UNL A   1      43.441  21.811  26.124  1.00  0.00     0.040 A 
ATOM     67  F   UNL A   1      42.884  22.019  28.341  1.00  0.00    -0.206 F 
ATOM     68  C   UNL A   1      43.852  22.331  24.910  1.00  0.00     0.006 A 
ENDBRANCH  47  61
BRANCH  48  69
ATOM     69  C   UNL A   1      40.036  30.989  33.061  1.00  0.00     0.057 A 
ATOM     70  C   UNL A   1      39.652  32.343  33.075  1.00  0.00     0.134 A 
ATOM     71  C   UNL A   1      39.013  30.038  33.135  1.00  0.00     0.134 A 
ATOM     72  F   UNL A   1      40.585  33.307  33.016  1.00  0.00    -0.206 F 
ATOM     73  C   UNL A   1      38.311  32.732  33.018  1.00  0.00     0.040 A 
ATOM     74  C   UNL A   1      37.665  30.419  33.100  1.00  0.00     0.040 A 
ATOM     75  F   UNL A   1      39.295  28.728  33.114  1.00  0.00    -0.206 F 
ATOM     76  C   UNL A   1      37.313  31.763  32.990  1.00  0.00     0.006 A 
ENDBRANCH  48  69
BRANCH  60  77
ATOM     77  C   UNL A   1      44.899  25.589  33.331  1.00  0.00     0.057 A 
ATOM     78  C   UNL A   1      44.256  24.528  33.984  1.00  0.00     0.134 A 
ATOM     79  C   UNL A   1      46.311  25.485  33.290  1.00  0.00     0.134 A 
ATOM     80  F   UNL A   1      42.922  24.423  34.017  1.00  0.00    -0.206 F 
ATOM     81  C   UNL A   1      44.960  23.475  34.589  1.00  0.00     0.040 A 
ATOM     82  C   UNL A   1      47.019  24.409  33.834  1.00  0.00     0.040 A 
ATOM     83  F   UNL A   1      47.076  26.410  32.691  1.00  0.00    -0.206 F 
ATOM     84  C   UNL A   1      46.343  23.403  34.500  1.00  0.00     0.006 A 
ENDBRANCH  60  77
ENDBRANCH  34  35
ENDBRANCH  26  29
ENDBRANCH  24  25
ENDBRANCH  23  24
ENDBRANCH   1  23
TORSDOF 14
ENDMDL
MODEL 3
REMARK VINA RESULT:     -11.8      1.659      2.816
REMARK SMILES Cc1cccc(CC(=O)N2CCCC[C@@H]2C(=O)NCCCCNC(=O)c2ccc(-c3c4nc(c(-c5c(F)cccc5F)c5ccc([nH]5)c(-c5c(F)cccc5F)c5nc(c(-c6c(F)cccc6F)c6ccc3[nH]6)C=C5)C=C4)cc2)c1
REMARK SMILES IDX 20 1 19 2 18 3 16 4 17 5 15 7 10 8 11 9 12 10 14 11 13 12
REMARK SMILES IDX 8 13 9 14 7 15 6 16 1 17 2 18 3 19 80 20 4 21 5 22 21 23
REMARK SMILES IDX 22 24 23 25 24 26 25 28 26 29 27 30 79 31 28 32 78 33 29 34
REMARK SMILES IDX 30 35 31 36 72 37 32 38 77 39 71 40 73 41 33 42 76 43 70 44
REMARK SMILES IDX 69 45 34 47 60 48 43 49 59 50 44 51 47 52 58 53 74 54 45 55
REMARK SMILES IDX 46 56 57 58 75 59 48 60 35 61 36 62 41 63 37 64 38 65 40 66
REMARK SMILES IDX 42 67 39 68 61 69 62 70 67 71 63 72 64 73 66 74 68 75 65 76
REMARK SMILES IDX 49 77 50 78 55 79 51 80 52 81 54 82 56 83 53 84
REMARK H PARENT 18 6 23 27 73 46 47 57
REMARK Flexibility Score: inf
ROOT
ATOM      1  C   UNL A   1      33.057  28.031  25.856  1.00  0.00     0.023 C 
ENDROOT
BRANCH   1   2
ATOM      2  C   UNL A   1      33.531  26.721  25.220  1.00  0.00     0.116 C 
BRANCH   2   3
ATOM      3  N   UNL A   1      33.358  25.596  26.125  1.00  0.00    -0.354 N 
ATOM      4  C   UNL A   1      33.966  24.377  26.143  1.00  0.00     0.242 C 
ATOM      5  O   UNL A   1      33.473  23.509  26.874  1.00  0.00    -0.273 OA
ATOM      6  H   UNL A   1      32.695  25.738  26.837  1.00  0.00     0.163 HD
BRANCH   4   7
ATOM      7  C   UNL A   1      35.058  23.993  25.124  1.00  0.00     0.174 C 
ATOM      8  N   UNL A   1      34.844  22.764  24.323  1.00  0.00    -0.330 N 
ATOM      9  C   UNL A   1      36.040  22.158  23.744  1.00  0.00     0.120 C 
ATOM     10  C   UNL A   1      37.126  21.905  24.770  1.00  0.00     0.022 C 
ATOM     11  C   UNL A   1      36.312  23.890  26.041  1.00  0.00     0.035 C 
ATOM     12  C   UNL A   1      37.524  23.213  25.430  1.00  0.00     0.004 C 
BRANCH   8  13
ATOM     13  C   UNL A   1      33.656  22.382  23.700  1.00  0.00     0.227 C 
ATOM     14  O   UNL A   1      33.270  22.987  22.692  1.00  0.00    -0.275 OA
BRANCH  13  15
ATOM     15  C   UNL A   1      32.741  21.351  24.341  1.00  0.00     0.135 C 
BRANCH  15  16
ATOM     16  C   UNL A   1      32.903  19.922  23.902  1.00  0.00    -0.038 A 
ATOM     17  C   UNL A   1      35.162  17.003  24.817  1.00  0.00     0.044 C 
ATOM     18  C   UNL A   1      34.073  17.797  24.159  1.00  0.00    -0.051 A 
ATOM     19  C   UNL A   1      33.388  17.297  23.048  1.00  0.00     0.003 A 
ATOM     20  C   UNL A   1      33.813  19.104  24.586  1.00  0.00     0.007 A 
ATOM     21  C   UNL A   1      32.427  18.077  22.401  1.00  0.00     0.001 A 
ATOM     22  C   UNL A   1      32.177  19.383  22.832  1.00  0.00     0.004 A 
ENDBRANCH  15  16
ENDBRANCH  13  15
ENDBRANCH   8  13
ENDBRANCH   4   7
ENDBRANCH   2   3
ENDBRANCH   1   2
BRANCH   1  23
ATOM     23  C   UNL A   1      34.170  29.037  26.151  1.00  0.00     0.023 C 
BRANCH  23  24
ATOM     24  C   UNL A   1      33.971  29.783  27.460  1.00  0.00     0.116 C 
BRANCH  24  25
ATOM     25  N   UNL A   1      34.780  30.977  27.579  1.00  0.00    -0.352 N 
ATOM     26  C   UNL A   1      36.091  31.148  27.997  1.00  0.00     0.251 C 
ATOM     27  H   UNL A   1      34.323  31.808  27.319  1.00  0.00     0.163 HD
ATOM     28  O   UNL A   1      36.502  32.289  28.160  1.00  0.00    -0.269 OA
BRANCH  26  29
ATOM     29  C   UNL A   1      37.039  30.003  28.101  1.00  0.00     0.039 A 
ATOM     30  C   UNL A   1      37.002  29.237  29.281  1.00  0.00     0.014 A 
ATOM     31  C   UNL A   1      38.068  29.787  27.194  1.00  0.00     0.014 A 
ATOM     32  C   UNL A   1      38.101  28.464  29.652  1.00  0.00     0.010 A 
ATOM     33  C   UNL A   1      39.199  29.120  27.599  1.00  0.00     0.010 A 
ATOM     34  C   UNL A   1      39.235  28.516  28.855  1.00  0.00    -0.014 A 
BRANCH  34  35
ATOM     35  C   UNL A   1      40.546  28.011  29.219  1.00  0.00     0.031 A 
ATOM     36  C   UNL A   1      41.014  26.741  28.640  1.00  0.00     0.074 A 
ATOM     37  C   UNL A   1      41.390  28.864  29.838  1.00  0.00     0.049 A 
ATOM     38  N   UNL A   1      42.104  26.144  28.971  1.00  0.00    -0.248 NA
ATOM     39  C   UNL A   1      40.247  26.010  27.638  1.00  0.00     0.031 C 
ATOM     40  C   UNL A   1      42.847  28.799  29.894  1.00  0.00     0.029 A 
ATOM     41  N   UNL A   1      41.054  29.890  30.734  1.00  0.00    -0.354 N 
ATOM     42  C   UNL A   1      42.328  25.129  28.068  1.00  0.00     0.074 A 
ATOM     43  C   UNL A   1      41.104  25.040  27.310  1.00  0.00     0.031 C 
ATOM     44  C   UNL A   1      43.269  29.501  30.958  1.00  0.00     0.029 A 
ATOM     45  C   UNL A   1      42.082  29.882  31.705  1.00  0.00     0.049 A 
ATOM     46  H   UNL A   1      40.271  30.485  30.694  1.00  0.00     0.167 HD
ATOM     47  C   UNL A   1      43.576  24.581  28.013  1.00  0.00     0.037 A 
ATOM     48  C   UNL A   1      41.828  29.501  32.991  1.00  0.00     0.037 A 
ATOM     49  C   UNL A   1      44.399  25.100  29.109  1.00  0.00     0.049 A 
ATOM     50  C   UNL A   1      42.644  28.312  33.442  1.00  0.00     0.074 A 
ATOM     51  C   UNL A   1      45.347  26.109  29.184  1.00  0.00     0.029 A 
ATOM     52  N   UNL A   1      44.055  24.783  30.417  1.00  0.00    -0.354 N 
ATOM     53  N   UNL A   1      43.154  27.426  32.630  1.00  0.00    -0.248 NA
ATOM     54  C   UNL A   1      42.967  28.039  34.839  1.00  0.00     0.031 C 
ATOM     55  C   UNL A   1      45.521  26.441  30.554  1.00  0.00     0.029 A 
ATOM     56  C   UNL A   1      44.705  25.614  31.307  1.00  0.00     0.049 A 
ATOM     57  H   UNL A   1      43.433  24.065  30.674  1.00  0.00     0.167 HD
ATOM     58  C   UNL A   1      43.865  26.497  33.349  1.00  0.00     0.074 A 
ATOM     59  C   UNL A   1      43.722  26.931  34.726  1.00  0.00     0.031 C 
ATOM     60  C   UNL A   1      44.510  25.456  32.741  1.00  0.00     0.037 A 
BRANCH  47  61
ATOM     61  C   UNL A   1      44.150  23.766  26.869  1.00  0.00     0.057 A 
ATOM     62  C   UNL A   1      43.693  22.450  26.634  1.00  0.00     0.134 A 
ATOM     63  C   UNL A   1      45.181  24.167  26.000  1.00  0.00     0.134 A 
ATOM     64  F   UNL A   1      42.667  21.926  27.318  1.00  0.00    -0.206 F 
ATOM     65  C   UNL A   1      44.266  21.592  25.684  1.00  0.00     0.040 A 
ATOM     66  C   UNL A   1      45.783  23.311  25.066  1.00  0.00     0.040 A 
ATOM     67  F   UNL A   1      45.633  25.420  25.959  1.00  0.00    -0.206 F 
ATOM     68  C   UNL A   1      45.335  22.011  24.910  1.00  0.00     0.006 A 
ENDBRANCH  47  61
BRANCH  48  69
ATOM     69  C   UNL A   1      40.436  29.813  33.417  1.00  0.00     0.057 A 
ATOM     70  C   UNL A   1      40.133  31.142  33.767  1.00  0.00     0.134 A 
ATOM     71  C   UNL A   1      39.362  28.988  33.067  1.00  0.00     0.134 A 
ATOM     72  F   UNL A   1      41.117  31.984  34.121  1.00  0.00    -0.206 F 
ATOM     73  C   UNL A   1      38.844  31.666  33.635  1.00  0.00     0.040 A 
ATOM     74  C   UNL A   1      38.062  29.498  32.953  1.00  0.00     0.040 A 
ATOM     75  F   UNL A   1      39.569  27.712  32.709  1.00  0.00    -0.206 F 
ATOM     76  C   UNL A   1      37.811  30.849  33.188  1.00  0.00     0.006 A 
ENDBRANCH  48  69
BRANCH  60  77
ATOM     77  C   UNL A   1      45.087  24.223  33.407  1.00  0.00     0.057 A 
ATOM     78  C   UNL A   1      46.351  24.160  34.012  1.00  0.00     0.134 A 
ATOM     79  C   UNL A   1      44.283  23.074  33.605  1.00  0.00     0.134 A 
ATOM     80  F   UNL A   1      47.189  25.203  34.007  1.00  0.00    -0.206 F 
ATOM     81  C   UNL A   1      46.796  23.030  34.715  1.00  0.00     0.040 A 
ATOM     82  C   UNL A   1      44.692  21.968  34.356  1.00  0.00     0.040 A 
ATOM     83  F   UNL A   1      43.042  22.979  33.104  1.00  0.00    -0.206 F 
ATOM     84  C   UNL A   1      45.961  21.937  34.905  1.00  0.00     0.006 A 
ENDBRANCH  60  77
ENDBRANCH  34  35
ENDBRANCH  26  29
ENDBRANCH  24  25
ENDBRANCH  23  24
ENDBRANCH   1  23
TORSDOF 14
ENDMDL
