MODEL 1
REMARK VINA RESULT:     -11.0      0.000      0.000
REMARK SMILES CC(C)(C[NH2+][C@H]1CCc2ccccc21)C(=O)NCCCCNC(=O)c1ccc(-c2c3nc(c(-c4c(F)cccc4F)c4ccc([nH]4)c(-c4c(F)cccc4F)c4nc(c(-c5c(F)cccc5F)c5ccc2[nH]5)C=C4)C=C3)cc1
REMARK SMILES IDX 19 1 18 2 17 3 15 4 16 5 2 7 1 8 3 9 4 10 5 11 6 14 7 15
REMARK SMILES IDX 14 16 8 17 9 18 13 19 10 20 12 21 11 22 20 23 21 24 22 25
REMARK SMILES IDX 23 26 24 28 25 29 26 30 78 31 27 32 77 33 28 34 29 35 30 36
REMARK SMILES IDX 71 37 31 38 76 39 70 40 72 41 32 42 75 43 69 44 68 45 33 47
REMARK SMILES IDX 59 48 42 49 58 50 43 51 46 52 57 53 73 54 44 55 45 56 56 58
REMARK SMILES IDX 74 59 47 60 34 61 35 62 40 63 36 64 37 65 39 66 41 67 38 68
REMARK SMILES IDX 60 69 61 70 66 71 62 72 63 73 65 74 67 75 64 76 48 77 49 78
REMARK SMILES IDX 54 79 50 80 51 81 53 82 55 83 52 84
REMARK H PARENT 17 6 5 12 5 13 22 27 72 46 46 57
REMARK Flexibility Score: inf
ROOT
ATOM      1  C   UNL A   1      37.033  21.135  24.602  1.00  0.00     0.023 C 
ENDROOT
BRANCH   1   2
ATOM      2  C   UNL A   1      35.988  21.410  25.680  1.00  0.00     0.116 C 
BRANCH   2   3
ATOM      3  N   UNL A   1      34.863  20.504  25.585  1.00  0.00    -0.355 N 
ATOM      4  C   UNL A   1      33.518  20.696  25.655  1.00  0.00     0.231 C 
ATOM      5  O   UNL A   1      32.832  19.675  25.526  1.00  0.00    -0.274 OA
ATOM      6  H   UNL A   1      35.121  19.565  25.443  1.00  0.00     0.163 HD
BRANCH   4   7
ATOM      7  C   UNL A   1      32.865  22.087  25.795  1.00  0.00     0.092 C 
ATOM      8  C   UNL A   1      33.230  22.664  27.188  1.00  0.00     0.027 C 
ATOM      9  C   UNL A   1      31.328  21.932  25.789  1.00  0.00     0.027 C 
BRANCH   7  10
ATOM     10  C   UNL A   1      33.313  23.094  24.704  1.00  0.00     0.277 C 
BRANCH  10  11
ATOM     11  N   UNL A   1      33.738  24.397  25.219  1.00  0.00    -0.339 N 
ATOM     12  H   UNL A   1      34.732  24.513  25.022  1.00  0.00     0.346 HD
ATOM     13  H   UNL A   1      33.535  24.402  26.219  1.00  0.00     0.346 HD
BRANCH  11  14
ATOM     14  C   UNL A   1      33.017  25.529  24.633  1.00  0.00     0.214 C 
ATOM     15  C   UNL A   1      31.501  25.323  24.400  1.00  0.00     0.075 C 
ATOM     16  C   UNL A   1      32.963  26.679  25.610  1.00  0.00     0.012 A 
ATOM     17  C   UNL A   1      30.796  25.687  25.710  1.00  0.00     0.042 C 
ATOM     18  C   UNL A   1      31.697  26.770  26.210  1.00  0.00    -0.039 A 
ATOM     19  C   UNL A   1      33.972  27.566  25.951  1.00  0.00     0.010 A 
ATOM     20  C   UNL A   1      31.416  27.744  27.154  1.00  0.00     0.004 A 
ATOM     21  C   UNL A   1      33.692  28.563  26.890  1.00  0.00     0.001 A 
ATOM     22  C   UNL A   1      32.424  28.651  27.486  1.00  0.00     0.000 A 
ENDBRANCH  11  14
ENDBRANCH  10  11
ENDBRANCH   7  10
ENDBRANCH   4   7
ENDBRANCH   2   3
ENDBRANCH   1   2
BRANCH   1  23
ATOM     23  C   UNL A   1      37.933  19.927  24.871  1.00  0.00     0.023 C 
BRANCH  23  24
ATOM     24  C   UNL A   1      39.003  20.129  25.941  1.00  0.00     0.116 C 
BRANCH  24  25
ATOM     25  N   UNL A   1      40.142  19.237  25.790  1.00  0.00    -0.352 N 
ATOM     26  C   UNL A   1      41.474  19.478  26.006  1.00  0.00     0.251 C 
ATOM     27  H   UNL A   1      39.923  18.325  25.490  1.00  0.00     0.163 HD
ATOM     28  O   UNL A   1      42.303  18.615  25.716  1.00  0.00    -0.269 OA
BRANCH  26  29
ATOM     29  C   UNL A   1      41.927  20.776  26.550  1.00  0.00     0.039 A 
ATOM     30  C   UNL A   1      42.290  21.782  25.650  1.00  0.00     0.014 A 
ATOM     31  C   UNL A   1      42.002  21.010  27.926  1.00  0.00     0.014 A 
ATOM     32  C   UNL A   1      42.674  23.035  26.130  1.00  0.00     0.010 A 
ATOM     33  C   UNL A   1      42.310  22.283  28.401  1.00  0.00     0.010 A 
ATOM     34  C   UNL A   1      42.654  23.308  27.508  1.00  0.00    -0.014 A 
BRANCH  34  35
ATOM     35  C   UNL A   1      42.978  24.669  28.008  1.00  0.00     0.031 A 
ATOM     36  C   UNL A   1      44.404  25.095  28.220  1.00  0.00     0.074 A 
ATOM     37  C   UNL A   1      41.972  25.519  28.293  1.00  0.00     0.049 A 
ATOM     38  N   UNL A   1      44.869  26.259  28.598  1.00  0.00    -0.248 NA
ATOM     39  C   UNL A   1      45.443  24.076  28.007  1.00  0.00     0.031 C 
ATOM     40  C   UNL A   1      40.545  25.202  28.202  1.00  0.00     0.029 A 
ATOM     41  N   UNL A   1      41.996  26.826  28.712  1.00  0.00    -0.354 N 
ATOM     42  C   UNL A   1      46.248  26.111  28.670  1.00  0.00     0.074 A 
ATOM     43  C   UNL A   1      46.540  24.729  28.357  1.00  0.00     0.031 C 
ATOM     44  C   UNL A   1      39.831  26.296  28.512  1.00  0.00     0.029 A 
ATOM     45  C   UNL A   1      40.746  27.382  28.848  1.00  0.00     0.049 A 
ATOM     46  H   UNL A   1      42.828  27.318  28.897  1.00  0.00     0.167 HD
ATOM     47  C   UNL A   1      47.189  27.047  28.945  1.00  0.00     0.037 A 
ATOM     48  C   UNL A   1      40.379  28.630  29.193  1.00  0.00     0.037 A 
ATOM     49  C   UNL A   1      46.897  28.426  29.241  1.00  0.00     0.049 A 
ATOM     50  C   UNL A   1      41.442  29.657  29.464  1.00  0.00     0.074 A 
ATOM     51  C   UNL A   1      47.780  29.465  29.474  1.00  0.00     0.029 A 
ATOM     52  N   UNL A   1      45.620  28.957  29.349  1.00  0.00    -0.354 N 
ATOM     53  N   UNL A   1      42.746  29.526  29.440  1.00  0.00    -0.248 NA
ATOM     54  C   UNL A   1      40.980  31.013  29.792  1.00  0.00     0.031 C 
ATOM     55  C   UNL A   1      47.039  30.615  29.767  1.00  0.00     0.029 A 
ATOM     56  C   UNL A   1      45.693  30.305  29.663  1.00  0.00     0.049 A 
ATOM     57  H   UNL A   1      44.785  28.451  29.221  1.00  0.00     0.167 HD
ATOM     58  C   UNL A   1      43.260  30.785  29.721  1.00  0.00     0.074 A 
ATOM     59  C   UNL A   1      42.126  31.670  29.891  1.00  0.00     0.031 C 
ATOM     60  C   UNL A   1      44.555  31.173  29.832  1.00  0.00     0.037 A 
BRANCH  47  61
ATOM     61  C   UNL A   1      48.626  26.609  28.931  1.00  0.00     0.057 A 
ATOM     62  C   UNL A   1      49.379  26.583  27.749  1.00  0.00     0.134 A 
ATOM     63  C   UNL A   1      49.274  26.240  30.116  1.00  0.00     0.134 A 
ATOM     64  F   UNL A   1      48.816  26.912  26.576  1.00  0.00    -0.206 F 
ATOM     65  C   UNL A   1      50.716  26.179  27.743  1.00  0.00     0.040 A 
ATOM     66  C   UNL A   1      50.619  25.862  30.126  1.00  0.00     0.040 A 
ATOM     67  F   UNL A   1      48.616  26.247  31.285  1.00  0.00    -0.206 F 
ATOM     68  C   UNL A   1      51.341  25.823  28.936  1.00  0.00     0.006 A 
ENDBRANCH  47  61
BRANCH  48  69
ATOM     69  C   UNL A   1      38.940  28.990  29.253  1.00  0.00     0.057 A 
ATOM     70  C   UNL A   1      38.278  29.512  28.136  1.00  0.00     0.134 A 
ATOM     71  C   UNL A   1      38.196  28.827  30.426  1.00  0.00     0.134 A 
ATOM     72  F   UNL A   1      38.942  29.707  26.987  1.00  0.00    -0.206 F 
ATOM     73  C   UNL A   1      36.932  29.880  28.188  1.00  0.00     0.040 A 
ATOM     74  C   UNL A   1      36.843  29.166  30.485  1.00  0.00     0.040 A 
ATOM     75  F   UNL A   1      38.770  28.323  31.528  1.00  0.00    -0.206 F 
ATOM     76  C   UNL A   1      36.210  29.701  29.366  1.00  0.00     0.006 A 
ENDBRANCH  48  69
BRANCH  60  77
ATOM     77  C   UNL A   1      44.807  32.627  30.117  1.00  0.00     0.057 A 
ATOM     78  C   UNL A   1      44.919  33.575  29.093  1.00  0.00     0.134 A 
ATOM     79  C   UNL A   1      44.934  33.080  31.436  1.00  0.00     0.134 A 
ATOM     80  F   UNL A   1      44.818  33.205  27.807  1.00  0.00    -0.206 F 
ATOM     81  C   UNL A   1      45.188  34.918  29.369  1.00  0.00     0.040 A 
ATOM     82  C   UNL A   1      45.173  34.425  31.726  1.00  0.00     0.040 A 
ATOM     83  F   UNL A   1      44.827  32.226  32.465  1.00  0.00    -0.206 F 
ATOM     84  C   UNL A   1      45.312  35.345  30.690  1.00  0.00     0.006 A 
ENDBRANCH  60  77
ENDBRANCH  34  35
ENDBRANCH  26  29
ENDBRANCH  24  25
ENDBRANCH  23  24
ENDBRANCH   1  23
TORSDOF 14
ENDMDL
MODEL 2
REMARK VINA RESULT:     -11.0      1.167      1.859
REMARK SMILES CC(C)(C[NH2+][C@H]1CCc2ccccc21)C(=O)NCCCCNC(=O)c1ccc(-c2c3nc(c(-c4c(F)cccc4F)c4ccc([nH]4)c(-c4c(F)cccc4F)c4nc(c(-c5c(F)cccc5F)c5ccc2[nH]5)C=C4)C=C3)cc1
REMARK SMILES IDX 19 1 18 2 17 3 15 4 16 5 2 7 1 8 3 9 4 10 5 11 6 14 7 15
REMARK SMILES IDX 14 16 8 17 9 18 13 19 10 20 12 21 11 22 20 23 21 24 22 25
REMARK SMILES IDX 23 26 24 28 25 29 26 30 78 31 27 32 77 33 28 34 29 35 30 36
REMARK SMILES IDX 71 37 31 38 76 39 70 40 72 41 32 42 75 43 69 44 68 45 33 47
REMARK SMILES IDX 59 48 42 49 58 50 43 51 46 52 57 53 73 54 44 55 45 56 56 58
REMARK SMILES IDX 74 59 47 60 34 61 35 62 40 63 36 64 37 65 39 66 41 67 38 68
REMARK SMILES IDX 60 69 61 70 66 71 62 72 63 73 65 74 67 75 64 76 48 77 49 78
REMARK SMILES IDX 54 79 50 80 51 81 53 82 55 83 52 84
REMARK H PARENT 17 6 5 12 5 13 22 27 72 46 46 57
REMARK Flexibility Score: inf
ROOT
ATOM      1  C   UNL A   1      38.932  22.558  26.138  1.00  0.00     0.023 C 
ENDROOT
BRANCH   1   2
ATOM      2  C   UNL A   1      37.664  23.392  25.972  1.00  0.00     0.116 C 
BRANCH   2   3
ATOM      3  N   UNL A   1      37.233  23.452  24.592  1.00  0.00    -0.355 N 
ATOM      4  C   UNL A   1      36.066  23.123  23.976  1.00  0.00     0.231 C 
ATOM      5  O   UNL A   1      36.042  23.312  22.754  1.00  0.00    -0.274 OA
ATOM      6  H   UNL A   1      37.919  23.801  23.978  1.00  0.00     0.163 HD
BRANCH   4   7
ATOM      7  C   UNL A   1      34.816  22.629  24.735  1.00  0.00     0.092 C 
ATOM      8  C   UNL A   1      35.196  21.354  25.532  1.00  0.00     0.027 C 
ATOM      9  C   UNL A   1      33.742  22.190  23.716  1.00  0.00     0.027 C 
BRANCH   7  10
ATOM     10  C   UNL A   1      34.234  23.678  25.718  1.00  0.00     0.277 C 
BRANCH  10  11
ATOM     11  N   UNL A   1      34.503  25.069  25.350  1.00  0.00    -0.339 N 
ATOM     12  H   UNL A   1      35.223  25.078  24.628  1.00  0.00     0.346 HD
ATOM     13  H   UNL A   1      34.798  25.550  26.201  1.00  0.00     0.346 HD
BRANCH  11  14
ATOM     14  C   UNL A   1      33.331  25.784  24.841  1.00  0.00     0.214 C 
ATOM     15  C   UNL A   1      31.960  25.115  25.101  1.00  0.00     0.075 C 
ATOM     16  C   UNL A   1      33.128  27.070  25.606  1.00  0.00     0.012 A 
ATOM     17  C   UNL A   1      31.502  25.566  26.491  1.00  0.00     0.042 C 
ATOM     18  C   UNL A   1      32.082  26.944  26.534  1.00  0.00    -0.039 A 
ATOM     19  C   UNL A   1      33.835  28.258  25.496  1.00  0.00     0.010 A 
ATOM     20  C   UNL A   1      31.723  27.994  27.361  1.00  0.00     0.004 A 
ATOM     21  C   UNL A   1      33.468  29.329  26.316  1.00  0.00     0.001 A 
ATOM     22  C   UNL A   1      32.419  29.198  27.240  1.00  0.00     0.000 A 
ENDBRANCH  11  14
ENDBRANCH  10  11
ENDBRANCH   7  10
ENDBRANCH   4   7
ENDBRANCH   2   3
ENDBRANCH   1   2
BRANCH   1  23
ATOM     23  C   UNL A   1      38.915  21.210  25.412  1.00  0.00     0.023 C 
BRANCH  23  24
ATOM     24  C   UNL A   1      39.281  19.999  26.266  1.00  0.00     0.116 C 
BRANCH  24  25
ATOM     25  N   UNL A   1      40.477  19.312  25.805  1.00  0.00    -0.352 N 
ATOM     26  C   UNL A   1      41.784  19.724  25.828  1.00  0.00     0.251 C 
ATOM     27  H   UNL A   1      40.325  18.418  25.422  1.00  0.00     0.163 HD
ATOM     28  O   UNL A   1      42.649  19.035  25.286  1.00  0.00    -0.269 OA
BRANCH  26  29
ATOM     29  C   UNL A   1      42.160  21.005  26.464  1.00  0.00     0.039 A 
ATOM     30  C   UNL A   1      42.571  22.058  25.642  1.00  0.00     0.014 A 
ATOM     31  C   UNL A   1      42.117  21.176  27.850  1.00  0.00     0.014 A 
ATOM     32  C   UNL A   1      42.884  23.296  26.207  1.00  0.00     0.010 A 
ATOM     33  C   UNL A   1      42.354  22.433  28.405  1.00  0.00     0.010 A 
ATOM     34  C   UNL A   1      42.745  23.505  27.589  1.00  0.00    -0.014 A 
BRANCH  34  35
ATOM     35  C   UNL A   1      42.993  24.847  28.174  1.00  0.00     0.031 A 
ATOM     36  C   UNL A   1      44.380  25.274  28.567  1.00  0.00     0.074 A 
ATOM     37  C   UNL A   1      41.953  25.680  28.371  1.00  0.00     0.049 A 
ATOM     38  N   UNL A   1      44.786  26.425  29.039  1.00  0.00    -0.248 NA
ATOM     39  C   UNL A   1      45.447  24.269  28.440  1.00  0.00     0.031 C 
ATOM     40  C   UNL A   1      40.549  25.358  28.101  1.00  0.00     0.029 A 
ATOM     41  N   UNL A   1      41.913  26.970  28.837  1.00  0.00    -0.354 N 
ATOM     42  C   UNL A   1      46.149  26.283  29.267  1.00  0.00     0.074 A 
ATOM     43  C   UNL A   1      46.490  24.916  28.940  1.00  0.00     0.031 C 
ATOM     44  C   UNL A   1      39.793  26.434  28.365  1.00  0.00     0.029 A 
ATOM     45  C   UNL A   1      40.650  27.512  28.847  1.00  0.00     0.049 A 
ATOM     46  H   UNL A   1      42.713  27.460  29.136  1.00  0.00     0.167 HD
ATOM     47  C   UNL A   1      47.041  27.214  29.685  1.00  0.00     0.037 A 
ATOM     48  C   UNL A   1      40.232  28.745  29.192  1.00  0.00     0.037 A 
ATOM     49  C   UNL A   1      46.702  28.579  29.996  1.00  0.00     0.049 A 
ATOM     50  C   UNL A   1      41.245  29.767  29.623  1.00  0.00     0.074 A 
ATOM     51  C   UNL A   1      47.541  29.613  30.370  1.00  0.00     0.029 A 
ATOM     52  N   UNL A   1      45.415  29.097  29.973  1.00  0.00    -0.354 N 
ATOM     53  N   UNL A   1      42.545  29.645  29.747  1.00  0.00    -0.248 NA
ATOM     54  C   UNL A   1      40.734  31.107  29.945  1.00  0.00     0.031 C 
ATOM     55  C   UNL A   1      46.758  30.747  30.615  1.00  0.00     0.029 A 
ATOM     56  C   UNL A   1      45.437  30.433  30.343  1.00  0.00     0.049 A 
ATOM     57  H   UNL A   1      44.607  28.591  29.729  1.00  0.00     0.167 HD
ATOM     58  C   UNL A   1      43.010  30.895  30.134  1.00  0.00     0.074 A 
ATOM     59  C   UNL A   1      41.854  31.767  30.202  1.00  0.00     0.031 C 
ATOM     60  C   UNL A   1      44.279  31.287  30.409  1.00  0.00     0.037 A 
BRANCH  47  61
ATOM     61  C   UNL A   1      48.474  26.785  29.824  1.00  0.00     0.057 A 
ATOM     62  C   UNL A   1      48.958  26.195  30.999  1.00  0.00     0.134 A 
ATOM     63  C   UNL A   1      49.373  26.933  28.760  1.00  0.00     0.134 A 
ATOM     64  F   UNL A   1      48.154  26.034  32.061  1.00  0.00    -0.206 F 
ATOM     65  C   UNL A   1      50.290  25.793  31.121  1.00  0.00     0.040 A 
ATOM     66  C   UNL A   1      50.700  26.510  28.861  1.00  0.00     0.040 A 
ATOM     67  F   UNL A   1      48.976  27.485  27.603  1.00  0.00    -0.206 F 
ATOM     68  C   UNL A   1      51.164  25.944  30.046  1.00  0.00     0.006 A 
ENDBRANCH  47  61
BRANCH  48  69
ATOM     69  C   UNL A   1      38.793  29.093  29.096  1.00  0.00     0.057 A 
ATOM     70  C   UNL A   1      37.951  29.005  30.210  1.00  0.00     0.134 A 
ATOM     71  C   UNL A   1      38.224  29.518  27.890  1.00  0.00     0.134 A 
ATOM     72  F   UNL A   1      38.434  28.589  31.391  1.00  0.00    -0.206 F 
ATOM     73  C   UNL A   1      36.590  29.304  30.126  1.00  0.00     0.040 A 
ATOM     74  C   UNL A   1      36.870  29.846  27.797  1.00  0.00     0.040 A 
ATOM     75  F   UNL A   1      38.979  29.632  26.788  1.00  0.00    -0.206 F 
ATOM     76  C   UNL A   1      36.048  29.732  28.916  1.00  0.00     0.006 A 
ENDBRANCH  48  69
BRANCH  60  77
ATOM     77  C   UNL A   1      44.479  32.730  30.776  1.00  0.00     0.057 A 
ATOM     78  C   UNL A   1      44.709  33.717  29.808  1.00  0.00     0.134 A 
ATOM     79  C   UNL A   1      44.439  33.135  32.116  1.00  0.00     0.134 A 
ATOM     80  F   UNL A   1      44.771  33.393  28.508  1.00  0.00    -0.206 F 
ATOM     81  C   UNL A   1      44.929  35.049  30.164  1.00  0.00     0.040 A 
ATOM     82  C   UNL A   1      44.628  34.469  32.481  1.00  0.00     0.040 A 
ATOM     83  F   UNL A   1      44.213  32.244  33.092  1.00  0.00    -0.206 F 
ATOM     84  C   UNL A   1      44.886  35.428  31.504  1.00  0.00     0.006 A 
ENDBRANCH  60  77
ENDBRANCH  34  35
ENDBRANCH  26  29
ENDBRANCH  24  25
ENDBRANCH  23  24
ENDBRANCH   1  23
TORSDOF 14
ENDMDL
MODEL 3
REMARK VINA RESULT:     -11.0      5.307      9.371
REMARK SMILES CC(C)(C[NH2+][C@H]1CCc2ccccc21)C(=O)NCCCCNC(=O)c1ccc(-c2c3nc(c(-c4c(F)cccc4F)c4ccc([nH]4)c(-c4c(F)cccc4F)c4nc(c(-c5c(F)cccc5F)c5ccc2[nH]5)C=C4)C=C3)cc1
REMARK SMILES IDX 19 1 18 2 17 3 15 4 16 5 2 7 1 8 3 9 4 10 5 11 6 14 7 15
REMARK SMILES IDX 14 16 8 17 9 18 13 19 10 20 12 21 11 22 20 23 21 24 22 25
REMARK SMILES IDX 23 26 24 28 25 29 26 30 78 31 27 32 77 33 28 34 29 35 30 36
REMARK SMILES IDX 71 37 31 38 76 39 70 40 72 41 32 42 75 43 69 44 68 45 33 47
REMARK SMILES IDX 59 48 42 49 58 50 43 51 46 52 57 53 73 54 44 55 45 56 56 58
REMARK SMILES IDX 74 59 47 60 34 61 35 62 40 63 36 64 37 65 39 66 41 67 38 68
REMARK SMILES IDX 60 69 61 70 66 71 62 72 63 73 65 74 67 75 64 76 48 77 49 78
REMARK SMILES IDX 54 79 50 80 51 81 53 82 55 83 52 84
REMARK H PARENT 17 6 5 12 5 13 22 27 72 46 46 57
REMARK Flexibility Score: inf
ROOT
ATOM      1  C   UNL A   1      31.403  30.794  26.012  1.00  0.00     0.023 C 
ENDROOT
BRANCH   1   2
ATOM      2  C   UNL A   1      32.072  29.848  27.006  1.00  0.00     0.116 C 
BRANCH   2   3
ATOM      3  N   UNL A   1      31.441  28.546  27.023  1.00  0.00    -0.355 N 
ATOM      4  C   UNL A   1      31.803  27.340  26.507  1.00  0.00     0.231 C 
ATOM      5  O   UNL A   1      31.009  26.416  26.718  1.00  0.00    -0.274 OA
ATOM      6  H   UNL A   1      30.582  28.529  27.503  1.00  0.00     0.163 HD
BRANCH   4   7
ATOM      7  C   UNL A   1      33.143  27.096  25.781  1.00  0.00     0.092 C 
ATOM      8  C   UNL A   1      33.637  25.666  26.126  1.00  0.00     0.027 C 
ATOM      9  C   UNL A   1      34.210  28.061  26.343  1.00  0.00     0.027 C 
BRANCH   7  10
ATOM     10  C   UNL A   1      33.046  27.233  24.239  1.00  0.00     0.277 C 
BRANCH  10  11
ATOM     11  N   UNL A   1      32.097  28.249  23.779  1.00  0.00    -0.339 N 
ATOM     12  H   UNL A   1      32.626  29.050  23.434  1.00  0.00     0.346 HD
ATOM     13  H   UNL A   1      31.505  28.485  24.576  1.00  0.00     0.346 HD
BRANCH  11  14
ATOM     14  C   UNL A   1      31.208  27.788  22.711  1.00  0.00     0.214 C 
ATOM     15  C   UNL A   1      30.437  26.475  22.987  1.00  0.00     0.075 C 
ATOM     16  C   UNL A   1      30.040  28.733  22.556  1.00  0.00     0.012 A 
ATOM     17  C   UNL A   1      29.160  26.859  23.741  1.00  0.00     0.042 C 
ATOM     18  C   UNL A   1      28.879  28.196  23.134  1.00  0.00    -0.039 A 
ATOM     19  C   UNL A   1      30.020  29.985  21.962  1.00  0.00     0.010 A 
ATOM     20  C   UNL A   1      27.683  28.893  23.126  1.00  0.00     0.004 A 
ATOM     21  C   UNL A   1      28.813  30.689  21.934  1.00  0.00     0.001 A 
ATOM     22  C   UNL A   1      27.653  30.146  22.511  1.00  0.00     0.000 A 
ENDBRANCH  11  14
ENDBRANCH  10  11
ENDBRANCH   7  10
ENDBRANCH   4   7
ENDBRANCH   2   3
ENDBRANCH   1   2
BRANCH   1  23
ATOM     23  C   UNL A   1      31.247  32.236  26.501  1.00  0.00     0.023 C 
BRANCH  23  24
ATOM     24  C   UNL A   1      32.457  32.819  27.226  1.00  0.00     0.116 C 
BRANCH  24  25
ATOM     25  N   UNL A   1      32.275  34.205  27.625  1.00  0.00    -0.352 N 
ATOM     26  C   UNL A   1      32.945  34.937  28.571  1.00  0.00     0.251 C 
ATOM     27  H   UNL A   1      31.565  34.690  27.145  1.00  0.00     0.163 HD
ATOM     28  O   UNL A   1      32.566  36.076  28.840  1.00  0.00    -0.269 OA
BRANCH  26  29
ATOM     29  C   UNL A   1      34.095  34.356  29.298  1.00  0.00     0.039 A 
ATOM     30  C   UNL A   1      33.848  33.659  30.483  1.00  0.00     0.014 A 
ATOM     31  C   UNL A   1      35.405  34.496  28.829  1.00  0.00     0.014 A 
ATOM     32  C   UNL A   1      34.906  33.056  31.166  1.00  0.00     0.010 A 
ATOM     33  C   UNL A   1      36.448  33.828  29.469  1.00  0.00     0.010 A 
ATOM     34  C   UNL A   1      36.210  33.106  30.647  1.00  0.00    -0.014 A 
BRANCH  34  35
ATOM     35  C   UNL A   1      37.317  32.388  31.330  1.00  0.00     0.031 A 
ATOM     36  C   UNL A   1      38.028  31.248  30.657  1.00  0.00     0.074 A 
ATOM     37  C   UNL A   1      37.667  32.757  32.577  1.00  0.00     0.049 A 
ATOM     38  N   UNL A   1      39.049  30.547  31.082  1.00  0.00    -0.248 NA
ATOM     39  C   UNL A   1      37.512  30.820  29.347  1.00  0.00     0.031 C 
ATOM     40  C   UNL A   1      37.007  33.798  33.368  1.00  0.00     0.029 A 
ATOM     41  N   UNL A   1      38.670  32.303  33.397  1.00  0.00    -0.354 N 
ATOM     42  C   UNL A   1      39.293  29.597  30.098  1.00  0.00     0.074 A 
ATOM     43  C   UNL A   1      38.276  29.771  29.083  1.00  0.00     0.031 C 
ATOM     44  C   UNL A   1      37.648  33.932  34.540  1.00  0.00     0.029 A 
ATOM     45  C   UNL A   1      38.745  32.972  34.595  1.00  0.00     0.049 A 
ATOM     46  H   UNL A   1      39.277  31.568  33.151  1.00  0.00     0.167 HD
ATOM     47  C   UNL A   1      40.289  28.681  30.031  1.00  0.00     0.037 A 
ATOM     48  C   UNL A   1      39.610  32.837  35.617  1.00  0.00     0.037 A 
ATOM     49  C   UNL A   1      41.309  28.519  31.035  1.00  0.00     0.049 A 
ATOM     50  C   UNL A   1      40.724  31.834  35.507  1.00  0.00     0.074 A 
ATOM     51  C   UNL A   1      42.395  27.661  31.033  1.00  0.00     0.029 A 
ATOM     52  N   UNL A   1      41.365  29.230  32.226  1.00  0.00    -0.354 N 
ATOM     53  N   UNL A   1      40.997  31.004  34.529  1.00  0.00    -0.248 NA
ATOM     54  C   UNL A   1      41.662  31.763  36.635  1.00  0.00     0.031 C 
ATOM     55  C   UNL A   1      43.084  27.822  32.241  1.00  0.00     0.029 A 
ATOM     56  C   UNL A   1      42.458  28.817  32.972  1.00  0.00     0.049 A 
ATOM     57  H   UNL A   1      40.724  29.925  32.498  1.00  0.00     0.167 HD
ATOM     58  C   UNL A   1      42.151  30.333  34.911  1.00  0.00     0.074 A 
ATOM     59  C   UNL A   1      42.538  30.869  36.200  1.00  0.00     0.031 C 
ATOM     60  C   UNL A   1      42.829  29.358  34.255  1.00  0.00     0.037 A 
BRANCH  47  61
ATOM     61  C   UNL A   1      40.326  27.785  28.826  1.00  0.00     0.057 A 
ATOM     62  C   UNL A   1      41.074  28.111  27.686  1.00  0.00     0.134 A 
ATOM     63  C   UNL A   1      39.633  26.568  28.815  1.00  0.00     0.134 A 
ATOM     64  F   UNL A   1      41.751  29.267  27.624  1.00  0.00    -0.206 F 
ATOM     65  C   UNL A   1      41.108  27.272  26.569  1.00  0.00     0.040 A 
ATOM     66  C   UNL A   1      39.684  25.708  27.716  1.00  0.00     0.040 A 
ATOM     67  F   UNL A   1      38.902  26.190  29.875  1.00  0.00    -0.206 F 
ATOM     68  C   UNL A   1      40.417  26.063  26.586  1.00  0.00     0.006 A 
ENDBRANCH  47  61
BRANCH  48  69
ATOM     69  C   UNL A   1      39.487  33.707  36.814  1.00  0.00     0.057 A 
ATOM     70  C   UNL A   1      40.111  34.959  36.865  1.00  0.00     0.134 A 
ATOM     71  C   UNL A   1      38.750  33.307  37.934  1.00  0.00     0.134 A 
ATOM     72  F   UNL A   1      40.845  35.391  35.829  1.00  0.00    -0.206 F 
ATOM     73  C   UNL A   1      40.024  35.774  37.995  1.00  0.00     0.040 A 
ATOM     74  C   UNL A   1      38.633  34.123  39.060  1.00  0.00     0.040 A 
ATOM     75  F   UNL A   1      38.120  32.123  37.943  1.00  0.00    -0.206 F 
ATOM     76  C   UNL A   1      39.278  35.357  39.095  1.00  0.00     0.006 A 
ENDBRANCH  48  69
BRANCH  60  77
ATOM     77  C   UNL A   1      44.077  28.839  34.911  1.00  0.00     0.057 A 
ATOM     78  C   UNL A   1      44.055  27.738  35.778  1.00  0.00     0.134 A 
ATOM     79  C   UNL A   1      45.314  29.448  34.669  1.00  0.00     0.134 A 
ATOM     80  F   UNL A   1      42.900  27.117  36.061  1.00  0.00    -0.206 F 
ATOM     81  C   UNL A   1      45.216  27.286  36.410  1.00  0.00     0.040 A 
ATOM     82  C   UNL A   1      46.485  28.985  35.271  1.00  0.00     0.040 A 
ATOM     83  F   UNL A   1      45.407  30.499  33.841  1.00  0.00    -0.206 F 
ATOM     84  C   UNL A   1      46.436  27.909  36.154  1.00  0.00     0.006 A 
ENDBRANCH  60  77
ENDBRANCH  34  35
ENDBRANCH  26  29
ENDBRANCH  24  25
ENDBRANCH  23  24
ENDBRANCH   1  23
TORSDOF 14
ENDMDL
