MODEL 1
REMARK VINA RESULT:     -11.8      0.000      0.000
REMARK SMILES CS(=O)(=O)c1ccc(-c2cc(Cl)cnc2-c2ccc(C(=O)NCCCCNC(=O)c3ccc(-c4c5nc(c(-c6c(F)cccc6F)c6ccc([nH]6)c(-c6c(F)cccc6F)c6nc(c(-c7c(F)cccc7F)c7ccc4[nH]7)C=C6)C=C5)cc3)nc2)cc1
REMARK SMILES IDX 24 1 23 2 22 3 20 4 21 5 19 7 16 8 17 9 85 10 18 11 84 12
REMARK SMILES IDX 15 13 9 14 10 15 11 16 14 17 12 18 13 19 8 20 5 21 6 22
REMARK SMILES IDX 87 23 7 24 86 25 2 26 1 27 3 28 4 29 25 30 26 31 27 32 28 33
REMARK SMILES IDX 29 35 30 36 31 37 83 38 32 39 82 40 33 41 34 42 35 43 76 44
REMARK SMILES IDX 36 45 81 46 75 47 77 48 37 49 80 50 74 51 73 52 38 54 64 55
REMARK SMILES IDX 47 56 63 57 48 58 51 59 62 60 78 61 49 62 50 63 61 65 79 66
REMARK SMILES IDX 52 67 39 68 40 69 45 70 41 71 42 72 44 73 46 74 43 75 65 76
REMARK SMILES IDX 66 77 71 78 67 79 68 80 70 81 72 82 69 83 53 84 54 85 59 86
REMARK SMILES IDX 55 87 56 88 58 89 60 90 57 91
REMARK H PARENT 22 6 27 34 77 53 51 64
REMARK Flexibility Score: inf
ROOT
ATOM      1  C   UNL A   1      34.448  33.158  29.203  1.00  0.00     0.023 C 
ENDROOT
BRANCH   1   2
ATOM      2  C   UNL A   1      35.292  32.771  27.987  1.00  0.00     0.116 C 
BRANCH   2   3
ATOM      3  N   UNL A   1      35.893  31.465  28.168  1.00  0.00    -0.351 N 
ATOM      4  C   UNL A   1      35.485  30.199  27.801  1.00  0.00     0.269 C 
ATOM      5  O   UNL A   1      36.253  29.277  28.077  1.00  0.00    -0.268 OA
ATOM      6  H   UNL A   1      36.754  31.485  28.645  1.00  0.00     0.163 HD
BRANCH   4   7
ATOM      7  C   UNL A   1      34.203  29.922  27.057  1.00  0.00     0.128 A 
ATOM      8  C   UNL A   1      31.964  29.521  25.476  1.00  0.00     0.019 A 
ATOM      9  C   UNL A   1      31.817  29.854  26.822  1.00  0.00     0.014 A 
ATOM     10  C   UNL A   1      33.260  29.324  25.018  1.00  0.00     0.122 A 
ATOM     11  C   UNL A   1      32.941  30.030  27.626  1.00  0.00     0.035 A 
ATOM     12  N   UNL A   1      34.372  29.542  25.763  1.00  0.00    -0.250 NA
BRANCH   8  13
ATOM     13  C   UNL A   1      30.806  29.451  24.586  1.00  0.00     0.080 A 
ATOM     14  C   UNL A   1      30.337  28.229  24.055  1.00  0.00     0.010 A 
ATOM     15  C   UNL A   1      29.288  28.299  23.126  1.00  0.00     0.033 A 
ATOM     16  C   UNL A   1      28.750  29.531  22.773  1.00  0.00     0.060 A 
ATOM     17  N   UNL A   1      30.278  30.659  24.261  1.00  0.00    -0.254 NA
ATOM     18  Cl  UNL A   1      27.481  29.632  21.622  1.00  0.00    -0.083 Cl
ATOM     19  C   UNL A   1      29.265  30.672  23.364  1.00  0.00     0.132 A 
BRANCH  14  20
ATOM     20  C   UNL A   1      30.910  26.921  24.431  1.00  0.00    -0.016 A 
ATOM     21  C   UNL A   1      31.954  24.402  25.119  1.00  0.00     0.067 A 
ATOM     22  C   UNL A   1      32.289  24.977  23.893  1.00  0.00     0.021 A 
ATOM     23  C   UNL A   1      31.126  25.078  26.017  1.00  0.00     0.021 A 
ATOM     24  C   UNL A   1      31.771  26.230  23.557  1.00  0.00     0.010 A 
ATOM     25  C   UNL A   1      30.606  26.329  25.669  1.00  0.00     0.010 A 
BRANCH  21  26
ATOM     26  S   UNL A   1      32.646  22.824  25.557  1.00  0.00     0.175 S 
ATOM     27  C   UNL A   1      33.880  22.544  24.314  1.00  0.00     0.163 C 
ATOM     28  O   UNL A   1      31.611  21.827  25.386  1.00  0.00    -0.224 OA
ATOM     29  O   UNL A   1      33.318  22.995  26.834  1.00  0.00    -0.224 OA
ENDBRANCH  21  26
ENDBRANCH  14  20
ENDBRANCH   8  13
ENDBRANCH   4   7
ENDBRANCH   2   3
ENDBRANCH   1   2
BRANCH   1  30
ATOM     30  C   UNL A   1      33.367  34.203  28.921  1.00  0.00     0.023 C 
BRANCH  30  31
ATOM     31  C   UNL A   1      33.638  35.583  29.507  1.00  0.00     0.116 C 
BRANCH  31  32
ATOM     32  N   UNL A   1      32.621  36.026  30.448  1.00  0.00    -0.352 N 
ATOM     33  C   UNL A   1      32.586  35.825  31.809  1.00  0.00     0.251 C 
ATOM     34  H   UNL A   1      31.866  36.530  30.066  1.00  0.00     0.163 HD
ATOM     35  O   UNL A   1      31.622  36.184  32.473  1.00  0.00    -0.269 OA
BRANCH  33  36
ATOM     36  C   UNL A   1      33.715  35.120  32.444  1.00  0.00     0.039 A 
ATOM     37  C   UNL A   1      33.521  33.817  32.907  1.00  0.00     0.014 A 
ATOM     38  C   UNL A   1      34.977  35.718  32.498  1.00  0.00     0.014 A 
ATOM     39  C   UNL A   1      34.618  33.078  33.351  1.00  0.00     0.010 A 
ATOM     40  C   UNL A   1      36.076  34.959  32.878  1.00  0.00     0.010 A 
ATOM     41  C   UNL A   1      35.909  33.629  33.297  1.00  0.00    -0.014 A 
BRANCH  41  42
ATOM     42  C   UNL A   1      37.107  32.835  33.655  1.00  0.00     0.031 A 
ATOM     43  C   UNL A   1      37.841  33.123  34.932  1.00  0.00     0.074 A 
ATOM     44  C   UNL A   1      37.586  31.921  32.788  1.00  0.00     0.049 A 
ATOM     45  N   UNL A   1      38.975  32.635  35.364  1.00  0.00    -0.248 NA
ATOM     46  C   UNL A   1      37.234  34.120  35.829  1.00  0.00     0.031 C 
ATOM     47  C   UNL A   1      36.987  31.582  31.496  1.00  0.00     0.029 A 
ATOM     48  N   UNL A   1      38.701  31.126  32.857  1.00  0.00    -0.354 N 
ATOM     49  C   UNL A   1      39.228  33.277  36.568  1.00  0.00     0.074 A 
ATOM     50  C   UNL A   1      38.153  34.224  36.778  1.00  0.00     0.031 C 
ATOM     51  C   UNL A   1      37.732  30.637  30.901  1.00  0.00     0.029 A 
ATOM     52  C   UNL A   1      38.880  30.332  31.749  1.00  0.00     0.049 A 
ATOM     53  H   UNL A   1      39.315  31.122  33.626  1.00  0.00     0.167 HD
ATOM     54  C   UNL A   1      40.252  33.082  37.431  1.00  0.00     0.037 A 
ATOM     55  C   UNL A   1      39.865  29.465  31.449  1.00  0.00     0.037 A 
ATOM     56  C   UNL A   1      41.303  32.118  37.234  1.00  0.00     0.049 A 
ATOM     57  C   UNL A   1      40.990  29.263  32.425  1.00  0.00     0.074 A 
ATOM     58  C   UNL A   1      42.355  31.806  38.077  1.00  0.00     0.029 A 
ATOM     59  N   UNL A   1      41.431  31.311  36.115  1.00  0.00    -0.354 N 
ATOM     60  N   UNL A   1      41.189  29.840  33.585  1.00  0.00    -0.248 NA
ATOM     61  C   UNL A   1      42.027  28.292  32.050  1.00  0.00     0.031 C 
ATOM     62  C   UNL A   1      43.138  30.829  37.453  1.00  0.00     0.029 A 
ATOM     63  C   UNL A   1      42.551  30.507  36.240  1.00  0.00     0.049 A 
ATOM     64  H   UNL A   1      40.816  31.309  35.346  1.00  0.00     0.167 HD
ATOM     65  C   UNL A   1      42.353  29.280  34.093  1.00  0.00     0.074 A 
ATOM     66  C   UNL A   1      42.813  28.313  33.117  1.00  0.00     0.031 C 
ATOM     67  C   UNL A   1      42.984  29.540  35.264  1.00  0.00     0.037 A 
BRANCH  54  68
ATOM     68  C   UNL A   1      40.277  33.926  38.670  1.00  0.00     0.057 A 
ATOM     69  C   UNL A   1      40.985  35.134  38.724  1.00  0.00     0.134 A 
ATOM     70  C   UNL A   1      39.572  33.538  39.816  1.00  0.00     0.134 A 
ATOM     71  F   UNL A   1      41.694  35.554  37.665  1.00  0.00    -0.206 F 
ATOM     72  C   UNL A   1      41.011  35.913  39.882  1.00  0.00     0.040 A 
ATOM     73  C   UNL A   1      39.570  34.323  40.971  1.00  0.00     0.040 A 
ATOM     74  F   UNL A   1      38.871  32.395  39.831  1.00  0.00    -0.206 F 
ATOM     75  C   UNL A   1      40.297  35.511  41.008  1.00  0.00     0.006 A 
ENDBRANCH  54  68
BRANCH  55  76
ATOM     76  C   UNL A   1      39.820  28.700  30.179  1.00  0.00     0.057 A 
ATOM     77  C   UNL A   1      40.452  29.183  29.027  1.00  0.00     0.134 A 
ATOM     78  C   UNL A   1      39.146  27.477  30.081  1.00  0.00     0.134 A 
ATOM     79  F   UNL A   1      41.098  30.358  29.055  1.00  0.00    -0.206 F 
ATOM     80  C   UNL A   1      40.399  28.488  27.818  1.00  0.00     0.040 A 
ATOM     81  C   UNL A   1      39.104  26.761  28.883  1.00  0.00     0.040 A 
ATOM     82  F   UNL A   1      38.528  26.957  31.151  1.00  0.00    -0.206 F 
ATOM     83  C   UNL A   1      39.727  27.271  27.746  1.00  0.00     0.006 A 
ENDBRANCH  55  76
BRANCH  67  84
ATOM     84  C   UNL A   1      44.215  28.741  35.573  1.00  0.00     0.057 A 
ATOM     85  C   UNL A   1      45.491  29.175  35.198  1.00  0.00     0.134 A 
ATOM     86  C   UNL A   1      44.121  27.546  36.297  1.00  0.00     0.134 A 
ATOM     87  F   UNL A   1      45.645  30.305  34.491  1.00  0.00    -0.206 F 
ATOM     88  C   UNL A   1      46.633  28.438  35.518  1.00  0.00     0.040 A 
ATOM     89  C   UNL A   1      45.256  26.812  36.642  1.00  0.00     0.040 A 
ATOM     90  F   UNL A   1      42.927  27.080  36.691  1.00  0.00    -0.206 F 
ATOM     91  C   UNL A   1      46.517  27.256  36.249  1.00  0.00     0.006 A 
ENDBRANCH  67  84
ENDBRANCH  41  42
ENDBRANCH  33  36
ENDBRANCH  31  32
ENDBRANCH  30  31
ENDBRANCH   1  30
TORSDOF 14
ENDMDL
MODEL 2
REMARK VINA RESULT:     -11.4      6.021     10.342
REMARK SMILES CS(=O)(=O)c1ccc(-c2cc(Cl)cnc2-c2ccc(C(=O)NCCCCNC(=O)c3ccc(-c4c5nc(c(-c6c(F)cccc6F)c6ccc([nH]6)c(-c6c(F)cccc6F)c6nc(c(-c7c(F)cccc7F)c7ccc4[nH]7)C=C6)C=C5)cc3)nc2)cc1
REMARK SMILES IDX 24 1 23 2 22 3 20 4 21 5 19 7 16 8 17 9 85 10 18 11 84 12
REMARK SMILES IDX 15 13 9 14 10 15 11 16 14 17 12 18 13 19 8 20 5 21 6 22
REMARK SMILES IDX 87 23 7 24 86 25 2 26 1 27 3 28 4 29 25 30 26 31 27 32 28 33
REMARK SMILES IDX 29 35 30 36 31 37 83 38 32 39 82 40 33 41 34 42 35 43 76 44
REMARK SMILES IDX 36 45 81 46 75 47 77 48 37 49 80 50 74 51 73 52 38 54 64 55
REMARK SMILES IDX 47 56 63 57 48 58 51 59 62 60 78 61 49 62 50 63 61 65 79 66
REMARK SMILES IDX 52 67 39 68 40 69 45 70 41 71 42 72 44 73 46 74 43 75 65 76
REMARK SMILES IDX 66 77 71 78 67 79 68 80 70 81 72 82 69 83 53 84 54 85 59 86
REMARK SMILES IDX 55 87 56 88 58 89 60 90 57 91
REMARK H PARENT 22 6 27 34 77 53 51 64
REMARK Flexibility Score: inf
ROOT
ATOM      1  C   UNL A   1      37.801  19.880  24.631  1.00  0.00     0.023 C 
ENDROOT
BRANCH   1   2
ATOM      2  C   UNL A   1      37.043  20.863  25.525  1.00  0.00     0.116 C 
BRANCH   2   3
ATOM      3  N   UNL A   1      37.856  22.025  25.823  1.00  0.00    -0.351 N 
ATOM      4  C   UNL A   1      37.590  23.378  25.778  1.00  0.00     0.269 C 
ATOM      5  O   UNL A   1      38.502  24.126  26.132  1.00  0.00    -0.268 OA
ATOM      6  H   UNL A   1      38.772  21.807  26.112  1.00  0.00     0.163 HD
BRANCH   4   7
ATOM      7  C   UNL A   1      36.256  23.949  25.371  1.00  0.00     0.128 A 
ATOM      8  C   UNL A   1      33.700  24.879  24.840  1.00  0.00     0.019 A 
ATOM      9  C   UNL A   1      34.544  24.518  23.789  1.00  0.00     0.014 A 
ATOM     10  C   UNL A   1      34.237  24.827  26.119  1.00  0.00     0.122 A 
ATOM     11  C   UNL A   1      35.838  24.076  24.053  1.00  0.00     0.035 A 
ATOM     12  N   UNL A   1      35.472  24.349  26.408  1.00  0.00    -0.250 NA
BRANCH   8  13
ATOM     13  C   UNL A   1      32.302  25.229  24.596  1.00  0.00     0.080 A 
ATOM     14  C   UNL A   1      31.342  24.269  24.209  1.00  0.00     0.010 A 
ATOM     15  C   UNL A   1      30.058  24.742  23.896  1.00  0.00     0.033 A 
ATOM     16  C   UNL A   1      29.774  26.101  23.984  1.00  0.00     0.060 A 
ATOM     17  N   UNL A   1      32.033  26.557  24.701  1.00  0.00    -0.254 NA
ATOM     18  Cl  UNL A   1      28.215  26.694  23.584  1.00  0.00    -0.083 Cl
ATOM     19  C   UNL A   1      30.778  26.961  24.393  1.00  0.00     0.132 A 
BRANCH  14  20
ATOM     20  C   UNL A   1      31.644  22.827  24.116  1.00  0.00    -0.016 A 
ATOM     21  C   UNL A   1      32.279  20.094  23.942  1.00  0.00     0.067 A 
ATOM     22  C   UNL A   1      32.082  20.678  25.192  1.00  0.00     0.021 A 
ATOM     23  C   UNL A   1      32.140  20.847  22.775  1.00  0.00     0.021 A 
ATOM     24  C   UNL A   1      31.763  22.036  25.274  1.00  0.00     0.010 A 
ATOM     25  C   UNL A   1      31.827  22.208  22.867  1.00  0.00     0.010 A 
BRANCH  21  26
ATOM     26  S   UNL A   1      32.648  18.357  23.843  1.00  0.00     0.175 S 
ATOM     27  C   UNL A   1      34.364  18.264  24.283  1.00  0.00     0.163 C 
ATOM     28  O   UNL A   1      32.525  17.959  22.457  1.00  0.00    -0.224 OA
ATOM     29  O   UNL A   1      31.875  17.699  24.883  1.00  0.00    -0.224 OA
ENDBRANCH  21  26
ENDBRANCH  14  20
ENDBRANCH   8  13
ENDBRANCH   4   7
ENDBRANCH   2   3
ENDBRANCH   1   2
BRANCH   1  30
ATOM     30  C   UNL A   1      38.709  18.905  25.383  1.00  0.00     0.023 C 
BRANCH  30  31
ATOM     31  C   UNL A   1      39.855  19.554  26.148  1.00  0.00     0.116 C 
BRANCH  31  32
ATOM     32  N   UNL A   1      41.142  18.913  25.922  1.00  0.00    -0.352 N 
ATOM     33  C   UNL A   1      42.392  19.479  26.009  1.00  0.00     0.251 C 
ATOM     34  H   UNL A   1      41.115  17.959  25.678  1.00  0.00     0.163 HD
ATOM     35  O   UNL A   1      43.394  18.840  25.711  1.00  0.00    -0.269 OA
BRANCH  33  36
ATOM     36  C   UNL A   1      42.498  20.891  26.420  1.00  0.00     0.039 A 
ATOM     37  C   UNL A   1      42.644  21.190  27.776  1.00  0.00     0.014 A 
ATOM     38  C   UNL A   1      42.542  21.902  25.456  1.00  0.00     0.014 A 
ATOM     39  C   UNL A   1      42.918  22.502  28.163  1.00  0.00     0.010 A 
ATOM     40  C   UNL A   1      42.880  23.194  25.837  1.00  0.00     0.010 A 
ATOM     41  C   UNL A   1      43.082  23.504  27.192  1.00  0.00    -0.014 A 
BRANCH  41  42
ATOM     42  C   UNL A   1      43.483  24.882  27.560  1.00  0.00     0.031 A 
ATOM     43  C   UNL A   1      42.457  25.845  28.083  1.00  0.00     0.074 A 
ATOM     44  C   UNL A   1      44.746  25.293  27.333  1.00  0.00     0.049 A 
ATOM     45  N   UNL A   1      42.574  27.122  28.338  1.00  0.00    -0.248 NA
ATOM     46  C   UNL A   1      41.108  25.304  28.320  1.00  0.00     0.031 C 
ATOM     47  C   UNL A   1      45.822  24.464  26.787  1.00  0.00     0.029 A 
ATOM     48  N   UNL A   1      45.331  26.520  27.517  1.00  0.00    -0.354 N 
ATOM     49  C   UNL A   1      41.315  27.542  28.744  1.00  0.00     0.074 A 
ATOM     50  C   UNL A   1      40.437  26.395  28.658  1.00  0.00     0.031 C 
ATOM     51  C   UNL A   1      46.941  25.202  26.695  1.00  0.00     0.029 A 
ATOM     52  C   UNL A   1      46.651  26.562  27.138  1.00  0.00     0.049 A 
ATOM     53  H   UNL A   1      44.852  27.296  27.886  1.00  0.00     0.167 HD
ATOM     54  C   UNL A   1      40.929  28.768  29.169  1.00  0.00     0.037 A 
ATOM     55  C   UNL A   1      47.525  27.587  27.137  1.00  0.00     0.037 A 
ATOM     56  C   UNL A   1      41.813  29.899  29.281  1.00  0.00     0.049 A 
ATOM     57  C   UNL A   1      47.073  28.938  27.616  1.00  0.00     0.074 A 
ATOM     58  C   UNL A   1      41.531  31.169  29.755  1.00  0.00     0.029 A 
ATOM     59  N   UNL A   1      43.150  29.893  28.918  1.00  0.00    -0.354 N 
ATOM     60  N   UNL A   1      45.893  29.308  28.048  1.00  0.00    -0.248 NA
ATOM     61  C   UNL A   1      48.076  30.013  27.608  1.00  0.00     0.031 C 
ATOM     62  C   UNL A   1      42.692  31.941  29.648  1.00  0.00     0.029 A 
ATOM     63  C   UNL A   1      43.706  31.141  29.146  1.00  0.00     0.049 A 
ATOM     64  H   UNL A   1      43.633  29.117  28.553  1.00  0.00     0.167 HD
ATOM     65  C   UNL A   1      46.017  30.648  28.392  1.00  0.00     0.074 A 
ATOM     66  C   UNL A   1      47.390  31.023  28.125  1.00  0.00     0.031 C 
ATOM     67  C   UNL A   1      45.079  31.491  28.888  1.00  0.00     0.037 A 
BRANCH  54  68
ATOM     68  C   UNL A   1      39.490  28.943  29.549  1.00  0.00     0.057 A 
ATOM     69  C   UNL A   1      39.037  28.701  30.852  1.00  0.00     0.134 A 
ATOM     70  C   UNL A   1      38.548  29.375  28.607  1.00  0.00     0.134 A 
ATOM     71  F   UNL A   1      39.886  28.270  31.797  1.00  0.00    -0.206 F 
ATOM     72  C   UNL A   1      37.694  28.858  31.199  1.00  0.00     0.040 A 
ATOM     73  C   UNL A   1      37.207  29.562  28.949  1.00  0.00     0.040 A 
ATOM     74  F   UNL A   1      38.915  29.628  27.342  1.00  0.00    -0.206 F 
ATOM     75  C   UNL A   1      36.776  29.296  30.247  1.00  0.00     0.006 A 
ENDBRANCH  54  68
BRANCH  55  76
ATOM     76  C   UNL A   1      48.923  27.371  26.692  1.00  0.00     0.057 A 
ATOM     77  C   UNL A   1      49.267  27.458  25.337  1.00  0.00     0.134 A 
ATOM     78  C   UNL A   1      49.945  27.069  27.599  1.00  0.00     0.134 A 
ATOM     79  F   UNL A   1      48.327  27.726  24.419  1.00  0.00    -0.206 F 
ATOM     80  C   UNL A   1      50.573  27.234  24.899  1.00  0.00     0.040 A 
ATOM     81  C   UNL A   1      51.260  26.864  27.177  1.00  0.00     0.040 A 
ATOM     82  F   UNL A   1      49.681  26.980  28.911  1.00  0.00    -0.206 F 
ATOM     83  C   UNL A   1      51.574  26.940  25.821  1.00  0.00     0.006 A 
ENDBRANCH  55  76
BRANCH  67  84
ATOM     84  C   UNL A   1      45.515  32.888  29.212  1.00  0.00     0.057 A 
ATOM     85  C   UNL A   1      46.072  33.220  30.452  1.00  0.00     0.134 A 
ATOM     86  C   UNL A   1      45.418  33.902  28.250  1.00  0.00     0.134 A 
ATOM     87  F   UNL A   1      46.178  32.295  31.419  1.00  0.00    -0.206 F 
ATOM     88  C   UNL A   1      46.503  34.518  30.732  1.00  0.00     0.040 A 
ATOM     89  C   UNL A   1      45.867  35.197  28.511  1.00  0.00     0.040 A 
ATOM     90  F   UNL A   1      44.900  33.646  27.040  1.00  0.00    -0.206 F 
ATOM     91  C   UNL A   1      46.408  35.509  29.756  1.00  0.00     0.006 A 
ENDBRANCH  67  84
ENDBRANCH  41  42
ENDBRANCH  33  36
ENDBRANCH  31  32
ENDBRANCH  30  31
ENDBRANCH   1  30
TORSDOF 14
ENDMDL
MODEL 3
REMARK VINA RESULT:     -11.3      0.491      6.118
REMARK SMILES CS(=O)(=O)c1ccc(-c2cc(Cl)cnc2-c2ccc(C(=O)NCCCCNC(=O)c3ccc(-c4c5nc(c(-c6c(F)cccc6F)c6ccc([nH]6)c(-c6c(F)cccc6F)c6nc(c(-c7c(F)cccc7F)c7ccc4[nH]7)C=C6)C=C5)cc3)nc2)cc1
REMARK SMILES IDX 24 1 23 2 22 3 20 4 21 5 19 7 16 8 17 9 85 10 18 11 84 12
REMARK SMILES IDX 15 13 9 14 10 15 11 16 14 17 12 18 13 19 8 20 5 21 6 22
REMARK SMILES IDX 87 23 7 24 86 25 2 26 1 27 3 28 4 29 25 30 26 31 27 32 28 33
REMARK SMILES IDX 29 35 30 36 31 37 83 38 32 39 82 40 33 41 34 42 35 43 76 44
REMARK SMILES IDX 36 45 81 46 75 47 77 48 37 49 80 50 74 51 73 52 38 54 64 55
REMARK SMILES IDX 47 56 63 57 48 58 51 59 62 60 78 61 49 62 50 63 61 65 79 66
REMARK SMILES IDX 52 67 39 68 40 69 45 70 41 71 42 72 44 73 46 74 43 75 65 76
REMARK SMILES IDX 66 77 71 78 67 79 68 80 70 81 72 82 69 83 53 84 54 85 59 86
REMARK SMILES IDX 55 87 56 88 58 89 60 90 57 91
REMARK H PARENT 22 6 27 34 77 53 51 64
REMARK Flexibility Score: inf
ROOT
ATOM      1  C   UNL A   1      35.213  33.352  29.218  1.00  0.00     0.023 C 
ENDROOT
BRANCH   1   2
ATOM      2  C   UNL A   1      35.684  32.718  27.907  1.00  0.00     0.116 C 
BRANCH   2   3
ATOM      3  N   UNL A   1      36.213  31.389  28.137  1.00  0.00    -0.351 N 
ATOM      4  C   UNL A   1      35.728  30.134  27.832  1.00  0.00     0.269 C 
ATOM      5  O   UNL A   1      36.448  29.182  28.137  1.00  0.00    -0.268 OA
ATOM      6  H   UNL A   1      37.083  31.380  28.599  1.00  0.00     0.163 HD
BRANCH   4   7
ATOM      7  C   UNL A   1      34.420  29.898  27.121  1.00  0.00     0.128 A 
ATOM      8  C   UNL A   1      32.145  29.517  25.586  1.00  0.00     0.019 A 
ATOM      9  C   UNL A   1      32.046  30.107  26.847  1.00  0.00     0.014 A 
ATOM     10  C   UNL A   1      33.402  29.069  25.202  1.00  0.00     0.122 A 
ATOM     11  C   UNL A   1      33.184  30.275  27.631  1.00  0.00     0.035 A 
ATOM     12  N   UNL A   1      34.534  29.270  25.921  1.00  0.00    -0.250 NA
BRANCH   8  13
ATOM     13  C   UNL A   1      30.987  29.441  24.697  1.00  0.00     0.080 A 
ATOM     14  C   UNL A   1      30.561  28.225  24.119  1.00  0.00     0.010 A 
ATOM     15  C   UNL A   1      29.506  28.294  23.195  1.00  0.00     0.033 A 
ATOM     16  C   UNL A   1      28.923  29.519  22.893  1.00  0.00     0.060 A 
ATOM     17  N   UNL A   1      30.415  30.642  24.421  1.00  0.00    -0.254 NA
ATOM     18  Cl  UNL A   1      27.647  29.620  21.750  1.00  0.00    -0.083 Cl
ATOM     19  C   UNL A   1      29.399  30.653  23.528  1.00  0.00     0.132 A 
BRANCH  14  20
ATOM     20  C   UNL A   1      31.181  26.925  24.441  1.00  0.00    -0.016 A 
ATOM     21  C   UNL A   1      32.410  24.477  25.079  1.00  0.00     0.067 A 
ATOM     22  C   UNL A   1      31.533  25.068  25.989  1.00  0.00     0.021 A 
ATOM     23  C   UNL A   1      32.663  25.078  23.845  1.00  0.00     0.021 A 
ATOM     24  C   UNL A   1      30.922  26.282  25.666  1.00  0.00     0.010 A 
ATOM     25  C   UNL A   1      32.053  26.297  23.533  1.00  0.00     0.010 A 
BRANCH  21  26
ATOM     26  S   UNL A   1      33.155  22.914  25.480  1.00  0.00     0.175 S 
ATOM     27  C   UNL A   1      33.269  22.086  23.916  1.00  0.00     0.163 C 
ATOM     28  O   UNL A   1      32.219  22.177  26.302  1.00  0.00    -0.224 OA
ATOM     29  O   UNL A   1      34.503  23.193  25.947  1.00  0.00    -0.224 OA
ENDBRANCH  21  26
ENDBRANCH  14  20
ENDBRANCH   8  13
ENDBRANCH   4   7
ENDBRANCH   2   3
ENDBRANCH   1   2
BRANCH   1  30
ATOM     30  C   UNL A   1      33.808  33.956  29.163  1.00  0.00     0.023 C 
BRANCH  30  31
ATOM     31  C   UNL A   1      33.707  35.392  29.660  1.00  0.00     0.116 C 
BRANCH  31  32
ATOM     32  N   UNL A   1      32.630  35.602  30.617  1.00  0.00    -0.352 N 
ATOM     33  C   UNL A   1      32.634  35.326  31.964  1.00  0.00     0.251 C 
ATOM     34  H   UNL A   1      31.798  35.988  30.257  1.00  0.00     0.163 HD
ATOM     35  O   UNL A   1      31.623  35.477  32.640  1.00  0.00    -0.269 OA
BRANCH  33  36
ATOM     36  C   UNL A   1      33.868  34.793  32.570  1.00  0.00     0.039 A 
ATOM     37  C   UNL A   1      33.862  33.494  33.082  1.00  0.00     0.014 A 
ATOM     38  C   UNL A   1      35.044  35.546  32.546  1.00  0.00     0.014 A 
ATOM     39  C   UNL A   1      35.061  32.916  33.499  1.00  0.00     0.010 A 
ATOM     40  C   UNL A   1      36.246  34.947  32.900  1.00  0.00     0.010 A 
ATOM     41  C   UNL A   1      36.267  33.623  33.368  1.00  0.00    -0.014 A 
BRANCH  41  42
ATOM     42  C   UNL A   1      37.571  33.000  33.696  1.00  0.00     0.031 A 
ATOM     43  C   UNL A   1      38.161  31.970  32.778  1.00  0.00     0.074 A 
ATOM     44  C   UNL A   1      38.175  33.292  34.865  1.00  0.00     0.049 A 
ATOM     45  N   UNL A   1      39.218  31.218  32.946  1.00  0.00    -0.248 NA
ATOM     46  C   UNL A   1      37.446  31.730  31.513  1.00  0.00     0.031 C 
ATOM     47  C   UNL A   1      37.679  34.244  35.861  1.00  0.00     0.029 A 
ATOM     48  N   UNL A   1      39.329  32.801  35.420  1.00  0.00    -0.354 N 
ATOM     49  C   UNL A   1      39.283  30.404  31.824  1.00  0.00     0.074 A 
ATOM     50  C   UNL A   1      38.135  30.721  31.002  1.00  0.00     0.031 C 
ATOM     51  C   UNL A   1      38.531  34.278  36.899  1.00  0.00     0.029 A 
ATOM     52  C   UNL A   1      39.610  33.325  36.658  1.00  0.00     0.049 A 
ATOM     53  H   UNL A   1      39.902  32.137  34.974  1.00  0.00     0.167 HD
ATOM     54  C   UNL A   1      40.226  29.490  31.498  1.00  0.00     0.037 A 
ATOM     55  C   UNL A   1      40.620  33.058  37.509  1.00  0.00     0.037 A 
ATOM     56  C   UNL A   1      41.383  29.199  32.303  1.00  0.00     0.049 A 
ATOM     57  C   UNL A   1      41.656  32.040  37.122  1.00  0.00     0.074 A 
ATOM     58  C   UNL A   1      42.426  28.329  32.033  1.00  0.00     0.029 A 
ATOM     59  N   UNL A   1      41.650  29.774  33.536  1.00  0.00    -0.354 N 
ATOM     60  N   UNL A   1      41.735  31.315  36.033  1.00  0.00    -0.248 NA
ATOM     61  C   UNL A   1      42.743  31.803  38.083  1.00  0.00     0.031 C 
ATOM     62  C   UNL A   1      43.308  28.356  33.118  1.00  0.00     0.029 A 
ATOM     63  C   UNL A   1      42.834  29.270  34.045  1.00  0.00     0.049 A 
ATOM     64  H   UNL A   1      41.081  30.442  33.983  1.00  0.00     0.167 HD
ATOM     65  C   UNL A   1      42.893  30.561  36.162  1.00  0.00     0.074 A 
ATOM     66  C   UNL A   1      43.489  30.921  37.433  1.00  0.00     0.031 C 
ATOM     67  C   UNL A   1      43.419  29.653  35.304  1.00  0.00     0.037 A 
BRANCH  54  68
ATOM     68  C   UNL A   1      40.044  28.743  30.210  1.00  0.00     0.057 A 
ATOM     69  C   UNL A   1      39.275  27.574  30.138  1.00  0.00     0.134 A 
ATOM     70  C   UNL A   1      40.627  29.208  29.024  1.00  0.00     0.134 A 
ATOM     71  F   UNL A   1      38.703  27.069  31.241  1.00  0.00    -0.206 F 
ATOM     72  C   UNL A   1      39.114  26.880  28.939  1.00  0.00     0.040 A 
ATOM     73  C   UNL A   1      40.451  28.535  27.813  1.00  0.00     0.040 A 
ATOM     74  F   UNL A   1      41.372  30.323  29.022  1.00  0.00    -0.206 F 
ATOM     75  C   UNL A   1      39.699  27.363  27.771  1.00  0.00     0.006 A 
ENDBRANCH  54  68
BRANCH  55  76
ATOM     76  C   UNL A   1      40.717  33.784  38.799  1.00  0.00     0.057 A 
ATOM     77  C   UNL A   1      39.983  33.365  39.915  1.00  0.00     0.134 A 
ATOM     78  C   UNL A   1      41.536  34.909  38.949  1.00  0.00     0.134 A 
ATOM     79  F   UNL A   1      39.168  32.305  39.826  1.00  0.00    -0.206 F 
ATOM     80  C   UNL A   1      40.044  34.051  41.129  1.00  0.00     0.040 A 
ATOM     81  C   UNL A   1      41.623  35.592  40.164  1.00  0.00     0.040 A 
ATOM     82  F   UNL A   1      42.270  35.355  37.919  1.00  0.00    -0.206 F 
ATOM     83  C   UNL A   1      40.870  35.165  41.256  1.00  0.00     0.006 A 
ENDBRANCH  55  76
BRANCH  67  84
ATOM     84  C   UNL A   1      44.720  29.017  35.691  1.00  0.00     0.057 A 
ATOM     85  C   UNL A   1      44.773  27.822  36.418  1.00  0.00     0.134 A 
ATOM     86  C   UNL A   1      45.935  29.586  35.287  1.00  0.00     0.134 A 
ATOM     87  F   UNL A   1      43.643  27.237  36.845  1.00  0.00    -0.206 F 
ATOM     88  C   UNL A   1      45.990  27.224  36.746  1.00  0.00     0.040 A 
ATOM     89  C   UNL A   1      47.157  28.984  35.589  1.00  0.00     0.040 A 
ATOM     90  F   UNL A   1      45.952  30.726  34.582  1.00  0.00    -0.206 F 
ATOM     91  C   UNL A   1      47.187  27.801  36.324  1.00  0.00     0.006 A 
ENDBRANCH  67  84
ENDBRANCH  41  42
ENDBRANCH  33  36
ENDBRANCH  31  32
ENDBRANCH  30  31
ENDBRANCH   1  30
TORSDOF 14
ENDMDL
