MODEL 1
REMARK VINA RESULT:     -14.4      0.000      0.000
REMARK SMILES Cc1c(C(=O)NCCCCNC(=O)c2ccc(-c3c4nc(c(-c5c(F)cccc5F)c5ccc([nH]5)c(-c5c(F)cccc5F)c5nc(c(-c6c(F)cccc6F)c6ccc3[nH]6)C=C5)C=C4)cc2)cccc1-n1c(C)cc(/C=C2/C(=O)NC(=S)N=C2O)c1C
REMARK SMILES IDX 8 1 7 2 6 3 4 4 5 5 3 7 1 8 2 9 71 10 68 11 70 12 69 13
REMARK SMILES IDX 72 14 73 15 87 16 74 17 75 18 76 19 88 20 77 21 78 22 79 23
REMARK SMILES IDX 85 24 80 25 81 26 84 27 82 28 83 30 86 31 9 33 10 34 11 35
REMARK SMILES IDX 12 36 13 38 14 39 15 40 67 41 16 42 66 43 17 44 18 45 19 46
REMARK SMILES IDX 60 47 20 48 65 49 59 50 61 51 21 52 64 53 58 54 57 55 22 57
REMARK SMILES IDX 48 58 31 59 47 60 32 61 35 62 46 63 62 64 33 65 34 66 45 68
REMARK SMILES IDX 63 69 36 70 23 71 24 72 29 73 25 74 26 75 28 76 30 77 27 78
REMARK SMILES IDX 49 79 50 80 55 81 51 82 52 83 54 84 56 85 53 86 37 87 38 88
REMARK SMILES IDX 43 89 39 90 40 91 42 92 44 93 41 94
REMARK H PARENT 6 6 81 29 86 32 11 37 61 56 35 67
REMARK Flexibility Score: inf
ROOT
ATOM      1  C   UNL A   1      32.268  31.096  26.538  1.00  0.00     0.023 C 
ENDROOT
BRANCH   1   2
ATOM      2  C   UNL A   1      31.306  30.186  25.747  1.00  0.00     0.116 C 
BRANCH   2   3
ATOM      3  N   UNL A   1      31.817  29.887  24.426  1.00  0.00    -0.352 N 
ATOM      4  C   UNL A   1      32.428  28.848  23.782  1.00  0.00     0.251 C 
ATOM      5  O   UNL A   1      32.626  29.087  22.582  1.00  0.00    -0.269 OA
ATOM      6  H   UNL A   1      31.690  30.651  23.819  1.00  0.00     0.163 HD
BRANCH   4   7
ATOM      7  C   UNL A   1      32.864  27.493  24.301  1.00  0.00     0.044 A 
ATOM      8  C   UNL A   1      31.276  25.901  23.060  1.00  0.00     0.047 C 
ATOM      9  C   UNL A   1      32.376  26.195  24.026  1.00  0.00    -0.014 A 
ATOM     10  C   UNL A   1      32.903  25.100  24.770  1.00  0.00     0.049 A 
ATOM     11  C   UNL A   1      33.841  27.608  25.332  1.00  0.00     0.014 A 
ATOM     12  C   UNL A   1      33.846  25.252  25.787  1.00  0.00     0.027 A 
ATOM     13  C   UNL A   1      34.317  26.519  26.069  1.00  0.00     0.003 A 
BRANCH  10  14
ATOM     14  N   UNL A   1      32.365  23.801  24.609  1.00  0.00    -0.318 N 
ATOM     15  C   UNL A   1      31.331  23.267  25.356  1.00  0.00     0.020 A 
ATOM     16  C   UNL A   1      32.966  22.787  23.864  1.00  0.00     0.027 A 
ATOM     17  C   UNL A   1      30.630  24.008  26.442  1.00  0.00     0.065 C 
ATOM     18  C   UNL A   1      31.144  21.972  24.920  1.00  0.00     0.031 A 
ATOM     19  C   UNL A   1      32.155  21.668  23.968  1.00  0.00    -0.003 A 
ATOM     20  C   UNL A   1      34.289  23.009  23.201  1.00  0.00     0.065 C 
BRANCH  19  21
ATOM     21  C   UNL A   1      32.344  20.354  23.437  1.00  0.00     0.029 C 
ATOM     22  C   UNL A   1      32.640  19.174  24.013  1.00  0.00     0.102 C 
ATOM     23  C   UNL A   1      32.598  17.989  23.117  1.00  0.00     0.262 C 
ATOM     24  C   UNL A   1      32.924  18.839  25.408  1.00  0.00     0.226 C 
ATOM     25  O   UNL A   1      32.593  18.045  21.892  1.00  0.00    -0.269 OA
ATOM     26  N   UNL A   1      32.517  16.795  23.780  1.00  0.00    -0.297 N 
ATOM     27  N   UNL A   1      32.880  17.673  25.943  1.00  0.00    -0.184 NA
ATOM     28  C   UNL A   1      32.571  16.608  25.139  1.00  0.00     0.203 C 
ATOM     29  H   UNL A   1      32.408  15.987  23.227  1.00  0.00     0.172 HD
ATOM     30  S   UNL A   1      32.310  15.059  25.722  1.00  0.00    -0.038 S 
BRANCH  24  31
ATOM     31  O   UNL A   1      33.336  19.838  26.190  1.00  0.00    -0.493 OA
ATOM     32  H   UNL A   1      33.696  20.614  25.808  1.00  0.00     0.295 HD
ENDBRANCH  24  31
ENDBRANCH  19  21
ENDBRANCH  10  14
ENDBRANCH   4   7
ENDBRANCH   2   3
ENDBRANCH   1   2
BRANCH   1  33
ATOM     33  C   UNL A   1      33.230  30.385  27.486  1.00  0.00     0.023 C 
BRANCH  33  34
ATOM     34  C   UNL A   1      34.670  30.817  27.286  1.00  0.00     0.116 C 
BRANCH  34  35
ATOM     35  N   UNL A   1      35.282  31.543  28.390  1.00  0.00    -0.352 N 
ATOM     36  C   UNL A   1      36.265  31.120  29.276  1.00  0.00     0.251 C 
ATOM     37  H   UNL A   1      34.955  32.461  28.526  1.00  0.00     0.163 HD
ATOM     38  O   UNL A   1      36.590  31.836  30.210  1.00  0.00    -0.269 OA
BRANCH  36  39
ATOM     39  C   UNL A   1      37.028  29.867  29.001  1.00  0.00     0.039 A 
ATOM     40  C   UNL A   1      37.253  28.988  30.066  1.00  0.00     0.014 A 
ATOM     41  C   UNL A   1      37.711  29.678  27.805  1.00  0.00     0.014 A 
ATOM     42  C   UNL A   1      38.353  28.131  30.028  1.00  0.00     0.010 A 
ATOM     43  C   UNL A   1      38.880  28.947  27.818  1.00  0.00     0.010 A 
ATOM     44  C   UNL A   1      39.236  28.223  28.957  1.00  0.00    -0.014 A 
BRANCH  44  45
ATOM     45  C   UNL A   1      40.582  27.659  28.955  1.00  0.00     0.031 A 
ATOM     46  C   UNL A   1      40.787  26.244  28.586  1.00  0.00     0.074 A 
ATOM     47  C   UNL A   1      41.641  28.466  29.186  1.00  0.00     0.049 A 
ATOM     48  N   UNL A   1      41.850  25.564  28.848  1.00  0.00    -0.248 NA
ATOM     49  C   UNL A   1      39.764  25.466  27.900  1.00  0.00     0.031 C 
ATOM     50  C   UNL A   1      43.057  28.163  28.993  1.00  0.00     0.029 A 
ATOM     51  N   UNL A   1      41.642  29.684  29.881  1.00  0.00    -0.354 N 
ATOM     52  C   UNL A   1      41.758  24.356  28.196  1.00  0.00     0.074 A 
ATOM     53  C   UNL A   1      40.429  24.340  27.630  1.00  0.00     0.031 C 
ATOM     54  C   UNL A   1      43.780  28.954  29.802  1.00  0.00     0.029 A 
ATOM     55  C   UNL A   1      42.844  29.692  30.631  1.00  0.00     0.049 A 
ATOM     56  H   UNL A   1      40.953  30.386  29.853  1.00  0.00     0.167 HD
ATOM     57  C   UNL A   1      42.852  23.543  28.139  1.00  0.00     0.037 A 
ATOM     58  C   UNL A   1      42.794  29.652  31.995  1.00  0.00     0.037 A 
ATOM     59  C   UNL A   1      43.948  24.076  28.946  1.00  0.00     0.049 A 
ATOM     60  C   UNL A   1      43.373  28.391  32.605  1.00  0.00     0.074 A 
ATOM     61  C   UNL A   1      45.054  24.866  28.677  1.00  0.00     0.029 A 
ATOM     62  N   UNL A   1      43.807  24.070  30.321  1.00  0.00    -0.354 N 
ATOM     63  N   UNL A   1      43.844  27.385  31.917  1.00  0.00    -0.248 NA
ATOM     64  C   UNL A   1      43.386  28.132  34.047  1.00  0.00     0.031 C 
ATOM     65  C   UNL A   1      45.525  25.400  29.913  1.00  0.00     0.029 A 
ATOM     66  C   UNL A   1      44.716  24.917  30.926  1.00  0.00     0.049 A 
ATOM     67  H   UNL A   1      43.145  23.531  30.809  1.00  0.00     0.167 HD
ATOM     68  C   UNL A   1      44.162  26.365  32.772  1.00  0.00     0.074 A 
ATOM     69  C   UNL A   1      43.868  26.880  34.096  1.00  0.00     0.031 C 
ATOM     70  C   UNL A   1      44.612  25.150  32.354  1.00  0.00     0.037 A 
BRANCH  57  71
ATOM     71  C   UNL A   1      42.997  22.368  27.201  1.00  0.00     0.057 A 
ATOM     72  C   UNL A   1      42.197  21.220  27.366  1.00  0.00     0.134 A 
ATOM     73  C   UNL A   1      43.923  22.278  26.149  1.00  0.00     0.134 A 
ATOM     74  F   UNL A   1      41.202  21.179  28.263  1.00  0.00    -0.206 F 
ATOM     75  C   UNL A   1      42.379  20.048  26.619  1.00  0.00     0.040 A 
ATOM     76  C   UNL A   1      44.161  21.094  25.436  1.00  0.00     0.040 A 
ATOM     77  F   UNL A   1      44.599  23.348  25.713  1.00  0.00    -0.206 F 
ATOM     78  C   UNL A   1      43.392  19.967  25.677  1.00  0.00     0.006 A 
ENDBRANCH  57  71
BRANCH  58  79
ATOM     79  C   UNL A   1      41.643  30.424  32.539  1.00  0.00     0.057 A 
ATOM     80  C   UNL A   1      41.715  31.830  32.521  1.00  0.00     0.134 A 
ATOM     81  C   UNL A   1      40.377  29.854  32.692  1.00  0.00     0.134 A 
ATOM     82  F   UNL A   1      42.903  32.444  32.383  1.00  0.00    -0.206 F 
ATOM     83  C   UNL A   1      40.569  32.627  32.507  1.00  0.00     0.040 A 
ATOM     84  C   UNL A   1      39.223  30.645  32.704  1.00  0.00     0.040 A 
ATOM     85  F   UNL A   1      40.223  28.522  32.701  1.00  0.00    -0.206 F 
ATOM     86  C   UNL A   1      39.314  32.029  32.560  1.00  0.00     0.006 A 
ENDBRANCH  58  79
BRANCH  70  87
ATOM     87  C   UNL A   1      44.998  24.079  33.318  1.00  0.00     0.057 A 
ATOM     88  C   UNL A   1      46.291  24.012  33.854  1.00  0.00     0.134 A 
ATOM     89  C   UNL A   1      44.131  23.022  33.638  1.00  0.00     0.134 A 
ATOM     90  F   UNL A   1      47.196  24.965  33.582  1.00  0.00    -0.206 F 
ATOM     91  C   UNL A   1      46.696  22.957  34.677  1.00  0.00     0.040 A 
ATOM     92  C   UNL A   1      44.535  21.944  34.427  1.00  0.00     0.040 A 
ATOM     93  F   UNL A   1      42.860  23.011  33.206  1.00  0.00    -0.206 F 
ATOM     94  C   UNL A   1      45.821  21.912  34.953  1.00  0.00     0.006 A 
ENDBRANCH  70  87
ENDBRANCH  44  45
ENDBRANCH  36  39
ENDBRANCH  34  35
ENDBRANCH  33  34
ENDBRANCH   1  33
TORSDOF 14
ENDMDL
MODEL 2
REMARK VINA RESULT:     -14.0      1.142      2.030
REMARK SMILES Cc1c(C(=O)NCCCCNC(=O)c2ccc(-c3c4nc(c(-c5c(F)cccc5F)c5ccc([nH]5)c(-c5c(F)cccc5F)c5nc(c(-c6c(F)cccc6F)c6ccc3[nH]6)C=C5)C=C4)cc2)cccc1-n1c(C)cc(/C=C2/C(=O)NC(=S)N=C2O)c1C
REMARK SMILES IDX 8 1 7 2 6 3 4 4 5 5 3 7 1 8 2 9 71 10 68 11 70 12 69 13
REMARK SMILES IDX 72 14 73 15 87 16 74 17 75 18 76 19 88 20 77 21 78 22 79 23
REMARK SMILES IDX 85 24 80 25 81 26 84 27 82 28 83 30 86 31 9 33 10 34 11 35
REMARK SMILES IDX 12 36 13 38 14 39 15 40 67 41 16 42 66 43 17 44 18 45 19 46
REMARK SMILES IDX 60 47 20 48 65 49 59 50 61 51 21 52 64 53 58 54 57 55 22 57
REMARK SMILES IDX 48 58 31 59 47 60 32 61 35 62 46 63 62 64 33 65 34 66 45 68
REMARK SMILES IDX 63 69 36 70 23 71 24 72 29 73 25 74 26 75 28 76 30 77 27 78
REMARK SMILES IDX 49 79 50 80 55 81 51 82 52 83 54 84 56 85 53 86 37 87 38 88
REMARK SMILES IDX 43 89 39 90 40 91 42 92 44 93 41 94
REMARK H PARENT 6 6 81 29 86 32 11 37 61 56 35 67
REMARK Flexibility Score: inf
ROOT
ATOM      1  C   UNL A   1      33.141  29.818  26.350  1.00  0.00     0.023 C 
ENDROOT
BRANCH   1   2
ATOM      2  C   UNL A   1      31.722  30.424  26.353  1.00  0.00     0.116 C 
BRANCH   2   3
ATOM      3  N   UNL A   1      31.161  30.475  25.019  1.00  0.00    -0.352 N 
ATOM      4  C   UNL A   1      30.746  29.599  24.055  1.00  0.00     0.251 C 
ATOM      5  O   UNL A   1      30.276  30.176  23.064  1.00  0.00    -0.269 OA
ATOM      6  H   UNL A   1      31.046  31.406  24.721  1.00  0.00     0.163 HD
BRANCH   4   7
ATOM      7  C   UNL A   1      30.763  28.085  24.034  1.00  0.00     0.044 A 
ATOM      8  C   UNL A   1      33.266  27.574  23.765  1.00  0.00     0.047 C 
ATOM      9  C   UNL A   1      31.833  27.172  23.891  1.00  0.00    -0.014 A 
ATOM     10  C   UNL A   1      31.531  25.784  23.776  1.00  0.00     0.049 A 
ATOM     11  C   UNL A   1      29.446  27.539  24.028  1.00  0.00     0.014 A 
ATOM     12  C   UNL A   1      30.227  25.286  23.754  1.00  0.00     0.027 A 
ATOM     13  C   UNL A   1      29.178  26.174  23.881  1.00  0.00     0.003 A 
BRANCH  10  14
ATOM     14  N   UNL A   1      32.560  24.847  23.517  1.00  0.00    -0.318 N 
ATOM     15  C   UNL A   1      33.030  24.504  22.263  1.00  0.00     0.020 A 
ATOM     16  C   UNL A   1      33.059  23.948  24.458  1.00  0.00     0.027 A 
ATOM     17  C   UNL A   1      32.511  25.095  20.997  1.00  0.00     0.065 C 
ATOM     18  C   UNL A   1      33.990  23.531  22.443  1.00  0.00     0.031 A 
ATOM     19  C   UNL A   1      34.029  23.189  23.823  1.00  0.00    -0.003 A 
ATOM     20  C   UNL A   1      32.484  23.889  25.838  1.00  0.00     0.065 C 
BRANCH  19  21
ATOM     21  C   UNL A   1      34.805  22.098  24.325  1.00  0.00     0.029 C 
ATOM     22  C   UNL A   1      34.508  20.809  24.575  1.00  0.00     0.102 C 
ATOM     23  C   UNL A   1      35.656  19.944  24.954  1.00  0.00     0.262 C 
ATOM     24  C   UNL A   1      33.245  20.083  24.462  1.00  0.00     0.226 C 
ATOM     25  O   UNL A   1      36.752  20.361  25.314  1.00  0.00    -0.269 OA
ATOM     26  N   UNL A   1      35.407  18.604  24.824  1.00  0.00    -0.297 N 
ATOM     27  N   UNL A   1      33.091  18.810  24.403  1.00  0.00    -0.184 NA
ATOM     28  C   UNL A   1      34.210  18.024  24.486  1.00  0.00     0.203 C 
ATOM     29  H   UNL A   1      36.163  17.995  24.988  1.00  0.00     0.172 HD
ATOM     30  S   UNL A   1      34.189  16.365  24.254  1.00  0.00    -0.038 S 
BRANCH  24  31
ATOM     31  O   UNL A   1      32.130  20.816  24.491  1.00  0.00    -0.493 OA
ATOM     32  H   UNL A   1      31.669  20.999  23.696  1.00  0.00     0.295 HD
ENDBRANCH  24  31
ENDBRANCH  19  21
ENDBRANCH  10  14
ENDBRANCH   4   7
ENDBRANCH   2   3
ENDBRANCH   1   2
BRANCH   1  33
ATOM     33  C   UNL A   1      33.966  30.049  27.614  1.00  0.00     0.023 C 
BRANCH  33  34
ATOM     34  C   UNL A   1      34.973  31.172  27.454  1.00  0.00     0.116 C 
BRANCH  34  35
ATOM     35  N   UNL A   1      35.508  31.735  28.685  1.00  0.00    -0.352 N 
ATOM     36  C   UNL A   1      36.384  31.162  29.599  1.00  0.00     0.251 C 
ATOM     37  H   UNL A   1      35.210  32.648  28.898  1.00  0.00     0.163 HD
ATOM     38  O   UNL A   1      36.650  31.750  30.636  1.00  0.00    -0.269 OA
BRANCH  36  39
ATOM     39  C   UNL A   1      37.115  29.910  29.248  1.00  0.00     0.039 A 
ATOM     40  C   UNL A   1      37.324  28.966  30.259  1.00  0.00     0.014 A 
ATOM     41  C   UNL A   1      37.787  29.773  28.038  1.00  0.00     0.014 A 
ATOM     42  C   UNL A   1      38.403  28.086  30.165  1.00  0.00     0.010 A 
ATOM     43  C   UNL A   1      38.938  29.015  28.002  1.00  0.00     0.010 A 
ATOM     44  C   UNL A   1      39.283  28.218  29.094  1.00  0.00    -0.014 A 
BRANCH  44  45
ATOM     45  C   UNL A   1      40.614  27.624  29.051  1.00  0.00     0.031 A 
ATOM     46  C   UNL A   1      40.776  26.206  28.672  1.00  0.00     0.074 A 
ATOM     47  C   UNL A   1      41.698  28.406  29.255  1.00  0.00     0.049 A 
ATOM     48  N   UNL A   1      41.831  25.501  28.901  1.00  0.00    -0.248 NA
ATOM     49  C   UNL A   1      39.715  25.454  28.014  1.00  0.00     0.031 C 
ATOM     50  C   UNL A   1      43.100  28.070  29.018  1.00  0.00     0.029 A 
ATOM     51  N   UNL A   1      41.748  29.620  29.953  1.00  0.00    -0.354 N 
ATOM     52  C   UNL A   1      41.691  24.297  28.248  1.00  0.00     0.074 A 
ATOM     53  C   UNL A   1      40.347  24.315  27.721  1.00  0.00     0.031 C 
ATOM     54  C   UNL A   1      43.865  28.842  29.809  1.00  0.00     0.029 A 
ATOM     55  C   UNL A   1      42.971  29.598  30.667  1.00  0.00     0.049 A 
ATOM     56  H   UNL A   1      41.075  30.338  29.948  1.00  0.00     0.167 HD
ATOM     57  C   UNL A   1      42.764  23.460  28.156  1.00  0.00     0.037 A 
ATOM     58  C   UNL A   1      42.960  29.554  32.032  1.00  0.00     0.037 A 
ATOM     59  C   UNL A   1      43.895  23.965  28.932  1.00  0.00     0.049 A 
ATOM     60  C   UNL A   1      43.528  28.277  32.620  1.00  0.00     0.074 A 
ATOM     61  C   UNL A   1      45.011  24.730  28.634  1.00  0.00     0.029 A 
ATOM     62  N   UNL A   1      43.795  23.957  30.311  1.00  0.00    -0.354 N 
ATOM     63  N   UNL A   1      43.954  27.264  31.916  1.00  0.00    -0.248 NA
ATOM     64  C   UNL A   1      43.576  28.012  34.061  1.00  0.00     0.031 C 
ATOM     65  C   UNL A   1      45.530  25.248  29.857  1.00  0.00     0.029 A 
ATOM     66  C   UNL A   1      44.740  24.780  30.891  1.00  0.00     0.049 A 
ATOM     67  H   UNL A   1      43.134  23.431  30.816  1.00  0.00     0.167 HD
ATOM     68  C   UNL A   1      44.274  26.233  32.757  1.00  0.00     0.074 A 
ATOM     69  C   UNL A   1      44.031  26.749  34.092  1.00  0.00     0.031 C 
ATOM     70  C   UNL A   1      44.683  25.010  32.323  1.00  0.00     0.037 A 
BRANCH  57  71
ATOM     71  C   UNL A   1      42.854  22.285  27.211  1.00  0.00     0.057 A 
ATOM     72  C   UNL A   1      42.022  21.162  27.386  1.00  0.00     0.134 A 
ATOM     73  C   UNL A   1      43.758  22.172  26.141  1.00  0.00     0.134 A 
ATOM     74  F   UNL A   1      41.043  21.148  28.301  1.00  0.00    -0.206 F 
ATOM     75  C   UNL A   1      42.153  19.989  26.630  1.00  0.00     0.040 A 
ATOM     76  C   UNL A   1      43.945  20.984  25.418  1.00  0.00     0.040 A 
ATOM     77  F   UNL A   1      44.459  23.222  25.697  1.00  0.00    -0.206 F 
ATOM     78  C   UNL A   1      43.146  19.881  25.669  1.00  0.00     0.006 A 
ENDBRANCH  57  71
BRANCH  58  79
ATOM     79  C   UNL A   1      41.843  30.350  32.612  1.00  0.00     0.057 A 
ATOM     80  C   UNL A   1      41.964  31.753  32.630  1.00  0.00     0.134 A 
ATOM     81  C   UNL A   1      40.561  29.819  32.768  1.00  0.00     0.134 A 
ATOM     82  F   UNL A   1      43.170  32.329  32.491  1.00  0.00    -0.206 F 
ATOM     83  C   UNL A   1      40.845  32.588  32.653  1.00  0.00     0.040 A 
ATOM     84  C   UNL A   1      39.435  30.649  32.816  1.00  0.00     0.040 A 
ATOM     85  F   UNL A   1      40.361  28.494  32.744  1.00  0.00    -0.206 F 
ATOM     86  C   UNL A   1      39.572  32.032  32.708  1.00  0.00     0.006 A 
ENDBRANCH  58  79
BRANCH  70  87
ATOM     87  C   UNL A   1      45.072  23.926  33.272  1.00  0.00     0.057 A 
ATOM     88  C   UNL A   1      44.154  22.949  33.680  1.00  0.00     0.134 A 
ATOM     89  C   UNL A   1      46.331  23.903  33.894  1.00  0.00     0.134 A 
ATOM     90  F   UNL A   1      42.918  22.910  33.158  1.00  0.00    -0.206 F 
ATOM     91  C   UNL A   1      44.476  21.991  34.645  1.00  0.00     0.040 A 
ATOM     92  C   UNL A   1      46.651  22.976  34.887  1.00  0.00     0.040 A 
ATOM     93  F   UNL A   1      47.293  24.772  33.548  1.00  0.00    -0.206 F 
ATOM     94  C   UNL A   1      45.723  22.012  35.262  1.00  0.00     0.006 A 
ENDBRANCH  70  87
ENDBRANCH  44  45
ENDBRANCH  36  39
ENDBRANCH  34  35
ENDBRANCH  33  34
ENDBRANCH   1  33
TORSDOF 14
ENDMDL
MODEL 3
REMARK VINA RESULT:     -13.9      3.938      9.874
REMARK SMILES Cc1c(C(=O)NCCCCNC(=O)c2ccc(-c3c4nc(c(-c5c(F)cccc5F)c5ccc([nH]5)c(-c5c(F)cccc5F)c5nc(c(-c6c(F)cccc6F)c6ccc3[nH]6)C=C5)C=C4)cc2)cccc1-n1c(C)cc(/C=C2/C(=O)NC(=S)N=C2O)c1C
REMARK SMILES IDX 8 1 7 2 6 3 4 4 5 5 3 7 1 8 2 9 71 10 68 11 70 12 69 13
REMARK SMILES IDX 72 14 73 15 87 16 74 17 75 18 76 19 88 20 77 21 78 22 79 23
REMARK SMILES IDX 85 24 80 25 81 26 84 27 82 28 83 30 86 31 9 33 10 34 11 35
REMARK SMILES IDX 12 36 13 38 14 39 15 40 67 41 16 42 66 43 17 44 18 45 19 46
REMARK SMILES IDX 60 47 20 48 65 49 59 50 61 51 21 52 64 53 58 54 57 55 22 57
REMARK SMILES IDX 48 58 31 59 47 60 32 61 35 62 46 63 62 64 33 65 34 66 45 68
REMARK SMILES IDX 63 69 36 70 23 71 24 72 29 73 25 74 26 75 28 76 30 77 27 78
REMARK SMILES IDX 49 79 50 80 55 81 51 82 52 83 54 84 56 85 53 86 37 87 38 88
REMARK SMILES IDX 43 89 39 90 40 91 42 92 44 93 41 94
REMARK H PARENT 6 6 81 29 86 32 11 37 61 56 35 67
REMARK Flexibility Score: inf
ROOT
ATOM      1  C   UNL A   1      37.320  21.293  25.586  1.00  0.00     0.023 C 
ENDROOT
BRANCH   1   2
ATOM      2  C   UNL A   1      36.908  20.219  24.557  1.00  0.00     0.116 C 
BRANCH   2   3
ATOM      3  N   UNL A   1      35.715  19.512  24.972  1.00  0.00    -0.352 N 
ATOM      4  C   UNL A   1      34.361  19.702  24.957  1.00  0.00     0.251 C 
ATOM      5  O   UNL A   1      33.743  18.728  25.409  1.00  0.00    -0.269 OA
ATOM      6  H   UNL A   1      35.944  18.648  25.385  1.00  0.00     0.163 HD
BRANCH   4   7
ATOM      7  C   UNL A   1      33.542  20.879  24.468  1.00  0.00     0.044 A 
ATOM      8  C   UNL A   1      33.806  22.559  26.393  1.00  0.00     0.047 C 
ATOM      9  C   UNL A   1      33.262  22.126  25.071  1.00  0.00    -0.014 A 
ATOM     10  C   UNL A   1      32.341  23.001  24.425  1.00  0.00     0.049 A 
ATOM     11  C   UNL A   1      32.852  20.580  23.257  1.00  0.00     0.014 A 
ATOM     12  C   UNL A   1      31.668  22.667  23.249  1.00  0.00     0.027 A 
ATOM     13  C   UNL A   1      31.928  21.445  22.663  1.00  0.00     0.003 A 
BRANCH  10  14
ATOM     14  N   UNL A   1      31.945  24.209  25.048  1.00  0.00    -0.318 N 
ATOM     15  C   UNL A   1      30.941  24.329  25.991  1.00  0.00     0.020 A 
ATOM     16  C   UNL A   1      32.321  25.479  24.613  1.00  0.00     0.027 A 
ATOM     17  C   UNL A   1      30.136  23.178  26.491  1.00  0.00     0.065 C 
ATOM     18  C   UNL A   1      30.839  25.667  26.306  1.00  0.00     0.031 A 
ATOM     19  C   UNL A   1      31.717  26.396  25.458  1.00  0.00    -0.003 A 
ATOM     20  C   UNL A   1      33.164  25.647  23.388  1.00  0.00     0.065 C 
BRANCH  19  21
ATOM     21  C   UNL A   1      31.738  27.825  25.415  1.00  0.00     0.029 C 
ATOM     22  C   UNL A   1      31.095  28.721  24.644  1.00  0.00     0.102 C 
ATOM     23  C   UNL A   1      31.276  30.147  25.023  1.00  0.00     0.262 C 
ATOM     24  C   UNL A   1      30.171  28.529  23.526  1.00  0.00     0.226 C 
ATOM     25  O   UNL A   1      32.153  30.560  25.774  1.00  0.00    -0.269 OA
ATOM     26  N   UNL A   1      30.334  30.986  24.491  1.00  0.00    -0.297 N 
ATOM     27  N   UNL A   1      29.353  29.394  23.047  1.00  0.00    -0.184 NA
ATOM     28  C   UNL A   1      29.347  30.648  23.599  1.00  0.00     0.203 C 
ATOM     29  H   UNL A   1      30.368  31.928  24.777  1.00  0.00     0.172 HD
ATOM     30  S   UNL A   1      28.225  31.825  23.198  1.00  0.00    -0.038 S 
BRANCH  24  31
ATOM     31  O   UNL A   1      30.232  27.355  22.896  1.00  0.00    -0.493 OA
ATOM     32  H   UNL A   1      29.542  26.730  23.003  1.00  0.00     0.295 HD
ENDBRANCH  24  31
ENDBRANCH  19  21
ENDBRANCH  10  14
ENDBRANCH   4   7
ENDBRANCH   2   3
ENDBRANCH   1   2
BRANCH   1  33
ATOM     33  C   UNL A   1      38.821  21.477  25.792  1.00  0.00     0.023 C 
BRANCH  33  34
ATOM     34  C   UNL A   1      39.172  22.859  26.309  1.00  0.00     0.116 C 
BRANCH  34  35
ATOM     35  N   UNL A   1      40.583  23.106  26.574  1.00  0.00    -0.352 N 
ATOM     36  C   UNL A   1      41.223  24.310  26.841  1.00  0.00     0.251 C 
ATOM     37  H   UNL A   1      41.162  22.311  26.564  1.00  0.00     0.163 HD
ATOM     38  O   UNL A   1      42.440  24.341  26.942  1.00  0.00    -0.269 OA
BRANCH  36  39
ATOM     39  C   UNL A   1      40.421  25.528  27.157  1.00  0.00     0.039 A 
ATOM     40  C   UNL A   1      40.680  26.692  26.425  1.00  0.00     0.014 A 
ATOM     41  C   UNL A   1      39.619  25.600  28.290  1.00  0.00     0.014 A 
ATOM     42  C   UNL A   1      40.391  27.936  26.988  1.00  0.00     0.010 A 
ATOM     43  C   UNL A   1      39.467  26.817  28.918  1.00  0.00     0.010 A 
ATOM     44  C   UNL A   1      39.913  27.984  28.294  1.00  0.00    -0.014 A 
BRANCH  44  45
ATOM     45  C   UNL A   1      39.904  29.187  29.119  1.00  0.00     0.031 A 
ATOM     46  C   UNL A   1      38.834  30.191  28.946  1.00  0.00     0.074 A 
ATOM     47  C   UNL A   1      40.815  29.322  30.108  1.00  0.00     0.049 A 
ATOM     48  N   UNL A   1      38.891  31.405  29.372  1.00  0.00    -0.248 NA
ATOM     49  C   UNL A   1      37.599  29.890  28.233  1.00  0.00     0.031 C 
ATOM     50  C   UNL A   1      40.829  30.312  31.183  1.00  0.00     0.029 A 
ATOM     51  N   UNL A   1      42.069  28.703  30.195  1.00  0.00    -0.354 N 
ATOM     52  C   UNL A   1      37.653  31.980  29.196  1.00  0.00     0.074 A 
ATOM     53  C   UNL A   1      36.887  30.995  28.468  1.00  0.00     0.031 C 
ATOM     54  C   UNL A   1      42.094  30.468  31.605  1.00  0.00     0.029 A 
ATOM     55  C   UNL A   1      42.942  29.683  30.726  1.00  0.00     0.049 A 
ATOM     56  H   UNL A   1      42.296  27.779  29.941  1.00  0.00     0.167 HD
ATOM     57  C   UNL A   1      37.393  33.193  29.764  1.00  0.00     0.037 A 
ATOM     58  C   UNL A   1      43.956  30.178  29.957  1.00  0.00     0.037 A 
ATOM     59  C   UNL A   1      38.594  33.755  30.379  1.00  0.00     0.049 A 
ATOM     60  C   UNL A   1      43.821  31.649  29.615  1.00  0.00     0.074 A 
ATOM     61  C   UNL A   1      39.122  33.749  31.660  1.00  0.00     0.029 A 
ATOM     62  N   UNL A   1      39.616  34.176  29.547  1.00  0.00    -0.354 N 
ATOM     63  N   UNL A   1      42.811  32.400  29.964  1.00  0.00    -0.248 NA
ATOM     64  C   UNL A   1      44.781  32.366  28.772  1.00  0.00     0.031 C 
ATOM     65  C   UNL A   1      40.502  34.096  31.571  1.00  0.00     0.029 A 
ATOM     66  C   UNL A   1      40.801  34.329  30.241  1.00  0.00     0.049 A 
ATOM     67  H   UNL A   1      39.513  34.345  28.584  1.00  0.00     0.167 HD
ATOM     68  C   UNL A   1      42.944  33.632  29.383  1.00  0.00     0.074 A 
ATOM     69  C   UNL A   1      44.196  33.569  28.653  1.00  0.00     0.031 C 
ATOM     70  C   UNL A   1      42.014  34.619  29.497  1.00  0.00     0.037 A 
BRANCH  57  71
ATOM     71  C   UNL A   1      36.012  33.781  29.932  1.00  0.00     0.057 A 
ATOM     72  C   UNL A   1      35.262  34.174  28.807  1.00  0.00     0.134 A 
ATOM     73  C   UNL A   1      35.379  34.027  31.162  1.00  0.00     0.134 A 
ATOM     74  F   UNL A   1      35.682  33.925  27.559  1.00  0.00    -0.206 F 
ATOM     75  C   UNL A   1      34.038  34.851  28.903  1.00  0.00     0.040 A 
ATOM     76  C   UNL A   1      34.187  34.758  31.278  1.00  0.00     0.040 A 
ATOM     77  F   UNL A   1      35.845  33.516  32.309  1.00  0.00    -0.206 F 
ATOM     78  C   UNL A   1      33.516  35.183  30.143  1.00  0.00     0.006 A 
ENDBRANCH  57  71
BRANCH  58  79
ATOM     79  C   UNL A   1      44.553  29.138  29.076  1.00  0.00     0.057 A 
ATOM     80  C   UNL A   1      45.425  28.195  29.652  1.00  0.00     0.134 A 
ATOM     81  C   UNL A   1      44.001  28.818  27.833  1.00  0.00     0.134 A 
ATOM     82  F   UNL A   1      45.995  28.442  30.843  1.00  0.00    -0.206 F 
ATOM     83  C   UNL A   1      45.621  26.932  29.090  1.00  0.00     0.040 A 
ATOM     84  C   UNL A   1      44.211  27.564  27.249  1.00  0.00     0.040 A 
ATOM     85  F   UNL A   1      43.148  29.656  27.226  1.00  0.00    -0.206 F 
ATOM     86  C   UNL A   1      44.981  26.601  27.900  1.00  0.00     0.006 A 
ENDBRANCH  58  79
BRANCH  70  87
ATOM     87  C   UNL A   1      42.216  35.967  28.891  1.00  0.00     0.057 A 
ATOM     88  C   UNL A   1      41.747  36.266  27.605  1.00  0.00     0.134 A 
ATOM     89  C   UNL A   1      42.989  36.955  29.523  1.00  0.00     0.134 A 
ATOM     90  F   UNL A   1      41.023  35.373  26.915  1.00  0.00    -0.206 F 
ATOM     91  C   UNL A   1      42.019  37.490  26.987  1.00  0.00     0.040 A 
ATOM     92  C   UNL A   1      43.299  38.164  28.901  1.00  0.00     0.040 A 
ATOM     93  F   UNL A   1      43.454  36.781  30.770  1.00  0.00    -0.206 F 
ATOM     94  C   UNL A   1      42.810  38.437  27.629  1.00  0.00     0.006 A 
ENDBRANCH  70  87
ENDBRANCH  44  45
ENDBRANCH  36  39
ENDBRANCH  34  35
ENDBRANCH  33  34
ENDBRANCH   1  33
TORSDOF 14
ENDMDL
