MODEL 1
REMARK VINA RESULT:     -13.0      0.000      0.000
REMARK SMILES C[C@@H]1CCc2nc(NC(=O)[C@H]3CC=CC[C@@H]3C(=O)NCCCCNC(=O)c3ccc(-c4c5nc(c(-c6c(F)cccc6F)c6ccc([nH]6)c(-c6c(F)cccc6F)c6nc(c(-c7c(F)cccc7F)c7ccc4[nH]7)C=C6)C=C5)cc3)sc2C1
REMARK SMILES IDX 21 1 20 2 19 3 17 4 18 5 16 7 11 8 12 9 13 10 15 11 14 12
REMARK SMILES IDX 9 13 8 14 10 16 7 17 1 18 2 19 3 20 83 21 4 22 82 23 5 24
REMARK SMILES IDX 81 25 6 26 22 27 23 28 24 29 25 30 26 32 27 33 28 34 80 35
REMARK SMILES IDX 29 36 79 37 30 38 31 39 32 40 73 41 33 42 78 43 72 44 74 45
REMARK SMILES IDX 34 46 77 47 71 48 70 49 35 51 61 52 44 53 60 54 45 55 48 56
REMARK SMILES IDX 59 57 75 58 46 59 47 60 58 62 76 63 49 64 36 65 37 66 42 67
REMARK SMILES IDX 38 68 39 69 41 70 43 71 40 72 62 73 63 74 68 75 64 76 65 77
REMARK SMILES IDX 67 78 69 79 66 80 50 81 51 82 56 83 52 84 53 85 55 86 57 87
REMARK SMILES IDX 54 88
REMARK H PARENT 19 6 8 15 24 31 74 50 48 61
REMARK Flexibility Score: inf
ROOT
ATOM      1  C   UNL A   1      32.430  29.645  27.094  1.00  0.00     0.023 C 
ENDROOT
BRANCH   1   2
ATOM      2  C   UNL A   1      31.788  29.778  25.715  1.00  0.00     0.116 C 
BRANCH   2   3
ATOM      3  N   UNL A   1      32.720  29.645  24.611  1.00  0.00    -0.356 N 
ATOM      4  C   UNL A   1      32.726  28.752  23.576  1.00  0.00     0.224 C 
ATOM      5  O   UNL A   1      33.636  28.864  22.753  1.00  0.00    -0.275 OA
ATOM      6  H   UNL A   1      33.459  30.295  24.606  1.00  0.00     0.163 HD
BRANCH   4   7
ATOM      7  C   UNL A   1      31.705  27.611  23.520  1.00  0.00     0.095 C 
ATOM      8  C   UNL A   1      31.943  26.560  24.669  1.00  0.00     0.095 C 
ATOM      9  C   UNL A   1      33.236  25.778  24.337  1.00  0.00     0.041 C 
ATOM     10  C   UNL A   1      33.410  25.352  22.919  1.00  0.00    -0.030 C 
ATOM     11  C   UNL A   1      31.616  26.879  22.155  1.00  0.00     0.041 C 
ATOM     12  C   UNL A   1      32.646  25.820  21.933  1.00  0.00    -0.030 C 
BRANCH   8  13
ATOM     13  C   UNL A   1      30.617  25.790  24.873  1.00  0.00     0.230 C 
ATOM     14  N   UNL A   1      30.449  24.476  25.129  1.00  0.00    -0.302 N 
ATOM     15  H   UNL A   1      29.501  24.210  25.125  1.00  0.00     0.172 HD
ATOM     16  O   UNL A   1      29.545  26.420  24.822  1.00  0.00    -0.274 OA
BRANCH  14  17
ATOM     17  C   UNL A   1      31.279  23.435  25.390  1.00  0.00     0.189 A 
ATOM     18  C   UNL A   1      36.031  21.801  24.498  1.00  0.00     0.008 C 
ATOM     19  C   UNL A   1      35.267  20.947  25.520  1.00  0.00    -0.009 C 
ATOM     20  C   UNL A   1      34.300  19.969  24.806  1.00  0.00     0.010 C 
ATOM     21  C   UNL A   1      34.517  21.815  26.568  1.00  0.00     0.052 C 
ATOM     22  C   UNL A   1      33.178  20.695  24.038  1.00  0.00     0.058 C 
ATOM     23  C   UNL A   1      33.167  22.195  26.066  1.00  0.00     0.030 A 
ATOM     24  C   UNL A   1      32.582  21.759  24.894  1.00  0.00     0.057 A 
ATOM     25  S   UNL A   1      32.060  23.198  26.889  1.00  0.00    -0.101 S 
ATOM     26  N   UNL A   1      31.469  22.475  24.512  1.00  0.00    -0.225 NA
ENDBRANCH  14  17
ENDBRANCH   8  13
ENDBRANCH   4   7
ENDBRANCH   2   3
ENDBRANCH   1   2
BRANCH   1  27
ATOM     27  C   UNL A   1      33.522  28.583  27.243  1.00  0.00     0.023 C 
BRANCH  27  28
ATOM     28  C   UNL A   1      34.941  29.127  27.340  1.00  0.00     0.116 C 
BRANCH  28  29
ATOM     29  N   UNL A   1      35.103  30.116  28.395  1.00  0.00    -0.352 N 
ATOM     30  C   UNL A   1      36.154  30.240  29.283  1.00  0.00     0.251 C 
ATOM     31  H   UNL A   1      34.378  30.774  28.487  1.00  0.00     0.163 HD
ATOM     32  O   UNL A   1      36.039  30.907  30.297  1.00  0.00    -0.269 OA
BRANCH  30  33
ATOM     33  C   UNL A   1      37.422  29.537  28.997  1.00  0.00     0.039 A 
ATOM     34  C   UNL A   1      38.146  29.857  27.846  1.00  0.00     0.014 A 
ATOM     35  C   UNL A   1      37.888  28.564  29.884  1.00  0.00     0.014 A 
ATOM     36  C   UNL A   1      39.384  29.254  27.637  1.00  0.00     0.010 A 
ATOM     37  C   UNL A   1      39.149  28.026  29.718  1.00  0.00     0.010 A 
ATOM     38  C   UNL A   1      39.897  28.360  28.591  1.00  0.00    -0.014 A 
BRANCH  38  39
ATOM     39  C   UNL A   1      41.300  27.945  28.501  1.00  0.00     0.031 A 
ATOM     40  C   UNL A   1      41.497  26.665  27.759  1.00  0.00     0.074 A 
ATOM     41  C   UNL A   1      42.349  28.726  28.839  1.00  0.00     0.049 A 
ATOM     42  N   UNL A   1      41.963  25.549  28.211  1.00  0.00    -0.248 NA
ATOM     43  C   UNL A   1      40.988  26.577  26.379  1.00  0.00     0.031 C 
ATOM     44  C   UNL A   1      42.310  30.129  29.266  1.00  0.00     0.029 A 
ATOM     45  N   UNL A   1      43.691  28.469  28.767  1.00  0.00    -0.354 N 
ATOM     46  C   UNL A   1      42.003  24.679  27.122  1.00  0.00     0.074 A 
ATOM     47  C   UNL A   1      41.233  25.298  26.081  1.00  0.00     0.031 C 
ATOM     48  C   UNL A   1      43.551  30.659  29.194  1.00  0.00     0.029 A 
ATOM     49  C   UNL A   1      44.495  29.600  28.876  1.00  0.00     0.049 A 
ATOM     50  H   UNL A   1      44.056  27.563  28.650  1.00  0.00     0.167 HD
ATOM     51  C   UNL A   1      42.901  23.653  27.087  1.00  0.00     0.037 A 
ATOM     52  C   UNL A   1      45.837  29.676  28.706  1.00  0.00     0.037 A 
ATOM     53  C   UNL A   1      43.456  23.431  28.399  1.00  0.00     0.049 A 
ATOM     54  C   UNL A   1      46.387  28.314  28.858  1.00  0.00     0.074 A 
ATOM     55  C   UNL A   1      43.021  22.927  29.604  1.00  0.00     0.029 A 
ATOM     56  N   UNL A   1      44.601  24.140  28.640  1.00  0.00    -0.354 N 
ATOM     57  N   UNL A   1      46.430  27.672  29.990  1.00  0.00    -0.248 NA
ATOM     58  C   UNL A   1      46.626  27.503  27.670  1.00  0.00     0.031 C 
ATOM     59  C   UNL A   1      43.814  23.568  30.602  1.00  0.00     0.029 A 
ATOM     60  C   UNL A   1      44.735  24.406  29.972  1.00  0.00     0.049 A 
ATOM     61  H   UNL A   1      45.241  24.421  27.947  1.00  0.00     0.167 HD
ATOM     62  C   UNL A   1      46.245  26.351  29.636  1.00  0.00     0.074 A 
ATOM     63  C   UNL A   1      46.571  26.287  28.218  1.00  0.00     0.031 C 
ATOM     64  C   UNL A   1      45.531  25.516  30.445  1.00  0.00     0.037 A 
BRANCH  51  65
ATOM     65  C   UNL A   1      43.666  23.202  25.852  1.00  0.00     0.057 A 
ATOM     66  C   UNL A   1      43.758  21.818  25.583  1.00  0.00     0.134 A 
ATOM     67  C   UNL A   1      44.576  24.000  25.131  1.00  0.00     0.134 A 
ATOM     68  F   UNL A   1      42.948  20.941  26.195  1.00  0.00    -0.206 F 
ATOM     69  C   UNL A   1      44.745  21.271  24.752  1.00  0.00     0.040 A 
ATOM     70  C   UNL A   1      45.537  23.466  24.263  1.00  0.00     0.040 A 
ATOM     71  F   UNL A   1      44.663  25.324  25.293  1.00  0.00    -0.206 F 
ATOM     72  C   UNL A   1      45.650  22.096  24.099  1.00  0.00     0.006 A 
ENDBRANCH  51  65
BRANCH  52  73
ATOM     73  C   UNL A   1      46.695  30.801  28.270  1.00  0.00     0.057 A 
ATOM     74  C   UNL A   1      46.542  31.381  27.001  1.00  0.00     0.134 A 
ATOM     75  C   UNL A   1      47.475  31.521  29.188  1.00  0.00     0.134 A 
ATOM     76  F   UNL A   1      45.795  30.783  26.062  1.00  0.00    -0.206 F 
ATOM     77  C   UNL A   1      47.091  32.629  26.678  1.00  0.00     0.040 A 
ATOM     78  C   UNL A   1      48.035  32.766  28.877  1.00  0.00     0.040 A 
ATOM     79  F   UNL A   1      47.642  31.083  30.444  1.00  0.00    -0.206 F 
ATOM     80  C   UNL A   1      47.827  33.334  27.625  1.00  0.00     0.006 A 
ENDBRANCH  52  73
BRANCH  64  81
ATOM     81  C   UNL A   1      45.421  25.888  31.892  1.00  0.00     0.057 A 
ATOM     82  C   UNL A   1      46.420  25.678  32.852  1.00  0.00     0.134 A 
ATOM     83  C   UNL A   1      44.269  26.567  32.305  1.00  0.00     0.134 A 
ATOM     84  F   UNL A   1      47.588  25.108  32.530  1.00  0.00    -0.206 F 
ATOM     85  C   UNL A   1      46.256  26.090  34.178  1.00  0.00     0.040 A 
ATOM     86  C   UNL A   1      44.111  27.016  33.616  1.00  0.00     0.040 A 
ATOM     87  F   UNL A   1      43.290  26.836  31.427  1.00  0.00    -0.206 F 
ATOM     88  C   UNL A   1      45.101  26.767  34.561  1.00  0.00     0.006 A 
ENDBRANCH  64  81
ENDBRANCH  38  39
ENDBRANCH  30  33
ENDBRANCH  28  29
ENDBRANCH  27  28
ENDBRANCH   1  27
TORSDOF 13
ENDMDL
MODEL 2
REMARK VINA RESULT:     -12.8      4.085      8.112
REMARK SMILES C[C@@H]1CCc2nc(NC(=O)[C@H]3CC=CC[C@@H]3C(=O)NCCCCNC(=O)c3ccc(-c4c5nc(c(-c6c(F)cccc6F)c6ccc([nH]6)c(-c6c(F)cccc6F)c6nc(c(-c7c(F)cccc7F)c7ccc4[nH]7)C=C6)C=C5)cc3)sc2C1
REMARK SMILES IDX 21 1 20 2 19 3 17 4 18 5 16 7 11 8 12 9 13 10 15 11 14 12
REMARK SMILES IDX 9 13 8 14 10 16 7 17 1 18 2 19 3 20 83 21 4 22 82 23 5 24
REMARK SMILES IDX 81 25 6 26 22 27 23 28 24 29 25 30 26 32 27 33 28 34 80 35
REMARK SMILES IDX 29 36 79 37 30 38 31 39 32 40 73 41 33 42 78 43 72 44 74 45
REMARK SMILES IDX 34 46 77 47 71 48 70 49 35 51 61 52 44 53 60 54 45 55 48 56
REMARK SMILES IDX 59 57 75 58 46 59 47 60 58 62 76 63 49 64 36 65 37 66 42 67
REMARK SMILES IDX 38 68 39 69 41 70 43 71 40 72 62 73 63 74 68 75 64 76 65 77
REMARK SMILES IDX 67 78 69 79 66 80 50 81 51 82 56 83 52 84 53 85 55 86 57 87
REMARK SMILES IDX 54 88
REMARK H PARENT 19 6 8 15 24 31 74 50 48 61
REMARK Flexibility Score: inf
ROOT
ATOM      1  C   UNL A   1      34.002  33.716  28.597  1.00  0.00     0.023 C 
ENDROOT
BRANCH   1   2
ATOM      2  C   UNL A   1      33.543  32.503  27.791  1.00  0.00     0.116 C 
BRANCH   2   3
ATOM      3  N   UNL A   1      34.556  31.477  27.633  1.00  0.00    -0.356 N 
ATOM      4  C   UNL A   1      34.429  30.181  27.217  1.00  0.00     0.224 C 
ATOM      5  O   UNL A   1      35.464  29.514  27.159  1.00  0.00    -0.275 OA
ATOM      6  H   UNL A   1      35.473  31.756  27.859  1.00  0.00     0.163 HD
BRANCH   4   7
ATOM      7  C   UNL A   1      33.047  29.577  26.946  1.00  0.00     0.095 C 
ATOM      8  C   UNL A   1      33.069  28.006  27.047  1.00  0.00     0.095 C 
ATOM      9  C   UNL A   1      33.842  27.462  25.822  1.00  0.00     0.041 C 
ATOM     10  C   UNL A   1      33.540  28.100  24.509  1.00  0.00    -0.030 C 
ATOM     11  C   UNL A   1      32.399  30.005  25.604  1.00  0.00     0.041 C 
ATOM     12  C   UNL A   1      32.847  29.233  24.406  1.00  0.00    -0.030 C 
BRANCH   8  13
ATOM     13  C   UNL A   1      31.616  27.539  27.301  1.00  0.00     0.230 C 
ATOM     14  N   UNL A   1      30.997  26.444  26.813  1.00  0.00    -0.302 N 
ATOM     15  H   UNL A   1      30.041  26.416  27.046  1.00  0.00     0.172 HD
ATOM     16  O   UNL A   1      30.894  28.213  28.056  1.00  0.00    -0.274 OA
BRANCH  14  17
ATOM     17  C   UNL A   1      31.382  25.372  26.074  1.00  0.00     0.189 A 
ATOM     18  C   UNL A   1      35.392  23.523  23.516  1.00  0.00     0.008 C 
ATOM     19  C   UNL A   1      34.241  22.519  23.667  1.00  0.00    -0.009 C 
ATOM     20  C   UNL A   1      33.123  22.803  22.633  1.00  0.00     0.010 C 
ATOM     21  C   UNL A   1      33.673  22.487  25.113  1.00  0.00     0.052 C 
ATOM     22  C   UNL A   1      32.438  24.166  22.854  1.00  0.00     0.058 C 
ATOM     23  C   UNL A   1      32.621  23.527  25.287  1.00  0.00     0.030 A 
ATOM     24  C   UNL A   1      32.110  24.341  24.297  1.00  0.00     0.057 A 
ATOM     25  S   UNL A   1      31.801  23.860  26.745  1.00  0.00    -0.101 S 
ATOM     26  N   UNL A   1      31.372  25.408  24.759  1.00  0.00    -0.225 NA
ENDBRANCH  14  17
ENDBRANCH   8  13
ENDBRANCH   4   7
ENDBRANCH   2   3
ENDBRANCH   1   2
BRANCH   1  27
ATOM     27  C   UNL A   1      32.976  34.834  28.798  1.00  0.00     0.023 C 
BRANCH  27  28
ATOM     28  C   UNL A   1      33.425  35.962  29.717  1.00  0.00     0.116 C 
BRANCH  28  29
ATOM     29  N   UNL A   1      32.684  36.010  30.968  1.00  0.00    -0.352 N 
ATOM     30  C   UNL A   1      32.895  35.256  32.106  1.00  0.00     0.251 C 
ATOM     31  H   UNL A   1      31.944  36.657  31.009  1.00  0.00     0.163 HD
ATOM     32  O   UNL A   1      32.037  35.173  32.968  1.00  0.00    -0.269 OA
BRANCH  30  33
ATOM     33  C   UNL A   1      34.175  34.532  32.260  1.00  0.00     0.039 A 
ATOM     34  C   UNL A   1      34.206  33.143  32.110  1.00  0.00     0.014 A 
ATOM     35  C   UNL A   1      35.341  35.243  32.548  1.00  0.00     0.014 A 
ATOM     36  C   UNL A   1      35.431  32.485  32.165  1.00  0.00     0.010 A 
ATOM     37  C   UNL A   1      36.564  34.602  32.525  1.00  0.00     0.010 A 
ATOM     38  C   UNL A   1      36.614  33.222  32.344  1.00  0.00    -0.014 A 
BRANCH  38  39
ATOM     39  C   UNL A   1      37.906  32.563  32.130  1.00  0.00     0.031 A 
ATOM     40  C   UNL A   1      38.705  32.400  33.380  1.00  0.00     0.074 A 
ATOM     41  C   UNL A   1      38.269  31.950  30.983  1.00  0.00     0.049 A 
ATOM     42  N   UNL A   1      39.852  32.923  33.663  1.00  0.00    -0.248 NA
ATOM     43  C   UNL A   1      38.093  31.674  34.507  1.00  0.00     0.031 C 
ATOM     44  C   UNL A   1      37.445  31.745  29.787  1.00  0.00     0.029 A 
ATOM     45  N   UNL A   1      39.420  31.277  30.676  1.00  0.00    -0.354 N 
ATOM     46  C   UNL A   1      40.204  32.424  34.918  1.00  0.00     0.074 A 
ATOM     47  C   UNL A   1      39.020  31.816  35.457  1.00  0.00     0.031 C 
ATOM     48  C   UNL A   1      38.024  30.819  28.991  1.00  0.00     0.029 A 
ATOM     49  C   UNL A   1      39.330  30.487  29.533  1.00  0.00     0.049 A 
ATOM     50  H   UNL A   1      40.240  31.346  31.216  1.00  0.00     0.167 HD
ATOM     51  C   UNL A   1      41.515  32.316  35.278  1.00  0.00     0.037 A 
ATOM     52  C   UNL A   1      40.252  29.610  29.064  1.00  0.00     0.037 A 
ATOM     53  C   UNL A   1      42.343  33.087  34.385  1.00  0.00     0.049 A 
ATOM     54  C   UNL A   1      41.553  29.959  29.668  1.00  0.00     0.074 A 
ATOM     55  C   UNL A   1      42.586  34.418  34.135  1.00  0.00     0.029 A 
ATOM     56  N   UNL A   1      42.802  32.378  33.309  1.00  0.00    -0.354 N 
ATOM     57  N   UNL A   1      42.225  31.034  29.371  1.00  0.00    -0.248 NA
ATOM     58  C   UNL A   1      41.995  29.256  30.867  1.00  0.00     0.031 C 
ATOM     59  C   UNL A   1      42.983  34.491  32.766  1.00  0.00     0.029 A 
ATOM     60  C   UNL A   1      43.012  33.200  32.240  1.00  0.00     0.049 A 
ATOM     61  H   UNL A   1      42.960  31.406  33.306  1.00  0.00     0.167 HD
ATOM     62  C   UNL A   1      42.846  31.382  30.553  1.00  0.00     0.074 A 
ATOM     63  C   UNL A   1      42.835  30.170  31.361  1.00  0.00     0.031 C 
ATOM     64  C   UNL A   1      43.006  32.695  30.885  1.00  0.00     0.037 A 
BRANCH  51  65
ATOM     65  C   UNL A   1      42.114  31.155  36.059  1.00  0.00     0.057 A 
ATOM     66  C   UNL A   1      43.048  31.440  37.078  1.00  0.00     0.134 A 
ATOM     67  C   UNL A   1      42.088  29.808  35.647  1.00  0.00     0.134 A 
ATOM     68  F   UNL A   1      43.177  32.682  37.569  1.00  0.00    -0.206 F 
ATOM     69  C   UNL A   1      43.953  30.486  37.565  1.00  0.00     0.040 A 
ATOM     70  C   UNL A   1      42.958  28.838  36.161  1.00  0.00     0.040 A 
ATOM     71  F   UNL A   1      41.299  29.367  34.662  1.00  0.00    -0.206 F 
ATOM     72  C   UNL A   1      43.919  29.182  37.095  1.00  0.00     0.006 A 
ENDBRANCH  51  65
BRANCH  52  73
ATOM     73  C   UNL A   1      40.093  28.385  28.247  1.00  0.00     0.057 A 
ATOM     74  C   UNL A   1      40.717  28.263  26.996  1.00  0.00     0.134 A 
ATOM     75  C   UNL A   1      39.577  27.202  28.799  1.00  0.00     0.134 A 
ATOM     76  F   UNL A   1      41.263  29.330  26.396  1.00  0.00    -0.206 F 
ATOM     77  C   UNL A   1      40.863  27.027  26.352  1.00  0.00     0.040 A 
ATOM     78  C   UNL A   1      39.711  25.963  28.164  1.00  0.00     0.040 A 
ATOM     79  F   UNL A   1      39.009  27.198  30.013  1.00  0.00    -0.206 F 
ATOM     80  C   UNL A   1      40.373  25.868  26.945  1.00  0.00     0.006 A 
ENDBRANCH  52  73
BRANCH  64  81
ATOM     81  C   UNL A   1      42.990  33.693  29.768  1.00  0.00     0.057 A 
ATOM     82  C   UNL A   1      41.877  34.455  29.388  1.00  0.00     0.134 A 
ATOM     83  C   UNL A   1      44.195  33.946  29.102  1.00  0.00     0.134 A 
ATOM     84  F   UNL A   1      40.703  34.338  30.022  1.00  0.00    -0.206 F 
ATOM     85  C   UNL A   1      41.954  35.396  28.358  1.00  0.00     0.040 A 
ATOM     86  C   UNL A   1      44.293  34.910  28.099  1.00  0.00     0.040 A 
ATOM     87  F   UNL A   1      45.310  33.281  29.444  1.00  0.00    -0.206 F 
ATOM     88  C   UNL A   1      43.167  35.631  27.715  1.00  0.00     0.006 A 
ENDBRANCH  64  81
ENDBRANCH  38  39
ENDBRANCH  30  33
ENDBRANCH  28  29
ENDBRANCH  27  28
ENDBRANCH   1  27
TORSDOF 13
ENDMDL
MODEL 3
REMARK VINA RESULT:     -12.5      1.754      5.994
REMARK SMILES C[C@@H]1CCc2nc(NC(=O)[C@H]3CC=CC[C@@H]3C(=O)NCCCCNC(=O)c3ccc(-c4c5nc(c(-c6c(F)cccc6F)c6ccc([nH]6)c(-c6c(F)cccc6F)c6nc(c(-c7c(F)cccc7F)c7ccc4[nH]7)C=C6)C=C5)cc3)sc2C1
REMARK SMILES IDX 21 1 20 2 19 3 17 4 18 5 16 7 11 8 12 9 13 10 15 11 14 12
REMARK SMILES IDX 9 13 8 14 10 16 7 17 1 18 2 19 3 20 83 21 4 22 82 23 5 24
REMARK SMILES IDX 81 25 6 26 22 27 23 28 24 29 25 30 26 32 27 33 28 34 80 35
REMARK SMILES IDX 29 36 79 37 30 38 31 39 32 40 73 41 33 42 78 43 72 44 74 45
REMARK SMILES IDX 34 46 77 47 71 48 70 49 35 51 61 52 44 53 60 54 45 55 48 56
REMARK SMILES IDX 59 57 75 58 46 59 47 60 58 62 76 63 49 64 36 65 37 66 42 67
REMARK SMILES IDX 38 68 39 69 41 70 43 71 40 72 62 73 63 74 68 75 64 76 65 77
REMARK SMILES IDX 67 78 69 79 66 80 50 81 51 82 56 83 52 84 53 85 55 86 57 87
REMARK SMILES IDX 54 88
REMARK H PARENT 19 6 8 15 24 31 74 50 48 61
REMARK Flexibility Score: inf
ROOT
ATOM      1  C   UNL A   1      32.396  29.697  27.020  1.00  0.00     0.023 C 
ENDROOT
BRANCH   1   2
ATOM      2  C   UNL A   1      31.887  29.831  25.587  1.00  0.00     0.116 C 
BRANCH   2   3
ATOM      3  N   UNL A   1      32.918  29.694  24.575  1.00  0.00    -0.356 N 
ATOM      4  C   UNL A   1      33.021  28.798  23.548  1.00  0.00     0.224 C 
ATOM      5  O   UNL A   1      34.004  28.908  22.814  1.00  0.00    -0.275 OA
ATOM      6  H   UNL A   1      33.655  30.344  24.638  1.00  0.00     0.163 HD
BRANCH   4   7
ATOM      7  C   UNL A   1      32.009  27.657  23.401  1.00  0.00     0.095 C 
ATOM      8  C   UNL A   1      31.963  26.750  24.688  1.00  0.00     0.095 C 
ATOM      9  C   UNL A   1      33.277  25.936  24.744  1.00  0.00     0.041 C 
ATOM     10  C   UNL A   1      33.748  25.346  23.459  1.00  0.00    -0.030 C 
ATOM     11  C   UNL A   1      32.205  26.768  22.145  1.00  0.00     0.041 C 
ATOM     12  C   UNL A   1      33.232  25.691  22.280  1.00  0.00    -0.030 C 
BRANCH   8  13
ATOM     13  C   UNL A   1      30.605  26.008  24.682  1.00  0.00     0.230 C 
ATOM     14  N   UNL A   1      30.377  24.690  24.860  1.00  0.00    -0.302 N 
ATOM     15  H   UNL A   1      29.433  24.449  24.718  1.00  0.00     0.172 HD
ATOM     16  O   UNL A   1      29.564  26.667  24.512  1.00  0.00    -0.274 OA
BRANCH  14  17
ATOM     17  C   UNL A   1      31.142  23.619  25.189  1.00  0.00     0.189 A 
ATOM     18  C   UNL A   1      35.965  21.958  25.012  1.00  0.00     0.008 C 
ATOM     19  C   UNL A   1      35.031  21.054  25.829  1.00  0.00    -0.009 C 
ATOM     20  C   UNL A   1      34.193  20.142  24.898  1.00  0.00     0.010 C 
ATOM     21  C   UNL A   1      34.118  21.866  26.790  1.00  0.00     0.052 C 
ATOM     22  C   UNL A   1      33.224  20.937  24.000  1.00  0.00     0.058 C 
ATOM     23  C   UNL A   1      32.878  22.303  26.092  1.00  0.00     0.030 A 
ATOM     24  C   UNL A   1      32.499  21.955  24.811  1.00  0.00     0.057 A 
ATOM     25  S   UNL A   1      31.653  23.271  26.779  1.00  0.00    -0.101 S 
ATOM     26  N   UNL A   1      31.473  22.714  24.293  1.00  0.00    -0.225 NA
ENDBRANCH  14  17
ENDBRANCH   8  13
ENDBRANCH   4   7
ENDBRANCH   2   3
ENDBRANCH   1   2
BRANCH   1  27
ATOM     27  C   UNL A   1      33.673  28.876  27.221  1.00  0.00     0.023 C 
BRANCH  27  28
ATOM     28  C   UNL A   1      34.932  29.695  27.469  1.00  0.00     0.116 C 
BRANCH  28  29
ATOM     29  N   UNL A   1      34.686  30.901  28.244  1.00  0.00    -0.352 N 
ATOM     30  C   UNL A   1      35.332  31.313  29.394  1.00  0.00     0.251 C 
ATOM     31  H   UNL A   1      33.976  31.494  27.910  1.00  0.00     0.163 HD
ATOM     32  O   UNL A   1      34.845  32.173  30.108  1.00  0.00    -0.269 OA
BRANCH  30  33
ATOM     33  C   UNL A   1      36.618  30.685  29.760  1.00  0.00     0.039 A 
ATOM     34  C   UNL A   1      36.625  29.425  30.365  1.00  0.00     0.014 A 
ATOM     35  C   UNL A   1      37.815  31.352  29.492  1.00  0.00     0.014 A 
ATOM     36  C   UNL A   1      37.845  28.804  30.620  1.00  0.00     0.010 A 
ATOM     37  C   UNL A   1      39.022  30.705  29.671  1.00  0.00     0.010 A 
ATOM     38  C   UNL A   1      39.043  29.435  30.244  1.00  0.00    -0.014 A 
BRANCH  38  39
ATOM     39  C   UNL A   1      40.292  28.668  30.265  1.00  0.00     0.031 A 
ATOM     40  C   UNL A   1      40.908  28.570  31.621  1.00  0.00     0.074 A 
ATOM     41  C   UNL A   1      40.746  27.922  29.234  1.00  0.00     0.049 A 
ATOM     42  N   UNL A   1      42.048  29.034  32.010  1.00  0.00    -0.248 NA
ATOM     43  C   UNL A   1      40.098  28.002  32.713  1.00  0.00     0.031 C 
ATOM     44  C   UNL A   1      40.067  27.662  27.961  1.00  0.00     0.029 A 
ATOM     45  N   UNL A   1      41.866  27.142  29.146  1.00  0.00    -0.354 N 
ATOM     46  C   UNL A   1      42.194  28.635  33.339  1.00  0.00     0.074 A 
ATOM     47  C   UNL A   1      40.904  28.169  33.764  1.00  0.00     0.031 C 
ATOM     48  C   UNL A   1      40.664  26.624  27.333  1.00  0.00     0.029 A 
ATOM     49  C   UNL A   1      41.858  26.253  28.074  1.00  0.00     0.049 A 
ATOM     50  H   UNL A   1      42.613  27.204  29.783  1.00  0.00     0.167 HD
ATOM     51  C   UNL A   1      43.434  28.469  33.881  1.00  0.00     0.037 A 
ATOM     52  C   UNL A   1      42.755  25.271  27.811  1.00  0.00     0.037 A 
ATOM     53  C   UNL A   1      44.431  29.089  33.045  1.00  0.00     0.049 A 
ATOM     54  C   UNL A   1      43.993  25.583  28.553  1.00  0.00     0.074 A 
ATOM     55  C   UNL A   1      44.815  30.369  32.716  1.00  0.00     0.029 A 
ATOM     56  N   UNL A   1      44.963  28.247  32.106  1.00  0.00    -0.354 N 
ATOM     57  N   UNL A   1      44.785  26.573  28.258  1.00  0.00    -0.248 NA
ATOM     58  C   UNL A   1      44.217  24.970  29.857  1.00  0.00     0.031 C 
ATOM     59  C   UNL A   1      45.389  30.280  31.413  1.00  0.00     0.029 A 
ATOM     60  C   UNL A   1      45.377  28.945  31.008  1.00  0.00     0.049 A 
ATOM     61  H   UNL A   1      45.039  27.271  32.209  1.00  0.00     0.167 HD
ATOM     62  C   UNL A   1      45.276  26.989  29.479  1.00  0.00     0.074 A 
ATOM     63  C   UNL A   1      45.060  25.864  30.379  1.00  0.00     0.031 C 
ATOM     64  C   UNL A   1      45.502  28.313  29.714  1.00  0.00     0.037 A 
BRANCH  51  65
ATOM     65  C   UNL A   1      43.829  27.349  34.833  1.00  0.00     0.057 A 
ATOM     66  C   UNL A   1      43.665  26.013  34.407  1.00  0.00     0.134 A 
ATOM     67  C   UNL A   1      44.025  27.502  36.220  1.00  0.00     0.134 A 
ATOM     68  F   UNL A   1      43.474  25.720  33.112  1.00  0.00    -0.206 F 
ATOM     69  C   UNL A   1      43.593  24.935  35.301  1.00  0.00     0.040 A 
ATOM     70  C   UNL A   1      44.000  26.426  37.116  1.00  0.00     0.040 A 
ATOM     71  F   UNL A   1      44.151  28.697  36.806  1.00  0.00    -0.206 F 
ATOM     72  C   UNL A   1      43.746  25.142  36.664  1.00  0.00     0.006 A 
ENDBRANCH  51  65
BRANCH  52  73
ATOM     73  C   UNL A   1      42.600  23.988  27.089  1.00  0.00     0.057 A 
ATOM     74  C   UNL A   1      43.070  23.834  25.775  1.00  0.00     0.134 A 
ATOM     75  C   UNL A   1      42.260  22.807  27.767  1.00  0.00     0.134 A 
ATOM     76  F   UNL A   1      43.442  24.900  25.053  1.00  0.00    -0.206 F 
ATOM     77  C   UNL A   1      43.239  22.575  25.186  1.00  0.00     0.040 A 
ATOM     78  C   UNL A   1      42.419  21.543  27.188  1.00  0.00     0.040 A 
ATOM     79  F   UNL A   1      41.852  22.837  29.044  1.00  0.00    -0.206 F 
ATOM     80  C   UNL A   1      42.929  21.422  25.900  1.00  0.00     0.006 A 
ENDBRANCH  52  73
BRANCH  64  81
ATOM     81  C   UNL A   1      45.713  29.197  28.523  1.00  0.00     0.057 A 
ATOM     82  C   UNL A   1      44.704  29.916  27.868  1.00  0.00     0.134 A 
ATOM     83  C   UNL A   1      47.026  29.385  28.075  1.00  0.00     0.134 A 
ATOM     84  F   UNL A   1      43.430  29.860  28.278  1.00  0.00    -0.206 F 
ATOM     85  C   UNL A   1      44.989  30.752  26.785  1.00  0.00     0.040 A 
ATOM     86  C   UNL A   1      47.326  30.246  27.020  1.00  0.00     0.040 A 
ATOM     87  F   UNL A   1      48.045  28.758  28.683  1.00  0.00    -0.206 F 
ATOM     88  C   UNL A   1      46.305  30.924  26.363  1.00  0.00     0.006 A 
ENDBRANCH  64  81
ENDBRANCH  38  39
ENDBRANCH  30  33
ENDBRANCH  28  29
ENDBRANCH  27  28
ENDBRANCH   1  27
TORSDOF 13
ENDMDL
