MODEL 1
REMARK VINA RESULT:     -13.2      0.000      0.000
REMARK SMILES O=C(NCCCCNC(=O)c1ccc(-c2c3nc(c(-c4c(F)cccc4F)c4ccc([nH]4)c(-c4c(F)cccc4F)c4nc(c(-c5c(F)cccc5F)c5ccc2[nH]5)C=C4)C=C3)cc1)C1=Cc2c(ccc(Cl)c2Oc2ccccc2)O[C@H]1C(F)(F)F
REMARK SMILES IDX 5 1 4 2 3 3 1 4 2 5 65 7 66 8 82 9 67 10 81 11 68 12 73 13
REMARK SMILES IDX 69 14 71 15 70 16 72 17 83 18 84 19 85 20 86 21 74 22 75 23
REMARK SMILES IDX 76 24 80 25 77 26 79 27 78 28 6 29 7 30 8 31 9 32 10 34
REMARK SMILES IDX 11 35 12 36 64 37 13 38 63 39 14 40 15 41 16 42 57 43 17 44
REMARK SMILES IDX 62 45 56 46 58 47 18 48 61 49 55 50 54 51 19 53 45 54 28 55
REMARK SMILES IDX 44 56 29 57 32 58 43 59 59 60 30 61 31 62 42 64 60 65 33 66
REMARK SMILES IDX 20 67 21 68 26 69 22 70 23 71 25 72 27 73 24 74 46 75 47 76
REMARK SMILES IDX 52 77 48 78 49 79 51 80 53 81 50 82 34 83 35 84 40 85 36 86
REMARK SMILES IDX 37 87 39 88 41 89 38 90
REMARK H PARENT 3 6 8 33 58 52 32 63
REMARK Flexibility Score: inf
ROOT
ATOM      1  C   UNL A   1      31.661  27.766  27.195  1.00  0.00     0.023 C 
ENDROOT
BRANCH   1   2
ATOM      2  C   UNL A   1      31.659  26.547  26.276  1.00  0.00     0.116 C 
BRANCH   2   3
ATOM      3  N   UNL A   1      31.334  25.311  26.971  1.00  0.00    -0.352 N 
ATOM      4  O   UNL A   1      30.952  23.110  27.243  1.00  0.00    -0.270 OA
ATOM      5  C   UNL A   1      31.333  24.021  26.519  1.00  0.00     0.251 C 
ATOM      6  H   UNL A   1      31.074  25.421  27.914  1.00  0.00     0.163 HD
BRANCH   5   7
ATOM      7  C   UNL A   1      31.751  23.723  25.134  1.00  0.00     0.067 C 
ATOM      8  C   UNL A   1      32.199  22.499  24.837  1.00  0.00     0.029 C 
ATOM      9  C   UNL A   1      32.025  24.878  24.229  1.00  0.00     0.314 C 
ATOM     10  C   UNL A   1      33.618  22.500  24.410  1.00  0.00     0.061 A 
ATOM     11  O   UNL A   1      33.363  24.830  23.652  1.00  0.00    -0.475 OA
ATOM     12  C   UNL A   1      34.123  23.703  23.867  1.00  0.00     0.131 A 
ATOM     13  C   UNL A   1      34.498  21.432  24.712  1.00  0.00     0.156 A 
ATOM     14  C   UNL A   1      35.487  23.849  23.623  1.00  0.00     0.049 A 
ATOM     15  C   UNL A   1      35.876  21.624  24.498  1.00  0.00     0.084 A 
ATOM     16  C   UNL A   1      36.364  22.818  23.957  1.00  0.00     0.028 A 
ATOM     17  Cl  UNL A   1      37.033  20.424  24.960  1.00  0.00    -0.080 Cl
BRANCH   9  18
ATOM     18  C   UNL A   1      30.970  24.977  23.115  1.00  0.00     0.429 C 
ATOM     19  F   UNL A   1      30.217  26.098  23.211  1.00  0.00    -0.167 F 
ATOM     20  F   UNL A   1      31.555  25.001  21.893  1.00  0.00    -0.167 F 
ATOM     21  F   UNL A   1      30.117  23.924  23.135  1.00  0.00    -0.167 F 
ENDBRANCH   9  18
BRANCH  13  22
ATOM     22  O   UNL A   1      34.160  20.241  25.345  1.00  0.00    -0.455 OA
BRANCH  22  23
ATOM     23  C   UNL A   1      33.856  19.140  24.586  1.00  0.00     0.127 A 
ATOM     24  C   UNL A   1      32.705  19.185  23.796  1.00  0.00     0.047 A 
ATOM     25  C   UNL A   1      34.678  18.012  24.583  1.00  0.00     0.047 A 
ATOM     26  C   UNL A   1      32.436  18.143  22.910  1.00  0.00     0.004 A 
ATOM     27  C   UNL A   1      34.398  16.966  23.702  1.00  0.00     0.004 A 
ATOM     28  C   UNL A   1      33.290  17.041  22.854  1.00  0.00     0.000 A 
ENDBRANCH  22  23
ENDBRANCH  13  22
ENDBRANCH   5   7
ENDBRANCH   2   3
ENDBRANCH   1   2
BRANCH   1  29
ATOM     29  C   UNL A   1      32.345  29.002  26.615  1.00  0.00     0.023 C 
BRANCH  29  30
ATOM     30  C   UNL A   1      33.750  29.318  27.134  1.00  0.00     0.116 C 
BRANCH  30  31
ATOM     31  N   UNL A   1      33.831  30.506  27.970  1.00  0.00    -0.352 N 
ATOM     32  C   UNL A   1      34.881  30.983  28.723  1.00  0.00     0.251 C 
ATOM     33  H   UNL A   1      33.012  31.051  28.002  1.00  0.00     0.163 HD
ATOM     34  O   UNL A   1      34.732  31.996  29.400  1.00  0.00    -0.269 OA
BRANCH  32  35
ATOM     35  C   UNL A   1      36.167  30.246  28.776  1.00  0.00     0.039 A 
ATOM     36  C   UNL A   1      37.009  30.296  27.659  1.00  0.00     0.014 A 
ATOM     37  C   UNL A   1      36.568  29.547  29.917  1.00  0.00     0.014 A 
ATOM     38  C   UNL A   1      38.293  29.753  27.731  1.00  0.00     0.010 A 
ATOM     39  C   UNL A   1      37.875  29.062  30.012  1.00  0.00     0.010 A 
ATOM     40  C   UNL A   1      38.759  29.188  28.930  1.00  0.00    -0.014 A 
BRANCH  40  41
ATOM     41  C   UNL A   1      40.192  28.820  29.085  1.00  0.00     0.031 A 
ATOM     42  C   UNL A   1      41.183  29.767  29.696  1.00  0.00     0.074 A 
ATOM     43  C   UNL A   1      40.616  27.634  28.604  1.00  0.00     0.049 A 
ATOM     44  N   UNL A   1      42.464  29.594  29.909  1.00  0.00    -0.248 NA
ATOM     45  C   UNL A   1      40.680  31.090  30.094  1.00  0.00     0.031 C 
ATOM     46  C   UNL A   1      39.775  26.651  27.915  1.00  0.00     0.029 A 
ATOM     47  N   UNL A   1      41.859  27.053  28.618  1.00  0.00    -0.354 N 
ATOM     48  C   UNL A   1      42.923  30.785  30.453  1.00  0.00     0.074 A 
ATOM     49  C   UNL A   1      41.792  31.688  30.502  1.00  0.00     0.031 C 
ATOM     50  C   UNL A   1      40.518  25.575  27.609  1.00  0.00     0.029 A 
ATOM     51  C   UNL A   1      41.888  25.800  28.058  1.00  0.00     0.049 A 
ATOM     52  H   UNL A   1      42.656  27.495  28.994  1.00  0.00     0.167 HD
ATOM     53  C   UNL A   1      44.168  31.094  30.888  1.00  0.00     0.037 A 
ATOM     54  C   UNL A   1      42.899  24.921  27.932  1.00  0.00     0.037 A 
ATOM     55  C   UNL A   1      45.291  30.192  30.872  1.00  0.00     0.049 A 
ATOM     56  C   UNL A   1      44.257  25.269  28.463  1.00  0.00     0.074 A 
ATOM     57  C   UNL A   1      46.565  30.390  31.375  1.00  0.00     0.029 A 
ATOM     58  N   UNL A   1      45.273  28.921  30.320  1.00  0.00    -0.354 N 
ATOM     59  N   UNL A   1      44.653  26.366  29.060  1.00  0.00    -0.248 NA
ATOM     60  C   UNL A   1      45.307  24.251  28.312  1.00  0.00     0.031 C 
ATOM     61  C   UNL A   1      47.328  29.248  31.103  1.00  0.00     0.029 A 
ATOM     62  C   UNL A   1      46.519  28.329  30.455  1.00  0.00     0.049 A 
ATOM     63  H   UNL A   1      44.491  28.500  29.896  1.00  0.00     0.167 HD
ATOM     64  C   UNL A   1      45.990  26.165  29.372  1.00  0.00     0.074 A 
ATOM     65  C   UNL A   1      46.336  24.837  28.910  1.00  0.00     0.031 C 
ATOM     66  C   UNL A   1      46.853  27.009  29.988  1.00  0.00     0.037 A 
BRANCH  53  67
ATOM     67  C   UNL A   1      44.379  32.475  31.432  1.00  0.00     0.057 A 
ATOM     68  C   UNL A   1      44.758  33.540  30.604  1.00  0.00     0.134 A 
ATOM     69  C   UNL A   1      44.177  32.749  32.790  1.00  0.00     0.134 A 
ATOM     70  F   UNL A   1      44.978  33.338  29.296  1.00  0.00    -0.206 F 
ATOM     71  C   UNL A   1      44.952  34.825  31.112  1.00  0.00     0.040 A 
ATOM     72  C   UNL A   1      44.348  34.034  33.306  1.00  0.00     0.040 A 
ATOM     73  F   UNL A   1      43.807  31.774  33.634  1.00  0.00    -0.206 F 
ATOM     74  C   UNL A   1      44.742  35.075  32.468  1.00  0.00     0.006 A 
ENDBRANCH  53  67
BRANCH  54  75
ATOM     75  C   UNL A   1      42.647  23.594  27.322  1.00  0.00     0.057 A 
ATOM     76  C   UNL A   1      42.268  22.505  28.116  1.00  0.00     0.134 A 
ATOM     77  C   UNL A   1      42.773  23.382  25.946  1.00  0.00     0.134 A 
ATOM     78  F   UNL A   1      42.150  22.648  29.444  1.00  0.00    -0.206 F 
ATOM     79  C   UNL A   1      42.033  21.247  27.563  1.00  0.00     0.040 A 
ATOM     80  C   UNL A   1      42.524  22.132  25.377  1.00  0.00     0.040 A 
ATOM     81  F   UNL A   1      43.126  24.390  25.135  1.00  0.00    -0.206 F 
ATOM     82  C   UNL A   1      42.157  21.059  26.188  1.00  0.00     0.006 A 
ENDBRANCH  54  75
BRANCH  66  83
ATOM     83  C   UNL A   1      48.247  26.508  30.210  1.00  0.00     0.057 A 
ATOM     84  C   UNL A   1      49.265  26.735  29.275  1.00  0.00     0.134 A 
ATOM     85  C   UNL A   1      48.577  25.801  31.372  1.00  0.00     0.134 A 
ATOM     86  F   UNL A   1      49.007  27.391  28.135  1.00  0.00    -0.206 F 
ATOM     87  C   UNL A   1      50.560  26.257  29.481  1.00  0.00     0.040 A 
ATOM     88  C   UNL A   1      49.872  25.333  31.597  1.00  0.00     0.040 A 
ATOM     89  F   UNL A   1      47.645  25.552  32.305  1.00  0.00    -0.206 F 
ATOM     90  C   UNL A   1      50.868  25.557  30.647  1.00  0.00     0.006 A 
ENDBRANCH  66  83
ENDBRANCH  40  41
ENDBRANCH  32  35
ENDBRANCH  30  31
ENDBRANCH  29  30
ENDBRANCH   1  29
TORSDOF 14
ENDMDL
MODEL 2
REMARK VINA RESULT:     -13.2      4.370      8.496
REMARK SMILES O=C(NCCCCNC(=O)c1ccc(-c2c3nc(c(-c4c(F)cccc4F)c4ccc([nH]4)c(-c4c(F)cccc4F)c4nc(c(-c5c(F)cccc5F)c5ccc2[nH]5)C=C4)C=C3)cc1)C1=Cc2c(ccc(Cl)c2Oc2ccccc2)O[C@H]1C(F)(F)F
REMARK SMILES IDX 5 1 4 2 3 3 1 4 2 5 65 7 66 8 82 9 67 10 81 11 68 12 73 13
REMARK SMILES IDX 69 14 71 15 70 16 72 17 83 18 84 19 85 20 86 21 74 22 75 23
REMARK SMILES IDX 76 24 80 25 77 26 79 27 78 28 6 29 7 30 8 31 9 32 10 34
REMARK SMILES IDX 11 35 12 36 64 37 13 38 63 39 14 40 15 41 16 42 57 43 17 44
REMARK SMILES IDX 62 45 56 46 58 47 18 48 61 49 55 50 54 51 19 53 45 54 28 55
REMARK SMILES IDX 44 56 29 57 32 58 43 59 59 60 30 61 31 62 42 64 60 65 33 66
REMARK SMILES IDX 20 67 21 68 26 69 22 70 23 71 25 72 27 73 24 74 46 75 47 76
REMARK SMILES IDX 52 77 48 78 49 79 51 80 53 81 50 82 34 83 35 84 40 85 36 86
REMARK SMILES IDX 37 87 39 88 41 89 38 90
REMARK H PARENT 3 6 8 33 58 52 32 63
REMARK Flexibility Score: inf
ROOT
ATOM      1  C   UNL A   1      31.886  30.113  26.885  1.00  0.00     0.023 C 
ENDROOT
BRANCH   1   2
ATOM      2  C   UNL A   1      31.803  29.342  25.569  1.00  0.00     0.116 C 
BRANCH   2   3
ATOM      3  N   UNL A   1      32.938  29.589  24.693  1.00  0.00    -0.352 N 
ATOM      4  O   UNL A   1      34.428  29.202  23.051  1.00  0.00    -0.270 OA
ATOM      5  C   UNL A   1      33.399  28.870  23.626  1.00  0.00     0.251 C 
ATOM      6  H   UNL A   1      33.455  30.401  24.901  1.00  0.00     0.163 HD
BRANCH   5   7
ATOM      7  C   UNL A   1      32.680  27.657  23.187  1.00  0.00     0.067 C 
ATOM      8  C   UNL A   1      31.635  27.781  22.362  1.00  0.00     0.029 C 
ATOM      9  C   UNL A   1      32.891  26.404  23.970  1.00  0.00     0.314 C 
ATOM     10  C   UNL A   1      30.365  27.334  22.980  1.00  0.00     0.061 A 
ATOM     11  O   UNL A   1      31.642  25.835  24.461  1.00  0.00    -0.475 OA
ATOM     12  C   UNL A   1      30.460  26.397  24.034  1.00  0.00     0.131 A 
ATOM     13  C   UNL A   1      29.125  27.953  22.690  1.00  0.00     0.156 A 
ATOM     14  C   UNL A   1      29.338  26.074  24.794  1.00  0.00     0.049 A 
ATOM     15  C   UNL A   1      28.019  27.642  23.503  1.00  0.00     0.084 A 
ATOM     16  C   UNL A   1      28.124  26.711  24.542  1.00  0.00     0.028 A 
ATOM     17  Cl  UNL A   1      26.500  28.448  23.304  1.00  0.00    -0.080 Cl
BRANCH   9  18
ATOM     18  C   UNL A   1      33.665  25.358  23.152  1.00  0.00     0.429 C 
ATOM     19  F   UNL A   1      34.728  24.856  23.823  1.00  0.00    -0.167 F 
ATOM     20  F   UNL A   1      32.871  24.308  22.832  1.00  0.00    -0.167 F 
ATOM     21  F   UNL A   1      34.137  25.876  21.992  1.00  0.00    -0.167 F 
ENDBRANCH   9  18
BRANCH  13  22
ATOM     22  O   UNL A   1      28.907  28.965  21.761  1.00  0.00    -0.455 OA
BRANCH  22  23
ATOM     23  C   UNL A   1      28.900  30.271  22.178  1.00  0.00     0.127 A 
ATOM     24  C   UNL A   1      28.441  31.243  21.285  1.00  0.00     0.047 A 
ATOM     25  C   UNL A   1      29.319  30.624  23.462  1.00  0.00     0.047 A 
ATOM     26  C   UNL A   1      28.291  32.559  21.719  1.00  0.00     0.004 A 
ATOM     27  C   UNL A   1      29.178  31.946  23.887  1.00  0.00     0.004 A 
ATOM     28  C   UNL A   1      28.646  32.907  23.023  1.00  0.00     0.000 A 
ENDBRANCH  22  23
ENDBRANCH  13  22
ENDBRANCH   5   7
ENDBRANCH   2   3
ENDBRANCH   1   2
BRANCH   1  29
ATOM     29  C   UNL A   1      31.281  31.515  26.842  1.00  0.00     0.023 C 
BRANCH  29  30
ATOM     30  C   UNL A   1      32.210  32.652  26.409  1.00  0.00     0.116 C 
BRANCH  30  31
ATOM     31  N   UNL A   1      32.157  33.831  27.260  1.00  0.00    -0.352 N 
ATOM     32  C   UNL A   1      33.026  34.246  28.245  1.00  0.00     0.251 C 
ATOM     33  H   UNL A   1      31.385  34.421  27.107  1.00  0.00     0.163 HD
ATOM     34  O   UNL A   1      32.777  35.265  28.884  1.00  0.00    -0.269 OA
BRANCH  32  35
ATOM     35  C   UNL A   1      34.221  33.438  28.585  1.00  0.00     0.039 A 
ATOM     36  C   UNL A   1      35.461  34.083  28.662  1.00  0.00     0.014 A 
ATOM     37  C   UNL A   1      34.131  32.073  28.868  1.00  0.00     0.014 A 
ATOM     38  C   UNL A   1      36.578  33.391  29.136  1.00  0.00     0.010 A 
ATOM     39  C   UNL A   1      35.230  31.399  29.405  1.00  0.00     0.010 A 
ATOM     40  C   UNL A   1      36.456  32.061  29.572  1.00  0.00    -0.014 A 
BRANCH  40  41
ATOM     41  C   UNL A   1      37.576  31.396  30.290  1.00  0.00     0.031 A 
ATOM     42  C   UNL A   1      38.472  30.408  29.601  1.00  0.00     0.074 A 
ATOM     43  C   UNL A   1      37.744  31.639  31.605  1.00  0.00     0.049 A 
ATOM     44  N   UNL A   1      39.496  29.748  30.084  1.00  0.00    -0.248 NA
ATOM     45  C   UNL A   1      38.164  30.098  28.197  1.00  0.00     0.031 C 
ATOM     46  C   UNL A   1      36.896  32.516  32.418  1.00  0.00     0.029 A 
ATOM     47  N   UNL A   1      38.681  31.172  32.492  1.00  0.00    -0.354 N 
ATOM     48  C   UNL A   1      39.946  28.938  29.052  1.00  0.00     0.074 A 
ATOM     49  C   UNL A   1      39.061  29.159  27.927  1.00  0.00     0.031 C 
ATOM     50  C   UNL A   1      37.376  32.552  33.671  1.00  0.00     0.029 A 
ATOM     51  C   UNL A   1      38.548  31.687  33.757  1.00  0.00     0.049 A 
ATOM     52  H   UNL A   1      39.383  30.526  32.243  1.00  0.00     0.167 HD
ATOM     53  C   UNL A   1      41.010  28.099  29.035  1.00  0.00     0.037 A 
ATOM     54  C   UNL A   1      39.294  31.500  34.861  1.00  0.00     0.037 A 
ATOM     55  C   UNL A   1      41.913  27.896  30.138  1.00  0.00     0.049 A 
ATOM     56  C   UNL A   1      40.493  30.601  34.805  1.00  0.00     0.074 A 
ATOM     57  C   UNL A   1      43.068  27.134  30.181  1.00  0.00     0.029 A 
ATOM     58  N   UNL A   1      41.760  28.457  31.396  1.00  0.00    -0.354 N 
ATOM     59  N   UNL A   1      40.961  29.914  33.793  1.00  0.00    -0.248 NA
ATOM     60  C   UNL A   1      41.274  30.462  36.043  1.00  0.00     0.031 C 
ATOM     61  C   UNL A   1      43.599  27.213  31.474  1.00  0.00     0.029 A 
ATOM     62  C   UNL A   1      42.789  28.045  32.228  1.00  0.00     0.049 A 
ATOM     63  H   UNL A   1      41.028  29.060  31.660  1.00  0.00     0.167 HD
ATOM     64  C   UNL A   1      42.099  29.274  34.264  1.00  0.00     0.074 A 
ATOM     65  C   UNL A   1      42.259  29.666  35.649  1.00  0.00     0.031 C 
ATOM     66  C   UNL A   1      42.936  28.438  33.604  1.00  0.00     0.037 A 
BRANCH  53  67
ATOM     67  C   UNL A   1      41.260  27.337  27.768  1.00  0.00     0.057 A 
ATOM     68  C   UNL A   1      42.033  27.874  26.730  1.00  0.00     0.134 A 
ATOM     69  C   UNL A   1      40.746  26.047  27.594  1.00  0.00     0.134 A 
ATOM     70  F   UNL A   1      42.544  29.110  26.833  1.00  0.00    -0.206 F 
ATOM     71  C   UNL A   1      42.266  27.163  25.552  1.00  0.00     0.040 A 
ATOM     72  C   UNL A   1      40.988  25.318  26.428  1.00  0.00     0.040 A 
ATOM     73  F   UNL A   1      40.003  25.474  28.553  1.00  0.00    -0.206 F 
ATOM     74  C   UNL A   1      41.745  25.878  25.401  1.00  0.00     0.006 A 
ENDBRANCH  53  67
BRANCH  54  75
ATOM     75  C   UNL A   1      38.957  32.228  36.108  1.00  0.00     0.057 A 
ATOM     76  C   UNL A   1      39.438  33.524  36.328  1.00  0.00     0.134 A 
ATOM     77  C   UNL A   1      38.153  31.656  37.097  1.00  0.00     0.134 A 
ATOM     78  F   UNL A   1      40.229  34.113  35.419  1.00  0.00    -0.206 F 
ATOM     79  C   UNL A   1      39.139  34.223  37.496  1.00  0.00     0.040 A 
ATOM     80  C   UNL A   1      37.831  32.351  38.264  1.00  0.00     0.040 A 
ATOM     81  F   UNL A   1      37.658  30.420  36.938  1.00  0.00    -0.206 F 
ATOM     82  C   UNL A   1      38.329  33.637  38.467  1.00  0.00     0.006 A 
ENDBRANCH  54  75
BRANCH  66  83
ATOM     83  C   UNL A   1      44.107  27.908  34.374  1.00  0.00     0.057 A 
ATOM     84  C   UNL A   1      45.314  28.613  34.451  1.00  0.00     0.134 A 
ATOM     85  C   UNL A   1      44.024  26.686  35.052  1.00  0.00     0.134 A 
ATOM     86  F   UNL A   1      45.461  29.782  33.808  1.00  0.00    -0.206 F 
ATOM     87  C   UNL A   1      46.406  28.110  35.160  1.00  0.00     0.040 A 
ATOM     88  C   UNL A   1      45.103  26.182  35.779  1.00  0.00     0.040 A 
ATOM     89  F   UNL A   1      42.893  25.964  35.017  1.00  0.00    -0.206 F 
ATOM     90  C   UNL A   1      46.301  26.893  35.830  1.00  0.00     0.006 A 
ENDBRANCH  66  83
ENDBRANCH  40  41
ENDBRANCH  32  35
ENDBRANCH  30  31
ENDBRANCH  29  30
ENDBRANCH   1  29
TORSDOF 14
ENDMDL
MODEL 3
REMARK VINA RESULT:     -13.1      4.449      6.918
REMARK SMILES O=C(NCCCCNC(=O)c1ccc(-c2c3nc(c(-c4c(F)cccc4F)c4ccc([nH]4)c(-c4c(F)cccc4F)c4nc(c(-c5c(F)cccc5F)c5ccc2[nH]5)C=C4)C=C3)cc1)C1=Cc2c(ccc(Cl)c2Oc2ccccc2)O[C@H]1C(F)(F)F
REMARK SMILES IDX 5 1 4 2 3 3 1 4 2 5 65 7 66 8 82 9 67 10 81 11 68 12 73 13
REMARK SMILES IDX 69 14 71 15 70 16 72 17 83 18 84 19 85 20 86 21 74 22 75 23
REMARK SMILES IDX 76 24 80 25 77 26 79 27 78 28 6 29 7 30 8 31 9 32 10 34
REMARK SMILES IDX 11 35 12 36 64 37 13 38 63 39 14 40 15 41 16 42 57 43 17 44
REMARK SMILES IDX 62 45 56 46 58 47 18 48 61 49 55 50 54 51 19 53 45 54 28 55
REMARK SMILES IDX 44 56 29 57 32 58 43 59 59 60 30 61 31 62 42 64 60 65 33 66
REMARK SMILES IDX 20 67 21 68 26 69 22 70 23 71 25 72 27 73 24 74 46 75 47 76
REMARK SMILES IDX 52 77 48 78 49 79 51 80 53 81 50 82 34 83 35 84 40 85 36 86
REMARK SMILES IDX 37 87 39 88 41 89 38 90
REMARK H PARENT 3 6 8 33 58 52 32 63
REMARK Flexibility Score: inf
ROOT
ATOM      1  C   UNL A   1      32.016  29.944  26.957  1.00  0.00     0.023 C 
ENDROOT
BRANCH   1   2
ATOM      2  C   UNL A   1      31.947  29.161  25.647  1.00  0.00     0.116 C 
BRANCH   2   3
ATOM      3  N   UNL A   1      33.100  29.384  24.789  1.00  0.00    -0.352 N 
ATOM      4  O   UNL A   1      34.595  28.977  23.157  1.00  0.00    -0.270 OA
ATOM      5  C   UNL A   1      33.548  28.671  23.714  1.00  0.00     0.251 C 
ATOM      6  H   UNL A   1      33.642  30.173  25.019  1.00  0.00     0.163 HD
BRANCH   5   7
ATOM      7  C   UNL A   1      32.792  27.493  23.242  1.00  0.00     0.067 C 
ATOM      8  C   UNL A   1      31.768  27.669  22.401  1.00  0.00     0.029 C 
ATOM      9  C   UNL A   1      32.941  26.221  24.009  1.00  0.00     0.314 C 
ATOM     10  C   UNL A   1      30.471  27.261  22.988  1.00  0.00     0.061 A 
ATOM     11  O   UNL A   1      31.663  25.692  24.468  1.00  0.00    -0.475 OA
ATOM     12  C   UNL A   1      30.510  26.305  24.029  1.00  0.00     0.131 A 
ATOM     13  C   UNL A   1      29.261  27.931  22.686  1.00  0.00     0.156 A 
ATOM     14  C   UNL A   1      29.363  26.013  24.763  1.00  0.00     0.049 A 
ATOM     15  C   UNL A   1      28.129  27.650  23.474  1.00  0.00     0.084 A 
ATOM     16  C   UNL A   1      28.180  26.700  24.499  1.00  0.00     0.028 A 
ATOM     17  Cl  UNL A   1      26.646  28.516  23.260  1.00  0.00    -0.080 Cl
BRANCH   9  18
ATOM     18  C   UNL A   1      33.690  25.159  23.188  1.00  0.00     0.429 C 
ATOM     19  F   UNL A   1      34.778  24.676  23.832  1.00  0.00    -0.167 F 
ATOM     20  F   UNL A   1      32.890  24.099  22.921  1.00  0.00    -0.167 F 
ATOM     21  F   UNL A   1      34.119  25.651  22.001  1.00  0.00    -0.167 F 
ENDBRANCH   9  18
BRANCH  13  22
ATOM     22  O   UNL A   1      29.098  28.964  21.770  1.00  0.00    -0.455 OA
BRANCH  22  23
ATOM     23  C   UNL A   1      29.066  30.261  22.216  1.00  0.00     0.127 A 
ATOM     24  C   UNL A   1      28.577  31.241  21.349  1.00  0.00     0.047 A 
ATOM     25  C   UNL A   1      29.488  30.594  23.504  1.00  0.00     0.047 A 
ATOM     26  C   UNL A   1      28.402  32.544  21.813  1.00  0.00     0.004 A 
ATOM     27  C   UNL A   1      29.320  31.903  23.959  1.00  0.00     0.004 A 
ATOM     28  C   UNL A   1      28.760  32.871  23.121  1.00  0.00     0.000 A 
ENDBRANCH  22  23
ENDBRANCH  13  22
ENDBRANCH   5   7
ENDBRANCH   2   3
ENDBRANCH   1   2
BRANCH   1  29
ATOM     29  C   UNL A   1      31.780  31.446  26.816  1.00  0.00     0.023 C 
BRANCH  29  30
ATOM     30  C   UNL A   1      32.924  32.366  27.251  1.00  0.00     0.116 C 
BRANCH  30  31
ATOM     31  N   UNL A   1      32.510  33.711  27.619  1.00  0.00    -0.352 N 
ATOM     32  C   UNL A   1      33.069  34.588  28.522  1.00  0.00     0.251 C 
ATOM     33  H   UNL A   1      31.710  34.044  27.152  1.00  0.00     0.163 HD
ATOM     34  O   UNL A   1      32.536  35.677  28.721  1.00  0.00    -0.269 OA
BRANCH  32  35
ATOM     35  C   UNL A   1      34.267  34.202  29.305  1.00  0.00     0.039 A 
ATOM     36  C   UNL A   1      34.083  33.486  30.493  1.00  0.00     0.014 A 
ATOM     37  C   UNL A   1      35.560  34.497  28.866  1.00  0.00     0.014 A 
ATOM     38  C   UNL A   1      35.188  32.966  31.171  1.00  0.00     0.010 A 
ATOM     39  C   UNL A   1      36.660  33.922  29.506  1.00  0.00     0.010 A 
ATOM     40  C   UNL A   1      36.482  33.126  30.648  1.00  0.00    -0.014 A 
BRANCH  40  41
ATOM     41  C   UNL A   1      37.631  32.384  31.232  1.00  0.00     0.031 A 
ATOM     42  C   UNL A   1      38.159  32.708  32.599  1.00  0.00     0.074 A 
ATOM     43  C   UNL A   1      38.249  31.447  30.486  1.00  0.00     0.049 A 
ATOM     44  N   UNL A   1      39.147  32.150  33.253  1.00  0.00    -0.248 NA
ATOM     45  C   UNL A   1      37.516  33.819  33.314  1.00  0.00     0.031 C 
ATOM     46  C   UNL A   1      37.889  31.087  29.111  1.00  0.00     0.029 A 
ATOM     47  N   UNL A   1      39.310  30.626  30.776  1.00  0.00    -0.354 N 
ATOM     48  C   UNL A   1      39.254  32.847  34.449  1.00  0.00     0.074 A 
ATOM     49  C   UNL A   1      38.254  33.894  34.414  1.00  0.00     0.031 C 
ATOM     50  C   UNL A   1      38.690  30.094  28.694  1.00  0.00     0.029 A 
ATOM     51  C   UNL A   1      39.631  29.761  29.759  1.00  0.00     0.049 A 
ATOM     52  H   UNL A   1      39.796  30.656  31.632  1.00  0.00     0.167 HD
ATOM     53  C   UNL A   1      40.094  32.624  35.488  1.00  0.00     0.037 A 
ATOM     54  C   UNL A   1      40.566  28.796  29.693  1.00  0.00     0.037 A 
ATOM     55  C   UNL A   1      41.069  31.566  35.543  1.00  0.00     0.049 A 
ATOM     56  C   UNL A   1      41.454  28.540  30.874  1.00  0.00     0.074 A 
ATOM     57  C   UNL A   1      41.900  31.211  36.592  1.00  0.00     0.029 A 
ATOM     58  N   UNL A   1      41.346  30.694  34.503  1.00  0.00    -0.354 N 
ATOM     59  N   UNL A   1      41.479  29.148  32.034  1.00  0.00    -0.248 NA
ATOM     60  C   UNL A   1      42.437  27.455  30.739  1.00  0.00     0.031 C 
ATOM     61  C   UNL A   1      42.700  30.140  36.176  1.00  0.00     0.029 A 
ATOM     62  C   UNL A   1      42.347  29.812  34.878  1.00  0.00     0.049 A 
ATOM     63  H   UNL A   1      40.897  30.699  33.626  1.00  0.00     0.167 HD
ATOM     64  C   UNL A   1      42.465  28.510  32.774  1.00  0.00     0.074 A 
ATOM     65  C   UNL A   1      43.007  27.460  31.937  1.00  0.00     0.031 C 
ATOM     66  C   UNL A   1      42.881  28.773  34.036  1.00  0.00     0.037 A 
BRANCH  53  67
ATOM     67  C   UNL A   1      39.986  33.549  36.663  1.00  0.00     0.057 A 
ATOM     68  C   UNL A   1      40.791  34.690  36.776  1.00  0.00     0.134 A 
ATOM     69  C   UNL A   1      39.053  33.310  37.679  1.00  0.00     0.134 A 
ATOM     70  F   UNL A   1      41.712  34.966  35.840  1.00  0.00    -0.206 F 
ATOM     71  C   UNL A   1      40.687  35.549  37.870  1.00  0.00     0.040 A 
ATOM     72  C   UNL A   1      38.927  34.173  38.769  1.00  0.00     0.040 A 
ATOM     73  F   UNL A   1      38.248  32.238  37.628  1.00  0.00    -0.206 F 
ATOM     74  C   UNL A   1      39.749  35.293  38.869  1.00  0.00     0.006 A 
ENDBRANCH  53  67
BRANCH  54  75
ATOM     75  C   UNL A   1      40.673  27.957  28.476  1.00  0.00     0.057 A 
ATOM     76  C   UNL A   1      39.996  26.735  28.391  1.00  0.00     0.134 A 
ATOM     77  C   UNL A   1      41.441  28.352  27.377  1.00  0.00     0.134 A 
ATOM     78  F   UNL A   1      39.259  26.300  29.424  1.00  0.00    -0.206 F 
ATOM     79  C   UNL A   1      40.087  25.928  27.258  1.00  0.00     0.040 A 
ATOM     80  C   UNL A   1      41.528  27.562  26.229  1.00  0.00     0.040 A 
ATOM     81  F   UNL A   1      42.106  29.516  27.398  1.00  0.00    -0.206 F 
ATOM     82  C   UNL A   1      40.853  26.344  26.171  1.00  0.00     0.006 A 
ENDBRANCH  54  75
BRANCH  66  83
ATOM     83  C   UNL A   1      43.964  27.898  34.587  1.00  0.00     0.057 A 
ATOM     84  C   UNL A   1      45.316  28.242  34.472  1.00  0.00     0.134 A 
ATOM     85  C   UNL A   1      43.651  26.703  35.249  1.00  0.00     0.134 A 
ATOM     86  F   UNL A   1      45.679  29.365  33.835  1.00  0.00    -0.206 F 
ATOM     87  C   UNL A   1      46.322  27.418  34.978  1.00  0.00     0.040 A 
ATOM     88  C   UNL A   1      44.647  25.880  35.774  1.00  0.00     0.040 A 
ATOM     89  F   UNL A   1      42.374  26.319  35.392  1.00  0.00    -0.206 F 
ATOM     90  C   UNL A   1      45.989  26.235  35.635  1.00  0.00     0.006 A 
ENDBRANCH  66  83
ENDBRANCH  40  41
ENDBRANCH  32  35
ENDBRANCH  30  31
ENDBRANCH  29  30
ENDBRANCH   1  29
TORSDOF 14
ENDMDL
