MODEL 1
REMARK VINA RESULT:     -12.1      0.000      0.000
REMARK SMILES COc1c(N)cc(-c2ccccc2)cc1C(=O)NCCCCNC(=O)c1ccc(-c2c3nc(c(-c4c(F)cccc4F)c4ccc([nH]4)c(-c4c(F)cccc4F)c4nc(c(-c5c(F)cccc5F)c5ccc2[nH]5)C=C4)C=C3)cc1
REMARK SMILES IDX 21 1 20 2 19 3 18 4 16 5 17 6 15 8 3 9 4 10 6 11 14 12 7 13
REMARK SMILES IDX 2 14 1 15 5 16 8 19 9 20 13 21 10 22 12 23 11 24 22 25 23 26
REMARK SMILES IDX 24 27 25 29 26 30 27 31 79 32 28 33 78 34 29 35 30 36 31 37
REMARK SMILES IDX 72 38 32 39 77 40 71 41 73 42 33 43 76 44 70 45 69 46 34 48
REMARK SMILES IDX 60 49 43 50 59 51 44 52 47 53 58 54 74 55 45 56 46 57 57 59
REMARK SMILES IDX 75 60 48 61 35 62 36 63 41 64 37 65 38 66 40 67 42 68 39 69
REMARK SMILES IDX 61 70 62 71 67 72 63 73 64 74 66 75 68 76 65 77 49 78 50 79
REMARK SMILES IDX 55 80 51 81 52 82 54 83 56 84 53 85
REMARK H PARENT 18 7 5 17 5 18 23 28 73 47 47 58
REMARK Flexibility Score: inf
ROOT
ATOM      1  C   UNL A   1      37.736  20.355  24.966  1.00  0.00     0.023 C 
ENDROOT
BRANCH   1   2
ATOM      2  C   UNL A   1      37.056  21.616  24.435  1.00  0.00     0.023 C 
BRANCH   2   3
ATOM      3  C   UNL A   1      37.262  22.873  25.284  1.00  0.00     0.116 C 
BRANCH   3   4
ATOM      4  N   UNL A   1      36.306  22.888  26.365  1.00  0.00    -0.352 N 
ATOM      5  C   UNL A   1      34.959  22.673  26.450  1.00  0.00     0.255 C 
ATOM      6  O   UNL A   1      34.483  22.943  27.561  1.00  0.00    -0.269 OA
ATOM      7  H   UNL A   1      36.717  23.102  27.234  1.00  0.00     0.163 HD
BRANCH   5   8
ATOM      8  C   UNL A   1      34.039  22.106  25.403  1.00  0.00     0.084 A 
ATOM      9  C   UNL A   1      33.178  22.743  24.495  1.00  0.00     0.154 A 
ATOM     10  C   UNL A   1      32.502  21.996  23.494  1.00  0.00     0.076 A 
ATOM     11  C   UNL A   1      32.502  20.602  23.558  1.00  0.00     0.038 A 
ATOM     12  C   UNL A   1      34.048  20.687  25.383  1.00  0.00     0.026 A 
ATOM     13  C   UNL A   1      33.266  19.922  24.506  1.00  0.00    -0.015 A 
BRANCH   9  14
ATOM     14  O   UNL A   1      32.971  24.100  24.494  1.00  0.00    -0.494 OA
ATOM     15  C   UNL A   1      34.083  24.801  23.921  1.00  0.00     0.278 C 
ENDBRANCH   9  14
BRANCH  10  16
ATOM     16  N   UNL A   1      31.716  22.621  22.520  1.00  0.00    -0.396 N 
ATOM     17  H   UNL A   1      31.975  23.504  22.172  1.00  0.00     0.156 HD
ATOM     18  H   UNL A   1      30.904  22.177  22.184  1.00  0.00     0.156 HD
ENDBRANCH  10  16
BRANCH  13  19
ATOM     19  C   UNL A   1      33.248  18.453  24.579  1.00  0.00    -0.018 A 
ATOM     20  C   UNL A   1      32.563  17.788  25.610  1.00  0.00     0.009 A 
ATOM     21  C   UNL A   1      33.935  17.673  23.633  1.00  0.00     0.009 A 
ATOM     22  C   UNL A   1      32.571  16.394  25.697  1.00  0.00     0.001 A 
ATOM     23  C   UNL A   1      33.945  16.279  23.719  1.00  0.00     0.001 A 
ATOM     24  C   UNL A   1      33.264  15.640  24.754  1.00  0.00     0.000 A 
ENDBRANCH  13  19
ENDBRANCH   5   8
ENDBRANCH   3   4
ENDBRANCH   2   3
ENDBRANCH   1   2
BRANCH   1  25
ATOM     25  C   UNL A   1      38.980  20.619  25.803  1.00  0.00     0.116 C 
BRANCH  25  26
ATOM     26  N   UNL A   1      39.965  19.546  25.752  1.00  0.00    -0.352 N 
ATOM     27  C   UNL A   1      41.293  19.595  26.105  1.00  0.00     0.251 C 
ATOM     28  H   UNL A   1      39.638  18.676  25.426  1.00  0.00     0.163 HD
ATOM     29  O   UNL A   1      42.024  18.628  25.947  1.00  0.00    -0.269 OA
BRANCH  27  30
ATOM     30  C   UNL A   1      41.831  20.864  26.629  1.00  0.00     0.039 A 
ATOM     31  C   UNL A   1      42.295  21.818  25.722  1.00  0.00     0.014 A 
ATOM     32  C   UNL A   1      41.790  21.136  27.998  1.00  0.00     0.014 A 
ATOM     33  C   UNL A   1      42.646  23.086  26.186  1.00  0.00     0.010 A 
ATOM     34  C   UNL A   1      42.065  22.419  28.447  1.00  0.00     0.010 A 
ATOM     35  C   UNL A   1      42.491  23.407  27.545  1.00  0.00    -0.014 A 
BRANCH  35  36
ATOM     36  C   UNL A   1      42.765  24.772  28.048  1.00  0.00     0.031 A 
ATOM     37  C   UNL A   1      44.163  25.162  28.426  1.00  0.00     0.074 A 
ATOM     38  C   UNL A   1      41.743  25.628  28.238  1.00  0.00     0.049 A 
ATOM     39  N   UNL A   1      44.597  26.275  28.955  1.00  0.00    -0.248 NA
ATOM     40  C   UNL A   1      45.211  24.150  28.208  1.00  0.00     0.031 C 
ATOM     41  C   UNL A   1      40.333  25.344  27.961  1.00  0.00     0.029 A 
ATOM     42  N   UNL A   1      41.734  26.913  28.719  1.00  0.00    -0.354 N 
ATOM     43  C   UNL A   1      45.959  26.091  29.155  1.00  0.00     0.074 A 
ATOM     44  C   UNL A   1      46.269  24.741  28.740  1.00  0.00     0.031 C 
ATOM     45  C   UNL A   1      39.602  26.435  28.244  1.00  0.00     0.029 A 
ATOM     46  C   UNL A   1      40.484  27.479  28.752  1.00  0.00     0.049 A 
ATOM     47  H   UNL A   1      42.548  27.384  29.011  1.00  0.00     0.167 HD
ATOM     48  C   UNL A   1      46.872  26.976  29.618  1.00  0.00     0.037 A 
ATOM     49  C   UNL A   1      40.099  28.707  29.146  1.00  0.00     0.037 A 
ATOM     50  C   UNL A   1      46.565  28.329  29.995  1.00  0.00     0.049 A 
ATOM     51  C   UNL A   1      41.133  29.675  29.645  1.00  0.00     0.074 A 
ATOM     52  C   UNL A   1      47.427  29.327  30.412  1.00  0.00     0.029 A 
ATOM     53  N   UNL A   1      45.290  28.874  29.996  1.00  0.00    -0.354 N 
ATOM     54  N   UNL A   1      42.427  29.511  29.767  1.00  0.00    -0.248 NA
ATOM     55  C   UNL A   1      40.651  31.001  30.059  1.00  0.00     0.031 C 
ATOM     56  C   UNL A   1      46.669  30.469  30.692  1.00  0.00     0.029 A 
ATOM     57  C   UNL A   1      45.339  30.191  30.419  1.00  0.00     0.049 A 
ATOM     58  H   UNL A   1      44.470  28.395  29.735  1.00  0.00     0.167 HD
ATOM     59  C   UNL A   1      42.920  30.719  30.242  1.00  0.00     0.074 A 
ATOM     60  C   UNL A   1      41.785  31.609  30.380  1.00  0.00     0.031 C 
ATOM     61  C   UNL A   1      44.197  31.061  30.538  1.00  0.00     0.037 A 
BRANCH  48  62
ATOM     62  C   UNL A   1      48.288  26.498  29.731  1.00  0.00     0.057 A 
ATOM     63  C   UNL A   1      48.756  25.845  30.880  1.00  0.00     0.134 A 
ATOM     64  C   UNL A   1      49.197  26.696  28.685  1.00  0.00     0.134 A 
ATOM     65  F   UNL A   1      47.940  25.641  31.925  1.00  0.00    -0.206 F 
ATOM     66  C   UNL A   1      50.085  25.435  30.997  1.00  0.00     0.040 A 
ATOM     67  C   UNL A   1      50.522  26.266  28.779  1.00  0.00     0.040 A 
ATOM     68  F   UNL A   1      48.814  27.311  27.557  1.00  0.00    -0.206 F 
ATOM     69  C   UNL A   1      50.972  25.642  29.941  1.00  0.00     0.006 A 
ENDBRANCH  48  62
BRANCH  49  70
ATOM     70  C   UNL A   1      38.675  29.107  29.039  1.00  0.00     0.057 A 
ATOM     71  C   UNL A   1      38.150  29.556  27.821  1.00  0.00     0.134 A 
ATOM     72  C   UNL A   1      37.809  29.055  30.136  1.00  0.00     0.134 A 
ATOM     73  F   UNL A   1      38.938  29.642  26.739  1.00  0.00    -0.206 F 
ATOM     74  C   UNL A   1      36.818  29.952  27.701  1.00  0.00     0.040 A 
ATOM     75  C   UNL A   1      36.469  29.431  30.026  1.00  0.00     0.040 A 
ATOM     76  F   UNL A   1      38.251  28.628  31.328  1.00  0.00    -0.206 F 
ATOM     77  C   UNL A   1      35.972  29.886  28.806  1.00  0.00     0.006 A 
ENDBRANCH  49  70
BRANCH  61  78
ATOM     78  C   UNL A   1      44.436  32.466  31.002  1.00  0.00     0.057 A 
ATOM     79  C   UNL A   1      44.438  32.802  32.361  1.00  0.00     0.134 A 
ATOM     80  C   UNL A   1      44.703  33.485  30.078  1.00  0.00     0.134 A 
ATOM     81  F   UNL A   1      44.174  31.873  33.292  1.00  0.00    -0.206 F 
ATOM     82  C   UNL A   1      44.680  34.110  32.785  1.00  0.00     0.040 A 
ATOM     83  C   UNL A   1      44.967  34.791  30.491  1.00  0.00     0.040 A 
ATOM     84  F   UNL A   1      44.721  33.224  28.762  1.00  0.00    -0.206 F 
ATOM     85  C   UNL A   1      44.952  35.106  31.849  1.00  0.00     0.006 A 
ENDBRANCH  61  78
ENDBRANCH  35  36
ENDBRANCH  27  30
ENDBRANCH  25  26
ENDBRANCH   1  25
TORSDOF 14
ENDMDL
MODEL 2
REMARK VINA RESULT:     -12.0      1.719      3.864
REMARK SMILES COc1c(N)cc(-c2ccccc2)cc1C(=O)NCCCCNC(=O)c1ccc(-c2c3nc(c(-c4c(F)cccc4F)c4ccc([nH]4)c(-c4c(F)cccc4F)c4nc(c(-c5c(F)cccc5F)c5ccc2[nH]5)C=C4)C=C3)cc1
REMARK SMILES IDX 21 1 20 2 19 3 18 4 16 5 17 6 15 8 3 9 4 10 6 11 14 12 7 13
REMARK SMILES IDX 2 14 1 15 5 16 8 19 9 20 13 21 10 22 12 23 11 24 22 25 23 26
REMARK SMILES IDX 24 27 25 29 26 30 27 31 79 32 28 33 78 34 29 35 30 36 31 37
REMARK SMILES IDX 72 38 32 39 77 40 71 41 73 42 33 43 76 44 70 45 69 46 34 48
REMARK SMILES IDX 60 49 43 50 59 51 44 52 47 53 58 54 74 55 45 56 46 57 57 59
REMARK SMILES IDX 75 60 48 61 35 62 36 63 41 64 37 65 38 66 40 67 42 68 39 69
REMARK SMILES IDX 61 70 62 71 67 72 63 73 64 74 66 75 68 76 65 77 49 78 50 79
REMARK SMILES IDX 55 80 51 81 52 82 54 83 56 84 53 85
REMARK H PARENT 18 7 5 17 5 18 23 28 73 47 47 58
REMARK Flexibility Score: inf
ROOT
ATOM      1  C   UNL A   1      37.982  20.030  24.995  1.00  0.00     0.023 C 
ENDROOT
BRANCH   1   2
ATOM      2  C   UNL A   1      37.266  21.312  24.574  1.00  0.00     0.023 C 
BRANCH   2   3
ATOM      3  C   UNL A   1      36.948  22.285  25.712  1.00  0.00     0.116 C 
BRANCH   3   4
ATOM      4  N   UNL A   1      35.858  21.766  26.501  1.00  0.00    -0.352 N 
ATOM      5  C   UNL A   1      34.532  22.076  26.615  1.00  0.00     0.255 C 
ATOM      6  O   UNL A   1      33.962  21.483  27.542  1.00  0.00    -0.269 OA
ATOM      7  H   UNL A   1      36.131  21.024  27.088  1.00  0.00     0.163 HD
BRANCH   5   8
ATOM      8  C   UNL A   1      33.705  22.972  25.733  1.00  0.00     0.084 A 
ATOM      9  C   UNL A   1      33.069  22.720  24.507  1.00  0.00     0.154 A 
ATOM     10  C   UNL A   1      32.217  23.694  23.922  1.00  0.00     0.076 A 
ATOM     11  C   UNL A   1      32.197  24.991  24.437  1.00  0.00     0.038 A 
ATOM     12  C   UNL A   1      33.601  24.291  26.246  1.00  0.00     0.026 A 
ATOM     13  C   UNL A   1      32.893  25.316  25.601  1.00  0.00    -0.015 A 
BRANCH   9  14
ATOM     14  O   UNL A   1      33.196  21.531  23.834  1.00  0.00    -0.494 OA
ATOM     15  C   UNL A   1      32.418  20.494  24.446  1.00  0.00     0.278 C 
ENDBRANCH   9  14
BRANCH  10  16
ATOM     16  N   UNL A   1      31.498  23.429  22.751  1.00  0.00    -0.396 N 
ATOM     17  H   UNL A   1      31.134  22.528  22.592  1.00  0.00     0.156 HD
ATOM     18  H   UNL A   1      31.357  24.142  22.088  1.00  0.00     0.156 HD
ENDBRANCH  10  16
BRANCH  13  19
ATOM     19  C   UNL A   1      32.882  26.689  26.130  1.00  0.00    -0.018 A 
ATOM     20  C   UNL A   1      34.027  27.499  26.060  1.00  0.00     0.009 A 
ATOM     21  C   UNL A   1      31.733  27.221  26.738  1.00  0.00     0.009 A 
ATOM     22  C   UNL A   1      34.027  28.792  26.590  1.00  0.00     0.001 A 
ATOM     23  C   UNL A   1      31.731  28.513  27.269  1.00  0.00     0.001 A 
ATOM     24  C   UNL A   1      32.880  29.298  27.196  1.00  0.00     0.000 A 
ENDBRANCH  13  19
ENDBRANCH   5   8
ENDBRANCH   3   4
ENDBRANCH   2   3
ENDBRANCH   1   2
BRANCH   1  25
ATOM     25  C   UNL A   1      39.203  20.255  25.876  1.00  0.00     0.116 C 
BRANCH  25  26
ATOM     26  N   UNL A   1      40.159  19.155  25.853  1.00  0.00    -0.352 N 
ATOM     27  C   UNL A   1      41.514  19.202  26.080  1.00  0.00     0.251 C 
ATOM     28  H   UNL A   1      39.786  18.266  25.650  1.00  0.00     0.163 HD
ATOM     29  O   UNL A   1      42.209  18.203  25.961  1.00  0.00    -0.269 OA
BRANCH  27  30
ATOM     30  C   UNL A   1      42.121  20.503  26.416  1.00  0.00     0.039 A 
ATOM     31  C   UNL A   1      42.482  21.362  25.376  1.00  0.00     0.014 A 
ATOM     32  C   UNL A   1      42.246  20.900  27.749  1.00  0.00     0.014 A 
ATOM     33  C   UNL A   1      42.896  22.660  25.675  1.00  0.00     0.010 A 
ATOM     34  C   UNL A   1      42.583  22.213  28.041  1.00  0.00     0.010 A 
ATOM     35  C   UNL A   1      42.907  23.105  27.008  1.00  0.00    -0.014 A 
BRANCH  35  36
ATOM     36  C   UNL A   1      43.251  24.505  27.346  1.00  0.00     0.031 A 
ATOM     37  C   UNL A   1      44.683  24.949  27.320  1.00  0.00     0.074 A 
ATOM     38  C   UNL A   1      42.282  25.348  27.751  1.00  0.00     0.049 A 
ATOM     39  N   UNL A   1      45.197  26.104  27.656  1.00  0.00    -0.248 NA
ATOM     40  C   UNL A   1      45.676  23.951  26.890  1.00  0.00     0.031 C 
ATOM     41  C   UNL A   1      40.861  25.016  27.871  1.00  0.00     0.029 A 
ATOM     42  N   UNL A   1      42.350  26.660  28.147  1.00  0.00    -0.354 N 
ATOM     43  C   UNL A   1      46.570  25.963  27.500  1.00  0.00     0.074 A 
ATOM     44  C   UNL A   1      46.813  24.597  27.092  1.00  0.00     0.031 C 
ATOM     45  C   UNL A   1      40.188  26.105  28.277  1.00  0.00     0.029 A 
ATOM     46  C   UNL A   1      41.132  27.199  28.477  1.00  0.00     0.049 A 
ATOM     47  H   UNL A   1      43.194  27.166  28.188  1.00  0.00     0.167 HD
ATOM     48  C   UNL A   1      47.538  26.896  27.658  1.00  0.00     0.037 A 
ATOM     49  C   UNL A   1      40.816  28.440  28.892  1.00  0.00     0.037 A 
ATOM     50  C   UNL A   1      47.289  28.263  28.028  1.00  0.00     0.049 A 
ATOM     51  C   UNL A   1      41.907  29.461  29.047  1.00  0.00     0.074 A 
ATOM     52  C   UNL A   1      48.191  29.304  28.148  1.00  0.00     0.029 A 
ATOM     53  N   UNL A   1      46.038  28.777  28.335  1.00  0.00    -0.354 N 
ATOM     54  N   UNL A   1      43.193  29.334  28.833  1.00  0.00    -0.248 NA
ATOM     55  C   UNL A   1      41.500  30.798  29.501  1.00  0.00     0.031 C 
ATOM     56  C   UNL A   1      47.490  30.444  28.555  1.00  0.00     0.029 A 
ATOM     57  C   UNL A   1      46.146  30.119  28.657  1.00  0.00     0.049 A 
ATOM     58  H   UNL A   1      45.197  28.264  28.325  1.00  0.00     0.167 HD
ATOM     59  C   UNL A   1      43.747  30.580  29.096  1.00  0.00     0.074 A 
ATOM     60  C   UNL A   1      42.654  31.451  29.479  1.00  0.00     0.031 C 
ATOM     61  C   UNL A   1      45.043  30.969  29.025  1.00  0.00     0.037 A 
BRANCH  48  62
ATOM     62  C   UNL A   1      48.952  26.458  27.420  1.00  0.00     0.057 A 
ATOM     63  C   UNL A   1      49.756  25.968  28.458  1.00  0.00     0.134 A 
ATOM     64  C   UNL A   1      49.519  26.530  26.142  1.00  0.00     0.134 A 
ATOM     65  F   UNL A   1      49.278  25.892  29.709  1.00  0.00    -0.206 F 
ATOM     66  C   UNL A   1      51.084  25.598  28.240  1.00  0.00     0.040 A 
ATOM     67  C   UNL A   1      50.837  26.136  25.906  1.00  0.00     0.040 A 
ATOM     68  F   UNL A   1      48.803  26.986  25.103  1.00  0.00    -0.206 F 
ATOM     69  C   UNL A   1      51.627  25.677  26.959  1.00  0.00     0.006 A 
ENDBRANCH  48  62
BRANCH  49  70
ATOM     70  C   UNL A   1      39.399  28.800  29.141  1.00  0.00     0.057 A 
ATOM     71  C   UNL A   1      38.830  28.622  30.408  1.00  0.00     0.134 A 
ATOM     72  C   UNL A   1      38.584  29.325  28.133  1.00  0.00     0.134 A 
ATOM     73  F   UNL A   1      39.559  28.107  31.408  1.00  0.00    -0.206 F 
ATOM     74  C   UNL A   1      37.495  28.940  30.660  1.00  0.00     0.040 A 
ATOM     75  C   UNL A   1      37.251  29.665  28.376  1.00  0.00     0.040 A 
ATOM     76  F   UNL A   1      39.073  29.526  26.901  1.00  0.00    -0.206 F 
ATOM     77  C   UNL A   1      36.702  29.467  29.642  1.00  0.00     0.006 A 
ENDBRANCH  49  70
BRANCH  61  78
ATOM     78  C   UNL A   1      45.340  32.405  29.334  1.00  0.00     0.057 A 
ATOM     79  C   UNL A   1      45.281  33.398  28.349  1.00  0.00     0.134 A 
ATOM     80  C   UNL A   1      45.653  32.802  30.640  1.00  0.00     0.134 A 
ATOM     81  F   UNL A   1      45.001  33.077  27.077  1.00  0.00    -0.206 F 
ATOM     82  C   UNL A   1      45.541  34.736  28.649  1.00  0.00     0.040 A 
ATOM     83  C   UNL A   1      45.894  34.138  30.957  1.00  0.00     0.040 A 
ATOM     84  F   UNL A   1      45.719  31.897  31.630  1.00  0.00    -0.206 F 
ATOM     85  C   UNL A   1      45.842  35.109  29.958  1.00  0.00     0.006 A 
ENDBRANCH  61  78
ENDBRANCH  35  36
ENDBRANCH  27  30
ENDBRANCH  25  26
ENDBRANCH   1  25
TORSDOF 14
ENDMDL
MODEL 3
REMARK VINA RESULT:     -12.0      4.601      9.318
REMARK SMILES COc1c(N)cc(-c2ccccc2)cc1C(=O)NCCCCNC(=O)c1ccc(-c2c3nc(c(-c4c(F)cccc4F)c4ccc([nH]4)c(-c4c(F)cccc4F)c4nc(c(-c5c(F)cccc5F)c5ccc2[nH]5)C=C4)C=C3)cc1
REMARK SMILES IDX 21 1 20 2 19 3 18 4 16 5 17 6 15 8 3 9 4 10 6 11 14 12 7 13
REMARK SMILES IDX 2 14 1 15 5 16 8 19 9 20 13 21 10 22 12 23 11 24 22 25 23 26
REMARK SMILES IDX 24 27 25 29 26 30 27 31 79 32 28 33 78 34 29 35 30 36 31 37
REMARK SMILES IDX 72 38 32 39 77 40 71 41 73 42 33 43 76 44 70 45 69 46 34 48
REMARK SMILES IDX 60 49 43 50 59 51 44 52 47 53 58 54 74 55 45 56 46 57 57 59
REMARK SMILES IDX 75 60 48 61 35 62 36 63 41 64 37 65 38 66 40 67 42 68 39 69
REMARK SMILES IDX 61 70 62 71 67 72 63 73 64 74 66 75 68 76 65 77 49 78 50 79
REMARK SMILES IDX 55 80 51 81 52 82 54 83 56 84 53 85
REMARK H PARENT 18 7 5 17 5 18 23 28 73 47 47 58
REMARK Flexibility Score: inf
ROOT
ATOM      1  C   UNL A   1      31.604  31.818  26.597  1.00  0.00     0.023 C 
ENDROOT
BRANCH   1   2
ATOM      2  C   UNL A   1      31.804  30.303  26.598  1.00  0.00     0.023 C 
BRANCH   2   3
ATOM      3  C   UNL A   1      33.207  29.830  26.210  1.00  0.00     0.116 C 
BRANCH   3   4
ATOM      4  N   UNL A   1      33.294  29.702  24.776  1.00  0.00    -0.352 N 
ATOM      5  C   UNL A   1      33.254  28.646  23.909  1.00  0.00     0.255 C 
ATOM      6  O   UNL A   1      33.528  28.952  22.741  1.00  0.00    -0.269 OA
ATOM      7  H   UNL A   1      33.407  30.568  24.321  1.00  0.00     0.163 HD
BRANCH   5   8
ATOM      8  C   UNL A   1      32.866  27.220  24.195  1.00  0.00     0.084 A 
ATOM      9  C   UNL A   1      31.614  26.648  24.474  1.00  0.00     0.154 A 
ATOM     10  C   UNL A   1      31.470  25.239  24.574  1.00  0.00     0.076 A 
ATOM     11  C   UNL A   1      32.608  24.432  24.633  1.00  0.00     0.038 A 
ATOM     12  C   UNL A   1      33.982  26.345  24.204  1.00  0.00     0.026 A 
ATOM     13  C   UNL A   1      33.883  24.969  24.458  1.00  0.00    -0.015 A 
BRANCH   9  14
ATOM     14  O   UNL A   1      30.473  27.395  24.626  1.00  0.00    -0.494 OA
ATOM     15  C   UNL A   1      29.925  27.782  23.359  1.00  0.00     0.278 C 
ENDBRANCH   9  14
BRANCH  10  16
ATOM     16  N   UNL A   1      30.218  24.642  24.756  1.00  0.00    -0.396 N 
ATOM     17  H   UNL A   1      30.147  23.665  24.847  1.00  0.00     0.156 HD
ATOM     18  H   UNL A   1      29.407  25.201  24.794  1.00  0.00     0.156 HD
ENDBRANCH  10  16
BRANCH  13  19
ATOM     19  C   UNL A   1      35.080  24.117  24.539  1.00  0.00    -0.018 A 
ATOM     20  C   UNL A   1      35.849  24.060  25.713  1.00  0.00     0.009 A 
ATOM     21  C   UNL A   1      35.498  23.352  23.437  1.00  0.00     0.009 A 
ATOM     22  C   UNL A   1      37.003  23.275  25.779  1.00  0.00     0.001 A 
ATOM     23  C   UNL A   1      36.652  22.567  23.502  1.00  0.00     0.001 A 
ATOM     24  C   UNL A   1      37.405  22.531  24.674  1.00  0.00     0.000 A 
ENDBRANCH  13  19
ENDBRANCH   5   8
ENDBRANCH   3   4
ENDBRANCH   2   3
ENDBRANCH   1   2
BRANCH   1  25
ATOM     25  C   UNL A   1      32.721  32.598  27.275  1.00  0.00     0.116 C 
BRANCH  25  26
ATOM     26  N   UNL A   1      32.360  33.967  27.621  1.00  0.00    -0.352 N 
ATOM     27  C   UNL A   1      32.983  34.811  28.509  1.00  0.00     0.251 C 
ATOM     28  H   UNL A   1      31.572  34.334  27.158  1.00  0.00     0.163 HD
ATOM     29  O   UNL A   1      32.528  35.919  28.751  1.00  0.00    -0.269 OA
BRANCH  27  30
ATOM     30  C   UNL A   1      34.186  34.324  29.210  1.00  0.00     0.039 A 
ATOM     31  C   UNL A   1      34.025  33.616  30.403  1.00  0.00     0.014 A 
ATOM     32  C   UNL A   1      35.450  34.492  28.641  1.00  0.00     0.014 A 
ATOM     33  C   UNL A   1      35.133  33.003  30.986  1.00  0.00     0.010 A 
ATOM     34  C   UNL A   1      36.535  33.818  29.180  1.00  0.00     0.010 A 
ATOM     35  C   UNL A   1      36.386  33.064  30.354  1.00  0.00    -0.014 A 
BRANCH  35  36
ATOM     36  C   UNL A   1      37.558  32.343  30.901  1.00  0.00     0.031 A 
ATOM     37  C   UNL A   1      38.229  32.845  32.146  1.00  0.00     0.074 A 
ATOM     38  C   UNL A   1      38.062  31.289  30.233  1.00  0.00     0.049 A 
ATOM     39  N   UNL A   1      39.307  32.404  32.740  1.00  0.00    -0.248 NA
ATOM     40  C   UNL A   1      37.623  34.020  32.794  1.00  0.00     0.031 C 
ATOM     41  C   UNL A   1      37.532  30.743  28.982  1.00  0.00     0.029 A 
ATOM     42  N   UNL A   1      39.143  30.492  30.510  1.00  0.00    -0.354 N 
ATOM     43  C   UNL A   1      39.521  33.259  33.813  1.00  0.00     0.074 A 
ATOM     44  C   UNL A   1      38.493  34.275  33.758  1.00  0.00     0.031 C 
ATOM     45  C   UNL A   1      38.267  29.680  28.619  1.00  0.00     0.029 A 
ATOM     46  C   UNL A   1      39.339  29.490  29.591  1.00  0.00     0.049 A 
ATOM     47  H   UNL A   1      39.723  30.624  31.295  1.00  0.00     0.167 HD
ATOM     48  C   UNL A   1      40.474  33.189  34.772  1.00  0.00     0.037 A 
ATOM     49  C   UNL A   1      40.277  28.527  29.544  1.00  0.00     0.037 A 
ATOM     50  C   UNL A   1      41.472  32.156  34.843  1.00  0.00     0.049 A 
ATOM     51  C   UNL A   1      41.316  28.462  30.627  1.00  0.00     0.074 A 
ATOM     52  C   UNL A   1      42.439  31.955  35.811  1.00  0.00     0.029 A 
ATOM     53  N   UNL A   1      41.626  31.146  33.905  1.00  0.00    -0.354 N 
ATOM     54  N   UNL A   1      41.468  29.237  31.673  1.00  0.00    -0.248 NA
ATOM     55  C   UNL A   1      42.313  27.387  30.523  1.00  0.00     0.031 C 
ATOM     56  C   UNL A   1      43.197  30.837  35.444  1.00  0.00     0.029 A 
ATOM     57  C   UNL A   1      42.681  30.326  34.264  1.00  0.00     0.049 A 
ATOM     58  H   UNL A   1      41.067  31.031  33.102  1.00  0.00     0.167 HD
ATOM     59  C   UNL A   1      42.556  28.728  32.368  1.00  0.00     0.074 A 
ATOM     60  C   UNL A   1      43.022  27.573  31.628  1.00  0.00     0.031 C 
ATOM     61  C   UNL A   1      43.120  29.175  33.517  1.00  0.00     0.037 A 
BRANCH  48  62
ATOM     62  C   UNL A   1      40.465  34.260  35.820  1.00  0.00     0.057 A 
ATOM     63  C   UNL A   1      39.729  34.125  37.005  1.00  0.00     0.134 A 
ATOM     64  C   UNL A   1      41.196  35.441  35.644  1.00  0.00     0.134 A 
ATOM     65  F   UNL A   1      38.993  33.025  37.227  1.00  0.00    -0.206 F 
ATOM     66  C   UNL A   1      39.692  35.141  37.961  1.00  0.00     0.040 A 
ATOM     67  C   UNL A   1      41.189  36.453  36.606  1.00  0.00     0.040 A 
ATOM     68  F   UNL A   1      41.924  35.633  34.534  1.00  0.00    -0.206 F 
ATOM     69  C   UNL A   1      40.428  36.309  37.764  1.00  0.00     0.006 A 
ENDBRANCH  48  62
BRANCH  49  70
ATOM     70  C   UNL A   1      40.248  27.515  28.461  1.00  0.00     0.057 A 
ATOM     71  C   UNL A   1      39.548  26.314  28.625  1.00  0.00     0.134 A 
ATOM     72  C   UNL A   1      40.912  27.717  27.246  1.00  0.00     0.134 A 
ATOM     73  F   UNL A   1      38.907  26.059  29.775  1.00  0.00    -0.206 F 
ATOM     74  C   UNL A   1      39.520  25.342  27.625  1.00  0.00     0.040 A 
ATOM     75  C   UNL A   1      40.876  26.760  26.229  1.00  0.00     0.040 A 
ATOM     76  F   UNL A   1      41.593  28.850  27.025  1.00  0.00    -0.206 F 
ATOM     77  C   UNL A   1      40.183  25.566  26.420  1.00  0.00     0.006 A 
ENDBRANCH  49  70
BRANCH  61  78
ATOM     78  C   UNL A   1      44.276  28.390  34.058  1.00  0.00     0.057 A 
ATOM     79  C   UNL A   1      45.601  28.735  33.767  1.00  0.00     0.134 A 
ATOM     80  C   UNL A   1      44.059  27.301  34.912  1.00  0.00     0.134 A 
ATOM     81  F   UNL A   1      45.872  29.759  32.944  1.00  0.00    -0.206 F 
ATOM     82  C   UNL A   1      46.673  28.010  34.291  1.00  0.00     0.040 A 
ATOM     83  C   UNL A   1      45.121  26.582  35.459  1.00  0.00     0.040 A 
ATOM     84  F   UNL A   1      42.811  26.926  35.234  1.00  0.00    -0.206 F 
ATOM     85  C   UNL A   1      46.433  26.934  35.145  1.00  0.00     0.006 A 
ENDBRANCH  61  78
ENDBRANCH  35  36
ENDBRANCH  27  30
ENDBRANCH  25  26
ENDBRANCH   1  25
TORSDOF 14
ENDMDL
