MODEL 1
REMARK VINA RESULT:     -10.4      0.000      0.000
REMARK SMILES O=C1NC(=S)S/C1=C\c1ccc(OCc2cn(-c3ccc(C(=O)NCCCCNC(=O)c4ccc(-c5c6nc(c(-c7c(F)cccc7F)c7ccc([nH]7)c(-c7c(F)cccc7F)c7nc(c(-c8c(F)cccc8F)c8ccc5[nH]8)C=C7)C=C6)cc4)cc3)nn2)cc1
REMARK SMILES IDX 25 1 24 2 22 3 23 4 21 6 18 7 19 8 87 9 20 10 86 11 17 12
REMARK SMILES IDX 15 13 16 14 89 15 88 16 14 17 13 18 12 19 9 20 10 21 91 22
REMARK SMILES IDX 11 23 90 24 8 25 1 26 2 27 3 28 7 29 4 30 6 32 5 33 26 34
REMARK SMILES IDX 27 35 28 36 29 37 30 38 31 40 32 41 33 42 85 43 34 44 84 45
REMARK SMILES IDX 35 46 36 47 37 48 78 49 38 50 83 51 77 52 79 53 39 54 82 55
REMARK SMILES IDX 76 56 75 57 40 59 66 60 49 61 65 62 50 63 53 64 64 65 80 66
REMARK SMILES IDX 51 67 52 68 63 70 81 71 54 72 41 73 42 74 47 75 43 76 44 77
REMARK SMILES IDX 46 78 48 79 45 80 67 81 68 82 73 83 69 84 70 85 72 86 74 87
REMARK SMILES IDX 71 88 55 89 56 90 61 91 57 92 58 93 60 94 62 95 59 96
REMARK H PARENT 24 5 3 31 29 39 79 58 53 69
REMARK Flexibility Score: inf
ROOT
ATOM      1  C   UNL A   1      38.634  34.011  32.512  1.00  0.00     0.116 C 
ENDROOT
BRANCH   1   2
ATOM      2  N   UNL A   1      39.886  33.891  31.792  1.00  0.00    -0.352 N 
ATOM      3  C   UNL A   1      40.892  32.958  31.807  1.00  0.00     0.251 C 
ATOM      4  O   UNL A   1      41.843  33.156  31.050  1.00  0.00    -0.269 OA
ATOM      5  H   UNL A   1      40.047  34.630  31.162  1.00  0.00     0.163 HD
BRANCH   3   6
ATOM      6  C   UNL A   1      40.865  31.710  32.627  1.00  0.00     0.039 A 
ATOM      7  C   UNL A   1      41.048  29.449  34.286  1.00  0.00     0.066 A 
ATOM      8  C   UNL A   1      41.150  30.728  34.842  1.00  0.00     0.029 A 
ATOM      9  C   UNL A   1      40.783  29.296  32.926  1.00  0.00     0.029 A 
ATOM     10  C   UNL A   1      41.093  31.847  34.007  1.00  0.00     0.016 A 
ATOM     11  C   UNL A   1      40.629  30.427  32.123  1.00  0.00     0.016 A 
BRANCH   7  12
ATOM     12  N   UNL A   1      41.182  28.312  35.103  1.00  0.00    -0.220 N 
ATOM     13  C   UNL A   1      41.337  26.287  35.899  1.00  0.00     0.120 A 
ATOM     14  C   UNL A   1      41.326  26.997  34.718  1.00  0.00     0.144 A 
ATOM     15  N   UNL A   1      41.257  27.179  36.938  1.00  0.00    -0.131 NA
ATOM     16  N   UNL A   1      41.206  28.403  36.447  1.00  0.00    -0.062 NA
BRANCH  13  17
ATOM     17  C   UNL A   1      41.531  24.827  36.160  1.00  0.00     0.289 C 
BRANCH  17  18
ATOM     18  O   UNL A   1      42.072  24.063  35.068  1.00  0.00    -0.487 OA
BRANCH  18  19
ATOM     19  C   UNL A   1      43.387  23.685  35.122  1.00  0.00     0.119 A 
ATOM     20  C   UNL A   1      45.932  22.497  35.150  1.00  0.00    -0.024 A 
ATOM     21  C   UNL A   1      45.125  22.397  34.014  1.00  0.00     0.012 A 
ATOM     22  C   UNL A   1      45.503  23.282  36.221  1.00  0.00     0.012 A 
ATOM     23  C   UNL A   1      43.854  22.985  34.007  1.00  0.00     0.047 A 
ATOM     24  C   UNL A   1      44.253  23.901  36.190  1.00  0.00     0.047 A 
BRANCH  20  25
ATOM     25  C   UNL A   1      47.209  21.785  35.238  1.00  0.00     0.029 C 
ATOM     26  O   UNL A   1      49.802  20.496  35.506  1.00  0.00    -0.268 OA
ATOM     27  C   UNL A   1      48.907  20.341  36.310  1.00  0.00     0.263 C 
ATOM     28  N   UNL A   1      48.996  19.578  37.444  1.00  0.00    -0.307 N 
ATOM     29  C   UNL A   1      47.554  20.961  36.236  1.00  0.00     0.080 C 
ATOM     30  C   UNL A   1      47.907  19.501  38.257  1.00  0.00     0.145 C 
ATOM     31  H   UNL A   1      49.826  19.096  37.665  1.00  0.00     0.171 HD
ATOM     32  S   UNL A   1      46.608  20.465  37.596  1.00  0.00    -0.055 SA
ATOM     33  S   UNL A   1      47.868  18.611  39.653  1.00  0.00    -0.052 S 
ENDBRANCH  20  25
ENDBRANCH  18  19
ENDBRANCH  17  18
ENDBRANCH  13  17
ENDBRANCH   7  12
ENDBRANCH   3   6
ENDBRANCH   1   2
BRANCH   1  34
ATOM     34  C   UNL A   1      37.444  33.614  31.628  1.00  0.00     0.023 C 
BRANCH  34  35
ATOM     35  C   UNL A   1      36.884  32.209  31.895  1.00  0.00     0.023 C 
BRANCH  35  36
ATOM     36  C   UNL A   1      37.427  31.121  30.975  1.00  0.00     0.116 C 
BRANCH  36  37
ATOM     37  N   UNL A   1      36.373  30.365  30.295  1.00  0.00    -0.352 N 
ATOM     38  C   UNL A   1      36.478  29.614  29.137  1.00  0.00     0.251 C 
ATOM     39  H   UNL A   1      35.481  30.395  30.712  1.00  0.00     0.163 HD
ATOM     40  O   UNL A   1      35.499  29.370  28.442  1.00  0.00    -0.269 OA
BRANCH  38  41
ATOM     41  C   UNL A   1      37.799  29.082  28.774  1.00  0.00     0.039 A 
ATOM     42  C   UNL A   1      38.504  29.524  27.652  1.00  0.00     0.014 A 
ATOM     43  C   UNL A   1      38.349  28.141  29.639  1.00  0.00     0.014 A 
ATOM     44  C   UNL A   1      39.806  29.065  27.461  1.00  0.00     0.010 A 
ATOM     45  C   UNL A   1      39.680  27.842  29.555  1.00  0.00     0.010 A 
ATOM     46  C   UNL A   1      40.393  28.238  28.433  1.00  0.00    -0.014 A 
BRANCH  46  47
ATOM     47  C   UNL A   1      41.798  27.859  28.368  1.00  0.00     0.031 A 
ATOM     48  C   UNL A   1      42.063  26.617  27.595  1.00  0.00     0.074 A 
ATOM     49  C   UNL A   1      42.794  28.674  28.778  1.00  0.00     0.049 A 
ATOM     50  N   UNL A   1      42.468  25.484  28.060  1.00  0.00    -0.248 NA
ATOM     51  C   UNL A   1      41.696  26.576  26.169  1.00  0.00     0.031 C 
ATOM     52  C   UNL A   1      42.716  30.048  29.291  1.00  0.00     0.029 A 
ATOM     53  N   UNL A   1      44.136  28.459  28.732  1.00  0.00    -0.354 N 
ATOM     54  C   UNL A   1      42.617  24.644  26.960  1.00  0.00     0.074 A 
ATOM     55  C   UNL A   1      41.956  25.302  25.864  1.00  0.00     0.031 C 
ATOM     56  C   UNL A   1      43.944  30.612  29.280  1.00  0.00     0.029 A 
ATOM     57  C   UNL A   1      44.917  29.594  28.931  1.00  0.00     0.049 A 
ATOM     58  H   UNL A   1      44.525  27.570  28.570  1.00  0.00     0.167 HD
ATOM     59  C   UNL A   1      43.484  23.592  27.001  1.00  0.00     0.037 A 
ATOM     60  C   UNL A   1      46.265  29.677  28.802  1.00  0.00     0.037 A 
ATOM     61  C   UNL A   1      43.869  23.299  28.362  1.00  0.00     0.049 A 
ATOM     62  C   UNL A   1      46.794  28.293  28.906  1.00  0.00     0.074 A 
ATOM     63  C   UNL A   1      43.180  22.955  29.509  1.00  0.00     0.029 A 
ATOM     64  N   UNL A   1      45.098  23.744  28.787  1.00  0.00    -0.354 N 
ATOM     65  N   UNL A   1      46.762  27.597  30.009  1.00  0.00    -0.248 NA
ATOM     66  C   UNL A   1      46.889  27.517  27.677  1.00  0.00     0.031 C 
ATOM     67  C   UNL A   1      43.818  23.694  30.552  1.00  0.00     0.029 A 
ATOM     68  C   UNL A   1      44.907  24.365  29.996  1.00  0.00     0.049 A 
ATOM     69  H   UNL A   1      45.955  23.637  28.314  1.00  0.00     0.167 HD
ATOM     70  C   UNL A   1      46.384  26.324  29.608  1.00  0.00     0.074 A 
ATOM     71  C   UNL A   1      46.546  26.317  28.154  1.00  0.00     0.031 C 
ATOM     72  C   UNL A   1      45.686  25.497  30.442  1.00  0.00     0.037 A 
BRANCH  59  73
ATOM     73  C   UNL A   1      44.284  23.089  25.823  1.00  0.00     0.057 A 
ATOM     74  C   UNL A   1      44.312  21.705  25.563  1.00  0.00     0.134 A 
ATOM     75  C   UNL A   1      45.257  23.844  25.137  1.00  0.00     0.134 A 
ATOM     76  F   UNL A   1      43.437  20.876  26.150  1.00  0.00    -0.206 F 
ATOM     77  C   UNL A   1      45.297  21.110  24.766  1.00  0.00     0.040 A 
ATOM     78  C   UNL A   1      46.213  23.263  24.299  1.00  0.00     0.040 A 
ATOM     79  F   UNL A   1      45.406  25.161  25.314  1.00  0.00    -0.206 F 
ATOM     80  C   UNL A   1      46.260  21.890  24.141  1.00  0.00     0.006 A 
ENDBRANCH  59  73
BRANCH  60  81
ATOM     81  C   UNL A   1      47.097  30.806  28.319  1.00  0.00     0.057 A 
ATOM     82  C   UNL A   1      46.949  31.314  27.019  1.00  0.00     0.134 A 
ATOM     83  C   UNL A   1      47.845  31.601  29.207  1.00  0.00     0.134 A 
ATOM     84  F   UNL A   1      46.225  30.649  26.107  1.00  0.00    -0.206 F 
ATOM     85  C   UNL A   1      47.480  32.554  26.635  1.00  0.00     0.040 A 
ATOM     86  C   UNL A   1      48.382  32.838  28.835  1.00  0.00     0.040 A 
ATOM     87  F   UNL A   1      48.001  31.245  30.490  1.00  0.00    -0.206 F 
ATOM     88  C   UNL A   1      48.187  33.328  27.550  1.00  0.00     0.006 A 
ENDBRANCH  60  81
BRANCH  72  89
ATOM     89  C   UNL A   1      45.519  25.911  31.880  1.00  0.00     0.057 A 
ATOM     90  C   UNL A   1      46.484  25.711  32.880  1.00  0.00     0.134 A 
ATOM     91  C   UNL A   1      44.406  26.683  32.230  1.00  0.00     0.134 A 
ATOM     92  F   UNL A   1      47.632  25.075  32.622  1.00  0.00    -0.206 F 
ATOM     93  C   UNL A   1      46.325  26.216  34.175  1.00  0.00     0.040 A 
ATOM     94  C   UNL A   1      44.251  27.221  33.510  1.00  0.00     0.040 A 
ATOM     95  F   UNL A   1      43.468  26.969  31.313  1.00  0.00    -0.206 F 
ATOM     96  C   UNL A   1      45.208  26.980  34.492  1.00  0.00     0.006 A 
ENDBRANCH  72  89
ENDBRANCH  46  47
ENDBRANCH  38  41
ENDBRANCH  36  37
ENDBRANCH  35  36
ENDBRANCH  34  35
ENDBRANCH   1  34
TORSDOF 16
ENDMDL
MODEL 2
REMARK VINA RESULT:     -10.1     11.161     18.148
REMARK SMILES O=C1NC(=S)S/C1=C\c1ccc(OCc2cn(-c3ccc(C(=O)NCCCCNC(=O)c4ccc(-c5c6nc(c(-c7c(F)cccc7F)c7ccc([nH]7)c(-c7c(F)cccc7F)c7nc(c(-c8c(F)cccc8F)c8ccc5[nH]8)C=C7)C=C6)cc4)cc3)nn2)cc1
REMARK SMILES IDX 25 1 24 2 22 3 23 4 21 6 18 7 19 8 87 9 20 10 86 11 17 12
REMARK SMILES IDX 15 13 16 14 89 15 88 16 14 17 13 18 12 19 9 20 10 21 91 22
REMARK SMILES IDX 11 23 90 24 8 25 1 26 2 27 3 28 7 29 4 30 6 32 5 33 26 34
REMARK SMILES IDX 27 35 28 36 29 37 30 38 31 40 32 41 33 42 85 43 34 44 84 45
REMARK SMILES IDX 35 46 36 47 37 48 78 49 38 50 83 51 77 52 79 53 39 54 82 55
REMARK SMILES IDX 76 56 75 57 40 59 66 60 49 61 65 62 50 63 53 64 64 65 80 66
REMARK SMILES IDX 51 67 52 68 63 70 81 71 54 72 41 73 42 74 47 75 43 76 44 77
REMARK SMILES IDX 46 78 48 79 45 80 67 81 68 82 73 83 69 84 70 85 72 86 74 87
REMARK SMILES IDX 71 88 55 89 56 90 61 91 57 92 58 93 60 94 62 95 59 96
REMARK H PARENT 24 5 3 31 29 39 79 58 53 69
REMARK Flexibility Score: inf
ROOT
ATOM      1  C   UNL A   1      43.080  40.547  27.296  1.00  0.00     0.116 C 
ENDROOT
BRANCH   1   2
ATOM      2  N   UNL A   1      43.917  41.727  27.385  1.00  0.00    -0.352 N 
ATOM      3  C   UNL A   1      44.289  42.686  26.476  1.00  0.00     0.251 C 
ATOM      4  O   UNL A   1      45.028  43.582  26.885  1.00  0.00    -0.269 OA
ATOM      5  H   UNL A   1      44.295  41.872  28.282  1.00  0.00     0.163 HD
BRANCH   3   6
ATOM      6  C   UNL A   1      43.804  42.733  25.064  1.00  0.00     0.039 A 
ATOM      7  C   UNL A   1      42.929  43.096  22.418  1.00  0.00     0.066 A 
ATOM      8  C   UNL A   1      44.146  43.649  22.828  1.00  0.00     0.029 A 
ATOM      9  C   UNL A   1      42.187  42.306  23.295  1.00  0.00     0.029 A 
ATOM     10  C   UNL A   1      44.559  43.494  24.154  1.00  0.00     0.016 A 
ATOM     11  C   UNL A   1      42.664  42.080  24.588  1.00  0.00     0.016 A 
BRANCH   7  12
ATOM     12  N   UNL A   1      42.463  43.309  21.108  1.00  0.00    -0.220 N 
ATOM     13  C   UNL A   1      42.254  43.780  18.989  1.00  0.00     0.120 A 
ATOM     14  C   UNL A   1      43.195  43.588  19.976  1.00  0.00     0.144 A 
ATOM     15  N   UNL A   1      41.012  43.562  19.530  1.00  0.00    -0.131 NA
ATOM     16  N   UNL A   1      41.153  43.236  20.802  1.00  0.00    -0.062 NA
BRANCH  13  17
ATOM     17  C   UNL A   1      42.412  44.046  17.526  1.00  0.00     0.289 C 
BRANCH  17  18
ATOM     18  O   UNL A   1      41.853  45.283  17.050  1.00  0.00    -0.487 OA
BRANCH  18  19
ATOM     19  C   UNL A   1      42.616  46.417  17.128  1.00  0.00     0.119 A 
ATOM     20  C   UNL A   1      43.882  48.921  17.003  1.00  0.00    -0.024 A 
ATOM     21  C   UNL A   1      42.554  48.829  17.425  1.00  0.00     0.012 A 
ATOM     22  C   UNL A   1      44.599  47.750  16.751  1.00  0.00     0.012 A 
ATOM     23  C   UNL A   1      41.924  47.579  17.479  1.00  0.00     0.047 A 
ATOM     24  C   UNL A   1      43.977  46.505  16.848  1.00  0.00     0.047 A 
BRANCH  20  25
ATOM     25  C   UNL A   1      44.528  50.221  16.811  1.00  0.00     0.029 C 
ATOM     26  O   UNL A   1      45.717  52.863  16.551  1.00  0.00    -0.268 OA
ATOM     27  C   UNL A   1      46.138  52.028  17.324  1.00  0.00     0.263 C 
ATOM     28  N   UNL A   1      47.190  52.214  18.182  1.00  0.00    -0.307 N 
ATOM     29  C   UNL A   1      45.588  50.656  17.507  1.00  0.00     0.080 C 
ATOM     30  C   UNL A   1      47.548  51.185  18.996  1.00  0.00     0.145 C 
ATOM     31  H   UNL A   1      47.675  53.071  18.208  1.00  0.00     0.171 HD
ATOM     32  S   UNL A   1      46.497  49.817  18.715  1.00  0.00    -0.055 SA
ATOM     33  S   UNL A   1      48.802  51.264  20.075  1.00  0.00    -0.052 S 
ENDBRANCH  20  25
ENDBRANCH  18  19
ENDBRANCH  17  18
ENDBRANCH  13  17
ENDBRANCH   7  12
ENDBRANCH   3   6
ENDBRANCH   1   2
BRANCH   1  34
ATOM     34  C   UNL A   1      43.885  39.330  26.822  1.00  0.00     0.023 C 
BRANCH  34  35
ATOM     35  C   UNL A   1      45.272  39.184  27.466  1.00  0.00     0.023 C 
BRANCH  35  36
ATOM     36  C   UNL A   1      45.743  37.745  27.645  1.00  0.00     0.116 C 
BRANCH  36  37
ATOM     37  N   UNL A   1      45.413  36.887  26.504  1.00  0.00    -0.352 N 
ATOM     38  C   UNL A   1      44.713  35.693  26.513  1.00  0.00     0.251 C 
ATOM     39  H   UNL A   1      45.728  37.197  25.624  1.00  0.00     0.163 HD
ATOM     40  O   UNL A   1      44.839  34.871  25.614  1.00  0.00    -0.269 OA
BRANCH  38  41
ATOM     41  C   UNL A   1      43.777  35.447  27.621  1.00  0.00     0.039 A 
ATOM     42  C   UNL A   1      42.574  36.144  27.755  1.00  0.00     0.014 A 
ATOM     43  C   UNL A   1      44.124  34.439  28.514  1.00  0.00     0.014 A 
ATOM     44  C   UNL A   1      41.687  35.751  28.755  1.00  0.00     0.010 A 
ATOM     45  C   UNL A   1      43.180  33.935  29.364  1.00  0.00     0.010 A 
ATOM     46  C   UNL A   1      41.991  34.629  29.543  1.00  0.00    -0.014 A 
BRANCH  46  47
ATOM     47  C   UNL A   1      41.034  34.077  30.492  1.00  0.00     0.031 A 
ATOM     48  C   UNL A   1      41.541  33.975  31.886  1.00  0.00     0.074 A 
ATOM     49  C   UNL A   1      39.732  33.883  30.187  1.00  0.00     0.049 A 
ATOM     50  N   UNL A   1      41.802  32.894  32.541  1.00  0.00    -0.248 NA
ATOM     51  C   UNL A   1      41.950  35.205  32.585  1.00  0.00     0.031 C 
ATOM     52  C   UNL A   1      39.011  34.209  28.950  1.00  0.00     0.029 A 
ATOM     53  N   UNL A   1      38.736  33.420  30.988  1.00  0.00    -0.354 N 
ATOM     54  C   UNL A   1      42.203  33.297  33.812  1.00  0.00     0.074 A 
ATOM     55  C   UNL A   1      42.453  34.712  33.719  1.00  0.00     0.031 C 
ATOM     56  C   UNL A   1      37.678  34.156  29.168  1.00  0.00     0.029 A 
ATOM     57  C   UNL A   1      37.449  33.625  30.498  1.00  0.00     0.049 A 
ATOM     58  H   UNL A   1      38.911  32.975  31.848  1.00  0.00     0.167 HD
ATOM     59  C   UNL A   1      42.058  32.467  34.882  1.00  0.00     0.037 A 
ATOM     60  C   UNL A   1      36.288  33.381  31.157  1.00  0.00     0.037 A 
ATOM     61  C   UNL A   1      41.821  31.109  34.449  1.00  0.00     0.049 A 
ATOM     62  C   UNL A   1      36.604  32.424  32.248  1.00  0.00     0.074 A 
ATOM     63  C   UNL A   1      42.519  30.207  33.668  1.00  0.00     0.029 A 
ATOM     64  N   UNL A   1      40.529  30.643  34.486  1.00  0.00    -0.354 N 
ATOM     65  N   UNL A   1      36.951  31.185  32.034  1.00  0.00    -0.248 NA
ATOM     66  C   UNL A   1      37.022  32.980  33.528  1.00  0.00     0.031 C 
ATOM     67  C   UNL A   1      41.522  29.570  32.868  1.00  0.00     0.029 A 
ATOM     68  C   UNL A   1      40.277  30.051  33.274  1.00  0.00     0.049 A 
ATOM     69  H   UNL A   1      39.901  30.720  35.241  1.00  0.00     0.167 HD
ATOM     70  C   UNL A   1      37.990  30.954  32.923  1.00  0.00     0.074 A 
ATOM     71  C   UNL A   1      37.942  32.072  33.866  1.00  0.00     0.031 C 
ATOM     72  C   UNL A   1      38.980  30.056  32.639  1.00  0.00     0.037 A 
BRANCH  59  73
ATOM     73  C   UNL A   1      41.735  32.919  36.286  1.00  0.00     0.057 A 
ATOM     74  C   UNL A   1      42.470  32.377  37.359  1.00  0.00     0.134 A 
ATOM     75  C   UNL A   1      40.561  33.606  36.655  1.00  0.00     0.134 A 
ATOM     76  F   UNL A   1      43.609  31.703  37.144  1.00  0.00    -0.206 F 
ATOM     77  C   UNL A   1      42.014  32.426  38.682  1.00  0.00     0.040 A 
ATOM     78  C   UNL A   1      40.125  33.703  37.979  1.00  0.00     0.040 A 
ATOM     79  F   UNL A   1      39.719  34.129  35.758  1.00  0.00    -0.206 F 
ATOM     80  C   UNL A   1      40.830  33.080  38.994  1.00  0.00     0.006 A 
ENDBRANCH  59  73
BRANCH  60  81
ATOM     81  C   UNL A   1      35.001  34.116  31.099  1.00  0.00     0.057 A 
ATOM     82  C   UNL A   1      34.702  35.132  32.020  1.00  0.00     0.134 A 
ATOM     83  C   UNL A   1      34.163  34.044  29.972  1.00  0.00     0.134 A 
ATOM     84  F   UNL A   1      35.462  35.307  33.112  1.00  0.00    -0.206 F 
ATOM     85  C   UNL A   1      33.657  36.045  31.815  1.00  0.00     0.040 A 
ATOM     86  C   UNL A   1      33.116  34.947  29.756  1.00  0.00     0.040 A 
ATOM     87  F   UNL A   1      34.390  33.152  28.997  1.00  0.00    -0.206 F 
ATOM     88  C   UNL A   1      32.869  35.964  30.671  1.00  0.00     0.006 A 
ENDBRANCH  60  81
BRANCH  72  89
ATOM     89  C   UNL A   1      38.809  29.165  31.437  1.00  0.00     0.057 A 
ATOM     90  C   UNL A   1      39.035  29.568  30.112  1.00  0.00     0.134 A 
ATOM     91  C   UNL A   1      38.561  27.803  31.643  1.00  0.00     0.134 A 
ATOM     92  F   UNL A   1      39.381  30.826  29.817  1.00  0.00    -0.206 F 
ATOM     93  C   UNL A   1      38.972  28.670  29.042  1.00  0.00     0.040 A 
ATOM     94  C   UNL A   1      38.528  26.889  30.587  1.00  0.00     0.040 A 
ATOM     95  F   UNL A   1      38.393  27.329  32.888  1.00  0.00    -0.206 F 
ATOM     96  C   UNL A   1      38.724  27.323  29.279  1.00  0.00     0.006 A 
ENDBRANCH  72  89
ENDBRANCH  46  47
ENDBRANCH  38  41
ENDBRANCH  36  37
ENDBRANCH  35  36
ENDBRANCH  34  35
ENDBRANCH   1  34
TORSDOF 16
ENDMDL
MODEL 3
REMARK VINA RESULT:     -10.1      5.575     10.414
REMARK SMILES O=C1NC(=S)S/C1=C\c1ccc(OCc2cn(-c3ccc(C(=O)NCCCCNC(=O)c4ccc(-c5c6nc(c(-c7c(F)cccc7F)c7ccc([nH]7)c(-c7c(F)cccc7F)c7nc(c(-c8c(F)cccc8F)c8ccc5[nH]8)C=C7)C=C6)cc4)cc3)nn2)cc1
REMARK SMILES IDX 25 1 24 2 22 3 23 4 21 6 18 7 19 8 87 9 20 10 86 11 17 12
REMARK SMILES IDX 15 13 16 14 89 15 88 16 14 17 13 18 12 19 9 20 10 21 91 22
REMARK SMILES IDX 11 23 90 24 8 25 1 26 2 27 3 28 7 29 4 30 6 32 5 33 26 34
REMARK SMILES IDX 27 35 28 36 29 37 30 38 31 40 32 41 33 42 85 43 34 44 84 45
REMARK SMILES IDX 35 46 36 47 37 48 78 49 38 50 83 51 77 52 79 53 39 54 82 55
REMARK SMILES IDX 76 56 75 57 40 59 66 60 49 61 65 62 50 63 53 64 64 65 80 66
REMARK SMILES IDX 51 67 52 68 63 70 81 71 54 72 41 73 42 74 47 75 43 76 44 77
REMARK SMILES IDX 46 78 48 79 45 80 67 81 68 82 73 83 69 84 70 85 72 86 74 87
REMARK SMILES IDX 71 88 55 89 56 90 61 91 57 92 58 93 60 94 62 95 59 96
REMARK H PARENT 24 5 3 31 29 39 79 58 53 69
REMARK Flexibility Score: inf
ROOT
ATOM      1  C   UNL A   1      34.430  32.948  30.645  1.00  0.00     0.116 C 
ENDROOT
BRANCH   1   2
ATOM      2  N   UNL A   1      35.118  33.317  29.424  1.00  0.00    -0.352 N 
ATOM      3  C   UNL A   1      35.095  32.819  28.145  1.00  0.00     0.251 C 
ATOM      4  O   UNL A   1      35.817  33.378  27.319  1.00  0.00    -0.269 OA
ATOM      5  H   UNL A   1      35.726  34.083  29.534  1.00  0.00     0.163 HD
BRANCH   3   6
ATOM      6  C   UNL A   1      34.213  31.700  27.698  1.00  0.00     0.039 A 
ATOM      7  C   UNL A   1      32.757  29.519  26.687  1.00  0.00     0.066 A 
ATOM      8  C   UNL A   1      34.060  29.326  27.154  1.00  0.00     0.029 A 
ATOM      9  C   UNL A   1      32.155  30.772  26.788  1.00  0.00     0.029 A 
ATOM     10  C   UNL A   1      34.791  30.421  27.624  1.00  0.00     0.016 A 
ATOM     11  C   UNL A   1      32.865  31.833  27.352  1.00  0.00     0.016 A 
BRANCH   7  12
ATOM     12  N   UNL A   1      32.037  28.442  26.138  1.00  0.00    -0.220 N 
ATOM     13  C   UNL A   1      31.028  26.545  25.766  1.00  0.00     0.120 A 
ATOM     14  C   UNL A   1      31.613  27.291  26.765  1.00  0.00     0.144 A 
ATOM     15  N   UNL A   1      31.066  27.274  24.605  1.00  0.00    -0.131 NA
ATOM     16  N   UNL A   1      31.641  28.438  24.851  1.00  0.00    -0.062 NA
BRANCH  13  17
ATOM     17  C   UNL A   1      30.320  25.228  25.817  1.00  0.00     0.289 C 
BRANCH  17  18
ATOM     18  O   UNL A   1      30.279  24.492  24.582  1.00  0.00    -0.487 OA
BRANCH  18  19
ATOM     19  C   UNL A   1      31.097  23.403  24.443  1.00  0.00     0.119 A 
ATOM     20  C   UNL A   1      33.036  21.370  24.459  1.00  0.00    -0.024 A 
ATOM     21  C   UNL A   1      32.384  21.725  25.642  1.00  0.00     0.012 A 
ATOM     22  C   UNL A   1      32.634  21.959  23.259  1.00  0.00     0.012 A 
ATOM     23  C   UNL A   1      31.423  22.744  25.631  1.00  0.00     0.047 A 
ATOM     24  C   UNL A   1      31.645  22.944  23.249  1.00  0.00     0.047 A 
BRANCH  20  25
ATOM     25  C   UNL A   1      34.135  20.403  24.460  1.00  0.00     0.029 C 
ATOM     26  O   UNL A   1      36.327  18.498  24.626  1.00  0.00    -0.268 OA
ATOM     27  C   UNL A   1      35.163  18.171  24.740  1.00  0.00     0.263 C 
ATOM     28  N   UNL A   1      34.729  16.895  24.985  1.00  0.00    -0.307 N 
ATOM     29  C   UNL A   1      33.991  19.086  24.661  1.00  0.00     0.080 C 
ATOM     30  C   UNL A   1      33.390  16.679  25.094  1.00  0.00     0.145 C 
ATOM     31  H   UNL A   1      35.369  16.153  25.079  1.00  0.00     0.171 HD
ATOM     32  S   UNL A   1      32.531  18.187  24.887  1.00  0.00    -0.055 SA
ATOM     33  S   UNL A   1      32.723  15.191  25.380  1.00  0.00    -0.052 S 
ENDBRANCH  20  25
ENDBRANCH  18  19
ENDBRANCH  17  18
ENDBRANCH  13  17
ENDBRANCH   7  12
ENDBRANCH   3   6
ENDBRANCH   1   2
BRANCH   1  34
ATOM     34  C   UNL A   1      35.384  32.272  31.638  1.00  0.00     0.023 C 
BRANCH  34  35
ATOM     35  C   UNL A   1      36.007  33.216  32.677  1.00  0.00     0.023 C 
BRANCH  35  36
ATOM     36  C   UNL A   1      37.441  33.639  32.374  1.00  0.00     0.116 C 
BRANCH  36  37
ATOM     37  N   UNL A   1      37.632  34.071  30.988  1.00  0.00    -0.352 N 
ATOM     38  C   UNL A   1      38.586  33.635  30.085  1.00  0.00     0.251 C 
ATOM     39  H   UNL A   1      37.005  34.756  30.658  1.00  0.00     0.163 HD
ATOM     40  O   UNL A   1      38.920  34.320  29.126  1.00  0.00    -0.269 OA
BRANCH  38  41
ATOM     41  C   UNL A   1      39.171  32.301  30.287  1.00  0.00     0.039 A 
ATOM     42  C   UNL A   1      38.501  31.127  29.934  1.00  0.00     0.014 A 
ATOM     43  C   UNL A   1      40.462  32.261  30.803  1.00  0.00     0.014 A 
ATOM     44  C   UNL A   1      39.185  29.917  30.033  1.00  0.00     0.010 A 
ATOM     45  C   UNL A   1      41.188  31.105  30.720  1.00  0.00     0.010 A 
ATOM     46  C   UNL A   1      40.538  29.919  30.408  1.00  0.00    -0.014 A 
BRANCH  46  47
ATOM     47  C   UNL A   1      41.345  28.707  30.374  1.00  0.00     0.031 A 
ATOM     48  C   UNL A   1      41.841  28.262  31.703  1.00  0.00     0.074 A 
ATOM     49  C   UNL A   1      41.449  27.930  29.273  1.00  0.00     0.049 A 
ATOM     50  N   UNL A   1      43.062  28.264  32.118  1.00  0.00    -0.248 NA
ATOM     51  C   UNL A   1      40.861  27.917  32.748  1.00  0.00     0.031 C 
ATOM     52  C   UNL A   1      40.786  28.073  27.971  1.00  0.00     0.029 A 
ATOM     53  N   UNL A   1      42.129  26.762  29.124  1.00  0.00    -0.354 N 
ATOM     54  C   UNL A   1      43.039  27.718  33.398  1.00  0.00     0.074 A 
ATOM     55  C   UNL A   1      41.656  27.701  33.797  1.00  0.00     0.031 C 
ATOM     56  C   UNL A   1      40.906  26.926  27.266  1.00  0.00     0.029 A 
ATOM     57  C   UNL A   1      41.799  26.036  27.984  1.00  0.00     0.049 A 
ATOM     58  H   UNL A   1      42.801  26.453  29.773  1.00  0.00     0.167 HD
ATOM     59  C   UNL A   1      44.143  27.108  33.913  1.00  0.00     0.037 A 
ATOM     60  C   UNL A   1      42.227  24.786  27.672  1.00  0.00     0.037 A 
ATOM     61  C   UNL A   1      45.320  27.446  33.147  1.00  0.00     0.049 A 
ATOM     62  C   UNL A   1      43.456  24.541  28.470  1.00  0.00     0.074 A 
ATOM     63  C   UNL A   1      45.956  28.630  32.823  1.00  0.00     0.029 A 
ATOM     64  N   UNL A   1      45.785  26.519  32.246  1.00  0.00    -0.354 N 
ATOM     65  N   UNL A   1      44.579  25.171  28.266  1.00  0.00    -0.248 NA
ATOM     66  C   UNL A   1      43.289  23.974  29.801  1.00  0.00     0.031 C 
ATOM     67  C   UNL A   1      46.341  28.474  31.457  1.00  0.00     0.029 A 
ATOM     68  C   UNL A   1      46.004  27.179  31.063  1.00  0.00     0.049 A 
ATOM     69  H   UNL A   1      45.931  25.560  32.416  1.00  0.00     0.167 HD
ATOM     70  C   UNL A   1      45.050  25.469  29.535  1.00  0.00     0.074 A 
ATOM     71  C   UNL A   1      44.251  24.643  30.443  1.00  0.00     0.031 C 
ATOM     72  C   UNL A   1      45.824  26.571  29.765  1.00  0.00     0.037 A 
BRANCH  59  73
ATOM     73  C   UNL A   1      44.115  25.915  34.839  1.00  0.00     0.057 A 
ATOM     74  C   UNL A   1      44.837  25.977  36.047  1.00  0.00     0.134 A 
ATOM     75  C   UNL A   1      43.683  24.626  34.469  1.00  0.00     0.134 A 
ATOM     76  F   UNL A   1      45.302  27.145  36.513  1.00  0.00    -0.206 F 
ATOM     77  C   UNL A   1      45.189  24.832  36.772  1.00  0.00     0.040 A 
ATOM     78  C   UNL A   1      43.986  23.483  35.213  1.00  0.00     0.040 A 
ATOM     79  F   UNL A   1      43.036  24.382  33.324  1.00  0.00    -0.206 F 
ATOM     80  C   UNL A   1      44.773  23.577  36.347  1.00  0.00     0.006 A 
ENDBRANCH  59  73
BRANCH  60  81
ATOM     81  C   UNL A   1      41.514  23.695  26.965  1.00  0.00     0.057 A 
ATOM     82  C   UNL A   1      42.213  22.737  26.215  1.00  0.00     0.134 A 
ATOM     83  C   UNL A   1      40.169  23.393  27.244  1.00  0.00     0.134 A 
ATOM     84  F   UNL A   1      43.511  22.913  25.925  1.00  0.00    -0.206 F 
ATOM     85  C   UNL A   1      41.623  21.535  25.799  1.00  0.00     0.040 A 
ATOM     86  C   UNL A   1      39.567  22.199  26.833  1.00  0.00     0.040 A 
ATOM     87  F   UNL A   1      39.421  24.206  28.004  1.00  0.00    -0.206 F 
ATOM     88  C   UNL A   1      40.298  21.255  26.122  1.00  0.00     0.006 A 
ENDBRANCH  60  81
BRANCH  72  89
ATOM     89  C   UNL A   1      46.333  27.343  28.577  1.00  0.00     0.057 A 
ATOM     90  C   UNL A   1      45.658  28.421  27.983  1.00  0.00     0.134 A 
ATOM     91  C   UNL A   1      47.630  27.088  28.118  1.00  0.00     0.134 A 
ATOM     92  F   UNL A   1      44.455  28.814  28.418  1.00  0.00    -0.206 F 
ATOM     93  C   UNL A   1      46.227  29.177  26.953  1.00  0.00     0.040 A 
ATOM     94  C   UNL A   1      48.223  27.855  27.113  1.00  0.00     0.040 A 
ATOM     95  F   UNL A   1      48.363  26.111  28.676  1.00  0.00    -0.206 F 
ATOM     96  C   UNL A   1      47.518  28.899  26.519  1.00  0.00     0.006 A 
ENDBRANCH  72  89
ENDBRANCH  46  47
ENDBRANCH  38  41
ENDBRANCH  36  37
ENDBRANCH  35  36
ENDBRANCH  34  35
ENDBRANCH   1  34
TORSDOF 16
ENDMDL
