MODEL 1
REMARK VINA RESULT:     -12.1      0.000      0.000
REMARK SMILES O=C(NCCCCNC(=O)c1ccc(-c2c3nc(c(-c4c(F)cccc4F)c4ccc([nH]4)c(-c4c(F)cccc4F)c4nc(c(-c5c(F)cccc5F)c5ccc2[nH]5)C=C4)C=C3)cc1)C1=Cc2cc(Cl)cc(Cl)c2O[C@@H]1C(F)(F)F
REMARK SMILES IDX 6 1 5 2 4 3 3 4 1 5 2 6 65 8 66 9 76 10 67 11 75 12 68 13
REMARK SMILES IDX 74 14 69 15 72 16 70 17 71 18 73 19 77 20 78 21 79 22 80 23
REMARK SMILES IDX 7 24 8 25 9 26 10 28 11 29 12 30 64 31 13 32 63 33 14 34
REMARK SMILES IDX 15 35 16 36 57 37 17 38 62 39 56 40 58 41 18 42 61 43 55 44
REMARK SMILES IDX 54 45 19 47 45 48 28 49 44 50 29 51 32 52 43 53 59 54 30 55
REMARK SMILES IDX 31 56 42 58 60 59 33 60 20 61 21 62 26 63 22 64 23 65 25 66
REMARK SMILES IDX 27 67 24 68 46 69 47 70 52 71 48 72 49 73 51 74 53 75 50 76
REMARK SMILES IDX 34 77 35 78 40 79 36 80 37 81 39 82 41 83 38 84
REMARK H PARENT 3 7 8 27 58 46 32 57
REMARK Flexibility Score: inf
ROOT
ATOM      1  C   UNL A   1      32.386  28.256  27.542  1.00  0.00     0.023 C 
ENDROOT
BRANCH   1   2
ATOM      2  C   UNL A   1      31.407  28.065  26.380  1.00  0.00     0.023 C 
BRANCH   2   3
ATOM      3  C   UNL A   1      31.504  26.694  25.702  1.00  0.00     0.116 C 
BRANCH   3   4
ATOM      4  N   UNL A   1      31.364  25.575  26.639  1.00  0.00    -0.352 N 
ATOM      5  O   UNL A   1      31.953  23.637  27.661  1.00  0.00    -0.270 OA
ATOM      6  C   UNL A   1      31.985  24.349  26.667  1.00  0.00     0.251 C 
ATOM      7  H   UNL A   1      30.719  25.727  27.369  1.00  0.00     0.163 HD
BRANCH   6   8
ATOM      8  C   UNL A   1      32.764  23.957  25.479  1.00  0.00     0.067 C 
ATOM      9  C   UNL A   1      34.036  24.366  25.409  1.00  0.00     0.025 C 
ATOM     10  C   UNL A   1      32.218  22.861  24.619  1.00  0.00     0.314 C 
ATOM     11  C   UNL A   1      34.961  23.288  25.040  1.00  0.00     0.020 A 
ATOM     12  O   UNL A   1      33.132  21.740  24.541  1.00  0.00    -0.474 OA
ATOM     13  C   UNL A   1      36.305  23.458  25.392  1.00  0.00     0.032 A 
ATOM     14  C   UNL A   1      34.466  21.996  24.763  1.00  0.00     0.146 A 
ATOM     15  C   UNL A   1      37.121  22.342  25.555  1.00  0.00     0.043 A 
ATOM     16  C   UNL A   1      35.314  20.888  24.898  1.00  0.00     0.085 A 
ATOM     17  Cl  UNL A   1      38.708  22.549  26.183  1.00  0.00    -0.084 Cl
ATOM     18  C   UNL A   1      36.633  21.059  25.320  1.00  0.00     0.045 A 
ATOM     19  Cl  UNL A   1      34.718  19.277  24.712  1.00  0.00    -0.080 Cl
BRANCH  10  20
ATOM     20  C   UNL A   1      31.849  23.368  23.215  1.00  0.00     0.429 C 
ATOM     21  F   UNL A   1      32.154  24.682  23.074  1.00  0.00    -0.167 F 
ATOM     22  F   UNL A   1      32.520  22.706  22.244  1.00  0.00    -0.167 F 
ATOM     23  F   UNL A   1      30.527  23.236  22.952  1.00  0.00    -0.167 F 
ENDBRANCH  10  20
ENDBRANCH   6   8
ENDBRANCH   3   4
ENDBRANCH   2   3
ENDBRANCH   1   2
BRANCH   1  24
ATOM     24  C   UNL A   1      33.646  29.070  27.249  1.00  0.00     0.116 C 
BRANCH  24  25
ATOM     25  N   UNL A   1      33.728  30.340  27.951  1.00  0.00    -0.352 N 
ATOM     26  C   UNL A   1      34.825  30.895  28.588  1.00  0.00     0.251 C 
ATOM     27  H   UNL A   1      32.901  30.872  27.977  1.00  0.00     0.163 HD
ATOM     28  O   UNL A   1      34.744  31.971  29.149  1.00  0.00    -0.269 OA
BRANCH  26  29
ATOM     29  C   UNL A   1      36.090  30.124  28.632  1.00  0.00     0.039 A 
ATOM     30  C   UNL A   1      36.945  30.178  27.528  1.00  0.00     0.014 A 
ATOM     31  C   UNL A   1      36.473  29.440  29.789  1.00  0.00     0.014 A 
ATOM     32  C   UNL A   1      38.234  29.645  27.628  1.00  0.00     0.010 A 
ATOM     33  C   UNL A   1      37.779  28.970  29.909  1.00  0.00     0.010 A 
ATOM     34  C   UNL A   1      38.681  29.093  28.840  1.00  0.00    -0.014 A 
BRANCH  34  35
ATOM     35  C   UNL A   1      40.101  28.694  29.028  1.00  0.00     0.031 A 
ATOM     36  C   UNL A   1      41.096  29.663  29.599  1.00  0.00     0.074 A 
ATOM     37  C   UNL A   1      40.512  27.481  28.603  1.00  0.00     0.049 A 
ATOM     38  N   UNL A   1      42.387  29.522  29.760  1.00  0.00    -0.248 NA
ATOM     39  C   UNL A   1      40.576  30.973  30.020  1.00  0.00     0.031 C 
ATOM     40  C   UNL A   1      39.662  26.468  27.975  1.00  0.00     0.029 A 
ATOM     41  N   UNL A   1      41.757  26.900  28.624  1.00  0.00    -0.354 N 
ATOM     42  C   UNL A   1      42.835  30.727  30.286  1.00  0.00     0.074 A 
ATOM     43  C   UNL A   1      41.687  31.603  30.373  1.00  0.00     0.031 C 
ATOM     44  C   UNL A   1      40.403  25.384  27.692  1.00  0.00     0.029 A 
ATOM     45  C   UNL A   1      41.785  25.635  28.087  1.00  0.00     0.049 A 
ATOM     46  H   UNL A   1      42.554  27.347  28.990  1.00  0.00     0.167 HD
ATOM     47  C   UNL A   1      44.085  31.066  30.681  1.00  0.00     0.037 A 
ATOM     48  C   UNL A   1      42.809  24.776  27.926  1.00  0.00     0.037 A 
ATOM     49  C   UNL A   1      45.224  30.187  30.624  1.00  0.00     0.049 A 
ATOM     50  C   UNL A   1      44.184  25.171  28.387  1.00  0.00     0.074 A 
ATOM     51  C   UNL A   1      46.519  30.423  31.056  1.00  0.00     0.029 A 
ATOM     52  N   UNL A   1      45.204  28.902  30.105  1.00  0.00    -0.354 N 
ATOM     53  N   UNL A   1      44.578  26.290  28.943  1.00  0.00    -0.248 NA
ATOM     54  C   UNL A   1      45.256  24.181  28.203  1.00  0.00     0.031 C 
ATOM     55  C   UNL A   1      47.288  29.290  30.772  1.00  0.00     0.029 A 
ATOM     56  C   UNL A   1      46.465  28.337  30.194  1.00  0.00     0.049 A 
ATOM     57  H   UNL A   1      44.410  28.458  29.728  1.00  0.00     0.167 HD
ATOM     58  C   UNL A   1      45.934  26.132  29.198  1.00  0.00     0.074 A 
ATOM     59  C   UNL A   1      46.293  24.803  28.748  1.00  0.00     0.031 C 
ATOM     60  C   UNL A   1      46.803  27.009  29.753  1.00  0.00     0.037 A 
BRANCH  47  61
ATOM     61  C   UNL A   1      44.283  32.448  31.227  1.00  0.00     0.057 A 
ATOM     62  C   UNL A   1      44.603  33.527  30.393  1.00  0.00     0.134 A 
ATOM     63  C   UNL A   1      44.123  32.711  32.592  1.00  0.00     0.134 A 
ATOM     64  F   UNL A   1      44.782  33.338  29.077  1.00  0.00    -0.206 F 
ATOM     65  C   UNL A   1      44.778  34.814  30.900  1.00  0.00     0.040 A 
ATOM     66  C   UNL A   1      44.272  33.999  33.109  1.00  0.00     0.040 A 
ATOM     67  F   UNL A   1      43.812  31.722  33.445  1.00  0.00    -0.206 F 
ATOM     68  C   UNL A   1      44.606  35.054  32.262  1.00  0.00     0.006 A 
ENDBRANCH  47  61
BRANCH  48  69
ATOM     69  C   UNL A   1      42.576  23.440  27.322  1.00  0.00     0.057 A 
ATOM     70  C   UNL A   1      42.169  22.356  28.110  1.00  0.00     0.134 A 
ATOM     71  C   UNL A   1      42.774  23.207  25.957  1.00  0.00     0.134 A 
ATOM     72  F   UNL A   1      41.983  22.514  29.429  1.00  0.00    -0.206 F 
ATOM     73  C   UNL A   1      41.987  21.085  27.565  1.00  0.00     0.040 A 
ATOM     74  C   UNL A   1      42.575  21.945  25.395  1.00  0.00     0.040 A 
ATOM     75  F   UNL A   1      43.158  24.207  25.148  1.00  0.00    -0.206 F 
ATOM     76  C   UNL A   1      42.187  20.877  26.202  1.00  0.00     0.006 A 
ENDBRANCH  48  69
BRANCH  60  77
ATOM     77  C   UNL A   1      48.217  26.548  29.938  1.00  0.00     0.057 A 
ATOM     78  C   UNL A   1      49.204  26.795  28.974  1.00  0.00     0.134 A 
ATOM     79  C   UNL A   1      48.604  25.885  31.108  1.00  0.00     0.134 A 
ATOM     80  F   UNL A   1      48.892  27.414  27.826  1.00  0.00    -0.206 F 
ATOM     81  C   UNL A   1      50.523  26.382  29.163  1.00  0.00     0.040 A 
ATOM     82  C   UNL A   1      49.925  25.487  31.317  1.00  0.00     0.040 A 
ATOM     83  F   UNL A   1      47.708  25.623  32.071  1.00  0.00    -0.206 F 
ATOM     84  C   UNL A   1      50.888  25.731  30.340  1.00  0.00     0.006 A 
ENDBRANCH  60  77
ENDBRANCH  34  35
ENDBRANCH  26  29
ENDBRANCH  24  25
ENDBRANCH   1  24
TORSDOF 12
ENDMDL
MODEL 2
REMARK VINA RESULT:     -12.0      3.793      5.045
REMARK SMILES O=C(NCCCCNC(=O)c1ccc(-c2c3nc(c(-c4c(F)cccc4F)c4ccc([nH]4)c(-c4c(F)cccc4F)c4nc(c(-c5c(F)cccc5F)c5ccc2[nH]5)C=C4)C=C3)cc1)C1=Cc2cc(Cl)cc(Cl)c2O[C@@H]1C(F)(F)F
REMARK SMILES IDX 6 1 5 2 4 3 3 4 1 5 2 6 65 8 66 9 76 10 67 11 75 12 68 13
REMARK SMILES IDX 74 14 69 15 72 16 70 17 71 18 73 19 77 20 78 21 79 22 80 23
REMARK SMILES IDX 7 24 8 25 9 26 10 28 11 29 12 30 64 31 13 32 63 33 14 34
REMARK SMILES IDX 15 35 16 36 57 37 17 38 62 39 56 40 58 41 18 42 61 43 55 44
REMARK SMILES IDX 54 45 19 47 45 48 28 49 44 50 29 51 32 52 43 53 59 54 30 55
REMARK SMILES IDX 31 56 42 58 60 59 33 60 20 61 21 62 26 63 22 64 23 65 25 66
REMARK SMILES IDX 27 67 24 68 46 69 47 70 52 71 48 72 49 73 51 74 53 75 50 76
REMARK SMILES IDX 34 77 35 78 40 79 36 80 37 81 39 82 41 83 38 84
REMARK H PARENT 3 7 8 27 58 46 32 57
REMARK Flexibility Score: inf
ROOT
ATOM      1  C   UNL A   1      31.440  31.565  26.841  1.00  0.00     0.023 C 
ENDROOT
BRANCH   1   2
ATOM      2  C   UNL A   1      31.774  30.247  26.135  1.00  0.00     0.023 C 
BRANCH   2   3
ATOM      3  C   UNL A   1      32.268  29.145  27.077  1.00  0.00     0.116 C 
BRANCH   3   4
ATOM      4  N   UNL A   1      31.452  27.928  27.023  1.00  0.00    -0.352 N 
ATOM      5  O   UNL A   1      31.027  25.727  26.684  1.00  0.00    -0.270 OA
ATOM      6  C   UNL A   1      31.687  26.720  26.412  1.00  0.00     0.251 C 
ATOM      7  H   UNL A   1      30.593  27.987  27.504  1.00  0.00     0.163 HD
BRANCH   6   8
ATOM      8  C   UNL A   1      32.820  26.644  25.474  1.00  0.00     0.067 C 
ATOM      9  C   UNL A   1      33.962  26.110  25.923  1.00  0.00     0.025 C 
ATOM     10  C   UNL A   1      32.532  26.831  24.017  1.00  0.00     0.314 C 
ATOM     11  C   UNL A   1      34.528  25.118  25.001  1.00  0.00     0.020 A 
ATOM     12  O   UNL A   1      32.913  25.667  23.246  1.00  0.00    -0.474 OA
ATOM     13  C   UNL A   1      35.411  24.179  25.545  1.00  0.00     0.032 A 
ATOM     14  C   UNL A   1      33.889  24.851  23.771  1.00  0.00     0.146 A 
ATOM     15  C   UNL A   1      35.584  22.950  24.915  1.00  0.00     0.043 A 
ATOM     16  C   UNL A   1      34.104  23.621  23.135  1.00  0.00     0.085 A 
ATOM     17  Cl  UNL A   1      36.510  21.731  25.698  1.00  0.00    -0.084 Cl
ATOM     18  C   UNL A   1      34.930  22.661  23.721  1.00  0.00     0.045 A 
ATOM     19  Cl  UNL A   1      33.234  23.189  21.706  1.00  0.00    -0.080 Cl
BRANCH  10  20
ATOM     20  C   UNL A   1      33.200  28.100  23.462  1.00  0.00     0.429 C 
ATOM     21  F   UNL A   1      33.879  27.835  22.319  1.00  0.00    -0.167 F 
ATOM     22  F   UNL A   1      32.296  29.062  23.167  1.00  0.00    -0.167 F 
ATOM     23  F   UNL A   1      34.087  28.636  24.335  1.00  0.00    -0.167 F 
ENDBRANCH  10  20
ENDBRANCH   6   8
ENDBRANCH   3   4
ENDBRANCH   2   3
ENDBRANCH   1   2
BRANCH   1  24
ATOM     24  C   UNL A   1      32.283  32.780  26.454  1.00  0.00     0.116 C 
BRANCH  24  25
ATOM     25  N   UNL A   1      32.169  33.914  27.358  1.00  0.00    -0.352 N 
ATOM     26  C   UNL A   1      33.047  34.304  28.354  1.00  0.00     0.251 C 
ATOM     27  H   UNL A   1      31.368  34.474  27.246  1.00  0.00     0.163 HD
ATOM     28  O   UNL A   1      32.815  35.277  29.046  1.00  0.00    -0.269 OA
BRANCH  26  29
ATOM     29  C   UNL A   1      34.250  33.476  28.610  1.00  0.00     0.039 A 
ATOM     30  C   UNL A   1      35.496  34.105  28.666  1.00  0.00     0.014 A 
ATOM     31  C   UNL A   1      34.134  32.112  28.892  1.00  0.00     0.014 A 
ATOM     32  C   UNL A   1      36.609  33.392  29.120  1.00  0.00     0.010 A 
ATOM     33  C   UNL A   1      35.229  31.423  29.409  1.00  0.00     0.010 A 
ATOM     34  C   UNL A   1      36.471  32.063  29.554  1.00  0.00    -0.014 A 
BRANCH  34  35
ATOM     35  C   UNL A   1      37.593  31.347  30.215  1.00  0.00     0.031 A 
ATOM     36  C   UNL A   1      37.934  31.625  31.651  1.00  0.00     0.074 A 
ATOM     37  C   UNL A   1      38.361  30.504  29.494  1.00  0.00     0.049 A 
ATOM     38  N   UNL A   1      38.925  31.160  32.369  1.00  0.00    -0.248 NA
ATOM     39  C   UNL A   1      37.065  32.572  32.366  1.00  0.00     0.031 C 
ATOM     40  C   UNL A   1      38.175  30.191  28.075  1.00  0.00     0.029 A 
ATOM     41  N   UNL A   1      39.461  29.765  29.853  1.00  0.00    -0.354 N 
ATOM     42  C   UNL A   1      38.806  31.767  33.613  1.00  0.00     0.074 A 
ATOM     43  C   UNL A   1      37.676  32.668  33.537  1.00  0.00     0.031 C 
ATOM     44  C   UNL A   1      39.114  29.309  27.691  1.00  0.00     0.029 A 
ATOM     45  C   UNL A   1      39.986  29.019  28.825  1.00  0.00     0.049 A 
ATOM     46  H   UNL A   1      39.839  29.769  30.762  1.00  0.00     0.167 HD
ATOM     47  C   UNL A   1      39.556  31.575  34.724  1.00  0.00     0.037 A 
ATOM     48  C   UNL A   1      41.052  28.197  28.796  1.00  0.00     0.037 A 
ATOM     49  C   UNL A   1      40.661  30.657  34.812  1.00  0.00     0.049 A 
ATOM     50  C   UNL A   1      41.858  27.990  30.048  1.00  0.00     0.074 A 
ATOM     51  C   UNL A   1      41.444  30.352  35.913  1.00  0.00     0.029 A 
ATOM     52  N   UNL A   1      41.140  29.895  33.759  1.00  0.00    -0.354 N 
ATOM     53  N   UNL A   1      41.692  28.521  31.234  1.00  0.00    -0.248 NA
ATOM     54  C   UNL A   1      42.998  27.064  29.958  1.00  0.00     0.031 C 
ATOM     55  C   UNL A   1      42.413  29.425  35.517  1.00  0.00     0.029 A 
ATOM     56  C   UNL A   1      42.214  29.128  34.179  1.00  0.00     0.049 A 
ATOM     57  H   UNL A   1      40.770  29.898  32.845  1.00  0.00     0.167 HD
ATOM     58  C   UNL A   1      42.687  27.978  32.037  1.00  0.00     0.074 A 
ATOM     59  C   UNL A   1      43.444  27.065  31.206  1.00  0.00     0.031 C 
ATOM     60  C   UNL A   1      42.949  28.216  33.344  1.00  0.00     0.037 A 
BRANCH  47  61
ATOM     61  C   UNL A   1      39.192  32.366  35.944  1.00  0.00     0.057 A 
ATOM     62  C   UNL A   1      38.317  31.860  36.913  1.00  0.00     0.134 A 
ATOM     63  C   UNL A   1      39.746  33.632  36.170  1.00  0.00     0.134 A 
ATOM     64  F   UNL A   1      37.744  30.658  36.749  1.00  0.00    -0.206 F 
ATOM     65  C   UNL A   1      37.986  32.594  38.052  1.00  0.00     0.040 A 
ATOM     66  C   UNL A   1      39.442  34.367  37.318  1.00  0.00     0.040 A 
ATOM     67  F   UNL A   1      40.595  34.174  35.283  1.00  0.00    -0.206 F 
ATOM     68  C   UNL A   1      38.555  33.849  38.260  1.00  0.00     0.006 A 
ENDBRANCH  47  61
BRANCH  48  69
ATOM     69  C   UNL A   1      41.411  27.481  27.546  1.00  0.00     0.057 A 
ATOM     70  C   UNL A   1      40.957  26.179  27.307  1.00  0.00     0.134 A 
ATOM     71  C   UNL A   1      42.230  28.068  26.575  1.00  0.00     0.134 A 
ATOM     72  F   UNL A   1      40.186  25.558  28.212  1.00  0.00    -0.206 F 
ATOM     73  C   UNL A   1      41.320  25.478  26.157  1.00  0.00     0.040 A 
ATOM     74  C   UNL A   1      42.584  27.386  25.410  1.00  0.00     0.040 A 
ATOM     75  F   UNL A   1      42.692  29.317  26.743  1.00  0.00    -0.206 F 
ATOM     76  C   UNL A   1      42.135  26.083  25.202  1.00  0.00     0.006 A 
ENDBRANCH  48  69
BRANCH  60  77
ATOM     77  C   UNL A   1      44.079  27.452  33.966  1.00  0.00     0.057 A 
ATOM     78  C   UNL A   1      45.382  27.966  34.005  1.00  0.00     0.134 A 
ATOM     79  C   UNL A   1      43.854  26.208  34.566  1.00  0.00     0.134 A 
ATOM     80  F   UNL A   1      45.663  29.147  33.435  1.00  0.00    -0.206 F 
ATOM     81  C   UNL A   1      46.424  27.259  34.605  1.00  0.00     0.040 A 
ATOM     82  C   UNL A   1      44.884  25.502  35.187  1.00  0.00     0.040 A 
ATOM     83  F   UNL A   1      42.628  25.663  34.567  1.00  0.00    -0.206 F 
ATOM     84  C   UNL A   1      46.175  26.025  35.204  1.00  0.00     0.006 A 
ENDBRANCH  60  77
ENDBRANCH  34  35
ENDBRANCH  26  29
ENDBRANCH  24  25
ENDBRANCH   1  24
TORSDOF 12
ENDMDL
MODEL 3
REMARK VINA RESULT:     -12.0      3.902      7.473
REMARK SMILES O=C(NCCCCNC(=O)c1ccc(-c2c3nc(c(-c4c(F)cccc4F)c4ccc([nH]4)c(-c4c(F)cccc4F)c4nc(c(-c5c(F)cccc5F)c5ccc2[nH]5)C=C4)C=C3)cc1)C1=Cc2cc(Cl)cc(Cl)c2O[C@@H]1C(F)(F)F
REMARK SMILES IDX 6 1 5 2 4 3 3 4 1 5 2 6 65 8 66 9 76 10 67 11 75 12 68 13
REMARK SMILES IDX 74 14 69 15 72 16 70 17 71 18 73 19 77 20 78 21 79 22 80 23
REMARK SMILES IDX 7 24 8 25 9 26 10 28 11 29 12 30 64 31 13 32 63 33 14 34
REMARK SMILES IDX 15 35 16 36 57 37 17 38 62 39 56 40 58 41 18 42 61 43 55 44
REMARK SMILES IDX 54 45 19 47 45 48 28 49 44 50 29 51 32 52 43 53 59 54 30 55
REMARK SMILES IDX 31 56 42 58 60 59 33 60 20 61 21 62 26 63 22 64 23 65 25 66
REMARK SMILES IDX 27 67 24 68 46 69 47 70 52 71 48 72 49 73 51 74 53 75 50 76
REMARK SMILES IDX 34 77 35 78 40 79 36 80 37 81 39 82 41 83 38 84
REMARK H PARENT 3 7 8 27 58 46 32 57
REMARK Flexibility Score: inf
ROOT
ATOM      1  C   UNL A   1      31.405  31.624  26.803  1.00  0.00     0.023 C 
ENDROOT
BRANCH   1   2
ATOM      2  C   UNL A   1      31.716  30.308  26.086  1.00  0.00     0.023 C 
BRANCH   2   3
ATOM      3  C   UNL A   1      32.239  29.203  27.011  1.00  0.00     0.116 C 
BRANCH   3   4
ATOM      4  N   UNL A   1      31.423  27.985  26.976  1.00  0.00    -0.352 N 
ATOM      5  O   UNL A   1      31.002  25.777  26.679  1.00  0.00    -0.270 OA
ATOM      6  C   UNL A   1      31.663  26.765  26.391  1.00  0.00     0.251 C 
ATOM      7  H   UNL A   1      30.562  28.053  27.450  1.00  0.00     0.163 HD
BRANCH   6   8
ATOM      8  C   UNL A   1      32.801  26.671  25.462  1.00  0.00     0.067 C 
ATOM      9  C   UNL A   1      33.934  26.127  25.921  1.00  0.00     0.025 C 
ATOM     10  C   UNL A   1      32.526  26.854  24.002  1.00  0.00     0.314 C 
ATOM     11  C   UNL A   1      34.495  25.124  25.009  1.00  0.00     0.020 A 
ATOM     12  O   UNL A   1      32.899  25.681  23.239  1.00  0.00    -0.474 OA
ATOM     13  C   UNL A   1      35.364  24.177  25.564  1.00  0.00     0.032 A 
ATOM     14  C   UNL A   1      33.862  24.857  23.776  1.00  0.00     0.146 A 
ATOM     15  C   UNL A   1      35.527  22.942  24.942  1.00  0.00     0.043 A 
ATOM     16  C   UNL A   1      34.067  23.621  23.148  1.00  0.00     0.085 A 
ATOM     17  Cl  UNL A   1      36.434  21.717  25.738  1.00  0.00    -0.084 Cl
ATOM     18  C   UNL A   1      34.878  22.655  23.745  1.00  0.00     0.045 A 
ATOM     19  Cl  UNL A   1      33.203  23.191  21.715  1.00  0.00    -0.080 Cl
BRANCH  10  20
ATOM     20  C   UNL A   1      33.213  28.112  23.445  1.00  0.00     0.429 C 
ATOM     21  F   UNL A   1      33.921  27.827  22.324  1.00  0.00    -0.167 F 
ATOM     22  F   UNL A   1      32.320  29.071  23.109  1.00  0.00    -0.167 F 
ATOM     23  F   UNL A   1      34.077  28.660  24.333  1.00  0.00    -0.167 F 
ENDBRANCH  10  20
ENDBRANCH   6   8
ENDBRANCH   3   4
ENDBRANCH   2   3
ENDBRANCH   1   2
BRANCH   1  24
ATOM     24  C   UNL A   1      32.329  32.803  26.500  1.00  0.00     0.116 C 
BRANCH  24  25
ATOM     25  N   UNL A   1      32.156  33.954  27.371  1.00  0.00    -0.352 N 
ATOM     26  C   UNL A   1      32.990  34.391  28.386  1.00  0.00     0.251 C 
ATOM     27  H   UNL A   1      31.345  34.490  27.221  1.00  0.00     0.163 HD
ATOM     28  O   UNL A   1      32.711  35.374  29.046  1.00  0.00    -0.269 OA
BRANCH  26  29
ATOM     29  C   UNL A   1      34.205  33.601  28.700  1.00  0.00     0.039 A 
ATOM     30  C   UNL A   1      35.451  34.230  28.619  1.00  0.00     0.014 A 
ATOM     31  C   UNL A   1      34.105  32.289  29.168  1.00  0.00     0.014 A 
ATOM     32  C   UNL A   1      36.584  33.581  29.118  1.00  0.00     0.010 A 
ATOM     33  C   UNL A   1      35.223  31.672  29.726  1.00  0.00     0.010 A 
ATOM     34  C   UNL A   1      36.468  32.323  29.732  1.00  0.00    -0.014 A 
BRANCH  34  35
ATOM     35  C   UNL A   1      37.618  31.699  30.436  1.00  0.00     0.031 A 
ATOM     36  C   UNL A   1      38.466  30.668  29.747  1.00  0.00     0.074 A 
ATOM     37  C   UNL A   1      37.850  32.002  31.730  1.00  0.00     0.049 A 
ATOM     38  N   UNL A   1      39.456  29.959  30.225  1.00  0.00    -0.248 NA
ATOM     39  C   UNL A   1      38.140  30.376  28.343  1.00  0.00     0.031 C 
ATOM     40  C   UNL A   1      37.066  32.941  32.536  1.00  0.00     0.029 A 
ATOM     41  N   UNL A   1      38.807  31.540  32.601  1.00  0.00    -0.354 N 
ATOM     42  C   UNL A   1      39.861  29.128  29.189  1.00  0.00     0.074 A 
ATOM     43  C   UNL A   1      38.980  29.389  28.071  1.00  0.00     0.031 C 
ATOM     44  C   UNL A   1      37.586  33.002  33.774  1.00  0.00     0.029 A 
ATOM     45  C   UNL A   1      38.718  32.085  33.860  1.00  0.00     0.049 A 
ATOM     46  H   UNL A   1      39.492  30.881  32.347  1.00  0.00     0.167 HD
ATOM     47  C   UNL A   1      40.887  28.245  29.162  1.00  0.00     0.037 A 
ATOM     48  C   UNL A   1      39.461  31.867  34.962  1.00  0.00     0.037 A 
ATOM     49  C   UNL A   1      41.785  28.006  30.262  1.00  0.00     0.049 A 
ATOM     50  C   UNL A   1      40.604  30.893  34.900  1.00  0.00     0.074 A 
ATOM     51  C   UNL A   1      42.889  27.172  30.308  1.00  0.00     0.029 A 
ATOM     52  N   UNL A   1      41.682  28.603  31.508  1.00  0.00    -0.354 N 
ATOM     53  N   UNL A   1      41.014  30.164  33.892  1.00  0.00    -0.248 NA
ATOM     54  C   UNL A   1      41.391  30.715  36.131  1.00  0.00     0.031 C 
ATOM     55  C   UNL A   1      43.438  27.245  31.593  1.00  0.00     0.029 A 
ATOM     56  C   UNL A   1      42.695  28.148  32.335  1.00  0.00     0.049 A 
ATOM     57  H   UNL A   1      40.990  29.255  31.767  1.00  0.00     0.167 HD
ATOM     58  C   UNL A   1      42.119  29.461  34.355  1.00  0.00     0.074 A 
ATOM     59  C   UNL A   1      42.323  29.861  35.732  1.00  0.00     0.031 C 
ATOM     60  C   UNL A   1      42.893  28.564  33.699  1.00  0.00     0.037 A 
BRANCH  47  61
ATOM     61  C   UNL A   1      41.103  27.480  27.892  1.00  0.00     0.057 A 
ATOM     62  C   UNL A   1      40.540  26.213  27.693  1.00  0.00     0.134 A 
ATOM     63  C   UNL A   1      41.854  28.026  26.843  1.00  0.00     0.134 A 
ATOM     64  F   UNL A   1      39.820  25.631  28.664  1.00  0.00    -0.206 F 
ATOM     65  C   UNL A   1      40.734  25.506  26.507  1.00  0.00     0.040 A 
ATOM     66  C   UNL A   1      42.036  27.338  25.642  1.00  0.00     0.040 A 
ATOM     67  F   UNL A   1      42.418  29.238  26.967  1.00  0.00    -0.206 F 
ATOM     68  C   UNL A   1      41.480  26.072  25.475  1.00  0.00     0.006 A 
ENDBRANCH  47  61
BRANCH  48  69
ATOM     69  C   UNL A   1      39.170  32.604  36.217  1.00  0.00     0.057 A 
ATOM     70  C   UNL A   1      38.339  32.052  37.199  1.00  0.00     0.134 A 
ATOM     71  C   UNL A   1      39.693  33.880  36.456  1.00  0.00     0.134 A 
ATOM     72  F   UNL A   1      37.792  30.841  37.015  1.00  0.00    -0.206 F 
ATOM     73  C   UNL A   1      38.021  32.750  38.364  1.00  0.00     0.040 A 
ATOM     74  C   UNL A   1      39.400  34.581  37.627  1.00  0.00     0.040 A 
ATOM     75  F   UNL A   1      40.501  34.461  35.556  1.00  0.00    -0.206 F 
ATOM     76  C   UNL A   1      38.555  34.018  38.583  1.00  0.00     0.006 A 
ENDBRANCH  48  69
BRANCH  60  77
ATOM     77  C   UNL A   1      44.052  27.981  34.449  1.00  0.00     0.057 A 
ATOM     78  C   UNL A   1      45.299  28.618  34.488  1.00  0.00     0.134 A 
ATOM     79  C   UNL A   1      43.907  26.792  35.173  1.00  0.00     0.134 A 
ATOM     80  F   UNL A   1      45.504  29.753  33.803  1.00  0.00    -0.206 F 
ATOM     81  C   UNL A   1      46.367  28.081  35.207  1.00  0.00     0.040 A 
ATOM     82  C   UNL A   1      44.962  26.257  35.913  1.00  0.00     0.040 A 
ATOM     83  F   UNL A   1      42.737  26.137  35.181  1.00  0.00    -0.206 F 
ATOM     84  C   UNL A   1      46.198  26.900  35.928  1.00  0.00     0.006 A 
ENDBRANCH  60  77
ENDBRANCH  34  35
ENDBRANCH  26  29
ENDBRANCH  24  25
ENDBRANCH   1  24
TORSDOF 12
ENDMDL
