MODEL 1
REMARK VINA RESULT:     -11.7      0.000      0.000
REMARK SMILES C[C@@H](c1ccc(F)cc1)N1C[C@H](C(=O)NCCCCNC(=O)c2ccc(-c3c4nc(c(-c5c(F)cccc5F)c5ccc([nH]5)c(-c5c(F)cccc5F)c5nc(c(-c6c(F)cccc6F)c6ccc3[nH]6)C=C5)C=C4)cc2)CC1=O
REMARK SMILES IDX 17 1 16 2 15 3 13 4 14 5 12 7 10 8 11 9 78 10 77 11 79 12
REMARK SMILES IDX 2 13 1 14 3 15 4 16 9 17 5 18 8 19 6 20 7 21 18 22 19 23
REMARK SMILES IDX 20 24 21 25 22 27 23 28 24 29 76 30 25 31 75 32 26 33 27 34
REMARK SMILES IDX 28 35 69 36 29 37 74 38 68 39 70 40 30 41 73 42 67 43 66 44
REMARK SMILES IDX 31 46 57 47 40 48 56 49 41 50 44 51 55 52 71 53 42 54 43 55
REMARK SMILES IDX 54 57 72 58 45 59 32 60 33 61 38 62 34 63 35 64 37 65 39 66
REMARK SMILES IDX 36 67 58 68 59 69 64 70 60 71 61 72 63 73 65 74 62 75 46 76
REMARK SMILES IDX 47 77 52 78 48 79 49 80 51 81 53 82 50 83
REMARK H PARENT 15 6 20 26 70 45 44 56
REMARK Flexibility Score: inf
ROOT
ATOM      1  C   UNL A   1      31.678  30.559  26.877  1.00  0.00     0.023 C 
ENDROOT
BRANCH   1   2
ATOM      2  C   UNL A   1      32.535  30.066  25.714  1.00  0.00     0.116 C 
BRANCH   2   3
ATOM      3  N   UNL A   1      31.728  29.727  24.556  1.00  0.00    -0.356 N 
ATOM      4  C   UNL A   1      32.039  28.941  23.486  1.00  0.00     0.225 C 
ATOM      5  O   UNL A   1      31.163  28.734  22.648  1.00  0.00    -0.275 OA
ATOM      6  H   UNL A   1      30.826  30.120  24.541  1.00  0.00     0.163 HD
BRANCH   4   7
ATOM      7  C   UNL A   1      33.425  28.329  23.407  1.00  0.00     0.107 C 
ATOM      8  N   UNL A   1      33.267  25.984  23.470  1.00  0.00    -0.335 N 
ATOM      9  C   UNL A   1      33.567  27.122  24.312  1.00  0.00     0.134 C 
ATOM     10  C   UNL A   1      33.512  26.303  22.141  1.00  0.00     0.223 C 
ATOM     11  C   UNL A   1      33.727  27.787  22.019  1.00  0.00     0.115 C 
ATOM     12  O   UNL A   1      33.622  25.545  21.185  1.00  0.00    -0.275 OA
BRANCH   8  13
ATOM     13  C   UNL A   1      33.140  24.610  23.997  1.00  0.00     0.112 C 
ATOM     14  C   UNL A   1      32.244  23.715  23.120  1.00  0.00     0.036 C 
BRANCH  13  15
ATOM     15  C   UNL A   1      34.501  23.959  24.265  1.00  0.00    -0.026 A 
ATOM     16  C   UNL A   1      35.105  24.134  25.527  1.00  0.00     0.009 A 
ATOM     17  C   UNL A   1      35.196  23.203  23.307  1.00  0.00     0.009 A 
ATOM     18  C   UNL A   1      36.375  23.626  25.804  1.00  0.00     0.039 A 
ATOM     19  C   UNL A   1      36.451  22.656  23.597  1.00  0.00     0.039 A 
ATOM     20  C   UNL A   1      37.036  22.888  24.835  1.00  0.00     0.123 A 
ATOM     21  F   UNL A   1      38.255  22.398  25.096  1.00  0.00    -0.207 F 
ENDBRANCH  13  15
ENDBRANCH   8  13
ENDBRANCH   4   7
ENDBRANCH   2   3
ENDBRANCH   1   2
BRANCH   1  22
ATOM     22  C   UNL A   1      31.466  32.074  26.921  1.00  0.00     0.023 C 
BRANCH  22  23
ATOM     23  C   UNL A   1      32.730  32.899  27.130  1.00  0.00     0.116 C 
BRANCH  23  24
ATOM     24  N   UNL A   1      32.468  34.185  27.755  1.00  0.00    -0.352 N 
ATOM     25  C   UNL A   1      33.146  34.805  28.777  1.00  0.00     0.251 C 
ATOM     26  H   UNL A   1      31.698  34.681  27.395  1.00  0.00     0.163 HD
ATOM     27  O   UNL A   1      32.697  35.830  29.280  1.00  0.00    -0.269 OA
BRANCH  25  28
ATOM     28  C   UNL A   1      34.403  34.219  29.287  1.00  0.00     0.039 A 
ATOM     29  C   UNL A   1      34.358  33.406  30.422  1.00  0.00     0.014 A 
ATOM     30  C   UNL A   1      35.620  34.459  28.643  1.00  0.00     0.014 A 
ATOM     31  C   UNL A   1      35.523  32.789  30.877  1.00  0.00     0.010 A 
ATOM     32  C   UNL A   1      36.764  33.777  29.048  1.00  0.00     0.010 A 
ATOM     33  C   UNL A   1      36.730  32.941  30.174  1.00  0.00    -0.014 A 
BRANCH  33  34
ATOM     34  C   UNL A   1      37.970  32.250  30.610  1.00  0.00     0.031 A 
ATOM     35  C   UNL A   1      38.823  32.844  31.697  1.00  0.00     0.074 A 
ATOM     36  C   UNL A   1      38.357  31.116  29.994  1.00  0.00     0.049 A 
ATOM     37  N   UNL A   1      39.970  32.428  32.168  1.00  0.00    -0.248 NA
ATOM     38  C   UNL A   1      38.334  34.084  32.322  1.00  0.00     0.031 C 
ATOM     39  C   UNL A   1      37.638  30.457  28.902  1.00  0.00     0.029 A 
ATOM     40  N   UNL A   1      39.457  30.318  30.196  1.00  0.00    -0.354 N 
ATOM     41  C   UNL A   1      40.342  33.356  33.132  1.00  0.00     0.074 A 
ATOM     42  C   UNL A   1      39.332  34.390  33.138  1.00  0.00     0.031 C 
ATOM     43  C   UNL A   1      38.296  29.340  28.554  1.00  0.00     0.029 A 
ATOM     44  C   UNL A   1      39.505  29.225  29.364  1.00  0.00     0.049 A 
ATOM     45  H   UNL A   1      40.145  30.510  30.873  1.00  0.00     0.167 HD
ATOM     46  C   UNL A   1      41.414  33.333  33.959  1.00  0.00     0.037 A 
ATOM     47  C   UNL A   1      40.421  28.242  29.262  1.00  0.00     0.037 A 
ATOM     48  C   UNL A   1      42.404  32.290  33.968  1.00  0.00     0.049 A 
ATOM     49  C   UNL A   1      41.615  28.250  30.178  1.00  0.00     0.074 A 
ATOM     50  C   UNL A   1      43.504  32.158  34.797  1.00  0.00     0.029 A 
ATOM     51  N   UNL A   1      42.416  31.200  33.111  1.00  0.00    -0.354 N 
ATOM     52  N   UNL A   1      41.929  29.110  31.115  1.00  0.00    -0.248 NA
ATOM     53  C   UNL A   1      42.577  27.148  30.026  1.00  0.00     0.031 C 
ATOM     54  C   UNL A   1      44.208  31.016  34.410  1.00  0.00     0.029 A 
ATOM     55  C   UNL A   1      43.513  30.401  33.381  1.00  0.00     0.049 A 
ATOM     56  H   UNL A   1      41.743  31.021  32.415  1.00  0.00     0.167 HD
ATOM     57  C   UNL A   1      43.104  28.638  31.687  1.00  0.00     0.074 A 
ATOM     58  C   UNL A   1      43.443  27.411  30.995  1.00  0.00     0.031 C 
ATOM     59  C   UNL A   1      43.832  29.173  32.697  1.00  0.00     0.037 A 
BRANCH  46  60
ATOM     60  C   UNL A   1      41.567  34.461  34.937  1.00  0.00     0.057 A 
ATOM     61  C   UNL A   1      40.961  34.403  36.200  1.00  0.00     0.134 A 
ATOM     62  C   UNL A   1      42.252  35.638  34.605  1.00  0.00     0.134 A 
ATOM     63  F   UNL A   1      40.284  33.309  36.581  1.00  0.00    -0.206 F 
ATOM     64  C   UNL A   1      41.021  35.477  37.089  1.00  0.00     0.040 A 
ATOM     65  C   UNL A   1      42.345  36.707  35.497  1.00  0.00     0.040 A 
ATOM     66  F   UNL A   1      42.864  35.755  33.417  1.00  0.00    -0.206 F 
ATOM     67  C   UNL A   1      41.718  36.632  36.739  1.00  0.00     0.006 A 
ENDBRANCH  46  60
BRANCH  47  68
ATOM     68  C   UNL A   1      40.219  27.148  28.278  1.00  0.00     0.057 A 
ATOM     69  C   UNL A   1      39.472  26.006  28.592  1.00  0.00     0.134 A 
ATOM     70  C   UNL A   1      40.795  27.210  27.004  1.00  0.00     0.134 A 
ATOM     71  F   UNL A   1      38.901  25.881  29.799  1.00  0.00    -0.206 F 
ATOM     72  C   UNL A   1      39.319  24.959  27.682  1.00  0.00     0.040 A 
ATOM     73  C   UNL A   1      40.628  26.182  26.074  1.00  0.00     0.040 A 
ATOM     74  F   UNL A   1      41.507  28.285  26.637  1.00  0.00    -0.206 F 
ATOM     75  C   UNL A   1      39.895  25.048  26.416  1.00  0.00     0.006 A 
ENDBRANCH  47  68
BRANCH  59  76
ATOM     76  C   UNL A   1      45.050  28.424  33.157  1.00  0.00     0.057 A 
ATOM     77  C   UNL A   1      44.949  27.467  34.177  1.00  0.00     0.134 A 
ATOM     78  C   UNL A   1      46.327  28.708  32.662  1.00  0.00     0.134 A 
ATOM     79  F   UNL A   1      43.755  27.156  34.705  1.00  0.00    -0.206 F 
ATOM     80  C   UNL A   1      46.077  26.834  34.699  1.00  0.00     0.040 A 
ATOM     81  C   UNL A   1      47.461  28.061  33.156  1.00  0.00     0.040 A 
ATOM     82  F   UNL A   1      46.492  29.608  31.681  1.00  0.00    -0.206 F 
ATOM     83  C   UNL A   1      47.338  27.129  34.186  1.00  0.00     0.006 A 
ENDBRANCH  59  76
ENDBRANCH  33  34
ENDBRANCH  25  28
ENDBRANCH  23  24
ENDBRANCH  22  23
ENDBRANCH   1  22
TORSDOF 13
ENDMDL
MODEL 2
REMARK VINA RESULT:     -11.7      2.447      7.172
REMARK SMILES C[C@@H](c1ccc(F)cc1)N1C[C@H](C(=O)NCCCCNC(=O)c2ccc(-c3c4nc(c(-c5c(F)cccc5F)c5ccc([nH]5)c(-c5c(F)cccc5F)c5nc(c(-c6c(F)cccc6F)c6ccc3[nH]6)C=C5)C=C4)cc2)CC1=O
REMARK SMILES IDX 17 1 16 2 15 3 13 4 14 5 12 7 10 8 11 9 78 10 77 11 79 12
REMARK SMILES IDX 2 13 1 14 3 15 4 16 9 17 5 18 8 19 6 20 7 21 18 22 19 23
REMARK SMILES IDX 20 24 21 25 22 27 23 28 24 29 76 30 25 31 75 32 26 33 27 34
REMARK SMILES IDX 28 35 69 36 29 37 74 38 68 39 70 40 30 41 73 42 67 43 66 44
REMARK SMILES IDX 31 46 57 47 40 48 56 49 41 50 44 51 55 52 71 53 42 54 43 55
REMARK SMILES IDX 54 57 72 58 45 59 32 60 33 61 38 62 34 63 35 64 37 65 39 66
REMARK SMILES IDX 36 67 58 68 59 69 64 70 60 71 61 72 63 73 65 74 62 75 46 76
REMARK SMILES IDX 47 77 52 78 48 79 49 80 51 81 53 82 50 83
REMARK H PARENT 15 6 20 26 70 45 44 56
REMARK Flexibility Score: inf
ROOT
ATOM      1  C   UNL A   1      31.621  30.611  26.663  1.00  0.00     0.023 C 
ENDROOT
BRANCH   1   2
ATOM      2  C   UNL A   1      33.044  30.091  26.846  1.00  0.00     0.116 C 
BRANCH   2   3
ATOM      3  N   UNL A   1      33.676  29.789  25.575  1.00  0.00    -0.356 N 
ATOM      4  C   UNL A   1      33.727  28.610  24.893  1.00  0.00     0.225 C 
ATOM      5  O   UNL A   1      34.262  28.605  23.787  1.00  0.00    -0.275 OA
ATOM      6  H   UNL A   1      34.133  30.546  25.142  1.00  0.00     0.163 HD
BRANCH   4   7
ATOM      7  C   UNL A   1      33.085  27.381  25.510  1.00  0.00     0.107 C 
ATOM      8  N   UNL A   1      31.279  26.673  24.180  1.00  0.00    -0.335 N 
ATOM      9  C   UNL A   1      31.574  27.408  25.391  1.00  0.00     0.134 C 
ATOM     10  C   UNL A   1      32.314  25.789  23.902  1.00  0.00     0.223 C 
ATOM     11  C   UNL A   1      33.489  26.107  24.786  1.00  0.00     0.115 C 
ATOM     12  O   UNL A   1      32.314  24.838  23.130  1.00  0.00    -0.275 OA
BRANCH   8  13
ATOM     13  C   UNL A   1      29.922  26.587  23.606  1.00  0.00     0.112 C 
ATOM     14  C   UNL A   1      28.895  25.988  24.586  1.00  0.00     0.036 C 
BRANCH  13  15
ATOM     15  C   UNL A   1      29.443  27.925  23.034  1.00  0.00    -0.026 A 
ATOM     16  C   UNL A   1      28.091  28.291  23.190  1.00  0.00     0.009 A 
ATOM     17  C   UNL A   1      30.284  28.810  22.337  1.00  0.00     0.009 A 
ATOM     18  C   UNL A   1      27.583  29.462  22.627  1.00  0.00     0.039 A 
ATOM     19  C   UNL A   1      29.785  30.007  21.808  1.00  0.00     0.039 A 
ATOM     20  C   UNL A   1      28.437  30.312  21.943  1.00  0.00     0.123 A 
ATOM     21  F   UNL A   1      27.955  31.438  21.401  1.00  0.00    -0.207 F 
ENDBRANCH  13  15
ENDBRANCH   8  13
ENDBRANCH   4   7
ENDBRANCH   2   3
ENDBRANCH   1   2
BRANCH   1  22
ATOM     22  C   UNL A   1      31.476  32.133  26.749  1.00  0.00     0.023 C 
BRANCH  22  23
ATOM     23  C   UNL A   1      32.703  32.871  27.270  1.00  0.00     0.116 C 
BRANCH  23  24
ATOM     24  N   UNL A   1      32.416  34.243  27.653  1.00  0.00    -0.352 N 
ATOM     25  C   UNL A   1      33.003  35.010  28.630  1.00  0.00     0.251 C 
ATOM     26  H   UNL A   1      31.702  34.685  27.139  1.00  0.00     0.163 HD
ATOM     27  O   UNL A   1      32.535  36.108  28.915  1.00  0.00    -0.269 OA
BRANCH  25  28
ATOM     28  C   UNL A   1      34.183  34.498  29.357  1.00  0.00     0.039 A 
ATOM     29  C   UNL A   1      33.995  33.861  30.586  1.00  0.00     0.014 A 
ATOM     30  C   UNL A   1      35.468  34.633  28.825  1.00  0.00     0.014 A 
ATOM     31  C   UNL A   1      35.090  33.310  31.254  1.00  0.00     0.010 A 
ATOM     32  C   UNL A   1      36.545  34.011  29.450  1.00  0.00     0.010 A 
ATOM     33  C   UNL A   1      36.369  33.350  30.675  1.00  0.00    -0.014 A 
BRANCH  33  34
ATOM     34  C   UNL A   1      37.538  32.722  31.343  1.00  0.00     0.031 A 
ATOM     35  C   UNL A   1      38.214  31.533  30.719  1.00  0.00     0.074 A 
ATOM     36  C   UNL A   1      37.960  33.189  32.535  1.00  0.00     0.049 A 
ATOM     37  N   UNL A   1      39.202  30.809  31.179  1.00  0.00    -0.248 NA
ATOM     38  C   UNL A   1      37.697  31.082  29.417  1.00  0.00     0.031 C 
ATOM     39  C   UNL A   1      37.368  34.313  33.262  1.00  0.00     0.029 A 
ATOM     40  N   UNL A   1      38.985  32.771  33.348  1.00  0.00    -0.354 N 
ATOM     41  C   UNL A   1      39.415  29.815  30.231  1.00  0.00     0.074 A 
ATOM     42  C   UNL A   1      38.417  29.991  29.200  1.00  0.00     0.031 C 
ATOM     43  C   UNL A   1      38.059  34.517  34.395  1.00  0.00     0.029 A 
ATOM     44  C   UNL A   1      39.113  33.512  34.498  1.00  0.00     0.049 A 
ATOM     45  H   UNL A   1      39.573  32.013  33.128  1.00  0.00     0.167 HD
ATOM     46  C   UNL A   1      40.376  28.862  30.207  1.00  0.00     0.037 A 
ATOM     47  C   UNL A   1      39.980  33.395  35.524  1.00  0.00     0.037 A 
ATOM     48  C   UNL A   1      41.384  28.706  31.222  1.00  0.00     0.049 A 
ATOM     49  C   UNL A   1      41.026  32.314  35.484  1.00  0.00     0.074 A 
ATOM     50  C   UNL A   1      42.425  27.795  31.263  1.00  0.00     0.029 A 
ATOM     51  N   UNL A   1      41.480  29.478  32.369  1.00  0.00    -0.354 N 
ATOM     52  N   UNL A   1      41.243  31.411  34.559  1.00  0.00    -0.248 NA
ATOM     53  C   UNL A   1      41.949  32.239  36.625  1.00  0.00     0.031 C 
ATOM     54  C   UNL A   1      43.121  27.983  32.460  1.00  0.00     0.029 A 
ATOM     55  C   UNL A   1      42.553  29.052  33.134  1.00  0.00     0.049 A 
ATOM     56  H   UNL A   1      40.876  30.219  32.604  1.00  0.00     0.167 HD
ATOM     57  C   UNL A   1      42.346  30.683  34.989  1.00  0.00     0.074 A 
ATOM     58  C   UNL A   1      42.757  31.255  36.254  1.00  0.00     0.031 C 
ATOM     59  C   UNL A   1      42.963  29.639  34.385  1.00  0.00     0.037 A 
BRANCH  46  60
ATOM     60  C   UNL A   1      40.397  27.920  29.039  1.00  0.00     0.057 A 
ATOM     61  C   UNL A   1      41.144  28.218  27.890  1.00  0.00     0.134 A 
ATOM     62  C   UNL A   1      39.622  26.752  29.019  1.00  0.00     0.134 A 
ATOM     63  F   UNL A   1      41.903  29.322  27.838  1.00  0.00    -0.206 F 
ATOM     64  C   UNL A   1      41.107  27.396  26.763  1.00  0.00     0.040 A 
ATOM     65  C   UNL A   1      39.602  25.907  27.909  1.00  0.00     0.040 A 
ATOM     66  F   UNL A   1      38.894  26.402  30.090  1.00  0.00    -0.206 F 
ATOM     67  C   UNL A   1      40.337  26.235  26.771  1.00  0.00     0.006 A 
ENDBRANCH  46  60
BRANCH  47  68
ATOM     68  C   UNL A   1      39.917  34.356  36.653  1.00  0.00     0.057 A 
ATOM     69  C   UNL A   1      39.175  34.084  37.810  1.00  0.00     0.134 A 
ATOM     70  C   UNL A   1      40.582  35.587  36.590  1.00  0.00     0.134 A 
ATOM     71  F   UNL A   1      38.509  32.927  37.929  1.00  0.00    -0.206 F 
ATOM     72  C   UNL A   1      39.081  35.007  38.853  1.00  0.00     0.040 A 
ATOM     73  C   UNL A   1      40.518  36.508  37.637  1.00  0.00     0.040 A 
ATOM     74  F   UNL A   1      41.323  35.899  35.517  1.00  0.00    -0.206 F 
ATOM     75  C   UNL A   1      39.759  36.222  38.770  1.00  0.00     0.006 A 
ENDBRANCH  47  68
BRANCH  59  76
ATOM     76  C   UNL A   1      44.177  29.060  35.052  1.00  0.00     0.057 A 
ATOM     77  C   UNL A   1      45.460  29.494  34.687  1.00  0.00     0.134 A 
ATOM     78  C   UNL A   1      44.088  28.018  35.982  1.00  0.00     0.134 A 
ATOM     79  F   UNL A   1      45.617  30.480  33.792  1.00  0.00    -0.206 F 
ATOM     80  C   UNL A   1      46.608  28.900  35.210  1.00  0.00     0.040 A 
ATOM     81  C   UNL A   1      45.230  27.435  36.535  1.00  0.00     0.040 A 
ATOM     82  F   UNL A   1      42.891  27.562  36.379  1.00  0.00    -0.206 F 
ATOM     83  C   UNL A   1      46.495  27.868  36.140  1.00  0.00     0.006 A 
ENDBRANCH  59  76
ENDBRANCH  33  34
ENDBRANCH  25  28
ENDBRANCH  23  24
ENDBRANCH  22  23
ENDBRANCH   1  22
TORSDOF 13
ENDMDL
MODEL 3
REMARK VINA RESULT:     -11.7      4.160      9.052
REMARK SMILES C[C@@H](c1ccc(F)cc1)N1C[C@H](C(=O)NCCCCNC(=O)c2ccc(-c3c4nc(c(-c5c(F)cccc5F)c5ccc([nH]5)c(-c5c(F)cccc5F)c5nc(c(-c6c(F)cccc6F)c6ccc3[nH]6)C=C5)C=C4)cc2)CC1=O
REMARK SMILES IDX 17 1 16 2 15 3 13 4 14 5 12 7 10 8 11 9 78 10 77 11 79 12
REMARK SMILES IDX 2 13 1 14 3 15 4 16 9 17 5 18 8 19 6 20 7 21 18 22 19 23
REMARK SMILES IDX 20 24 21 25 22 27 23 28 24 29 76 30 25 31 75 32 26 33 27 34
REMARK SMILES IDX 28 35 69 36 29 37 74 38 68 39 70 40 30 41 73 42 67 43 66 44
REMARK SMILES IDX 31 46 57 47 40 48 56 49 41 50 44 51 55 52 71 53 42 54 43 55
REMARK SMILES IDX 54 57 72 58 45 59 32 60 33 61 38 62 34 63 35 64 37 65 39 66
REMARK SMILES IDX 36 67 58 68 59 69 64 70 60 71 61 72 63 73 65 74 62 75 46 76
REMARK SMILES IDX 47 77 52 78 48 79 49 80 51 81 53 82 50 83
REMARK H PARENT 15 6 20 26 70 45 44 56
REMARK Flexibility Score: inf
ROOT
ATOM      1  C   UNL A   1      36.426  20.444  25.016  1.00  0.00     0.023 C 
ENDROOT
BRANCH   1   2
ATOM      2  C   UNL A   1      36.469  21.803  25.711  1.00  0.00     0.116 C 
BRANCH   2   3
ATOM      3  N   UNL A   1      35.567  21.857  26.846  1.00  0.00    -0.356 N 
ATOM      4  C   UNL A   1      34.497  22.674  27.063  1.00  0.00     0.225 C 
ATOM      5  O   UNL A   1      33.826  22.491  28.076  1.00  0.00    -0.275 OA
ATOM      6  H   UNL A   1      35.753  21.209  27.563  1.00  0.00     0.163 HD
BRANCH   4   7
ATOM      7  C   UNL A   1      34.166  23.733  26.027  1.00  0.00     0.107 C 
ATOM      8  N   UNL A   1      32.675  22.851  24.436  1.00  0.00    -0.335 N 
ATOM      9  C   UNL A   1      34.077  23.153  24.629  1.00  0.00     0.134 C 
ATOM     10  C   UNL A   1      31.901  23.655  25.263  1.00  0.00     0.223 C 
ATOM     11  C   UNL A   1      32.793  24.344  26.260  1.00  0.00     0.115 C 
ATOM     12  O   UNL A   1      30.697  23.871  25.203  1.00  0.00    -0.275 OA
BRANCH   8  13
ATOM     13  C   UNL A   1      32.168  22.124  23.255  1.00  0.00     0.112 C 
ATOM     14  C   UNL A   1      32.774  22.635  21.934  1.00  0.00     0.036 C 
BRANCH  13  15
ATOM     15  C   UNL A   1      32.315  20.606  23.395  1.00  0.00    -0.026 A 
ATOM     16  C   UNL A   1      32.608  20.061  24.661  1.00  0.00     0.009 A 
ATOM     17  C   UNL A   1      32.190  19.716  22.313  1.00  0.00     0.009 A 
ATOM     18  C   UNL A   1      32.824  18.694  24.835  1.00  0.00     0.039 A 
ATOM     19  C   UNL A   1      32.364  18.339  22.494  1.00  0.00     0.039 A 
ATOM     20  C   UNL A   1      32.698  17.844  23.747  1.00  0.00     0.123 A 
ATOM     21  F   UNL A   1      32.903  16.530  23.908  1.00  0.00    -0.207 F 
ENDBRANCH  13  15
ENDBRANCH   8  13
ENDBRANCH   4   7
ENDBRANCH   2   3
ENDBRANCH   1   2
BRANCH   1  22
ATOM     22  C   UNL A   1      37.795  19.815  24.750  1.00  0.00     0.023 C 
BRANCH  22  23
ATOM     23  C   UNL A   1      38.882  20.183  25.752  1.00  0.00     0.116 C 
BRANCH  23  24
ATOM     24  N   UNL A   1      39.994  19.246  25.747  1.00  0.00    -0.352 N 
ATOM     25  C   UNL A   1      41.316  19.470  26.047  1.00  0.00     0.251 C 
ATOM     26  H   UNL A   1      39.768  18.322  25.495  1.00  0.00     0.163 HD
ATOM     27  O   UNL A   1      42.150  18.592  25.851  1.00  0.00    -0.269 OA
BRANCH  25  28
ATOM     28  C   UNL A   1      41.737  20.783  26.582  1.00  0.00     0.039 A 
ATOM     29  C   UNL A   1      42.261  21.733  25.703  1.00  0.00     0.014 A 
ATOM     30  C   UNL A   1      41.604  21.080  27.941  1.00  0.00     0.014 A 
ATOM     31  C   UNL A   1      42.599  23.002  26.178  1.00  0.00     0.010 A 
ATOM     32  C   UNL A   1      41.862  22.370  28.396  1.00  0.00     0.010 A 
ATOM     33  C   UNL A   1      42.370  23.342  27.521  1.00  0.00    -0.014 A 
BRANCH  33  34
ATOM     34  C   UNL A   1      42.672  24.703  28.035  1.00  0.00     0.031 A 
ATOM     35  C   UNL A   1      44.080  25.071  28.413  1.00  0.00     0.074 A 
ATOM     36  C   UNL A   1      41.672  25.590  28.211  1.00  0.00     0.049 A 
ATOM     37  N   UNL A   1      44.530  26.180  28.940  1.00  0.00    -0.248 NA
ATOM     38  C   UNL A   1      45.116  24.049  28.193  1.00  0.00     0.031 C 
ATOM     39  C   UNL A   1      40.260  25.343  27.916  1.00  0.00     0.029 A 
ATOM     40  N   UNL A   1      41.692  26.878  28.685  1.00  0.00    -0.354 N 
ATOM     41  C   UNL A   1      45.894  25.986  29.122  1.00  0.00     0.074 A 
ATOM     42  C   UNL A   1      46.188  24.633  28.707  1.00  0.00     0.031 C 
ATOM     43  C   UNL A   1      39.555  26.454  28.184  1.00  0.00     0.029 A 
ATOM     44  C   UNL A   1      40.455  27.476  28.710  1.00  0.00     0.049 A 
ATOM     45  H   UNL A   1      42.515  27.332  28.978  1.00  0.00     0.167 HD
ATOM     46  C   UNL A   1      46.821  26.866  29.566  1.00  0.00     0.037 A 
ATOM     47  C   UNL A   1      40.085  28.707  29.115  1.00  0.00     0.037 A 
ATOM     48  C   UNL A   1      46.529  28.220  29.955  1.00  0.00     0.049 A 
ATOM     49  C   UNL A   1      41.132  29.660  29.625  1.00  0.00     0.074 A 
ATOM     50  C   UNL A   1      47.409  29.200  30.379  1.00  0.00     0.029 A 
ATOM     51  N   UNL A   1      45.264  28.787  29.964  1.00  0.00    -0.354 N 
ATOM     52  N   UNL A   1      42.423  29.476  29.749  1.00  0.00    -0.248 NA
ATOM     53  C   UNL A   1      40.670  30.991  30.046  1.00  0.00     0.031 C 
ATOM     54  C   UNL A   1      46.671  30.343  30.693  1.00  0.00     0.029 A 
ATOM     55  C   UNL A   1      45.338  30.097  30.404  1.00  0.00     0.049 A 
ATOM     56  H   UNL A   1      44.436  28.326  29.697  1.00  0.00     0.167 HD
ATOM     57  C   UNL A   1      42.935  30.677  30.228  1.00  0.00     0.074 A 
ATOM     58  C   UNL A   1      41.813  31.583  30.366  1.00  0.00     0.031 C 
ATOM     59  C   UNL A   1      44.217  30.996  30.523  1.00  0.00     0.037 A 
BRANCH  46  60
ATOM     60  C   UNL A   1      48.246  26.401  29.643  1.00  0.00     0.057 A 
ATOM     61  C   UNL A   1      48.749  25.819  30.815  1.00  0.00     0.134 A 
ATOM     62  C   UNL A   1      49.143  26.594  28.583  1.00  0.00     0.134 A 
ATOM     63  F   UNL A   1      47.948  25.612  31.871  1.00  0.00    -0.206 F 
ATOM     64  C   UNL A   1      50.093  25.460  30.933  1.00  0.00     0.040 A 
ATOM     65  C   UNL A   1      50.481  26.210  28.679  1.00  0.00     0.040 A 
ATOM     66  F   UNL A   1      48.724  27.134  27.429  1.00  0.00    -0.206 F 
ATOM     67  C   UNL A   1      50.962  25.652  29.862  1.00  0.00     0.006 A 
ENDBRANCH  46  60
BRANCH  47  68
ATOM     68  C   UNL A   1      38.661  29.117  29.015  1.00  0.00     0.057 A 
ATOM     69  C   UNL A   1      38.121  29.610  27.821  1.00  0.00     0.134 A 
ATOM     70  C   UNL A   1      37.812  29.047  30.126  1.00  0.00     0.134 A 
ATOM     71  F   UNL A   1      38.884  29.709  26.723  1.00  0.00    -0.206 F 
ATOM     72  C   UNL A   1      36.794  30.036  27.740  1.00  0.00     0.040 A 
ATOM     73  C   UNL A   1      36.476  29.445  30.052  1.00  0.00     0.040 A 
ATOM     74  F   UNL A   1      38.266  28.568  31.293  1.00  0.00    -0.206 F 
ATOM     75  C   UNL A   1      35.965  29.949  28.858  1.00  0.00     0.006 A 
ENDBRANCH  47  68
BRANCH  59  76
ATOM     76  C   UNL A   1      44.503  32.396  30.985  1.00  0.00     0.057 A 
ATOM     77  C   UNL A   1      44.814  33.400  30.055  1.00  0.00     0.134 A 
ATOM     78  C   UNL A   1      44.562  32.732  32.342  1.00  0.00     0.134 A 
ATOM     79  F   UNL A   1      44.789  33.141  28.739  1.00  0.00    -0.206 F 
ATOM     80  C   UNL A   1      45.189  34.680  30.461  1.00  0.00     0.040 A 
ATOM     81  C   UNL A   1      44.908  34.019  32.760  1.00  0.00     0.040 A 
ATOM     82  F   UNL A   1      44.269  31.821  33.282  1.00  0.00    -0.206 F 
ATOM     83  C   UNL A   1      45.234  34.994  31.818  1.00  0.00     0.006 A 
ENDBRANCH  59  76
ENDBRANCH  33  34
ENDBRANCH  25  28
ENDBRANCH  23  24
ENDBRANCH  22  23
ENDBRANCH   1  22
TORSDOF 13
ENDMDL
