MODEL 1
REMARK VINA RESULT:     -12.5      0.000      0.000
REMARK SMILES CCc1cc(=O)oc2c3c(cc(OCC(=O)NCC(=O)NCCCCNC(=O)c4ccc(-c5c6nc(c(-c7c(F)cccc7F)c7ccc([nH]7)c(-c7c(F)cccc7F)c7nc(c(-c8c(F)cccc8F)c8ccc5[nH]8)C=C7)C=C6)cc4)c12)OC(C)(C)CC3
REMARK SMILES IDX 22 1 21 2 19 3 20 4 18 6 17 7 15 8 16 9 14 11 13 12 12 13
REMARK SMILES IDX 3 14 4 15 83 16 5 17 8 18 6 19 7 20 9 21 11 22 10 23 89 24
REMARK SMILES IDX 84 25 88 26 85 27 86 28 87 29 2 30 1 31 23 32 24 33 25 34
REMARK SMILES IDX 26 35 27 36 28 38 29 39 30 40 82 41 31 42 81 43 32 44 33 45
REMARK SMILES IDX 34 46 75 47 35 48 80 49 74 50 76 51 36 52 79 53 73 54 72 55
REMARK SMILES IDX 37 57 63 58 46 59 62 60 47 61 50 62 61 63 77 64 48 65 49 66
REMARK SMILES IDX 60 68 78 69 51 70 38 71 39 72 44 73 40 74 41 75 43 76 45 77
REMARK SMILES IDX 42 78 64 79 65 80 70 81 66 82 67 83 69 84 71 85 68 86 52 87
REMARK SMILES IDX 53 88 58 89 54 90 55 91 57 92 59 93 56 94
REMARK H PARENT 21 5 17 10 26 37 76 56 50 67
REMARK Flexibility Score: inf
ROOT
ATOM      1  C   UNL A   1      34.413  32.272  28.202  1.00  0.00     0.116 C 
ENDROOT
BRANCH   1   2
ATOM      2  N   UNL A   1      35.691  31.602  28.138  1.00  0.00    -0.355 N 
ATOM      3  C   UNL A   1      35.959  30.332  27.711  1.00  0.00     0.239 C 
ATOM      4  O   UNL A   1      37.134  30.041  27.474  1.00  0.00    -0.273 OA
ATOM      5  H   UNL A   1      36.467  32.127  28.442  1.00  0.00     0.163 HD
BRANCH   3   6
ATOM      6  C   UNL A   1      34.825  29.345  27.390  1.00  0.00     0.216 C 
BRANCH   6   7
ATOM      7  N   UNL A   1      34.213  29.525  26.086  1.00  0.00    -0.344 N 
ATOM      8  C   UNL A   1      33.018  29.057  25.635  1.00  0.00     0.258 C 
ATOM      9  O   UNL A   1      32.570  29.545  24.594  1.00  0.00    -0.271 OA
ATOM     10  H   UNL A   1      34.734  30.058  25.442  1.00  0.00     0.164 HD
BRANCH   8  11
ATOM     11  C   UNL A   1      32.243  27.961  26.403  1.00  0.00     0.329 C 
BRANCH  11  12
ATOM     12  O   UNL A   1      31.924  26.737  25.749  1.00  0.00    -0.483 OA
BRANCH  12  13
ATOM     13  C   UNL A   1      32.881  26.085  25.016  1.00  0.00     0.135 A 
ATOM     14  C   UNL A   1      31.617  26.632  22.797  1.00  0.00    -0.026 A 
ATOM     15  C   UNL A   1      31.555  26.326  21.488  1.00  0.00     0.098 A 
ATOM     16  C   UNL A   1      32.727  26.039  23.612  1.00  0.00     0.063 A 
ATOM     17  C   UNL A   1      32.567  25.566  20.760  1.00  0.00     0.336 A 
ATOM     18  C   UNL A   1      33.685  25.259  22.921  1.00  0.00     0.149 A 
ATOM     19  O   UNL A   1      32.436  25.345  19.561  1.00  0.00    -0.246 OA
ATOM     20  O   UNL A   1      33.656  25.178  21.507  1.00  0.00    -0.422 OA
ATOM     21  C   UNL A   1      34.668  24.456  23.552  1.00  0.00     0.038 A 
ATOM     22  C   UNL A   1      33.941  25.388  25.636  1.00  0.00     0.094 A 
ATOM     23  C   UNL A   1      34.765  24.516  24.928  1.00  0.00     0.130 A 
ATOM     24  C   UNL A   1      35.492  23.447  22.804  1.00  0.00     0.047 C 
ATOM     25  O   UNL A   1      35.605  23.739  25.680  1.00  0.00    -0.487 OA
ATOM     26  C   UNL A   1      36.615  22.855  23.636  1.00  0.00     0.053 C 
ATOM     27  C   UNL A   1      36.133  22.550  25.058  1.00  0.00     0.104 C 
ATOM     28  C   UNL A   1      37.341  22.115  25.900  1.00  0.00     0.056 C 
ATOM     29  C   UNL A   1      35.098  21.412  25.125  1.00  0.00     0.056 C 
BRANCH  14  30
ATOM     30  C   UNL A   1      30.593  27.645  23.279  1.00  0.00     0.033 C 
ATOM     31  C   UNL A   1      29.157  27.201  23.501  1.00  0.00     0.009 C 
ENDBRANCH  14  30
ENDBRANCH  12  13
ENDBRANCH  11  12
ENDBRANCH   8  11
ENDBRANCH   6   7
ENDBRANCH   3   6
ENDBRANCH   1   2
BRANCH   1  32
ATOM     32  C   UNL A   1      34.411  33.482  29.123  1.00  0.00     0.023 C 
BRANCH  32  33
ATOM     33  C   UNL A   1      33.251  34.459  28.926  1.00  0.00     0.023 C 
BRANCH  33  34
ATOM     34  C   UNL A   1      33.482  35.893  29.408  1.00  0.00     0.116 C 
BRANCH  34  35
ATOM     35  N   UNL A   1      32.631  36.275  30.526  1.00  0.00    -0.352 N 
ATOM     36  C   UNL A   1      32.734  35.980  31.860  1.00  0.00     0.251 C 
ATOM     37  H   UNL A   1      31.857  36.835  30.285  1.00  0.00     0.163 HD
ATOM     38  O   UNL A   1      31.904  36.341  32.695  1.00  0.00    -0.269 OA
BRANCH  36  39
ATOM     39  C   UNL A   1      33.810  35.162  32.367  1.00  0.00     0.039 A 
ATOM     40  C   UNL A   1      33.470  33.885  32.833  1.00  0.00     0.014 A 
ATOM     41  C   UNL A   1      35.102  35.671  32.435  1.00  0.00     0.014 A 
ATOM     42  C   UNL A   1      34.464  33.066  33.319  1.00  0.00     0.010 A 
ATOM     43  C   UNL A   1      36.105  34.828  32.847  1.00  0.00     0.010 A 
ATOM     44  C   UNL A   1      35.780  33.531  33.285  1.00  0.00    -0.014 A 
BRANCH  44  45
ATOM     45  C   UNL A   1      36.884  32.684  33.723  1.00  0.00     0.031 A 
ATOM     46  C   UNL A   1      37.524  33.008  35.029  1.00  0.00     0.074 A 
ATOM     47  C   UNL A   1      37.357  31.787  32.847  1.00  0.00     0.049 A 
ATOM     48  N   UNL A   1      38.677  32.626  35.493  1.00  0.00    -0.248 NA
ATOM     49  C   UNL A   1      36.793  33.950  35.898  1.00  0.00     0.031 C 
ATOM     50  C   UNL A   1      36.765  31.486  31.538  1.00  0.00     0.029 A 
ATOM     51  N   UNL A   1      38.469  31.000  32.901  1.00  0.00    -0.354 N 
ATOM     52  C   UNL A   1      38.836  33.318  36.686  1.00  0.00     0.074 A 
ATOM     53  C   UNL A   1      37.680  34.167  36.856  1.00  0.00     0.031 C 
ATOM     54  C   UNL A   1      37.532  30.584  30.907  1.00  0.00     0.029 A 
ATOM     55  C   UNL A   1      38.682  30.287  31.748  1.00  0.00     0.049 A 
ATOM     56  H   UNL A   1      39.059  30.949  33.687  1.00  0.00     0.167 HD
ATOM     57  C   UNL A   1      39.871  33.228  37.551  1.00  0.00     0.037 A 
ATOM     58  C   UNL A   1      39.719  29.502  31.420  1.00  0.00     0.037 A 
ATOM     59  C   UNL A   1      40.979  32.339  37.329  1.00  0.00     0.049 A 
ATOM     60  C   UNL A   1      40.815  29.359  32.435  1.00  0.00     0.074 A 
ATOM     61  C   UNL A   1      42.073  32.091  38.132  1.00  0.00     0.029 A 
ATOM     62  N   UNL A   1      41.112  31.532  36.201  1.00  0.00    -0.354 N 
ATOM     63  N   UNL A   1      40.958  29.986  33.581  1.00  0.00    -0.248 NA
ATOM     64  C   UNL A   1      41.877  28.399  32.129  1.00  0.00     0.031 C 
ATOM     65  C   UNL A   1      42.877  31.146  37.483  1.00  0.00     0.029 A 
ATOM     66  C   UNL A   1      42.267  30.779  36.290  1.00  0.00     0.049 A 
ATOM     67  H   UNL A   1      40.477  31.503  35.450  1.00  0.00     0.167 HD
ATOM     68  C   UNL A   1      42.115  29.481  34.149  1.00  0.00     0.074 A 
ATOM     69  C   UNL A   1      42.625  28.487  33.220  1.00  0.00     0.031 C 
ATOM     70  C   UNL A   1      42.711  29.802  35.326  1.00  0.00     0.037 A 
BRANCH  57  71
ATOM     71  C   UNL A   1      39.832  34.107  38.765  1.00  0.00     0.057 A 
ATOM     72  C   UNL A   1      39.242  33.688  39.967  1.00  0.00     0.134 A 
ATOM     73  C   UNL A   1      40.359  35.404  38.730  1.00  0.00     0.134 A 
ATOM     74  F   UNL A   1      38.695  32.466  40.066  1.00  0.00    -0.206 F 
ATOM     75  C   UNL A   1      39.144  34.536  41.073  1.00  0.00     0.040 A 
ATOM     76  C   UNL A   1      40.294  36.252  39.839  1.00  0.00     0.040 A 
ATOM     77  F   UNL A   1      40.934  35.876  37.614  1.00  0.00    -0.206 F 
ATOM     78  C   UNL A   1      39.676  35.821  41.011  1.00  0.00     0.006 A 
ENDBRANCH  57  71
BRANCH  58  79
ATOM     79  C   UNL A   1      39.718  28.781  30.126  1.00  0.00     0.057 A 
ATOM     80  C   UNL A   1      40.351  29.330  29.005  1.00  0.00     0.134 A 
ATOM     81  C   UNL A   1      39.163  27.503  29.989  1.00  0.00     0.134 A 
ATOM     82  F   UNL A   1      40.906  30.549  29.075  1.00  0.00    -0.206 F 
ATOM     83  C   UNL A   1      40.422  28.643  27.792  1.00  0.00     0.040 A 
ATOM     84  C   UNL A   1      39.242  26.795  28.788  1.00  0.00     0.040 A 
ATOM     85  F   UNL A   1      38.566  26.908  31.032  1.00  0.00    -0.206 F 
ATOM     86  C   UNL A   1      39.871  27.367  27.683  1.00  0.00     0.006 A 
ENDBRANCH  58  79
BRANCH  70  87
ATOM     87  C   UNL A   1      43.953  29.041  35.659  1.00  0.00     0.057 A 
ATOM     88  C   UNL A   1      43.907  27.844  36.381  1.00  0.00     0.134 A 
ATOM     89  C   UNL A   1      45.200  29.496  35.216  1.00  0.00     0.134 A 
ATOM     90  F   UNL A   1      42.738  27.372  36.841  1.00  0.00    -0.206 F 
ATOM     91  C   UNL A   1      45.068  27.131  36.672  1.00  0.00     0.040 A 
ATOM     92  C   UNL A   1      46.365  28.780  35.481  1.00  0.00     0.040 A 
ATOM     93  F   UNL A   1      45.300  30.635  34.514  1.00  0.00    -0.206 F 
ATOM     94  C   UNL A   1      46.301  27.597  36.215  1.00  0.00     0.006 A 
ENDBRANCH  70  87
ENDBRANCH  44  45
ENDBRANCH  36  39
ENDBRANCH  34  35
ENDBRANCH  33  34
ENDBRANCH  32  33
ENDBRANCH   1  32
TORSDOF 16
ENDMDL
MODEL 2
REMARK VINA RESULT:     -12.1      5.945     10.430
REMARK SMILES CCc1cc(=O)oc2c3c(cc(OCC(=O)NCC(=O)NCCCCNC(=O)c4ccc(-c5c6nc(c(-c7c(F)cccc7F)c7ccc([nH]7)c(-c7c(F)cccc7F)c7nc(c(-c8c(F)cccc8F)c8ccc5[nH]8)C=C7)C=C6)cc4)c12)OC(C)(C)CC3
REMARK SMILES IDX 22 1 21 2 19 3 20 4 18 6 17 7 15 8 16 9 14 11 13 12 12 13
REMARK SMILES IDX 3 14 4 15 83 16 5 17 8 18 6 19 7 20 9 21 11 22 10 23 89 24
REMARK SMILES IDX 84 25 88 26 85 27 86 28 87 29 2 30 1 31 23 32 24 33 25 34
REMARK SMILES IDX 26 35 27 36 28 38 29 39 30 40 82 41 31 42 81 43 32 44 33 45
REMARK SMILES IDX 34 46 75 47 35 48 80 49 74 50 76 51 36 52 79 53 73 54 72 55
REMARK SMILES IDX 37 57 63 58 46 59 62 60 47 61 50 62 61 63 77 64 48 65 49 66
REMARK SMILES IDX 60 68 78 69 51 70 38 71 39 72 44 73 40 74 41 75 43 76 45 77
REMARK SMILES IDX 42 78 64 79 65 80 70 81 66 82 67 83 69 84 71 85 68 86 52 87
REMARK SMILES IDX 53 88 58 89 54 90 55 91 57 92 59 93 56 94
REMARK H PARENT 21 5 17 10 26 37 76 56 50 67
REMARK Flexibility Score: inf
ROOT
ATOM      1  C   UNL A   1      38.294  23.880  26.170  1.00  0.00     0.116 C 
ENDROOT
BRANCH   1   2
ATOM      2  N   UNL A   1      37.564  23.591  24.957  1.00  0.00    -0.355 N 
ATOM      3  C   UNL A   1      36.212  23.618  24.759  1.00  0.00     0.239 C 
ATOM      4  O   UNL A   1      35.802  23.610  23.595  1.00  0.00    -0.273 OA
ATOM      5  H   UNL A   1      38.109  23.343  24.175  1.00  0.00     0.163 HD
BRANCH   3   6
ATOM      6  C   UNL A   1      35.238  23.803  25.934  1.00  0.00     0.216 C 
BRANCH   6   7
ATOM      7  N   UNL A   1      34.966  22.596  26.693  1.00  0.00    -0.344 N 
ATOM      8  C   UNL A   1      33.781  22.160  27.203  1.00  0.00     0.258 C 
ATOM      9  O   UNL A   1      33.719  20.988  27.581  1.00  0.00    -0.271 OA
ATOM     10  H   UNL A   1      35.742  22.014  26.861  1.00  0.00     0.164 HD
BRANCH   8  11
ATOM     11  C   UNL A   1      32.554  23.097  27.297  1.00  0.00     0.329 C 
BRANCH  11  12
ATOM     12  O   UNL A   1      31.791  23.374  26.128  1.00  0.00    -0.483 OA
BRANCH  12  13
ATOM     13  C   UNL A   1      31.842  24.619  25.557  1.00  0.00     0.135 A 
ATOM     14  C   UNL A   1      32.306  23.572  23.210  1.00  0.00    -0.026 A 
ATOM     15  C   UNL A   1      32.704  23.865  21.958  1.00  0.00     0.098 A 
ATOM     16  C   UNL A   1      32.088  24.704  24.168  1.00  0.00     0.063 A 
ATOM     17  C   UNL A   1      32.812  25.214  21.411  1.00  0.00     0.336 A 
ATOM     18  C   UNL A   1      32.240  26.015  23.658  1.00  0.00     0.149 A 
ATOM     19  O   UNL A   1      33.171  25.388  20.252  1.00  0.00    -0.246 OA
ATOM     20  O   UNL A   1      32.445  26.224  22.271  1.00  0.00    -0.422 OA
ATOM     21  C   UNL A   1      32.282  27.185  24.457  1.00  0.00     0.038 A 
ATOM     22  C   UNL A   1      31.755  25.794  26.335  1.00  0.00     0.094 A 
ATOM     23  C   UNL A   1      32.059  27.049  25.813  1.00  0.00     0.130 A 
ATOM     24  C   UNL A   1      32.702  28.522  23.915  1.00  0.00     0.047 C 
ATOM     25  O   UNL A   1      32.151  28.071  26.720  1.00  0.00    -0.487 OA
ATOM     26  C   UNL A   1      32.475  29.662  24.891  1.00  0.00     0.053 C 
ATOM     27  C   UNL A   1      32.875  29.249  26.310  1.00  0.00     0.104 C 
ATOM     28  C   UNL A   1      32.470  30.370  27.278  1.00  0.00     0.056 C 
ATOM     29  C   UNL A   1      34.390  29.025  26.480  1.00  0.00     0.056 C 
BRANCH  14  30
ATOM     30  C   UNL A   1      32.020  22.104  23.476  1.00  0.00     0.033 C 
ATOM     31  C   UNL A   1      33.171  21.172  23.817  1.00  0.00     0.009 C 
ENDBRANCH  14  30
ENDBRANCH  12  13
ENDBRANCH  11  12
ENDBRANCH   8  11
ENDBRANCH   6   7
ENDBRANCH   3   6
ENDBRANCH   1   2
BRANCH   1  32
ATOM     32  C   UNL A   1      39.321  22.816  26.523  1.00  0.00     0.023 C 
BRANCH  32  33
ATOM     33  C   UNL A   1      39.203  21.502  25.747  1.00  0.00     0.023 C 
BRANCH  33  34
ATOM     34  C   UNL A   1      39.465  20.220  26.540  1.00  0.00     0.116 C 
BRANCH  34  35
ATOM     35  N   UNL A   1      40.557  19.419  26.006  1.00  0.00    -0.352 N 
ATOM     36  C   UNL A   1      41.897  19.691  25.923  1.00  0.00     0.251 C 
ATOM     37  H   UNL A   1      40.290  18.541  25.647  1.00  0.00     0.163 HD
ATOM     38  O   UNL A   1      42.708  18.926  25.398  1.00  0.00    -0.269 OA
BRANCH  36  39
ATOM     39  C   UNL A   1      42.441  20.941  26.398  1.00  0.00     0.039 A 
ATOM     40  C   UNL A   1      42.843  21.867  25.427  1.00  0.00     0.014 A 
ATOM     41  C   UNL A   1      42.603  21.158  27.761  1.00  0.00     0.014 A 
ATOM     42  C   UNL A   1      43.360  23.076  25.833  1.00  0.00     0.010 A 
ATOM     43  C   UNL A   1      43.047  22.393  28.168  1.00  0.00     0.010 A 
ATOM     44  C   UNL A   1      43.421  23.344  27.202  1.00  0.00    -0.014 A 
BRANCH  44  45
ATOM     45  C   UNL A   1      43.897  24.633  27.692  1.00  0.00     0.031 A 
ATOM     46  C   UNL A   1      42.874  25.624  28.127  1.00  0.00     0.074 A 
ATOM     47  C   UNL A   1      45.203  24.900  27.554  1.00  0.00     0.049 A 
ATOM     48  N   UNL A   1      42.999  26.907  28.306  1.00  0.00    -0.248 NA
ATOM     49  C   UNL A   1      41.505  25.109  28.317  1.00  0.00     0.031 C 
ATOM     50  C   UNL A   1      46.218  23.950  27.085  1.00  0.00     0.029 A 
ATOM     51  N   UNL A   1      45.893  26.060  27.746  1.00  0.00    -0.354 N 
ATOM     52  C   UNL A   1      41.718  27.363  28.581  1.00  0.00     0.074 A 
ATOM     53  C   UNL A   1      40.826  26.228  28.511  1.00  0.00     0.031 C 
ATOM     54  C   UNL A   1      47.404  24.573  27.014  1.00  0.00     0.029 A 
ATOM     55  C   UNL A   1      47.215  25.967  27.388  1.00  0.00     0.049 A 
ATOM     56  H   UNL A   1      45.485  26.881  28.104  1.00  0.00     0.167 HD
ATOM     57  C   UNL A   1      41.345  28.630  28.869  1.00  0.00     0.037 A 
ATOM     58  C   UNL A   1      48.150  26.929  27.350  1.00  0.00     0.037 A 
ATOM     59  C   UNL A   1      42.295  29.707  28.948  1.00  0.00     0.049 A 
ATOM     60  C   UNL A   1      47.724  28.310  27.753  1.00  0.00     0.074 A 
ATOM     61  C   UNL A   1      42.087  31.029  29.282  1.00  0.00     0.029 A 
ATOM     62  N   UNL A   1      43.657  29.561  28.696  1.00  0.00    -0.354 N 
ATOM     63  N   UNL A   1      46.519  28.744  28.046  1.00  0.00    -0.248 NA
ATOM     64  C   UNL A   1      48.774  29.326  27.838  1.00  0.00     0.031 C 
ATOM     65  C   UNL A   1      43.322  31.687  29.215  1.00  0.00     0.029 A 
ATOM     66  C   UNL A   1      44.305  30.767  28.874  1.00  0.00     0.049 A 
ATOM     67  H   UNL A   1      44.094  28.720  28.429  1.00  0.00     0.167 HD
ATOM     68  C   UNL A   1      46.664  30.081  28.374  1.00  0.00     0.074 A 
ATOM     69  C   UNL A   1      48.082  30.378  28.254  1.00  0.00     0.031 C 
ATOM     70  C   UNL A   1      45.724  30.988  28.740  1.00  0.00     0.037 A 
BRANCH  57  71
ATOM     71  C   UNL A   1      39.885  28.883  29.099  1.00  0.00     0.057 A 
ATOM     72  C   UNL A   1      39.298  28.747  30.365  1.00  0.00     0.134 A 
ATOM     73  C   UNL A   1      39.042  29.235  28.038  1.00  0.00     0.134 A 
ATOM     74  F   UNL A   1      40.041  28.388  31.424  1.00  0.00    -0.206 F 
ATOM     75  C   UNL A   1      37.925  28.915  30.561  1.00  0.00     0.040 A 
ATOM     76  C   UNL A   1      37.672  29.435  28.225  1.00  0.00     0.040 A 
ATOM     77  F   UNL A   1      39.531  29.378  26.797  1.00  0.00    -0.206 F 
ATOM     78  C   UNL A   1      37.109  29.264  29.488  1.00  0.00     0.006 A 
ENDBRANCH  57  71
BRANCH  58  79
ATOM     79  C   UNL A   1      49.542  26.590  26.974  1.00  0.00     0.057 A 
ATOM     80  C   UNL A   1      50.437  26.097  27.930  1.00  0.00     0.134 A 
ATOM     81  C   UNL A   1      49.993  26.671  25.651  1.00  0.00     0.134 A 
ATOM     82  F   UNL A   1      50.061  25.992  29.213  1.00  0.00    -0.206 F 
ATOM     83  C   UNL A   1      51.734  25.708  27.589  1.00  0.00     0.040 A 
ATOM     84  C   UNL A   1      51.282  26.267  25.291  1.00  0.00     0.040 A 
ATOM     85  F   UNL A   1      49.177  27.108  24.681  1.00  0.00    -0.206 F 
ATOM     86  C   UNL A   1      52.157  25.787  26.264  1.00  0.00     0.006 A 
ENDBRANCH  58  79
BRANCH  70  87
ATOM     87  C   UNL A   1      46.226  32.360  29.057  1.00  0.00     0.057 A 
ATOM     88  C   UNL A   1      46.316  33.352  28.075  1.00  0.00     0.134 A 
ATOM     89  C   UNL A   1      46.584  32.696  30.368  1.00  0.00     0.134 A 
ATOM     90  F   UNL A   1      45.999  33.077  26.800  1.00  0.00    -0.206 F 
ATOM     91  C   UNL A   1      46.768  34.633  28.382  1.00  0.00     0.040 A 
ATOM     92  C   UNL A   1      47.015  33.980  30.691  1.00  0.00     0.040 A 
ATOM     93  F   UNL A   1      46.510  31.784  31.349  1.00  0.00    -0.206 F 
ATOM     94  C   UNL A   1      47.112  34.951  29.696  1.00  0.00     0.006 A 
ENDBRANCH  70  87
ENDBRANCH  44  45
ENDBRANCH  36  39
ENDBRANCH  34  35
ENDBRANCH  33  34
ENDBRANCH  32  33
ENDBRANCH   1  32
TORSDOF 16
ENDMDL
MODEL 3
REMARK VINA RESULT:     -11.7      6.591     12.083
REMARK SMILES CCc1cc(=O)oc2c3c(cc(OCC(=O)NCC(=O)NCCCCNC(=O)c4ccc(-c5c6nc(c(-c7c(F)cccc7F)c7ccc([nH]7)c(-c7c(F)cccc7F)c7nc(c(-c8c(F)cccc8F)c8ccc5[nH]8)C=C7)C=C6)cc4)c12)OC(C)(C)CC3
REMARK SMILES IDX 22 1 21 2 19 3 20 4 18 6 17 7 15 8 16 9 14 11 13 12 12 13
REMARK SMILES IDX 3 14 4 15 83 16 5 17 8 18 6 19 7 20 9 21 11 22 10 23 89 24
REMARK SMILES IDX 84 25 88 26 85 27 86 28 87 29 2 30 1 31 23 32 24 33 25 34
REMARK SMILES IDX 26 35 27 36 28 38 29 39 30 40 82 41 31 42 81 43 32 44 33 45
REMARK SMILES IDX 34 46 75 47 35 48 80 49 74 50 76 51 36 52 79 53 73 54 72 55
REMARK SMILES IDX 37 57 63 58 46 59 62 60 47 61 50 62 61 63 77 64 48 65 49 66
REMARK SMILES IDX 60 68 78 69 51 70 38 71 39 72 44 73 40 74 41 75 43 76 45 77
REMARK SMILES IDX 42 78 64 79 65 80 70 81 66 82 67 83 69 84 71 85 68 86 52 87
REMARK SMILES IDX 53 88 58 89 54 90 55 91 57 92 59 93 56 94
REMARK H PARENT 21 5 17 10 26 37 76 56 50 67
REMARK Flexibility Score: inf
ROOT
ATOM      1  C   UNL A   1      40.987  21.546  26.660  1.00  0.00     0.116 C 
ENDROOT
BRANCH   1   2
ATOM      2  N   UNL A   1      40.583  22.773  27.307  1.00  0.00    -0.355 N 
ATOM      3  C   UNL A   1      39.479  23.537  27.054  1.00  0.00     0.239 C 
ATOM      4  O   UNL A   1      39.167  24.390  27.889  1.00  0.00    -0.273 OA
ATOM      5  H   UNL A   1      41.180  23.100  28.019  1.00  0.00     0.163 HD
BRANCH   3   6
ATOM      6  C   UNL A   1      38.569  23.247  25.849  1.00  0.00     0.216 C 
BRANCH   6   7
ATOM      7  N   UNL A   1      37.458  22.356  26.128  1.00  0.00    -0.344 N 
ATOM      8  C   UNL A   1      36.332  22.143  25.393  1.00  0.00     0.258 C 
ATOM      9  O   UNL A   1      35.647  21.156  25.670  1.00  0.00    -0.271 OA
ATOM     10  H   UNL A   1      37.529  21.834  26.960  1.00  0.00     0.164 HD
BRANCH   8  11
ATOM     11  C   UNL A   1      35.930  23.099  24.245  1.00  0.00     0.329 C 
BRANCH  11  12
ATOM     12  O   UNL A   1      34.556  23.408  24.037  1.00  0.00    -0.483 OA
BRANCH  12  13
ATOM     13  C   UNL A   1      33.893  24.209  24.930  1.00  0.00     0.135 A 
ATOM     14  C   UNL A   1      32.139  22.327  25.383  1.00  0.00    -0.026 A 
ATOM     15  C   UNL A   1      30.941  22.083  25.943  1.00  0.00     0.098 A 
ATOM     16  C   UNL A   1      32.744  23.687  25.565  1.00  0.00     0.063 A 
ATOM     17  C   UNL A   1      30.235  22.997  26.836  1.00  0.00     0.336 A 
ATOM     18  C   UNL A   1      32.040  24.597  26.389  1.00  0.00     0.149 A 
ATOM     19  O   UNL A   1      29.150  22.686  27.314  1.00  0.00    -0.246 OA
ATOM     20  O   UNL A   1      30.898  24.171  27.113  1.00  0.00    -0.422 OA
ATOM     21  C   UNL A   1      32.346  25.976  26.502  1.00  0.00     0.038 A 
ATOM     22  C   UNL A   1      34.273  25.552  25.144  1.00  0.00     0.094 A 
ATOM     23  C   UNL A   1      33.466  26.445  25.844  1.00  0.00     0.130 A 
ATOM     24  C   UNL A   1      31.428  26.957  27.175  1.00  0.00     0.047 C 
ATOM     25  O   UNL A   1      33.839  27.761  25.790  1.00  0.00    -0.487 OA
ATOM     26  C   UNL A   1      32.050  28.331  27.358  1.00  0.00     0.053 C 
ATOM     27  C   UNL A   1      32.831  28.743  26.107  1.00  0.00     0.104 C 
ATOM     28  C   UNL A   1      33.575  30.053  26.405  1.00  0.00     0.056 C 
ATOM     29  C   UNL A   1      31.935  28.997  24.880  1.00  0.00     0.056 C 
BRANCH  14  30
ATOM     30  C   UNL A   1      32.797  21.137  24.706  1.00  0.00     0.033 C 
ATOM     31  C   UNL A   1      32.552  19.742  25.255  1.00  0.00     0.009 C 
ENDBRANCH  14  30
ENDBRANCH  12  13
ENDBRANCH  11  12
ENDBRANCH   8  11
ENDBRANCH   6   7
ENDBRANCH   3   6
ENDBRANCH   1   2
BRANCH   1  32
ATOM     32  C   UNL A   1      41.765  20.611  27.573  1.00  0.00     0.023 C 
BRANCH  32  33
ATOM     33  C   UNL A   1      42.328  19.355  26.905  1.00  0.00     0.023 C 
BRANCH  33  34
ATOM     34  C   UNL A   1      42.408  19.377  25.378  1.00  0.00     0.116 C 
BRANCH  34  35
ATOM     35  N   UNL A   1      43.694  18.937  24.856  1.00  0.00    -0.352 N 
ATOM     36  C   UNL A   1      44.843  19.644  24.620  1.00  0.00     0.251 C 
ATOM     37  H   UNL A   1      43.746  17.978  24.637  1.00  0.00     0.163 HD
ATOM     38  O   UNL A   1      45.854  19.141  24.127  1.00  0.00    -0.269 OA
BRANCH  36  39
ATOM     39  C   UNL A   1      44.920  21.062  24.881  1.00  0.00     0.039 A 
ATOM     40  C   UNL A   1      45.303  21.449  26.173  1.00  0.00     0.014 A 
ATOM     41  C   UNL A   1      44.561  21.974  23.896  1.00  0.00     0.014 A 
ATOM     42  C   UNL A   1      45.398  22.790  26.466  1.00  0.00     0.010 A 
ATOM     43  C   UNL A   1      44.729  23.310  24.164  1.00  0.00     0.010 A 
ATOM     44  C   UNL A   1      45.147  23.710  25.446  1.00  0.00    -0.014 A 
BRANCH  44  45
ATOM     45  C   UNL A   1      45.296  25.143  25.678  1.00  0.00     0.031 A 
ATOM     46  C   UNL A   1      46.659  25.725  25.535  1.00  0.00     0.074 A 
ATOM     47  C   UNL A   1      44.236  25.800  26.169  1.00  0.00     0.049 A 
ATOM     48  N   UNL A   1      47.113  26.865  25.968  1.00  0.00    -0.248 NA
ATOM     49  C   UNL A   1      47.667  24.873  24.877  1.00  0.00     0.031 C 
ATOM     50  C   UNL A   1      42.897  25.230  26.358  1.00  0.00     0.029 A 
ATOM     51  N   UNL A   1      44.129  27.072  26.646  1.00  0.00    -0.354 N 
ATOM     52  C   UNL A   1      48.471  26.849  25.680  1.00  0.00     0.074 A 
ATOM     53  C   UNL A   1      48.772  25.576  25.069  1.00  0.00     0.031 C 
ATOM     54  C   UNL A   1      42.103  26.152  26.924  1.00  0.00     0.029 A 
ATOM     55  C   UNL A   1      42.893  27.348  27.175  1.00  0.00     0.049 A 
ATOM     56  H   UNL A   1      44.863  27.727  26.615  1.00  0.00     0.167 HD
ATOM     57  C   UNL A   1      49.367  27.833  25.915  1.00  0.00     0.037 A 
ATOM     58  C   UNL A   1      42.474  28.451  27.814  1.00  0.00     0.037 A 
ATOM     59  C   UNL A   1      48.988  29.088  26.505  1.00  0.00     0.049 A 
ATOM     60  C   UNL A   1      43.471  29.559  27.987  1.00  0.00     0.074 A 
ATOM     61  C   UNL A   1      49.762  30.203  26.755  1.00  0.00     0.029 A 
ATOM     62  N   UNL A   1      47.694  29.390  26.925  1.00  0.00    -0.354 N 
ATOM     63  N   UNL A   1      44.751  29.565  27.689  1.00  0.00    -0.248 NA
ATOM     64  C   UNL A   1      42.974  30.809  28.564  1.00  0.00     0.031 C 
ATOM     65  C   UNL A   1      48.940  31.173  27.343  1.00  0.00     0.029 A 
ATOM     66  C   UNL A   1      47.645  30.675  27.427  1.00  0.00     0.049 A 
ATOM     67  H   UNL A   1      46.928  28.775  26.872  1.00  0.00     0.167 HD
ATOM     68  C   UNL A   1      45.213  30.827  28.019  1.00  0.00     0.074 A 
ATOM     69  C   UNL A   1      44.067  31.560  28.530  1.00  0.00     0.031 C 
ATOM     70  C   UNL A   1      46.464  31.343  27.916  1.00  0.00     0.037 A 
BRANCH  57  71
ATOM     71  C   UNL A   1      50.795  27.567  25.543  1.00  0.00     0.057 A 
ATOM     72  C   UNL A   1      51.272  27.764  24.238  1.00  0.00     0.134 A 
ATOM     73  C   UNL A   1      51.704  27.074  26.488  1.00  0.00     0.134 A 
ATOM     74  F   UNL A   1      50.451  28.211  23.274  1.00  0.00    -0.206 F 
ATOM     75  C   UNL A   1      52.584  27.447  23.879  1.00  0.00     0.040 A 
ATOM     76  C   UNL A   1      53.027  26.781  26.149  1.00  0.00     0.040 A 
ATOM     77  F   UNL A   1      51.318  26.855  27.754  1.00  0.00    -0.206 F 
ATOM     78  C   UNL A   1      53.467  26.957  24.838  1.00  0.00     0.006 A 
ENDBRANCH  57  71
BRANCH  58  79
ATOM     79  C   UNL A   1      41.066  28.554  28.263  1.00  0.00     0.057 A 
ATOM     80  C   UNL A   1      40.064  28.961  27.375  1.00  0.00     0.134 A 
ATOM     81  C   UNL A   1      40.670  28.177  29.552  1.00  0.00     0.134 A 
ATOM     82  F   UNL A   1      40.380  29.329  26.126  1.00  0.00    -0.206 F 
ATOM     83  C   UNL A   1      38.721  29.003  27.755  1.00  0.00     0.040 A 
ATOM     84  C   UNL A   1      39.328  28.195  29.940  1.00  0.00     0.040 A 
ATOM     85  F   UNL A   1      41.577  27.751  30.443  1.00  0.00    -0.206 F 
ATOM     86  C   UNL A   1      38.350  28.613  29.040  1.00  0.00     0.006 A 
ENDBRANCH  58  79
BRANCH  70  87
ATOM     87  C   UNL A   1      46.622  32.768  28.341  1.00  0.00     0.057 A 
ATOM     88  C   UNL A   1      46.972  33.106  29.652  1.00  0.00     0.134 A 
ATOM     89  C   UNL A   1      46.458  33.803  27.414  1.00  0.00     0.134 A 
ATOM     90  F   UNL A   1      47.126  32.152  30.583  1.00  0.00    -0.206 F 
ATOM     91  C   UNL A   1      47.134  34.436  30.035  1.00  0.00     0.040 A 
ATOM     92  C   UNL A   1      46.641  35.134  27.779  1.00  0.00     0.040 A 
ATOM     93  F   UNL A   1      46.130  33.533  26.141  1.00  0.00    -0.206 F 
ATOM     94  C   UNL A   1      46.975  35.454  29.095  1.00  0.00     0.006 A 
ENDBRANCH  70  87
ENDBRANCH  44  45
ENDBRANCH  36  39
ENDBRANCH  34  35
ENDBRANCH  33  34
ENDBRANCH  32  33
ENDBRANCH   1  32
TORSDOF 16
ENDMDL
