MODEL 1
REMARK VINA RESULT:      -9.9      0.000      0.000
REMARK SMILES N#C[C@H]1CN(C(=O)[C@H]([NH3+])CC(=O)NCCCCNC(=O)c2ccc(-c3c4nc(c(-c5c(F)cccc5F)c5ccc([nH]5)c(-c5c(F)cccc5F)c5nc(c(-c6c(F)cccc6F)c6ccc3[nH]6)C=C5)C=C4)cc2)CCO1
REMARK SMILES IDX 14 1 13 2 11 3 12 4 10 6 8 7 6 8 7 9 5 10 3 11 4 12 77 13
REMARK SMILES IDX 76 14 75 15 2 16 1 17 9 18 15 22 16 23 17 24 18 25 19 26
REMARK SMILES IDX 20 28 21 29 22 30 74 31 23 32 73 33 24 34 25 35 26 36 67 37
REMARK SMILES IDX 27 38 72 39 66 40 68 41 28 42 71 43 65 44 64 45 29 47 55 48
REMARK SMILES IDX 38 49 54 50 39 51 42 52 53 53 69 54 40 55 41 56 52 58 70 59
REMARK SMILES IDX 43 60 30 61 31 62 36 63 32 64 33 65 35 66 37 67 34 68 56 69
REMARK SMILES IDX 57 70 62 71 58 72 59 73 61 74 63 75 60 76 44 77 45 78 50 79
REMARK SMILES IDX 46 80 47 81 49 82 51 83 48 84
REMARK H PARENT 13 5 9 19 9 20 9 21 18 27 68 46 42 57
REMARK Flexibility Score: inf
ROOT
ATOM      1  C   UNL A   1      33.093  34.749  28.731  1.00  0.00     0.116 C 
ENDROOT
BRANCH   1   2
ATOM      2  N   UNL A   1      32.881  35.963  29.490  1.00  0.00    -0.356 N 
ATOM      3  C   UNL A   1      32.984  36.162  30.836  1.00  0.00     0.226 C 
ATOM      4  O   UNL A   1      32.577  37.226  31.305  1.00  0.00    -0.275 OA
ATOM      5  H   UNL A   1      32.626  36.754  28.963  1.00  0.00     0.163 HD
BRANCH   3   6
ATOM      6  C   UNL A   1      33.702  35.148  31.703  1.00  0.00     0.175 C 
BRANCH   6   7
ATOM      7  C   UNL A   1      34.547  35.694  32.859  1.00  0.00     0.280 C 
BRANCH   7   8
ATOM      8  C   UNL A   1      35.378  34.572  33.534  1.00  0.00     0.281 C 
ATOM      9  O   UNL A   1      35.159  34.285  34.713  1.00  0.00    -0.268 OA
BRANCH   8  10
ATOM     10  N   UNL A   1      36.302  33.851  32.782  1.00  0.00    -0.332 N 
ATOM     11  C   UNL A   1      38.726  33.715  33.125  1.00  0.00     0.240 C 
ATOM     12  C   UNL A   1      37.597  34.311  32.260  1.00  0.00     0.167 C 
ATOM     13  O   UNL A   1      38.645  32.270  33.087  1.00  0.00    -0.360 OA
ATOM     14  C   UNL A   1      37.370  31.802  33.577  1.00  0.00     0.183 C 
ATOM     15  C   UNL A   1      36.208  32.390  32.766  1.00  0.00     0.148 C 
BRANCH  11  16
ATOM     16  C   UNL A   1      40.030  34.186  32.630  1.00  0.00     0.096 C 
ATOM     17  N   UNL A   1      41.073  34.581  32.303  1.00  0.00    -0.195 NA
ENDBRANCH  11  16
ENDBRANCH   8  10
ENDBRANCH   7   8
BRANCH   7  18
ATOM     18  N   UNL A   1      33.880  36.451  33.934  1.00  0.00    -0.347 N 
ATOM     19  H   UNL A   1      34.216  37.414  33.928  1.00  0.00     0.345 HD
ATOM     20  H   UNL A   1      34.092  36.021  34.833  1.00  0.00     0.345 HD
ATOM     21  H   UNL A   1      32.872  36.441  33.780  1.00  0.00     0.345 HD
ENDBRANCH   7  18
ENDBRANCH   6   7
ENDBRANCH   3   6
ENDBRANCH   1   2
BRANCH   1  22
ATOM     22  C   UNL A   1      34.462  34.766  28.048  1.00  0.00     0.023 C 
BRANCH  22  23
ATOM     23  C   UNL A   1      35.180  33.426  28.038  1.00  0.00     0.023 C 
BRANCH  23  24
ATOM     24  C   UNL A   1      34.685  32.448  29.086  1.00  0.00     0.116 C 
BRANCH  24  25
ATOM     25  N   UNL A   1      34.060  31.262  28.516  1.00  0.00    -0.352 N 
ATOM     26  C   UNL A   1      34.666  30.091  28.128  1.00  0.00     0.251 C 
ATOM     27  H   UNL A   1      33.085  31.305  28.391  1.00  0.00     0.163 HD
ATOM     28  O   UNL A   1      34.039  29.223  27.534  1.00  0.00    -0.269 OA
BRANCH  26  29
ATOM     29  C   UNL A   1      36.105  29.922  28.409  1.00  0.00     0.039 A 
ATOM     30  C   UNL A   1      36.500  29.399  29.639  1.00  0.00     0.014 A 
ATOM     31  C   UNL A   1      37.046  30.187  27.409  1.00  0.00     0.014 A 
ATOM     32  C   UNL A   1      37.841  29.076  29.842  1.00  0.00     0.010 A 
ATOM     33  C   UNL A   1      38.355  29.762  27.575  1.00  0.00     0.010 A 
ATOM     34  C   UNL A   1      38.770  29.211  28.797  1.00  0.00    -0.014 A 
BRANCH  34  35
ATOM     35  C   UNL A   1      40.183  28.795  28.964  1.00  0.00     0.031 A 
ATOM     36  C   UNL A   1      41.187  29.760  29.531  1.00  0.00     0.074 A 
ATOM     37  C   UNL A   1      40.573  27.571  28.555  1.00  0.00     0.049 A 
ATOM     38  N   UNL A   1      42.473  29.604  29.710  1.00  0.00    -0.248 NA
ATOM     39  C   UNL A   1      40.684  31.088  29.920  1.00  0.00     0.031 C 
ATOM     40  C   UNL A   1      39.704  26.564  27.944  1.00  0.00     0.029 A 
ATOM     41  N   UNL A   1      41.805  26.968  28.589  1.00  0.00    -0.354 N 
ATOM     42  C   UNL A   1      42.930  30.812  30.224  1.00  0.00     0.074 A 
ATOM     43  C   UNL A   1      41.800  31.713  30.258  1.00  0.00     0.031 C 
ATOM     44  C   UNL A   1      40.420  25.456  27.694  1.00  0.00     0.029 A 
ATOM     45  C   UNL A   1      41.808  25.692  28.078  1.00  0.00     0.049 A 
ATOM     46  H   UNL A   1      42.610  27.407  28.944  1.00  0.00     0.167 HD
ATOM     47  C   UNL A   1      44.172  31.131  30.654  1.00  0.00     0.037 A 
ATOM     48  C   UNL A   1      42.819  24.815  27.928  1.00  0.00     0.037 A 
ATOM     49  C   UNL A   1      45.290  30.225  30.625  1.00  0.00     0.049 A 
ATOM     50  C   UNL A   1      44.199  25.208  28.380  1.00  0.00     0.074 A 
ATOM     51  C   UNL A   1      46.578  30.434  31.083  1.00  0.00     0.029 A 
ATOM     52  N   UNL A   1      45.255  28.943  30.097  1.00  0.00    -0.354 N 
ATOM     53  N   UNL A   1      44.602  26.326  28.934  1.00  0.00    -0.248 NA
ATOM     54  C   UNL A   1      45.265  24.214  28.191  1.00  0.00     0.031 C 
ATOM     55  C   UNL A   1      47.340  29.305  30.768  1.00  0.00     0.029 A 
ATOM     56  C   UNL A   1      46.509  28.362  30.186  1.00  0.00     0.049 A 
ATOM     57  H   UNL A   1      44.457  28.510  29.715  1.00  0.00     0.167 HD
ATOM     58  C   UNL A   1      45.958  26.158  29.190  1.00  0.00     0.074 A 
ATOM     59  C   UNL A   1      46.303  24.824  28.747  1.00  0.00     0.031 C 
ATOM     60  C   UNL A   1      46.836  27.029  29.746  1.00  0.00     0.037 A 
BRANCH  47  61
ATOM     61  C   UNL A   1      44.386  32.520  31.187  1.00  0.00     0.057 A 
ATOM     62  C   UNL A   1      44.622  33.612  30.341  1.00  0.00     0.134 A 
ATOM     63  C   UNL A   1      44.329  32.773  32.563  1.00  0.00     0.134 A 
ATOM     64  F   UNL A   1      44.702  33.440  29.013  1.00  0.00    -0.206 F 
ATOM     65  C   UNL A   1      44.826  34.898  30.845  1.00  0.00     0.040 A 
ATOM     66  C   UNL A   1      44.495  34.059  33.077  1.00  0.00     0.040 A 
ATOM     67  F   UNL A   1      44.102  31.775  33.432  1.00  0.00    -0.206 F 
ATOM     68  C   UNL A   1      44.754  35.125  32.218  1.00  0.00     0.006 A 
ENDBRANCH  47  61
BRANCH  48  69
ATOM     69  C   UNL A   1      42.566  23.477  27.333  1.00  0.00     0.057 A 
ATOM     70  C   UNL A   1      42.669  23.264  25.953  1.00  0.00     0.134 A 
ATOM     71  C   UNL A   1      42.199  22.381  28.125  1.00  0.00     0.134 A 
ATOM     72  F   UNL A   1      43.000  24.277  25.137  1.00  0.00    -0.206 F 
ATOM     73  C   UNL A   1      42.389  22.023  25.379  1.00  0.00     0.040 A 
ATOM     74  C   UNL A   1      41.949  21.126  27.569  1.00  0.00     0.040 A 
ATOM     75  F   UNL A   1      42.092  22.512  29.455  1.00  0.00    -0.206 F 
ATOM     76  C   UNL A   1      42.033  20.947  26.189  1.00  0.00     0.006 A 
ENDBRANCH  48  69
BRANCH  60  77
ATOM     77  C   UNL A   1      48.247  26.553  29.948  1.00  0.00     0.057 A 
ATOM     78  C   UNL A   1      48.655  25.902  31.119  1.00  0.00     0.134 A 
ATOM     79  C   UNL A   1      49.201  26.713  28.933  1.00  0.00     0.134 A 
ATOM     80  F   UNL A   1      47.797  25.725  32.135  1.00  0.00    -0.206 F 
ATOM     81  C   UNL A   1      49.968  25.454  31.286  1.00  0.00     0.040 A 
ATOM     82  C   UNL A   1      50.505  26.238  29.073  1.00  0.00     0.040 A 
ATOM     83  F   UNL A   1      48.876  27.316  27.780  1.00  0.00    -0.206 F 
ATOM     84  C   UNL A   1      50.894  25.614  30.257  1.00  0.00     0.006 A 
ENDBRANCH  60  77
ENDBRANCH  34  35
ENDBRANCH  26  29
ENDBRANCH  24  25
ENDBRANCH  23  24
ENDBRANCH  22  23
ENDBRANCH   1  22
TORSDOF 16
ENDMDL
MODEL 2
REMARK VINA RESULT:      -9.8      4.572     10.172
REMARK SMILES N#C[C@H]1CN(C(=O)[C@H]([NH3+])CC(=O)NCCCCNC(=O)c2ccc(-c3c4nc(c(-c5c(F)cccc5F)c5ccc([nH]5)c(-c5c(F)cccc5F)c5nc(c(-c6c(F)cccc6F)c6ccc3[nH]6)C=C5)C=C4)cc2)CCO1
REMARK SMILES IDX 14 1 13 2 11 3 12 4 10 6 8 7 6 8 7 9 5 10 3 11 4 12 77 13
REMARK SMILES IDX 76 14 75 15 2 16 1 17 9 18 15 22 16 23 17 24 18 25 19 26
REMARK SMILES IDX 20 28 21 29 22 30 74 31 23 32 73 33 24 34 25 35 26 36 67 37
REMARK SMILES IDX 27 38 72 39 66 40 68 41 28 42 71 43 65 44 64 45 29 47 55 48
REMARK SMILES IDX 38 49 54 50 39 51 42 52 53 53 69 54 40 55 41 56 52 58 70 59
REMARK SMILES IDX 43 60 30 61 31 62 36 63 32 64 33 65 35 66 37 67 34 68 56 69
REMARK SMILES IDX 57 70 62 71 58 72 59 73 61 74 63 75 60 76 44 77 45 78 50 79
REMARK SMILES IDX 46 80 47 81 49 82 51 83 48 84
REMARK H PARENT 13 5 9 19 9 20 9 21 18 27 68 46 42 57
REMARK Flexibility Score: inf
ROOT
ATOM      1  C   UNL A   1      32.345  29.740  25.552  1.00  0.00     0.116 C 
ENDROOT
BRANCH   1   2
ATOM      2  N   UNL A   1      31.312  29.985  24.569  1.00  0.00    -0.356 N 
ATOM      3  C   UNL A   1      30.605  29.086  23.825  1.00  0.00     0.226 C 
ATOM      4  O   UNL A   1      29.903  29.509  22.906  1.00  0.00    -0.275 OA
ATOM      5  H   UNL A   1      31.089  30.932  24.415  1.00  0.00     0.163 HD
BRANCH   3   6
ATOM      6  C   UNL A   1      30.589  27.622  24.213  1.00  0.00     0.175 C 
BRANCH   6   7
ATOM      7  C   UNL A   1      31.303  26.644  23.274  1.00  0.00     0.280 C 
BRANCH   7   8
ATOM      8  C   UNL A   1      32.678  26.210  23.843  1.00  0.00     0.281 C 
ATOM      9  O   UNL A   1      33.647  26.964  23.721  1.00  0.00    -0.268 OA
BRANCH   8  10
ATOM     10  N   UNL A   1      32.786  25.016  24.551  1.00  0.00    -0.332 N 
ATOM     11  C   UNL A   1      30.965  23.635  25.438  1.00  0.00     0.240 C 
ATOM     12  C   UNL A   1      32.088  24.632  25.787  1.00  0.00     0.167 C 
ATOM     13  O   UNL A   1      31.541  22.472  24.796  1.00  0.00    -0.360 OA
ATOM     14  C   UNL A   1      32.250  22.834  23.592  1.00  0.00     0.183 C 
ATOM     15  C   UNL A   1      33.362  23.850  23.879  1.00  0.00     0.148 C 
BRANCH  11  16
ATOM     16  C   UNL A   1      30.239  23.259  26.662  1.00  0.00     0.096 C 
ATOM     17  N   UNL A   1      29.609  22.991  27.602  1.00  0.00    -0.195 NA
ENDBRANCH  11  16
ENDBRANCH   8  10
ENDBRANCH   7   8
BRANCH   7  18
ATOM     18  N   UNL A   1      31.515  27.033  21.868  1.00  0.00    -0.347 N 
ATOM     19  H   UNL A   1      31.664  28.040  21.813  1.00  0.00     0.345 HD
ATOM     20  H   UNL A   1      30.695  26.779  21.318  1.00  0.00     0.345 HD
ATOM     21  H   UNL A   1      32.334  26.548  21.501  1.00  0.00     0.345 HD
ENDBRANCH   7  18
ENDBRANCH   6   7
ENDBRANCH   3   6
ENDBRANCH   1   2
BRANCH   1  22
ATOM     22  C   UNL A   1      31.991  30.393  26.890  1.00  0.00     0.023 C 
BRANCH  22  23
ATOM     23  C   UNL A   1      31.726  31.888  26.813  1.00  0.00     0.023 C 
BRANCH  23  24
ATOM     24  C   UNL A   1      32.823  32.745  27.416  1.00  0.00     0.116 C 
BRANCH  24  25
ATOM     25  N   UNL A   1      32.417  34.125  27.639  1.00  0.00    -0.352 N 
ATOM     26  C   UNL A   1      32.937  35.025  28.539  1.00  0.00     0.251 C 
ATOM     27  H   UNL A   1      31.678  34.454  27.078  1.00  0.00     0.163 HD
ATOM     28  O   UNL A   1      32.407  36.114  28.719  1.00  0.00    -0.269 OA
BRANCH  26  29
ATOM     29  C   UNL A   1      34.127  34.628  29.315  1.00  0.00     0.039 A 
ATOM     30  C   UNL A   1      33.965  34.188  30.628  1.00  0.00     0.014 A 
ATOM     31  C   UNL A   1      35.382  34.599  28.701  1.00  0.00     0.014 A 
ATOM     32  C   UNL A   1      35.058  33.649  31.305  1.00  0.00     0.010 A 
ATOM     33  C   UNL A   1      36.438  33.963  29.337  1.00  0.00     0.010 A 
ATOM     34  C   UNL A   1      36.291  33.490  30.650  1.00  0.00    -0.014 A 
BRANCH  34  35
ATOM     35  C   UNL A   1      37.443  32.844  31.322  1.00  0.00     0.031 A 
ATOM     36  C   UNL A   1      38.098  31.642  30.698  1.00  0.00     0.074 A 
ATOM     37  C   UNL A   1      37.863  33.302  32.518  1.00  0.00     0.049 A 
ATOM     38  N   UNL A   1      39.082  30.909  31.151  1.00  0.00    -0.248 NA
ATOM     39  C   UNL A   1      37.554  31.186  29.408  1.00  0.00     0.031 C 
ATOM     40  C   UNL A   1      37.278  34.428  33.249  1.00  0.00     0.029 A 
ATOM     41  N   UNL A   1      38.880  32.872  33.332  1.00  0.00    -0.354 N 
ATOM     42  C   UNL A   1      39.268  29.906  30.207  1.00  0.00     0.074 A 
ATOM     43  C   UNL A   1      38.250  30.080  29.196  1.00  0.00     0.031 C 
ATOM     44  C   UNL A   1      37.968  34.623  34.384  1.00  0.00     0.029 A 
ATOM     45  C   UNL A   1      39.010  33.606  34.487  1.00  0.00     0.049 A 
ATOM     46  H   UNL A   1      39.463  32.110  33.111  1.00  0.00     0.167 HD
ATOM     47  C   UNL A   1      40.220  28.945  30.173  1.00  0.00     0.037 A 
ATOM     48  C   UNL A   1      39.865  33.467  35.518  1.00  0.00     0.037 A 
ATOM     49  C   UNL A   1      41.235  28.783  31.179  1.00  0.00     0.049 A 
ATOM     50  C   UNL A   1      40.889  32.367  35.473  1.00  0.00     0.074 A 
ATOM     51  C   UNL A   1      42.276  27.872  31.212  1.00  0.00     0.029 A 
ATOM     52  N   UNL A   1      41.330  29.543  32.335  1.00  0.00    -0.354 N 
ATOM     53  N   UNL A   1      41.103  31.472  34.539  1.00  0.00    -0.248 NA
ATOM     54  C   UNL A   1      41.796  32.260  36.624  1.00  0.00     0.031 C 
ATOM     55  C   UNL A   1      42.957  28.034  32.422  1.00  0.00     0.029 A 
ATOM     56  C   UNL A   1      42.391  29.098  33.106  1.00  0.00     0.049 A 
ATOM     57  H   UNL A   1      40.732  30.288  32.573  1.00  0.00     0.167 HD
ATOM     58  C   UNL A   1      42.188  30.719  34.973  1.00  0.00     0.074 A 
ATOM     59  C   UNL A   1      42.598  31.274  36.245  1.00  0.00     0.031 C 
ATOM     60  C   UNL A   1      42.792  29.665  34.370  1.00  0.00     0.037 A 
BRANCH  47  61
ATOM     61  C   UNL A   1      40.200  27.991  29.012  1.00  0.00     0.057 A 
ATOM     62  C   UNL A   1      40.905  28.246  27.828  1.00  0.00     0.134 A 
ATOM     63  C   UNL A   1      39.487  26.788  29.088  1.00  0.00     0.134 A 
ATOM     64  F   UNL A   1      41.599  29.386  27.680  1.00  0.00    -0.206 F 
ATOM     65  C   UNL A   1      40.876  27.358  26.751  1.00  0.00     0.040 A 
ATOM     66  C   UNL A   1      39.479  25.874  28.034  1.00  0.00     0.040 A 
ATOM     67  F   UNL A   1      38.793  26.475  30.193  1.00  0.00    -0.206 F 
ATOM     68  C   UNL A   1      40.167  26.162  26.858  1.00  0.00     0.006 A 
ENDBRANCH  47  61
BRANCH  48  69
ATOM     69  C   UNL A   1      39.799  34.398  36.675  1.00  0.00     0.057 A 
ATOM     70  C   UNL A   1      40.470  35.628  36.656  1.00  0.00     0.134 A 
ATOM     71  C   UNL A   1      39.081  34.077  37.834  1.00  0.00     0.134 A 
ATOM     72  F   UNL A   1      41.189  35.988  35.583  1.00  0.00    -0.206 F 
ATOM     73  C   UNL A   1      40.452  36.489  37.755  1.00  0.00     0.040 A 
ATOM     74  C   UNL A   1      39.028  34.943  38.926  1.00  0.00     0.040 A 
ATOM     75  F   UNL A   1      38.408  32.920  37.914  1.00  0.00    -0.206 F 
ATOM     76  C   UNL A   1      39.724  36.149  38.893  1.00  0.00     0.006 A 
ENDBRANCH  48  69
BRANCH  60  77
ATOM     77  C   UNL A   1      43.989  29.069  35.055  1.00  0.00     0.057 A 
ATOM     78  C   UNL A   1      45.287  29.552  34.846  1.00  0.00     0.134 A 
ATOM     79  C   UNL A   1      43.831  28.022  35.973  1.00  0.00     0.134 A 
ATOM     80  F   UNL A   1      45.512  30.546  33.972  1.00  0.00    -0.206 F 
ATOM     81  C   UNL A   1      46.387  28.995  35.501  1.00  0.00     0.040 A 
ATOM     82  C   UNL A   1      44.917  27.481  36.661  1.00  0.00     0.040 A 
ATOM     83  F   UNL A   1      42.614  27.518  36.232  1.00  0.00    -0.206 F 
ATOM     84  C   UNL A   1      46.202  27.962  36.418  1.00  0.00     0.006 A 
ENDBRANCH  60  77
ENDBRANCH  34  35
ENDBRANCH  26  29
ENDBRANCH  24  25
ENDBRANCH  23  24
ENDBRANCH  22  23
ENDBRANCH   1  22
TORSDOF 16
ENDMDL
MODEL 3
REMARK VINA RESULT:      -9.8      4.242      7.776
REMARK SMILES N#C[C@H]1CN(C(=O)[C@H]([NH3+])CC(=O)NCCCCNC(=O)c2ccc(-c3c4nc(c(-c5c(F)cccc5F)c5ccc([nH]5)c(-c5c(F)cccc5F)c5nc(c(-c6c(F)cccc6F)c6ccc3[nH]6)C=C5)C=C4)cc2)CCO1
REMARK SMILES IDX 14 1 13 2 11 3 12 4 10 6 8 7 6 8 7 9 5 10 3 11 4 12 77 13
REMARK SMILES IDX 76 14 75 15 2 16 1 17 9 18 15 22 16 23 17 24 18 25 19 26
REMARK SMILES IDX 20 28 21 29 22 30 74 31 23 32 73 33 24 34 25 35 26 36 67 37
REMARK SMILES IDX 27 38 72 39 66 40 68 41 28 42 71 43 65 44 64 45 29 47 55 48
REMARK SMILES IDX 38 49 54 50 39 51 42 52 53 53 69 54 40 55 41 56 52 58 70 59
REMARK SMILES IDX 43 60 30 61 31 62 36 63 32 64 33 65 35 66 37 67 34 68 56 69
REMARK SMILES IDX 57 70 62 71 58 72 59 73 61 74 63 75 60 76 44 77 45 78 50 79
REMARK SMILES IDX 46 80 47 81 49 82 51 83 48 84
REMARK H PARENT 13 5 9 19 9 20 9 21 18 27 68 46 42 57
REMARK Flexibility Score: inf
ROOT
ATOM      1  C   UNL A   1      32.321  30.097  26.121  1.00  0.00     0.116 C 
ENDROOT
BRANCH   1   2
ATOM      2  N   UNL A   1      32.913  29.555  24.918  1.00  0.00    -0.356 N 
ATOM      3  C   UNL A   1      33.651  28.417  24.763  1.00  0.00     0.226 C 
ATOM      4  O   UNL A   1      34.224  28.232  23.688  1.00  0.00    -0.275 OA
ATOM      5  H   UNL A   1      32.764  30.079  24.098  1.00  0.00     0.163 HD
BRANCH   3   6
ATOM      6  C   UNL A   1      33.650  27.356  25.843  1.00  0.00     0.175 C 
BRANCH   6   7
ATOM      7  C   UNL A   1      32.914  26.048  25.535  1.00  0.00     0.280 C 
BRANCH   7   8
ATOM      8  C   UNL A   1      31.377  26.249  25.527  1.00  0.00     0.281 C 
ATOM      9  O   UNL A   1      30.788  26.444  26.593  1.00  0.00    -0.268 OA
BRANCH   8  10
ATOM     10  N   UNL A   1      30.692  26.287  24.315  1.00  0.00    -0.332 N 
ATOM     11  C   UNL A   1      30.692  28.091  22.654  1.00  0.00     0.240 C 
ATOM     12  C   UNL A   1      29.886  27.388  23.766  1.00  0.00     0.167 C 
ATOM     13  O   UNL A   1      31.016  27.131  21.620  1.00  0.00    -0.360 OA
ATOM     14  C   UNL A   1      31.789  26.032  22.146  1.00  0.00     0.183 C 
ATOM     15  C   UNL A   1      31.044  25.314  23.279  1.00  0.00     0.148 C 
BRANCH  11  16
ATOM     16  C   UNL A   1      29.909  29.212  22.111  1.00  0.00     0.096 C 
ATOM     17  N   UNL A   1      29.284  30.063  21.622  1.00  0.00    -0.195 NA
ENDBRANCH  11  16
ENDBRANCH   8  10
ENDBRANCH   7   8
BRANCH   7  18
ATOM     18  N   UNL A   1      33.195  24.860  26.362  1.00  0.00    -0.347 N 
ATOM     19  H   UNL A   1      32.454  24.746  27.053  1.00  0.00     0.345 HD
ATOM     20  H   UNL A   1      34.089  24.981  26.837  1.00  0.00     0.345 HD
ATOM     21  H   UNL A   1      33.235  24.034  25.766  1.00  0.00     0.345 HD
ENDBRANCH   7  18
ENDBRANCH   6   7
ENDBRANCH   3   6
ENDBRANCH   1   2
BRANCH   1  22
ATOM     22  C   UNL A   1      31.120  30.985  25.786  1.00  0.00     0.023 C 
BRANCH  22  23
ATOM     23  C   UNL A   1      31.108  32.328  26.499  1.00  0.00     0.023 C 
BRANCH  23  24
ATOM     24  C   UNL A   1      32.484  32.844  26.875  1.00  0.00     0.116 C 
BRANCH  24  25
ATOM     25  N   UNL A   1      32.445  34.110  27.595  1.00  0.00    -0.352 N 
ATOM     26  C   UNL A   1      33.282  34.538  28.597  1.00  0.00     0.251 C 
ATOM     27  H   UNL A   1      31.731  34.735  27.332  1.00  0.00     0.163 HD
ATOM     28  O   UNL A   1      33.051  35.572  29.213  1.00  0.00    -0.269 OA
BRANCH  26  29
ATOM     29  C   UNL A   1      34.444  33.698  28.944  1.00  0.00     0.039 A 
ATOM     30  C   UNL A   1      35.724  34.247  28.871  1.00  0.00     0.014 A 
ATOM     31  C   UNL A   1      34.248  32.406  29.438  1.00  0.00     0.014 A 
ATOM     32  C   UNL A   1      36.806  33.518  29.361  1.00  0.00     0.010 A 
ATOM     33  C   UNL A   1      35.308  31.731  30.025  1.00  0.00     0.010 A 
ATOM     34  C   UNL A   1      36.601  32.275  29.984  1.00  0.00    -0.014 A 
BRANCH  34  35
ATOM     35  C   UNL A   1      37.726  31.522  30.588  1.00  0.00     0.031 A 
ATOM     36  C   UNL A   1      38.110  31.769  32.021  1.00  0.00     0.074 A 
ATOM     37  C   UNL A   1      38.434  30.659  29.834  1.00  0.00     0.049 A 
ATOM     38  N   UNL A   1      39.089  31.249  32.716  1.00  0.00    -0.248 NA
ATOM     39  C   UNL A   1      37.305  32.754  32.763  1.00  0.00     0.031 C 
ATOM     40  C   UNL A   1      38.191  30.370  28.419  1.00  0.00     0.029 A 
ATOM     41  N   UNL A   1      39.509  29.867  30.152  1.00  0.00    -0.354 N 
ATOM     42  C   UNL A   1      39.021  31.848  33.967  1.00  0.00     0.074 A 
ATOM     43  C   UNL A   1      37.953  32.821  33.915  1.00  0.00     0.031 C 
ATOM     44  C   UNL A   1      39.065  29.440  28.002  1.00  0.00     0.029 A 
ATOM     45  C   UNL A   1      39.963  29.105  29.103  1.00  0.00     0.049 A 
ATOM     46  H   UNL A   1      39.917  29.847  31.048  1.00  0.00     0.167 HD
ATOM     47  C   UNL A   1      39.762  31.589  35.069  1.00  0.00     0.037 A 
ATOM     48  C   UNL A   1      40.993  28.241  29.034  1.00  0.00     0.037 A 
ATOM     49  C   UNL A   1      40.818  30.612  35.116  1.00  0.00     0.049 A 
ATOM     50  C   UNL A   1      41.826  27.999  30.262  1.00  0.00     0.074 A 
ATOM     51  C   UNL A   1      41.596  30.238  36.197  1.00  0.00     0.029 A 
ATOM     52  N   UNL A   1      41.250  29.864  34.031  1.00  0.00    -0.354 N 
ATOM     53  N   UNL A   1      41.703  28.516  31.461  1.00  0.00    -0.248 NA
ATOM     54  C   UNL A   1      42.939  27.048  30.131  1.00  0.00     0.031 C 
ATOM     55  C   UNL A   1      42.546  29.316  35.749  1.00  0.00     0.029 A 
ATOM     56  C   UNL A   1      42.309  29.055  34.410  1.00  0.00     0.049 A 
ATOM     57  H   UNL A   1      40.863  29.902  33.127  1.00  0.00     0.167 HD
ATOM     58  C   UNL A   1      42.699  27.929  32.234  1.00  0.00     0.074 A 
ATOM     59  C   UNL A   1      43.405  27.005  31.371  1.00  0.00     0.031 C 
ATOM     60  C   UNL A   1      42.999  28.134  33.540  1.00  0.00     0.037 A 
BRANCH  47  61
ATOM     61  C   UNL A   1      39.459  32.380  36.311  1.00  0.00     0.057 A 
ATOM     62  C   UNL A   1      38.494  31.966  37.239  1.00  0.00     0.134 A 
ATOM     63  C   UNL A   1      40.161  33.557  36.595  1.00  0.00     0.134 A 
ATOM     64  F   UNL A   1      37.774  30.853  37.023  1.00  0.00    -0.206 F 
ATOM     65  C   UNL A   1      38.214  32.710  38.386  1.00  0.00     0.040 A 
ATOM     66  C   UNL A   1      39.917  34.292  37.756  1.00  0.00     0.040 A 
ATOM     67  F   UNL A   1      41.103  34.011  35.754  1.00  0.00    -0.206 F 
ATOM     68  C   UNL A   1      38.935  33.873  38.651  1.00  0.00     0.006 A 
ENDBRANCH  47  61
BRANCH  48  69
ATOM     69  C   UNL A   1      41.292  27.533  27.761  1.00  0.00     0.057 A 
ATOM     70  C   UNL A   1      40.768  26.261  27.498  1.00  0.00     0.134 A 
ATOM     71  C   UNL A   1      42.120  28.100  26.784  1.00  0.00     0.134 A 
ATOM     72  F   UNL A   1      39.981  25.656  28.400  1.00  0.00    -0.206 F 
ATOM     73  C   UNL A   1      41.079  25.568  26.327  1.00  0.00     0.040 A 
ATOM     74  C   UNL A   1      42.412  27.433  25.594  1.00  0.00     0.040 A 
ATOM     75  F   UNL A   1      42.646  29.320  26.967  1.00  0.00    -0.206 F 
ATOM     76  C   UNL A   1      41.899  26.157  25.368  1.00  0.00     0.006 A 
ENDBRANCH  48  69
BRANCH  60  77
ATOM     77  C   UNL A   1      44.110  27.314  34.132  1.00  0.00     0.057 A 
ATOM     78  C   UNL A   1      43.890  26.048  34.688  1.00  0.00     0.134 A 
ATOM     79  C   UNL A   1      45.430  27.785  34.104  1.00  0.00     0.134 A 
ATOM     80  F   UNL A   1      42.649  25.540  34.757  1.00  0.00    -0.206 F 
ATOM     81  C   UNL A   1      44.937  25.293  35.222  1.00  0.00     0.040 A 
ATOM     82  C   UNL A   1      46.489  27.025  34.601  1.00  0.00     0.040 A 
ATOM     83  F   UNL A   1      45.716  28.984  33.574  1.00  0.00    -0.206 F 
ATOM     84  C   UNL A   1      46.242  25.778  35.171  1.00  0.00     0.006 A 
ENDBRANCH  60  77
ENDBRANCH  34  35
ENDBRANCH  26  29
ENDBRANCH  24  25
ENDBRANCH  23  24
ENDBRANCH  22  23
ENDBRANCH   1  22
TORSDOF 16
ENDMDL
