MODEL 1
REMARK VINA RESULT:     -10.0      0.000      0.000
REMARK SMILES O=C(/C=C/c1cccs1)NCC(=O)NCCCCNC(=O)c1ccc(-c2c3nc(c(-c4c(F)cccc4F)c4ccc([nH]4)c(-c4c(F)cccc4F)c4nc(c(-c5c(F)cccc5F)c5ccc2[nH]5)C=C4)C=C3)cc1
REMARK SMILES IDX 16 1 15 2 14 3 12 4 13 5 11 7 10 8 1 9 2 10 3 12 4 13 5 14
REMARK SMILES IDX 6 15 9 16 7 17 8 18 17 19 18 20 19 21 20 22 21 24 22 25
REMARK SMILES IDX 23 26 75 27 24 28 74 29 25 30 26 31 27 32 68 33 28 34 73 35
REMARK SMILES IDX 67 36 69 37 29 38 72 39 66 40 65 41 30 43 56 44 39 45 55 46
REMARK SMILES IDX 40 47 43 48 54 49 70 50 41 51 42 52 53 54 71 55 44 56 31 57
REMARK SMILES IDX 32 58 37 59 33 60 34 61 36 62 38 63 35 64 57 65 58 66 63 67
REMARK SMILES IDX 59 68 60 69 62 70 64 71 61 72 45 73 46 74 51 75 47 76 48 77
REMARK SMILES IDX 50 78 52 79 49 80
REMARK H PARENT 14 6 10 11 19 23 69 42 43 53
REMARK Flexibility Score: inf
ROOT
ATOM      1  C   UNL A   1      34.299  35.552  28.802  1.00  0.00     0.023 C 
ENDROOT
BRANCH   1   2
ATOM      2  C   UNL A   1      33.007  36.054  29.446  1.00  0.00     0.116 C 
BRANCH   2   3
ATOM      3  N   UNL A   1      33.266  37.131  30.382  1.00  0.00    -0.355 N 
ATOM      4  C   UNL A   1      33.237  37.100  31.746  1.00  0.00     0.239 C 
ATOM      5  O   UNL A   1      33.489  38.138  32.362  1.00  0.00    -0.273 OA
ATOM      6  H   UNL A   1      33.493  38.001  29.979  1.00  0.00     0.163 HD
BRANCH   4   7
ATOM      7  C   UNL A   1      32.948  35.790  32.481  1.00  0.00     0.216 C 
BRANCH   7   8
ATOM      8  N   UNL A   1      34.162  35.055  32.806  1.00  0.00    -0.343 N 
ATOM      9  O   UNL A   1      33.089  33.086  33.251  1.00  0.00    -0.270 OA
ATOM     10  C   UNL A   1      34.124  33.739  33.171  1.00  0.00     0.244 C 
ATOM     11  H   UNL A   1      35.031  35.517  32.761  1.00  0.00     0.164 HD
BRANCH  10  12
ATOM     12  C   UNL A   1      35.410  33.076  33.492  1.00  0.00     0.072 C 
ATOM     13  C   UNL A   1      36.041  32.130  32.779  1.00  0.00     0.024 C 
BRANCH  13  14
ATOM     14  C   UNL A   1      37.299  31.615  33.210  1.00  0.00     0.027 A 
ATOM     15  C   UNL A   1      37.772  30.312  33.250  1.00  0.00     0.020 A 
ATOM     16  S   UNL A   1      38.508  32.703  33.784  1.00  0.00    -0.144 S 
ATOM     17  C   UNL A   1      39.090  30.208  33.779  1.00  0.00     0.012 A 
ATOM     18  C   UNL A   1      39.602  31.436  34.121  1.00  0.00     0.065 A 
ENDBRANCH  13  14
ENDBRANCH  10  12
ENDBRANCH   7   8
ENDBRANCH   4   7
ENDBRANCH   2   3
ENDBRANCH   1   2
BRANCH   1  19
ATOM     19  C   UNL A   1      34.828  34.236  29.385  1.00  0.00     0.023 C 
BRANCH  19  20
ATOM     20  C   UNL A   1      35.270  33.197  28.358  1.00  0.00     0.116 C 
BRANCH  20  21
ATOM     21  N   UNL A   1      34.256  32.188  28.090  1.00  0.00    -0.352 N 
ATOM     22  C   UNL A   1      34.395  30.826  27.990  1.00  0.00     0.251 C 
ATOM     23  H   UNL A   1      33.342  32.532  27.963  1.00  0.00     0.163 HD
ATOM     24  O   UNL A   1      33.447  30.132  27.636  1.00  0.00    -0.269 OA
BRANCH  22  25
ATOM     25  C   UNL A   1      35.705  30.197  28.270  1.00  0.00     0.039 A 
ATOM     26  C   UNL A   1      36.649  30.128  27.241  1.00  0.00     0.014 A 
ATOM     27  C   UNL A   1      36.010  29.698  29.539  1.00  0.00     0.014 A 
ATOM     28  C   UNL A   1      37.928  29.636  27.508  1.00  0.00     0.010 A 
ATOM     29  C   UNL A   1      37.304  29.269  29.819  1.00  0.00     0.010 A 
ATOM     30  C   UNL A   1      38.280  29.247  28.810  1.00  0.00    -0.014 A 
BRANCH  30  31
ATOM     31  C   UNL A   1      39.674  28.859  29.144  1.00  0.00     0.031 A 
ATOM     32  C   UNL A   1      40.579  29.809  29.876  1.00  0.00     0.074 A 
ATOM     33  C   UNL A   1      40.148  27.671  28.720  1.00  0.00     0.049 A 
ATOM     34  N   UNL A   1      41.842  29.670  30.190  1.00  0.00    -0.248 NA
ATOM     35  C   UNL A   1      39.995  31.094  30.287  1.00  0.00     0.031 C 
ATOM     36  C   UNL A   1      39.385  26.679  27.959  1.00  0.00     0.029 A 
ATOM     37  N   UNL A   1      41.388  27.099  28.858  1.00  0.00    -0.354 N 
ATOM     38  C   UNL A   1      42.206  30.849  30.828  1.00  0.00     0.074 A 
ATOM     39  C   UNL A   1      41.044  31.713  30.811  1.00  0.00     0.031 C 
ATOM     40  C   UNL A   1      40.167  25.615  27.715  1.00  0.00     0.029 A 
ATOM     41  C   UNL A   1      41.496  25.865  28.264  1.00  0.00     0.049 A 
ATOM     42  H   UNL A   1      42.131  27.533  29.335  1.00  0.00     0.167 HD
ATOM     43  C   UNL A   1      43.393  31.174  31.393  1.00  0.00     0.037 A 
ATOM     44  C   UNL A   1      42.548  25.031  28.164  1.00  0.00     0.037 A 
ATOM     45  C   UNL A   1      44.543  30.308  31.421  1.00  0.00     0.049 A 
ATOM     46  C   UNL A   1      43.860  25.425  28.782  1.00  0.00     0.074 A 
ATOM     47  C   UNL A   1      45.770  30.524  32.024  1.00  0.00     0.029 A 
ATOM     48  N   UNL A   1      44.610  29.062  30.815  1.00  0.00    -0.354 N 
ATOM     49  N   UNL A   1      44.169  26.513  29.444  1.00  0.00    -0.248 NA
ATOM     50  C   UNL A   1      44.970  24.472  28.640  1.00  0.00     0.031 C 
ATOM     51  C   UNL A   1      46.596  29.431  31.740  1.00  0.00     0.029 A 
ATOM     52  C   UNL A   1      45.868  28.511  31.004  1.00  0.00     0.049 A 
ATOM     53  H   UNL A   1      43.874  28.633  30.321  1.00  0.00     0.167 HD
ATOM     54  C   UNL A   1      45.498  26.367  29.817  1.00  0.00     0.074 A 
ATOM     55  C   UNL A   1      45.932  25.076  29.324  1.00  0.00     0.031 C 
ATOM     56  C   UNL A   1      46.288  27.226  30.507  1.00  0.00     0.037 A 
BRANCH  43  57
ATOM     57  C   UNL A   1      43.509  32.528  32.030  1.00  0.00     0.057 A 
ATOM     58  C   UNL A   1      43.840  33.669  31.287  1.00  0.00     0.134 A 
ATOM     59  C   UNL A   1      43.247  32.702  33.396  1.00  0.00     0.134 A 
ATOM     60  F   UNL A   1      44.113  33.570  29.976  1.00  0.00    -0.206 F 
ATOM     61  C   UNL A   1      43.931  34.928  31.881  1.00  0.00     0.040 A 
ATOM     62  C   UNL A   1      43.308  33.961  33.996  1.00  0.00     0.040 A 
ATOM     63  F   UNL A   1      42.918  31.655  34.166  1.00  0.00    -0.206 F 
ATOM     64  C   UNL A   1      43.657  35.078  33.239  1.00  0.00     0.006 A 
ENDBRANCH  43  57
BRANCH  44  65
ATOM     65  C   UNL A   1      42.402  23.732  27.459  1.00  0.00     0.057 A 
ATOM     66  C   UNL A   1      42.080  22.564  28.159  1.00  0.00     0.134 A 
ATOM     67  C   UNL A   1      42.588  23.624  26.076  1.00  0.00     0.134 A 
ATOM     68  F   UNL A   1      41.910  22.600  29.489  1.00  0.00    -0.206 F 
ATOM     69  C   UNL A   1      41.966  21.332  27.513  1.00  0.00     0.040 A 
ATOM     70  C   UNL A   1      42.451  22.403  25.413  1.00  0.00     0.040 A 
ATOM     71  F   UNL A   1      42.890  24.708  25.346  1.00  0.00    -0.206 F 
ATOM     72  C   UNL A   1      42.147  21.251  26.134  1.00  0.00     0.006 A 
ENDBRANCH  44  65
BRANCH  56  73
ATOM     73  C   UNL A   1      47.695  26.785  30.790  1.00  0.00     0.057 A 
ATOM     74  C   UNL A   1      48.018  26.024  31.920  1.00  0.00     0.134 A 
ATOM     75  C   UNL A   1      48.733  27.100  29.904  1.00  0.00     0.134 A 
ATOM     76  F   UNL A   1      47.072  25.702  32.815  1.00  0.00    -0.206 F 
ATOM     77  C   UNL A   1      49.328  25.613  32.171  1.00  0.00     0.040 A 
ATOM     78  C   UNL A   1      50.041  26.671  30.130  1.00  0.00     0.040 A 
ATOM     79  F   UNL A   1      48.491  27.821  28.797  1.00  0.00    -0.206 F 
ATOM     80  C   UNL A   1      50.343  25.930  31.271  1.00  0.00     0.006 A 
ENDBRANCH  56  73
ENDBRANCH  30  31
ENDBRANCH  22  25
ENDBRANCH  20  21
ENDBRANCH  19  20
ENDBRANCH   1  19
TORSDOF 14
ENDMDL
MODEL 2
REMARK VINA RESULT:      -9.8      1.878      2.873
REMARK SMILES O=C(/C=C/c1cccs1)NCC(=O)NCCCCNC(=O)c1ccc(-c2c3nc(c(-c4c(F)cccc4F)c4ccc([nH]4)c(-c4c(F)cccc4F)c4nc(c(-c5c(F)cccc5F)c5ccc2[nH]5)C=C4)C=C3)cc1
REMARK SMILES IDX 16 1 15 2 14 3 12 4 13 5 11 7 10 8 1 9 2 10 3 12 4 13 5 14
REMARK SMILES IDX 6 15 9 16 7 17 8 18 17 19 18 20 19 21 20 22 21 24 22 25
REMARK SMILES IDX 23 26 75 27 24 28 74 29 25 30 26 31 27 32 68 33 28 34 73 35
REMARK SMILES IDX 67 36 69 37 29 38 72 39 66 40 65 41 30 43 56 44 39 45 55 46
REMARK SMILES IDX 40 47 43 48 54 49 70 50 41 51 42 52 53 54 71 55 44 56 31 57
REMARK SMILES IDX 32 58 37 59 33 60 34 61 36 62 38 63 35 64 57 65 58 66 63 67
REMARK SMILES IDX 59 68 60 69 62 70 64 71 61 72 45 73 46 74 51 75 47 76 48 77
REMARK SMILES IDX 50 78 52 79 49 80
REMARK H PARENT 14 6 10 11 19 23 69 42 43 53
REMARK Flexibility Score: inf
ROOT
ATOM      1  C   UNL A   1      34.163  35.411  28.679  1.00  0.00     0.023 C 
ENDROOT
BRANCH   1   2
ATOM      2  C   UNL A   1      32.898  35.561  29.523  1.00  0.00     0.116 C 
BRANCH   2   3
ATOM      3  N   UNL A   1      32.903  36.804  30.269  1.00  0.00    -0.355 N 
ATOM      4  C   UNL A   1      33.220  37.010  31.580  1.00  0.00     0.239 C 
ATOM      5  O   UNL A   1      33.159  38.158  32.026  1.00  0.00    -0.273 OA
ATOM      6  H   UNL A   1      32.643  37.607  29.761  1.00  0.00     0.163 HD
BRANCH   4   7
ATOM      7  C   UNL A   1      33.690  35.843  32.452  1.00  0.00     0.216 C 
BRANCH   7   8
ATOM      8  N   UNL A   1      35.140  35.720  32.481  1.00  0.00    -0.343 N 
ATOM      9  O   UNL A   1      35.139  33.510  33.066  1.00  0.00    -0.270 OA
ATOM     10  C   UNL A   1      35.749  34.537  32.793  1.00  0.00     0.244 C 
ATOM     11  H   UNL A   1      35.694  36.506  32.270  1.00  0.00     0.164 HD
BRANCH  10  12
ATOM     12  C   UNL A   1      37.232  34.509  32.805  1.00  0.00     0.072 C 
ATOM     13  C   UNL A   1      38.053  34.314  31.763  1.00  0.00     0.024 C 
BRANCH  13  14
ATOM     14  C   UNL A   1      39.468  34.351  31.937  1.00  0.00     0.027 A 
ATOM     15  C   UNL A   1      40.229  34.578  33.074  1.00  0.00     0.020 A 
ATOM     16  S   UNL A   1      40.496  34.069  30.582  1.00  0.00    -0.144 S 
ATOM     17  C   UNL A   1      41.631  34.558  32.826  1.00  0.00     0.012 A 
ATOM     18  C   UNL A   1      41.912  34.304  31.505  1.00  0.00     0.065 A 
ENDBRANCH  13  14
ENDBRANCH  10  12
ENDBRANCH   7   8
ENDBRANCH   4   7
ENDBRANCH   2   3
ENDBRANCH   1   2
BRANCH   1  19
ATOM     19  C   UNL A   1      35.087  34.269  29.118  1.00  0.00     0.023 C 
BRANCH  19  20
ATOM     20  C   UNL A   1      34.380  33.003  29.595  1.00  0.00     0.116 C 
BRANCH  20  21
ATOM     21  N   UNL A   1      34.030  32.099  28.510  1.00  0.00    -0.352 N 
ATOM     22  C   UNL A   1      34.740  31.036  28.007  1.00  0.00     0.251 C 
ATOM     23  H   UNL A   1      33.164  32.274  28.077  1.00  0.00     0.163 HD
ATOM     24  O   UNL A   1      34.347  30.451  27.002  1.00  0.00    -0.269 OA
BRANCH  22  25
ATOM     25  C   UNL A   1      36.003  30.621  28.654  1.00  0.00     0.039 A 
ATOM     26  C   UNL A   1      35.950  29.684  29.690  1.00  0.00     0.014 A 
ATOM     27  C   UNL A   1      37.233  31.132  28.231  1.00  0.00     0.014 A 
ATOM     28  C   UNL A   1      37.135  29.198  30.245  1.00  0.00     0.010 A 
ATOM     29  C   UNL A   1      38.415  30.600  28.739  1.00  0.00     0.010 A 
ATOM     30  C   UNL A   1      38.377  29.617  29.741  1.00  0.00    -0.014 A 
BRANCH  30  31
ATOM     31  C   UNL A   1      39.644  29.005  30.218  1.00  0.00     0.031 A 
ATOM     32  C   UNL A   1      40.355  29.554  31.422  1.00  0.00     0.074 A 
ATOM     33  C   UNL A   1      40.193  27.993  29.516  1.00  0.00     0.049 A 
ATOM     34  N   UNL A   1      41.502  29.193  31.940  1.00  0.00    -0.248 NA
ATOM     35  C   UNL A   1      39.703  30.671  32.122  1.00  0.00     0.031 C 
ATOM     36  C   UNL A   1      39.627  27.401  28.302  1.00  0.00     0.029 A 
ATOM     37  N   UNL A   1      41.355  27.292  29.715  1.00  0.00    -0.354 N 
ATOM     38  C   UNL A   1      41.713  30.042  33.019  1.00  0.00     0.074 A 
ATOM     39  C   UNL A   1      40.601  30.968  33.052  1.00  0.00     0.031 C 
ATOM     40  C   UNL A   1      40.432  26.415  27.877  1.00  0.00     0.029 A 
ATOM     41  C   UNL A   1      41.589  26.331  28.761  1.00  0.00     0.049 A 
ATOM     42  H   UNL A   1      41.965  27.462  30.468  1.00  0.00     0.167 HD
ATOM     43  C   UNL A   1      42.730  30.037  33.913  1.00  0.00     0.037 A 
ATOM     44  C   UNL A   1      42.624  25.484  28.608  1.00  0.00     0.037 A 
ATOM     45  C   UNL A   1      43.829  29.106  33.887  1.00  0.00     0.049 A 
ATOM     46  C   UNL A   1      43.751  25.512  29.602  1.00  0.00     0.074 A 
ATOM     47  C   UNL A   1      44.875  28.982  34.785  1.00  0.00     0.029 A 
ATOM     48  N   UNL A   1      44.027  28.142  32.909  1.00  0.00    -0.354 N 
ATOM     49  N   UNL A   1      43.902  26.272  30.659  1.00  0.00    -0.248 NA
ATOM     50  C   UNL A   1      44.851  24.562  29.383  1.00  0.00     0.031 C 
ATOM     51  C   UNL A   1      45.732  27.977  34.324  1.00  0.00     0.029 A 
ATOM     52  C   UNL A   1      45.194  27.441  33.166  1.00  0.00     0.049 A 
ATOM     53  H   UNL A   1      43.428  27.982  32.144  1.00  0.00     0.167 HD
ATOM     54  C   UNL A   1      45.098  25.879  31.244  1.00  0.00     0.074 A 
ATOM     55  C   UNL A   1      45.624  24.799  30.433  1.00  0.00     0.031 C 
ATOM     56  C   UNL A   1      45.708  26.368  32.351  1.00  0.00     0.037 A 
BRANCH  43  57
ATOM     57  C   UNL A   1      42.704  31.072  34.999  1.00  0.00     0.057 A 
ATOM     58  C   UNL A   1      42.002  30.871  36.195  1.00  0.00     0.134 A 
ATOM     59  C   UNL A   1      43.421  32.268  34.866  1.00  0.00     0.134 A 
ATOM     60  F   UNL A   1      41.287  29.751  36.383  1.00  0.00    -0.206 F 
ATOM     61  C   UNL A   1      41.994  31.831  37.208  1.00  0.00     0.040 A 
ATOM     62  C   UNL A   1      43.442  33.224  35.884  1.00  0.00     0.040 A 
ATOM     63  F   UNL A   1      44.120  32.524  33.751  1.00  0.00    -0.206 F 
ATOM     64  C   UNL A   1      42.722  33.008  37.057  1.00  0.00     0.006 A 
ENDBRANCH  43  57
BRANCH  44  65
ATOM     65  C   UNL A   1      42.639  24.525  27.474  1.00  0.00     0.057 A 
ATOM     66  C   UNL A   1      43.195  24.879  26.239  1.00  0.00     0.134 A 
ATOM     67  C   UNL A   1      42.093  23.242  27.592  1.00  0.00     0.134 A 
ATOM     68  F   UNL A   1      43.715  26.101  26.058  1.00  0.00    -0.206 F 
ATOM     69  C   UNL A   1      43.192  23.998  25.156  1.00  0.00     0.040 A 
ATOM     70  C   UNL A   1      42.107  22.341  26.526  1.00  0.00     0.040 A 
ATOM     71  F   UNL A   1      41.553  22.839  28.751  1.00  0.00    -0.206 F 
ATOM     72  C   UNL A   1      42.650  22.722  25.301  1.00  0.00     0.006 A 
ENDBRANCH  44  65
BRANCH  56  73
ATOM     73  C   UNL A   1      46.998  25.723  32.765  1.00  0.00     0.057 A 
ATOM     74  C   UNL A   1      48.227  26.112  32.219  1.00  0.00     0.134 A 
ATOM     75  C   UNL A   1      47.013  24.723  33.746  1.00  0.00     0.134 A 
ATOM     76  F   UNL A   1      48.280  27.053  31.265  1.00  0.00    -0.206 F 
ATOM     77  C   UNL A   1      49.423  25.511  32.616  1.00  0.00     0.040 A 
ATOM     78  C   UNL A   1      48.205  24.135  34.171  1.00  0.00     0.040 A 
ATOM     79  F   UNL A   1      45.871  24.309  34.316  1.00  0.00    -0.206 F 
ATOM     80  C   UNL A   1      49.415  24.524  33.600  1.00  0.00     0.006 A 
ENDBRANCH  56  73
ENDBRANCH  30  31
ENDBRANCH  22  25
ENDBRANCH  20  21
ENDBRANCH  19  20
ENDBRANCH   1  19
TORSDOF 14
ENDMDL
MODEL 3
REMARK VINA RESULT:      -9.7      4.666      9.791
REMARK SMILES O=C(/C=C/c1cccs1)NCC(=O)NCCCCNC(=O)c1ccc(-c2c3nc(c(-c4c(F)cccc4F)c4ccc([nH]4)c(-c4c(F)cccc4F)c4nc(c(-c5c(F)cccc5F)c5ccc2[nH]5)C=C4)C=C3)cc1
REMARK SMILES IDX 16 1 15 2 14 3 12 4 13 5 11 7 10 8 1 9 2 10 3 12 4 13 5 14
REMARK SMILES IDX 6 15 9 16 7 17 8 18 17 19 18 20 19 21 20 22 21 24 22 25
REMARK SMILES IDX 23 26 75 27 24 28 74 29 25 30 26 31 27 32 68 33 28 34 73 35
REMARK SMILES IDX 67 36 69 37 29 38 72 39 66 40 65 41 30 43 56 44 39 45 55 46
REMARK SMILES IDX 40 47 43 48 54 49 70 50 41 51 42 52 53 54 71 55 44 56 31 57
REMARK SMILES IDX 32 58 37 59 33 60 34 61 36 62 38 63 35 64 57 65 58 66 63 67
REMARK SMILES IDX 59 68 60 69 62 70 64 71 61 72 45 73 46 74 51 75 47 76 48 77
REMARK SMILES IDX 50 78 52 79 49 80
REMARK H PARENT 14 6 10 11 19 23 69 42 43 53
REMARK Flexibility Score: inf
ROOT
ATOM      1  C   UNL A   1      31.790  30.386  26.648  1.00  0.00     0.023 C 
ENDROOT
BRANCH   1   2
ATOM      2  C   UNL A   1      31.644  29.719  25.281  1.00  0.00     0.116 C 
BRANCH   2   3
ATOM      3  N   UNL A   1      32.906  29.692  24.567  1.00  0.00    -0.355 N 
ATOM      4  C   UNL A   1      33.247  28.960  23.467  1.00  0.00     0.239 C 
ATOM      5  O   UNL A   1      34.386  29.084  23.010  1.00  0.00    -0.273 OA
ATOM      6  H   UNL A   1      33.610  30.281  24.924  1.00  0.00     0.163 HD
BRANCH   4   7
ATOM      7  C   UNL A   1      32.216  28.051  22.795  1.00  0.00     0.216 C 
BRANCH   7   8
ATOM      8  N   UNL A   1      32.307  26.672  23.254  1.00  0.00    -0.343 N 
ATOM      9  O   UNL A   1      33.739  26.009  21.600  1.00  0.00    -0.270 OA
ATOM     10  C   UNL A   1      33.078  25.753  22.600  1.00  0.00     0.244 C 
ATOM     11  H   UNL A   1      31.802  26.397  24.053  1.00  0.00     0.164 HD
BRANCH  10  12
ATOM     12  C   UNL A   1      33.102  24.370  23.135  1.00  0.00     0.072 C 
ATOM     13  C   UNL A   1      34.165  23.560  23.254  1.00  0.00     0.024 C 
BRANCH  13  14
ATOM     14  C   UNL A   1      34.027  22.261  23.826  1.00  0.00     0.027 A 
ATOM     15  C   UNL A   1      34.914  21.514  24.586  1.00  0.00     0.020 A 
ATOM     16  S   UNL A   1      32.554  21.392  23.607  1.00  0.00    -0.144 S 
ATOM     17  C   UNL A   1      34.403  20.235  24.950  1.00  0.00     0.012 A 
ATOM     18  C   UNL A   1      33.131  20.036  24.468  1.00  0.00     0.065 A 
ENDBRANCH  13  14
ENDBRANCH  10  12
ENDBRANCH   7   8
ENDBRANCH   4   7
ENDBRANCH   2   3
ENDBRANCH   1   2
BRANCH   1  19
ATOM     19  C   UNL A   1      31.623  31.910  26.629  1.00  0.00     0.023 C 
BRANCH  19  20
ATOM     20  C   UNL A   1      32.754  32.700  27.283  1.00  0.00     0.116 C 
BRANCH  20  21
ATOM     21  N   UNL A   1      32.387  34.072  27.600  1.00  0.00    -0.352 N 
ATOM     22  C   UNL A   1      32.946  34.928  28.517  1.00  0.00     0.251 C 
ATOM     23  H   UNL A   1      31.633  34.437  27.083  1.00  0.00     0.163 HD
ATOM     24  O   UNL A   1      32.429  36.018  28.740  1.00  0.00    -0.269 OA
BRANCH  22  25
ATOM     25  C   UNL A   1      34.151  34.516  29.270  1.00  0.00     0.039 A 
ATOM     26  C   UNL A   1      33.990  33.973  30.548  1.00  0.00     0.014 A 
ATOM     27  C   UNL A   1      35.427  34.642  28.714  1.00  0.00     0.014 A 
ATOM     28  C   UNL A   1      35.102  33.481  31.234  1.00  0.00     0.010 A 
ATOM     29  C   UNL A   1      36.524  34.092  29.371  1.00  0.00     0.010 A 
ATOM     30  C   UNL A   1      36.370  33.493  30.631  1.00  0.00    -0.014 A 
BRANCH  30  31
ATOM     31  C   UNL A   1      37.536  32.844  31.284  1.00  0.00     0.031 A 
ATOM     32  C   UNL A   1      38.177  31.630  30.673  1.00  0.00     0.074 A 
ATOM     33  C   UNL A   1      37.971  33.309  32.472  1.00  0.00     0.049 A 
ATOM     34  N   UNL A   1      39.155  30.892  31.135  1.00  0.00    -0.248 NA
ATOM     35  C   UNL A   1      37.632  31.170  29.387  1.00  0.00     0.031 C 
ATOM     36  C   UNL A   1      37.403  34.450  33.192  1.00  0.00     0.029 A 
ATOM     37  N   UNL A   1      38.984  32.873  33.288  1.00  0.00    -0.354 N 
ATOM     38  C   UNL A   1      39.337  29.878  30.203  1.00  0.00     0.074 A 
ATOM     39  C   UNL A   1      38.336  30.067  29.174  1.00  0.00     0.031 C 
ATOM     40  C   UNL A   1      38.088  34.636  34.332  1.00  0.00     0.029 A 
ATOM     41  C   UNL A   1      39.114  33.605  34.444  1.00  0.00     0.049 A 
ATOM     42  H   UNL A   1      39.562  32.108  33.068  1.00  0.00     0.167 HD
ATOM     43  C   UNL A   1      40.267  28.894  30.194  1.00  0.00     0.037 A 
ATOM     44  C   UNL A   1      39.958  33.457  35.483  1.00  0.00     0.037 A 
ATOM     45  C   UNL A   1      41.271  28.716  31.212  1.00  0.00     0.049 A 
ATOM     46  C   UNL A   1      40.966  32.343  35.458  1.00  0.00     0.074 A 
ATOM     47  C   UNL A   1      42.294  27.786  31.259  1.00  0.00     0.029 A 
ATOM     48  N   UNL A   1      41.374  29.482  32.363  1.00  0.00    -0.354 N 
ATOM     49  N   UNL A   1      41.174  31.435  34.536  1.00  0.00    -0.248 NA
ATOM     50  C   UNL A   1      41.860  32.234  36.620  1.00  0.00     0.031 C 
ATOM     51  C   UNL A   1      42.986  27.956  32.463  1.00  0.00     0.029 A 
ATOM     52  C   UNL A   1      42.426  29.026  33.141  1.00  0.00     0.049 A 
ATOM     53  H   UNL A   1      40.787  30.238  32.594  1.00  0.00     0.167 HD
ATOM     54  C   UNL A   1      42.233  30.663  34.992  1.00  0.00     0.074 A 
ATOM     55  C   UNL A   1      42.639  31.222  36.266  1.00  0.00     0.031 C 
ATOM     56  C   UNL A   1      42.819  29.589  34.409  1.00  0.00     0.037 A 
BRANCH  43  57
ATOM     57  C   UNL A   1      40.242  27.928  29.046  1.00  0.00     0.057 A 
ATOM     58  C   UNL A   1      40.968  28.160  27.870  1.00  0.00     0.134 A 
ATOM     59  C   UNL A   1      39.517  26.733  29.130  1.00  0.00     0.134 A 
ATOM     60  F   UNL A   1      41.676  29.290  27.720  1.00  0.00    -0.206 F 
ATOM     61  C   UNL A   1      40.955  27.251  26.811  1.00  0.00     0.040 A 
ATOM     62  C   UNL A   1      39.517  25.802  28.089  1.00  0.00     0.040 A 
ATOM     63  F   UNL A   1      38.805  26.443  30.229  1.00  0.00    -0.206 F 
ATOM     64  C   UNL A   1      40.234  26.064  26.922  1.00  0.00     0.006 A 
ENDBRANCH  43  57
BRANCH  44  65
ATOM     65  C   UNL A   1      39.894  34.396  36.631  1.00  0.00     0.057 A 
ATOM     66  C   UNL A   1      39.135  34.094  37.768  1.00  0.00     0.134 A 
ATOM     67  C   UNL A   1      40.579  35.616  36.618  1.00  0.00     0.134 A 
ATOM     68  F   UNL A   1      38.441  32.949  37.831  1.00  0.00    -0.206 F 
ATOM     69  C   UNL A   1      39.045  34.980  38.843  1.00  0.00     0.040 A 
ATOM     70  C   UNL A   1      40.519  36.500  37.698  1.00  0.00     0.040 A 
ATOM     71  F   UNL A   1      41.330  35.961  35.562  1.00  0.00    -0.206 F 
ATOM     72  C   UNL A   1      39.743  36.185  38.811  1.00  0.00     0.006 A 
ENDBRANCH  44  65
BRANCH  56  73
ATOM     73  C   UNL A   1      43.975  28.962  35.131  1.00  0.00     0.057 A 
ATOM     74  C   UNL A   1      43.792  27.942  36.074  1.00  0.00     0.134 A 
ATOM     75  C   UNL A   1      45.289  29.362  34.857  1.00  0.00     0.134 A 
ATOM     76  F   UNL A   1      42.559  27.524  36.392  1.00  0.00    -0.206 F 
ATOM     77  C   UNL A   1      44.875  27.359  36.736  1.00  0.00     0.040 A 
ATOM     78  C   UNL A   1      46.381  28.768  35.492  1.00  0.00     0.040 A 
ATOM     79  F   UNL A   1      45.535  30.329  33.960  1.00  0.00    -0.206 F 
ATOM     80  C   UNL A   1      46.175  27.768  36.440  1.00  0.00     0.006 A 
ENDBRANCH  56  73
ENDBRANCH  30  31
ENDBRANCH  22  25
ENDBRANCH  20  21
ENDBRANCH  19  20
ENDBRANCH   1  19
TORSDOF 14
ENDMDL
