MODEL 1
REMARK VINA RESULT:     -12.8      0.000      0.000
REMARK SMILES CC1(C)[C@@]2(C(=O)NCCCCNC(=O)c3ccc(-c4c5nc(c(-c6c(F)cccc6F)c6ccc([nH]6)c(-c6c(F)cccc6F)c6nc(c(-c7c(F)cccc7F)c7ccc4[nH]7)C=C6)C=C5)cc3)CC[C@]1(C)/C(=N/NC(=O)c1ccc(Cl)cc1)C2
REMARK SMILES IDX 9 1 8 2 7 3 5 4 6 5 4 7 1 8 2 9 3 10 71 11 69 12 85 13 70 14
REMARK SMILES IDX 72 15 73 16 74 17 75 18 76 19 77 21 78 22 79 23 84 24 80 25
REMARK SMILES IDX 83 26 81 27 82 28 10 29 11 30 12 31 13 32 14 34 15 35 16 36
REMARK SMILES IDX 68 37 17 38 67 39 18 40 19 41 20 42 61 43 21 44 66 45 60 46
REMARK SMILES IDX 62 47 22 48 65 49 59 50 58 51 23 53 49 54 32 55 48 56 33 57
REMARK SMILES IDX 36 58 47 59 63 60 34 61 35 62 46 64 64 65 37 66 24 67 25 68
REMARK SMILES IDX 30 69 26 70 27 71 29 72 31 73 28 74 50 75 51 76 56 77 52 78
REMARK SMILES IDX 53 79 55 80 57 81 54 82 38 83 39 84 44 85 40 86 41 87 43 88
REMARK SMILES IDX 45 89 42 90
REMARK H PARENT 7 6 75 20 12 33 62 52 36 63
REMARK Flexibility Score: inf
ROOT
ATOM      1  C   UNL A   1      37.071  22.217  24.130  1.00  0.00     0.023 C 
ENDROOT
BRANCH   1   2
ATOM      2  C   UNL A   1      37.031  23.640  24.693  1.00  0.00     0.116 C 
BRANCH   2   3
ATOM      3  N   UNL A   1      36.075  23.803  25.778  1.00  0.00    -0.356 N 
ATOM      4  C   UNL A   1      34.741  23.569  25.899  1.00  0.00     0.227 C 
ATOM      5  O   UNL A   1      34.379  23.295  27.050  1.00  0.00    -0.274 OA
ATOM      6  H   UNL A   1      36.483  24.158  26.602  1.00  0.00     0.163 HD
BRANCH   4   7
ATOM      7  C   UNL A   1      33.700  23.700  24.769  1.00  0.00     0.060 C 
ATOM      8  C   UNL A   1      31.601  23.033  26.216  1.00  0.00     0.013 C 
ATOM      9  C   UNL A   1      32.252  24.093  25.289  1.00  0.00    -0.010 C 
ATOM     10  C   UNL A   1      32.130  25.468  25.991  1.00  0.00     0.013 C 
ATOM     11  C   UNL A   1      31.648  24.102  23.851  1.00  0.00     0.014 C 
ATOM     12  C   UNL A   1      33.385  22.424  23.929  1.00  0.00     0.019 C 
ATOM     13  C   UNL A   1      34.016  24.861  23.777  1.00  0.00     0.071 C 
ATOM     14  C   UNL A   1      31.984  22.700  23.319  1.00  0.00     0.014 C 
ATOM     15  C   UNL A   1      30.201  24.545  23.718  1.00  0.00     0.018 C 
ATOM     16  C   UNL A   1      32.651  25.019  23.134  1.00  0.00     0.046 C 
ATOM     17  N   UNL A   1      32.250  25.766  22.152  1.00  0.00    -0.181 NA
BRANCH  17  18
ATOM     18  N   UNL A   1      33.064  26.694  21.586  1.00  0.00    -0.243 N 
ATOM     19  C   UNL A   1      33.680  27.751  22.228  1.00  0.00     0.271 C 
ATOM     20  H   UNL A   1      33.231  26.605  20.619  1.00  0.00     0.194 HD
ATOM     21  O   UNL A   1      34.685  28.291  21.771  1.00  0.00    -0.267 OA
BRANCH  19  22
ATOM     22  C   UNL A   1      33.037  28.334  23.406  1.00  0.00     0.041 A 
ATOM     23  C   UNL A   1      33.840  28.486  24.537  1.00  0.00     0.015 A 
ATOM     24  C   UNL A   1      31.708  28.761  23.401  1.00  0.00     0.015 A 
ATOM     25  C   UNL A   1      33.337  29.173  25.634  1.00  0.00     0.021 A 
ATOM     26  C   UNL A   1      31.220  29.473  24.500  1.00  0.00     0.021 A 
ATOM     27  C   UNL A   1      32.056  29.719  25.591  1.00  0.00     0.041 A 
ATOM     28  Cl  UNL A   1      31.542  30.759  26.859  1.00  0.00    -0.084 Cl
ENDBRANCH  19  22
ENDBRANCH  17  18
ENDBRANCH   4   7
ENDBRANCH   2   3
ENDBRANCH   1   2
BRANCH   1  29
ATOM     29  C   UNL A   1      37.430  21.066  25.076  1.00  0.00     0.023 C 
BRANCH  29  30
ATOM     30  C   UNL A   1      38.816  21.139  25.722  1.00  0.00     0.116 C 
BRANCH  30  31
ATOM     31  N   UNL A   1      39.631  19.927  25.625  1.00  0.00    -0.352 N 
ATOM     32  C   UNL A   1      40.947  19.749  26.012  1.00  0.00     0.251 C 
ATOM     33  H   UNL A   1      39.187  19.139  25.234  1.00  0.00     0.163 HD
ATOM     34  O   UNL A   1      41.517  18.674  25.861  1.00  0.00    -0.269 OA
BRANCH  32  35
ATOM     35  C   UNL A   1      41.680  20.909  26.557  1.00  0.00     0.039 A 
ATOM     36  C   UNL A   1      42.236  21.844  25.679  1.00  0.00     0.014 A 
ATOM     37  C   UNL A   1      41.651  21.150  27.929  1.00  0.00     0.014 A 
ATOM     38  C   UNL A   1      42.635  23.087  26.171  1.00  0.00     0.010 A 
ATOM     39  C   UNL A   1      41.940  22.424  28.395  1.00  0.00     0.010 A 
ATOM     40  C   UNL A   1      42.419  23.413  27.520  1.00  0.00    -0.014 A 
BRANCH  40  41
ATOM     41  C   UNL A   1      42.669  24.781  28.045  1.00  0.00     0.031 A 
ATOM     42  C   UNL A   1      44.054  25.166  28.487  1.00  0.00     0.074 A 
ATOM     43  C   UNL A   1      41.641  25.635  28.224  1.00  0.00     0.049 A 
ATOM     44  N   UNL A   1      44.462  26.263  29.070  1.00  0.00    -0.248 NA
ATOM     45  C   UNL A   1      45.113  24.161  28.292  1.00  0.00     0.031 C 
ATOM     46  C   UNL A   1      40.235  25.355  27.920  1.00  0.00     0.029 A 
ATOM     47  N   UNL A   1      41.619  26.916  28.719  1.00  0.00    -0.354 N 
ATOM     48  C   UNL A   1      45.810  26.064  29.340  1.00  0.00     0.074 A 
ATOM     49  C   UNL A   1      46.133  24.719  28.924  1.00  0.00     0.031 C 
ATOM     50  C   UNL A   1      39.497  26.444  28.198  1.00  0.00     0.029 A 
ATOM     51  C   UNL A   1      40.368  27.486  28.729  1.00  0.00     0.049 A 
ATOM     52  H   UNL A   1      42.426  27.384  29.037  1.00  0.00     0.167 HD
ATOM     53  C   UNL A   1      46.710  26.936  29.852  1.00  0.00     0.037 A 
ATOM     54  C   UNL A   1      39.973  28.714  29.115  1.00  0.00     0.037 A 
ATOM     55  C   UNL A   1      46.400  28.293  30.206  1.00  0.00     0.049 A 
ATOM     56  C   UNL A   1      41.001  29.686  29.627  1.00  0.00     0.074 A 
ATOM     57  C   UNL A   1      47.255  29.285  30.652  1.00  0.00     0.029 A 
ATOM     58  N   UNL A   1      45.133  28.853  30.142  1.00  0.00    -0.354 N 
ATOM     59  N   UNL A   1      42.289  29.513  29.799  1.00  0.00    -0.248 NA
ATOM     60  C   UNL A   1      40.522  31.029  29.986  1.00  0.00     0.031 C 
ATOM     61  C   UNL A   1      46.499  30.439  30.886  1.00  0.00     0.029 A 
ATOM     62  C   UNL A   1      45.180  30.175  30.550  1.00  0.00     0.049 A 
ATOM     63  H   UNL A   1      44.320  28.380  29.852  1.00  0.00     0.167 HD
ATOM     64  C   UNL A   1      42.779  30.728  30.257  1.00  0.00     0.074 A 
ATOM     65  C   UNL A   1      41.653  31.636  30.324  1.00  0.00     0.031 C 
ATOM     66  C   UNL A   1      44.048  31.064  30.594  1.00  0.00     0.037 A 
BRANCH  53  67
ATOM     67  C   UNL A   1      48.116  26.444  30.030  1.00  0.00     0.057 A 
ATOM     68  C   UNL A   1      48.532  25.813  31.210  1.00  0.00     0.134 A 
ATOM     69  C   UNL A   1      49.063  26.599  29.011  1.00  0.00     0.134 A 
ATOM     70  F   UNL A   1      47.676  25.649  32.231  1.00  0.00    -0.206 F 
ATOM     71  C   UNL A   1      49.849  25.388  31.387  1.00  0.00     0.040 A 
ATOM     72  C   UNL A   1      50.377  26.151  29.165  1.00  0.00     0.040 A 
ATOM     73  F   UNL A   1      48.732  27.192  27.854  1.00  0.00    -0.206 F 
ATOM     74  C   UNL A   1      50.775  25.552  30.359  1.00  0.00     0.006 A 
ENDBRANCH  53  67
BRANCH  54  75
ATOM     75  C   UNL A   1      38.549  29.117  28.987  1.00  0.00     0.057 A 
ATOM     76  C   UNL A   1      38.042  29.588  27.769  1.00  0.00     0.134 A 
ATOM     77  C   UNL A   1      37.666  29.059  30.071  1.00  0.00     0.134 A 
ATOM     78  F   UNL A   1      38.844  29.686  26.699  1.00  0.00    -0.206 F 
ATOM     79  C   UNL A   1      36.717  30.006  27.638  1.00  0.00     0.040 A 
ATOM     80  C   UNL A   1      36.331  29.451  29.949  1.00  0.00     0.040 A 
ATOM     81  F   UNL A   1      38.086  28.609  31.263  1.00  0.00    -0.206 F 
ATOM     82  C   UNL A   1      35.856  29.935  28.731  1.00  0.00     0.006 A 
ENDBRANCH  54  75
BRANCH  66  83
ATOM     83  C   UNL A   1      44.293  32.478  31.027  1.00  0.00     0.057 A 
ATOM     84  C   UNL A   1      44.579  33.493  30.106  1.00  0.00     0.134 A 
ATOM     85  C   UNL A   1      44.189  32.836  32.377  1.00  0.00     0.134 A 
ATOM     86  F   UNL A   1      44.702  33.212  28.800  1.00  0.00    -0.206 F 
ATOM     87  C   UNL A   1      44.774  34.813  30.516  1.00  0.00     0.040 A 
ATOM     88  C   UNL A   1      44.357  34.156  32.796  1.00  0.00     0.040 A 
ATOM     89  F   UNL A   1      43.908  31.911  33.307  1.00  0.00    -0.206 F 
ATOM     90  C   UNL A   1      44.656  35.148  31.863  1.00  0.00     0.006 A 
ENDBRANCH  66  83
ENDBRANCH  40  41
ENDBRANCH  32  35
ENDBRANCH  30  31
ENDBRANCH  29  30
ENDBRANCH   1  29
TORSDOF 13
ENDMDL
MODEL 2
REMARK VINA RESULT:     -12.3      2.638      3.614
REMARK SMILES CC1(C)[C@@]2(C(=O)NCCCCNC(=O)c3ccc(-c4c5nc(c(-c6c(F)cccc6F)c6ccc([nH]6)c(-c6c(F)cccc6F)c6nc(c(-c7c(F)cccc7F)c7ccc4[nH]7)C=C6)C=C5)cc3)CC[C@]1(C)/C(=N/NC(=O)c1ccc(Cl)cc1)C2
REMARK SMILES IDX 9 1 8 2 7 3 5 4 6 5 4 7 1 8 2 9 3 10 71 11 69 12 85 13 70 14
REMARK SMILES IDX 72 15 73 16 74 17 75 18 76 19 77 21 78 22 79 23 84 24 80 25
REMARK SMILES IDX 83 26 81 27 82 28 10 29 11 30 12 31 13 32 14 34 15 35 16 36
REMARK SMILES IDX 68 37 17 38 67 39 18 40 19 41 20 42 61 43 21 44 66 45 60 46
REMARK SMILES IDX 62 47 22 48 65 49 59 50 58 51 23 53 49 54 32 55 48 56 33 57
REMARK SMILES IDX 36 58 47 59 63 60 34 61 35 62 46 64 64 65 37 66 24 67 25 68
REMARK SMILES IDX 30 69 26 70 27 71 29 72 31 73 28 74 50 75 51 76 56 77 52 78
REMARK SMILES IDX 53 79 55 80 57 81 54 82 38 83 39 84 44 85 40 86 41 87 43 88
REMARK SMILES IDX 45 89 42 90
REMARK H PARENT 7 6 75 20 12 33 62 52 36 63
REMARK Flexibility Score: inf
ROOT
ATOM      1  C   UNL A   1      40.039  21.333  26.251  1.00  0.00     0.023 C 
ENDROOT
BRANCH   1   2
ATOM      2  C   UNL A   1      38.679  21.375  25.550  1.00  0.00     0.116 C 
BRANCH   2   3
ATOM      3  N   UNL A   1      38.111  22.714  25.474  1.00  0.00    -0.356 N 
ATOM      4  C   UNL A   1      36.842  23.200  25.521  1.00  0.00     0.227 C 
ATOM      5  O   UNL A   1      36.759  24.349  25.972  1.00  0.00    -0.274 OA
ATOM      6  H   UNL A   1      38.792  23.417  25.366  1.00  0.00     0.163 HD
BRANCH   4   7
ATOM      7  C   UNL A   1      35.583  22.479  24.998  1.00  0.00     0.060 C 
ATOM      8  C   UNL A   1      34.570  21.898  27.361  1.00  0.00     0.013 C 
ATOM      9  C   UNL A   1      34.344  22.581  25.986  1.00  0.00    -0.010 C 
ATOM     10  C   UNL A   1      33.802  24.006  26.255  1.00  0.00     0.013 C 
ATOM     11  C   UNL A   1      33.417  21.759  25.040  1.00  0.00     0.014 C 
ATOM     12  C   UNL A   1      35.674  20.937  24.783  1.00  0.00     0.019 C 
ATOM     13  C   UNL A   1      35.011  23.113  23.693  1.00  0.00     0.071 C 
ATOM     14  C   UNL A   1      34.199  20.454  24.825  1.00  0.00     0.014 C 
ATOM     15  C   UNL A   1      31.964  21.613  25.460  1.00  0.00     0.018 C 
ATOM     16  C   UNL A   1      33.612  22.527  23.724  1.00  0.00     0.046 C 
ATOM     17  N   UNL A   1      32.640  22.591  22.866  1.00  0.00    -0.181 NA
BRANCH  17  18
ATOM     18  N   UNL A   1      32.718  23.375  21.760  1.00  0.00    -0.243 N 
ATOM     19  C   UNL A   1      32.922  24.741  21.731  1.00  0.00     0.271 C 
ATOM     20  H   UNL A   1      32.616  22.924  20.890  1.00  0.00     0.194 HD
ATOM     21  O   UNL A   1      33.372  25.309  20.740  1.00  0.00    -0.267 OA
BRANCH  19  22
ATOM     22  C   UNL A   1      32.457  25.549  22.860  1.00  0.00     0.041 A 
ATOM     23  C   UNL A   1      31.157  25.304  23.302  1.00  0.00     0.015 A 
ATOM     24  C   UNL A   1      33.273  26.485  23.498  1.00  0.00     0.015 A 
ATOM     25  C   UNL A   1      30.711  25.922  24.462  1.00  0.00     0.021 A 
ATOM     26  C   UNL A   1      32.824  27.082  24.679  1.00  0.00     0.021 A 
ATOM     27  C   UNL A   1      31.563  26.758  25.181  1.00  0.00     0.041 A 
ATOM     28  Cl  UNL A   1      31.074  27.326  26.730  1.00  0.00    -0.084 Cl
ENDBRANCH  19  22
ENDBRANCH  17  18
ENDBRANCH   4   7
ENDBRANCH   2   3
ENDBRANCH   1   2
BRANCH   1  29
ATOM     29  C   UNL A   1      40.808  20.007  26.277  1.00  0.00     0.023 C 
BRANCH  29  30
ATOM     30  C   UNL A   1      42.334  20.119  26.317  1.00  0.00     0.116 C 
BRANCH  30  31
ATOM     31  N   UNL A   1      43.060  19.311  25.335  1.00  0.00    -0.352 N 
ATOM     32  C   UNL A   1      44.187  19.657  24.612  1.00  0.00     0.251 C 
ATOM     33  H   UNL A   1      42.700  18.409  25.170  1.00  0.00     0.163 HD
ATOM     34  O   UNL A   1      44.691  18.880  23.807  1.00  0.00    -0.269 OA
BRANCH  32  35
ATOM     35  C   UNL A   1      44.740  21.015  24.781  1.00  0.00     0.039 A 
ATOM     36  C   UNL A   1      44.328  22.035  23.920  1.00  0.00     0.014 A 
ATOM     37  C   UNL A   1      45.521  21.299  25.900  1.00  0.00     0.014 A 
ATOM     38  C   UNL A   1      44.583  23.363  24.266  1.00  0.00     0.010 A 
ATOM     39  C   UNL A   1      45.671  22.618  26.299  1.00  0.00     0.010 A 
ATOM     40  C   UNL A   1      45.190  23.666  25.496  1.00  0.00    -0.014 A 
BRANCH  40  41
ATOM     41  C   UNL A   1      45.324  25.065  25.979  1.00  0.00     0.031 A 
ATOM     42  C   UNL A   1      46.668  25.738  25.946  1.00  0.00     0.074 A 
ATOM     43  C   UNL A   1      44.269  25.688  26.544  1.00  0.00     0.049 A 
ATOM     44  N   UNL A   1      47.021  26.906  26.416  1.00  0.00    -0.248 NA
ATOM     45  C   UNL A   1      47.775  24.973  25.348  1.00  0.00     0.031 C 
ATOM     46  C   UNL A   1      42.932  25.116  26.720  1.00  0.00     0.029 A 
ATOM     47  N   UNL A   1      44.161  26.945  27.087  1.00  0.00    -0.354 N 
ATOM     48  C   UNL A   1      48.390  26.998  26.200  1.00  0.00     0.074 A 
ATOM     49  C   UNL A   1      48.815  25.742  25.626  1.00  0.00     0.031 C 
ATOM     50  C   UNL A   1      42.131  26.032  27.292  1.00  0.00     0.029 A 
ATOM     51  C   UNL A   1      42.901  27.242  27.553  1.00  0.00     0.049 A 
ATOM     52  H   UNL A   1      44.915  27.577  27.138  1.00  0.00     0.167 HD
ATOM     53  C   UNL A   1      49.215  28.048  26.424  1.00  0.00     0.037 A 
ATOM     54  C   UNL A   1      42.423  28.367  28.118  1.00  0.00     0.037 A 
ATOM     55  C   UNL A   1      48.778  29.316  26.938  1.00  0.00     0.049 A 
ATOM     56  C   UNL A   1      43.346  29.541  28.303  1.00  0.00     0.074 A 
ATOM     57  C   UNL A   1      49.515  30.473  27.121  1.00  0.00     0.029 A 
ATOM     58  N   UNL A   1      47.481  29.598  27.338  1.00  0.00    -0.354 N 
ATOM     59  N   UNL A   1      44.621  29.643  28.018  1.00  0.00    -0.248 NA
ATOM     60  C   UNL A   1      42.759  30.761  28.877  1.00  0.00     0.031 C 
ATOM     61  C   UNL A   1      48.669  31.447  27.661  1.00  0.00     0.029 A 
ATOM     62  C   UNL A   1      47.398  30.907  27.778  1.00  0.00     0.049 A 
ATOM     63  H   UNL A   1      46.731  28.961  27.315  1.00  0.00     0.167 HD
ATOM     64  C   UNL A   1      44.983  30.943  28.349  1.00  0.00     0.074 A 
ATOM     65  C   UNL A   1      43.789  31.596  28.844  1.00  0.00     0.031 C 
ATOM     66  C   UNL A   1      46.195  31.542  28.253  1.00  0.00     0.037 A 
BRANCH  53  67
ATOM     67  C   UNL A   1      50.665  27.863  26.087  1.00  0.00     0.057 A 
ATOM     68  C   UNL A   1      51.140  27.994  24.775  1.00  0.00     0.134 A 
ATOM     69  C   UNL A   1      51.597  27.552  27.084  1.00  0.00     0.134 A 
ATOM     70  F   UNL A   1      50.294  28.274  23.771  1.00  0.00    -0.206 F 
ATOM     71  C   UNL A   1      52.483  27.787  24.460  1.00  0.00     0.040 A 
ATOM     72  C   UNL A   1      52.949  27.372  26.785  1.00  0.00     0.040 A 
ATOM     73  F   UNL A   1      51.212  27.415  28.362  1.00  0.00    -0.206 F 
ATOM     74  C   UNL A   1      53.393  27.480  25.468  1.00  0.00     0.006 A 
ENDBRANCH  53  67
BRANCH  54  75
ATOM     75  C   UNL A   1      40.992  28.462  28.503  1.00  0.00     0.057 A 
ATOM     76  C   UNL A   1      40.025  28.874  27.578  1.00  0.00     0.134 A 
ATOM     77  C   UNL A   1      40.556  28.161  29.799  1.00  0.00     0.134 A 
ATOM     78  F   UNL A   1      40.383  29.195  26.326  1.00  0.00    -0.206 F 
ATOM     79  C   UNL A   1      38.681  29.004  27.931  1.00  0.00     0.040 A 
ATOM     80  C   UNL A   1      39.211  28.265  30.160  1.00  0.00     0.040 A 
ATOM     81  F   UNL A   1      41.431  27.753  30.730  1.00  0.00    -0.206 F 
ATOM     82  C   UNL A   1      38.270  28.696  29.225  1.00  0.00     0.006 A 
ENDBRANCH  54  75
BRANCH  66  83
ATOM     83  C   UNL A   1      46.282  32.983  28.656  1.00  0.00     0.057 A 
ATOM     84  C   UNL A   1      46.044  34.019  27.744  1.00  0.00     0.134 A 
ATOM     85  C   UNL A   1      46.557  33.335  29.983  1.00  0.00     0.134 A 
ATOM     86  F   UNL A   1      45.787  33.746  26.456  1.00  0.00    -0.206 F 
ATOM     87  C   UNL A   1      46.097  35.358  28.136  1.00  0.00     0.040 A 
ATOM     88  C   UNL A   1      46.588  34.669  30.391  1.00  0.00     0.040 A 
ATOM     89  F   UNL A   1      46.785  32.388  30.906  1.00  0.00    -0.206 F 
ATOM     90  C   UNL A   1      46.363  35.685  29.464  1.00  0.00     0.006 A 
ENDBRANCH  66  83
ENDBRANCH  40  41
ENDBRANCH  32  35
ENDBRANCH  30  31
ENDBRANCH  29  30
ENDBRANCH   1  29
TORSDOF 13
ENDMDL
MODEL 3
REMARK VINA RESULT:     -12.3      1.245      2.020
REMARK SMILES CC1(C)[C@@]2(C(=O)NCCCCNC(=O)c3ccc(-c4c5nc(c(-c6c(F)cccc6F)c6ccc([nH]6)c(-c6c(F)cccc6F)c6nc(c(-c7c(F)cccc7F)c7ccc4[nH]7)C=C6)C=C5)cc3)CC[C@]1(C)/C(=N/NC(=O)c1ccc(Cl)cc1)C2
REMARK SMILES IDX 9 1 8 2 7 3 5 4 6 5 4 7 1 8 2 9 3 10 71 11 69 12 85 13 70 14
REMARK SMILES IDX 72 15 73 16 74 17 75 18 76 19 77 21 78 22 79 23 84 24 80 25
REMARK SMILES IDX 83 26 81 27 82 28 10 29 11 30 12 31 13 32 14 34 15 35 16 36
REMARK SMILES IDX 68 37 17 38 67 39 18 40 19 41 20 42 61 43 21 44 66 45 60 46
REMARK SMILES IDX 62 47 22 48 65 49 59 50 58 51 23 53 49 54 32 55 48 56 33 57
REMARK SMILES IDX 36 58 47 59 63 60 34 61 35 62 46 64 64 65 37 66 24 67 25 68
REMARK SMILES IDX 30 69 26 70 27 71 29 72 31 73 28 74 50 75 51 76 56 77 52 78
REMARK SMILES IDX 53 79 55 80 57 81 54 82 38 83 39 84 44 85 40 86 41 87 43 88
REMARK SMILES IDX 45 89 42 90
REMARK H PARENT 7 6 75 20 12 33 62 52 36 63
REMARK Flexibility Score: inf
ROOT
ATOM      1  C   UNL A   1      36.926  20.262  24.727  1.00  0.00     0.023 C 
ENDROOT
BRANCH   1   2
ATOM      2  C   UNL A   1      35.534  20.350  25.358  1.00  0.00     0.116 C 
BRANCH   2   3
ATOM      3  N   UNL A   1      35.409  21.426  26.330  1.00  0.00    -0.356 N 
ATOM      4  C   UNL A   1      34.659  22.560  26.386  1.00  0.00     0.227 C 
ATOM      5  O   UNL A   1      34.392  22.931  27.536  1.00  0.00    -0.274 OA
ATOM      6  H   UNL A   1      35.991  21.307  27.115  1.00  0.00     0.163 HD
BRANCH   4   7
ATOM      7  C   UNL A   1      34.218  23.406  25.175  1.00  0.00     0.060 C 
ATOM      8  C   UNL A   1      32.429  21.703  24.257  1.00  0.00     0.013 C 
ATOM      9  C   UNL A   1      32.711  23.149  24.743  1.00  0.00    -0.010 C 
ATOM     10  C   UNL A   1      31.631  23.511  25.791  1.00  0.00     0.013 C 
ATOM     11  C   UNL A   1      32.782  24.183  23.579  1.00  0.00     0.014 C 
ATOM     12  C   UNL A   1      34.964  23.175  23.825  1.00  0.00     0.019 C 
ATOM     13  C   UNL A   1      34.215  24.938  25.467  1.00  0.00     0.071 C 
ATOM     14  C   UNL A   1      33.977  23.694  22.745  1.00  0.00     0.014 C 
ATOM     15  C   UNL A   1      31.494  24.450  22.818  1.00  0.00     0.018 C 
ATOM     16  C   UNL A   1      33.331  25.407  24.327  1.00  0.00     0.046 C 
ATOM     17  N   UNL A   1      32.996  26.600  23.940  1.00  0.00    -0.181 NA
BRANCH  17  18
ATOM     18  N   UNL A   1      33.339  27.702  24.656  1.00  0.00    -0.243 N 
ATOM     19  C   UNL A   1      32.475  28.640  25.189  1.00  0.00     0.271 C 
ATOM     20  H   UNL A   1      34.301  27.849  24.809  1.00  0.00     0.194 HD
ATOM     21  O   UNL A   1      32.798  29.358  26.131  1.00  0.00    -0.267 OA
BRANCH  19  22
ATOM     22  C   UNL A   1      31.195  28.881  24.522  1.00  0.00     0.041 A 
ATOM     23  C   UNL A   1      30.748  30.202  24.498  1.00  0.00     0.015 A 
ATOM     24  C   UNL A   1      30.472  27.862  23.899  1.00  0.00     0.015 A 
ATOM     25  C   UNL A   1      29.624  30.521  23.749  1.00  0.00     0.021 A 
ATOM     26  C   UNL A   1      29.356  28.198  23.126  1.00  0.00     0.021 A 
ATOM     27  C   UNL A   1      28.968  29.534  23.016  1.00  0.00     0.041 A 
ATOM     28  Cl  UNL A   1      27.727  29.988  21.916  1.00  0.00    -0.084 Cl
ENDBRANCH  19  22
ENDBRANCH  17  18
ENDBRANCH   4   7
ENDBRANCH   2   3
ENDBRANCH   1   2
BRANCH   1  29
ATOM     29  C   UNL A   1      37.926  21.392  25.000  1.00  0.00     0.023 C 
BRANCH  29  30
ATOM     30  C   UNL A   1      38.994  21.099  26.056  1.00  0.00     0.116 C 
BRANCH  30  31
ATOM     31  N   UNL A   1      39.861  19.950  25.785  1.00  0.00    -0.352 N 
ATOM     32  C   UNL A   1      41.222  19.837  26.006  1.00  0.00     0.251 C 
ATOM     33  H   UNL A   1      39.419  19.159  25.398  1.00  0.00     0.163 HD
ATOM     34  O   UNL A   1      41.831  18.811  25.720  1.00  0.00    -0.269 OA
BRANCH  32  35
ATOM     35  C   UNL A   1      41.946  21.009  26.536  1.00  0.00     0.039 A 
ATOM     36  C   UNL A   1      42.422  21.979  25.651  1.00  0.00     0.014 A 
ATOM     37  C   UNL A   1      41.985  21.219  27.913  1.00  0.00     0.014 A 
ATOM     38  C   UNL A   1      42.808  23.225  26.149  1.00  0.00     0.010 A 
ATOM     39  C   UNL A   1      42.258  22.492  28.392  1.00  0.00     0.010 A 
ATOM     40  C   UNL A   1      42.657  23.515  27.516  1.00  0.00    -0.014 A 
BRANCH  40  41
ATOM     41  C   UNL A   1      42.891  24.878  28.057  1.00  0.00     0.031 A 
ATOM     42  C   UNL A   1      44.273  25.275  28.498  1.00  0.00     0.074 A 
ATOM     43  C   UNL A   1      41.853  25.717  28.251  1.00  0.00     0.049 A 
ATOM     44  N   UNL A   1      44.669  26.370  29.094  1.00  0.00    -0.248 NA
ATOM     45  C   UNL A   1      45.343  24.287  28.287  1.00  0.00     0.031 C 
ATOM     46  C   UNL A   1      40.449  25.423  27.949  1.00  0.00     0.029 A 
ATOM     47  N   UNL A   1      41.817  26.991  28.763  1.00  0.00    -0.354 N 
ATOM     48  C   UNL A   1      46.020  26.185  29.356  1.00  0.00     0.074 A 
ATOM     49  C   UNL A   1      46.359  24.849  28.922  1.00  0.00     0.031 C 
ATOM     50  C   UNL A   1      39.699  26.498  28.244  1.00  0.00     0.029 A 
ATOM     51  C   UNL A   1      40.558  27.545  28.785  1.00  0.00     0.049 A 
ATOM     52  H   UNL A   1      42.618  27.465  29.084  1.00  0.00     0.167 HD
ATOM     53  C   UNL A   1      46.911  27.062  29.876  1.00  0.00     0.037 A 
ATOM     54  C   UNL A   1      40.149  28.762  29.189  1.00  0.00     0.037 A 
ATOM     55  C   UNL A   1      46.585  28.410  30.250  1.00  0.00     0.049 A 
ATOM     56  C   UNL A   1      41.167  29.741  29.709  1.00  0.00     0.074 A 
ATOM     57  C   UNL A   1      47.429  29.407  30.705  1.00  0.00     0.029 A 
ATOM     58  N   UNL A   1      45.311  28.954  30.198  1.00  0.00    -0.354 N 
ATOM     59  N   UNL A   1      42.457  29.582  29.874  1.00  0.00    -0.248 NA
ATOM     60  C   UNL A   1      40.673  31.073  30.088  1.00  0.00     0.031 C 
ATOM     61  C   UNL A   1      46.659  30.548  30.957  1.00  0.00     0.029 A 
ATOM     62  C   UNL A   1      45.343  30.271  30.622  1.00  0.00     0.049 A 
ATOM     63  H   UNL A   1      44.503  28.475  29.904  1.00  0.00     0.167 HD
ATOM     64  C   UNL A   1      42.934  30.798  30.346  1.00  0.00     0.074 A 
ATOM     65  C   UNL A   1      41.796  31.689  30.429  1.00  0.00     0.031 C 
ATOM     66  C   UNL A   1      44.200  31.145  30.682  1.00  0.00     0.037 A 
BRANCH  53  67
ATOM     67  C   UNL A   1      48.324  26.585  30.042  1.00  0.00     0.057 A 
ATOM     68  C   UNL A   1      49.295  26.797  29.054  1.00  0.00     0.134 A 
ATOM     69  C   UNL A   1      48.719  25.910  31.203  1.00  0.00     0.134 A 
ATOM     70  F   UNL A   1      48.976  27.424  27.911  1.00  0.00    -0.206 F 
ATOM     71  C   UNL A   1      50.599  26.322  29.197  1.00  0.00     0.040 A 
ATOM     72  C   UNL A   1      50.029  25.456  31.370  1.00  0.00     0.040 A 
ATOM     73  F   UNL A   1      47.842  25.676  32.190  1.00  0.00    -0.206 F 
ATOM     74  C   UNL A   1      50.971  25.653  30.361  1.00  0.00     0.006 A 
ENDBRANCH  53  67
BRANCH  54  75
ATOM     75  C   UNL A   1      38.720  29.149  29.072  1.00  0.00     0.057 A 
ATOM     76  C   UNL A   1      37.858  29.057  30.172  1.00  0.00     0.134 A 
ATOM     77  C   UNL A   1      38.175  29.602  27.865  1.00  0.00     0.134 A 
ATOM     78  F   UNL A   1      38.315  28.611  31.351  1.00  0.00    -0.206 F 
ATOM     79  C   UNL A   1      36.504  29.381  30.072  1.00  0.00     0.040 A 
ATOM     80  C   UNL A   1      36.827  29.951  27.756  1.00  0.00     0.040 A 
ATOM     81  F   UNL A   1      38.949  29.721  26.775  1.00  0.00    -0.206 F 
ATOM     82  C   UNL A   1      35.986  29.833  28.861  1.00  0.00     0.006 A 
ENDBRANCH  54  75
BRANCH  66  83
ATOM     83  C   UNL A   1      44.428  32.557  31.133  1.00  0.00     0.057 A 
ATOM     84  C   UNL A   1      44.701  33.586  30.224  1.00  0.00     0.134 A 
ATOM     85  C   UNL A   1      44.323  32.895  32.488  1.00  0.00     0.134 A 
ATOM     86  F   UNL A   1      44.825  33.323  28.915  1.00  0.00    -0.206 F 
ATOM     87  C   UNL A   1      44.880  34.903  30.651  1.00  0.00     0.040 A 
ATOM     88  C   UNL A   1      44.476  34.213  32.923  1.00  0.00     0.040 A 
ATOM     89  F   UNL A   1      44.054  31.956  33.407  1.00  0.00    -0.206 F 
ATOM     90  C   UNL A   1      44.761  35.220  32.003  1.00  0.00     0.006 A 
ENDBRANCH  66  83
ENDBRANCH  40  41
ENDBRANCH  32  35
ENDBRANCH  30  31
ENDBRANCH  29  30
ENDBRANCH   1  29
TORSDOF 13
ENDMDL
