MODEL 1
REMARK VINA RESULT:     -13.1      0.000      0.000
REMARK SMILES CC(=O)NS(=O)(=O)c1cc(-c2ccn(C(F)F)c(=O)c2)ccc1C(=O)NCCCCNC(=O)c1ccc(-c2c3nc(c(-c4c(F)cccc4F)c4ccc([nH]4)c(-c4c(F)cccc4F)c4nc(c(-c5c(F)cccc5F)c5ccc2[nH]5)C=C4)C=C3)cc1
REMARK SMILES IDX 28 1 27 2 26 3 24 4 25 5 23 7 8 8 9 9 10 10 22 11 21 12 5 13
REMARK SMILES IDX 6 14 7 15 4 16 1 17 2 18 3 19 11 21 12 22 20 23 13 24 18 25
REMARK SMILES IDX 14 26 19 27 15 28 16 29 17 30 29 31 30 32 31 33 32 34 33 36
REMARK SMILES IDX 34 37 35 38 87 39 36 40 86 41 37 42 38 43 39 44 80 45 40 46
REMARK SMILES IDX 85 47 79 48 81 49 41 50 84 51 78 52 77 53 42 55 68 56 51 57
REMARK SMILES IDX 67 58 52 59 55 60 66 61 82 62 53 63 54 64 65 66 83 67 56 68
REMARK SMILES IDX 43 69 44 70 49 71 45 72 46 73 48 74 50 75 47 76 69 77 70 78
REMARK SMILES IDX 75 79 71 80 72 81 74 82 76 83 73 84 57 85 58 86 63 87 59 88
REMARK SMILES IDX 60 89 62 90 64 91 61 92
REMARK H PARENT 26 6 4 20 31 35 81 54 55 65
REMARK Flexibility Score: inf
ROOT
ATOM      1  C   UNL A   1      32.610  29.674  25.623  1.00  0.00     0.023 C 
ENDROOT
BRANCH   1   2
ATOM      2  C   UNL A   1      32.921  28.816  24.387  1.00  0.00     0.116 C 
BRANCH   2   3
ATOM      3  N   UNL A   1      31.762  28.802  23.517  1.00  0.00    -0.352 N 
ATOM      4  C   UNL A   1      31.232  27.854  22.694  1.00  0.00     0.252 C 
ATOM      5  O   UNL A   1      30.288  28.169  21.967  1.00  0.00    -0.269 OA
ATOM      6  H   UNL A   1      31.256  29.646  23.522  1.00  0.00     0.163 HD
BRANCH   4   7
ATOM      7  C   UNL A   1      31.626  26.427  22.682  1.00  0.00     0.060 A 
ATOM      8  C   UNL A   1      31.359  25.491  23.687  1.00  0.00     0.101 A 
ATOM      9  C   UNL A   1      32.121  24.312  23.765  1.00  0.00     0.031 A 
ATOM     10  C   UNL A   1      33.193  24.090  22.894  1.00  0.00    -0.017 A 
ATOM     11  C   UNL A   1      32.624  26.127  21.730  1.00  0.00     0.016 A 
ATOM     12  C   UNL A   1      33.409  24.974  21.838  1.00  0.00     0.009 A 
BRANCH   8  13
ATOM     13  S   UNL A   1      30.171  25.784  24.954  1.00  0.00     0.264 S 
ATOM     14  O   UNL A   1      28.933  26.078  24.286  1.00  0.00    -0.201 OA
ATOM     15  O   UNL A   1      30.751  26.661  25.952  1.00  0.00    -0.201 OA
BRANCH  13  16
ATOM     16  N   UNL A   1      29.912  24.310  25.678  1.00  0.00    -0.249 N 
ATOM     17  C   UNL A   1      32.060  23.976  26.910  1.00  0.00     0.115 C 
ATOM     18  C   UNL A   1      30.573  23.793  26.801  1.00  0.00     0.230 C 
ATOM     19  O   UNL A   1      29.951  23.066  27.561  1.00  0.00    -0.274 OA
ATOM     20  H   UNL A   1      29.220  23.739  25.274  1.00  0.00     0.183 HD
ENDBRANCH  13  16
ENDBRANCH   8  13
BRANCH  10  21
ATOM     21  C   UNL A   1      34.218  23.109  23.294  1.00  0.00    -0.011 A 
ATOM     22  C   UNL A   1      35.626  23.399  23.085  1.00  0.00     0.027 A 
ATOM     23  C   UNL A   1      33.874  22.024  24.008  1.00  0.00     0.080 A 
ATOM     24  C   UNL A   1      36.571  22.657  23.670  1.00  0.00     0.095 A 
ATOM     25  C   UNL A   1      34.921  21.157  24.628  1.00  0.00     0.255 A 
ATOM     26  N   UNL A   1      36.233  21.569  24.452  1.00  0.00    -0.258 N 
ATOM     27  O   UNL A   1      34.559  20.182  25.276  1.00  0.00    -0.269 OA
BRANCH  26  28
ATOM     28  C   UNL A   1      37.257  20.825  25.140  1.00  0.00     0.451 C 
ATOM     29  F   UNL A   1      37.467  19.628  24.541  1.00  0.00    -0.185 F 
ATOM     30  F   UNL A   1      38.429  21.501  25.156  1.00  0.00    -0.185 F 
ENDBRANCH  26  28
ENDBRANCH  10  21
ENDBRANCH   4   7
ENDBRANCH   2   3
ENDBRANCH   1   2
BRANCH   1  31
ATOM     31  C   UNL A   1      32.998  29.040  26.957  1.00  0.00     0.023 C 
BRANCH  31  32
ATOM     32  C   UNL A   1      34.441  29.312  27.373  1.00  0.00     0.116 C 
BRANCH  32  33
ATOM     33  N   UNL A   1      34.550  30.383  28.356  1.00  0.00    -0.352 N 
ATOM     34  C   UNL A   1      35.597  30.728  29.174  1.00  0.00     0.251 C 
ATOM     35  H   UNL A   1      33.748  30.947  28.447  1.00  0.00     0.163 HD
ATOM     36  O   UNL A   1      35.451  31.583  30.042  1.00  0.00    -0.269 OA
BRANCH  34  37
ATOM     37  C   UNL A   1      36.898  30.047  29.032  1.00  0.00     0.039 A 
ATOM     38  C   UNL A   1      37.545  30.084  27.794  1.00  0.00     0.014 A 
ATOM     39  C   UNL A   1      37.477  29.380  30.115  1.00  0.00     0.014 A 
ATOM     40  C   UNL A   1      38.821  29.532  27.664  1.00  0.00     0.010 A 
ATOM     41  C   UNL A   1      38.765  28.869  29.997  1.00  0.00     0.010 A 
ATOM     42  C   UNL A   1      39.454  28.963  28.779  1.00  0.00    -0.014 A 
BRANCH  42  43
ATOM     43  C   UNL A   1      40.859  28.499  28.722  1.00  0.00     0.031 A 
ATOM     44  C   UNL A   1      41.978  29.476  28.900  1.00  0.00     0.074 A 
ATOM     45  C   UNL A   1      41.121  27.224  28.380  1.00  0.00     0.049 A 
ATOM     46  N   UNL A   1      43.243  29.339  28.600  1.00  0.00    -0.248 NA
ATOM     47  C   UNL A   1      41.623  30.792  29.453  1.00  0.00     0.031 C 
ATOM     48  C   UNL A   1      40.122  26.183  28.136  1.00  0.00     0.029 A 
ATOM     49  N   UNL A   1      42.319  26.598  28.154  1.00  0.00    -0.354 N 
ATOM     50  C   UNL A   1      43.818  30.578  28.836  1.00  0.00     0.074 A 
ATOM     51  C   UNL A   1      42.779  31.437  29.367  1.00  0.00     0.031 C 
ATOM     52  C   UNL A   1      40.750  25.044  27.803  1.00  0.00     0.029 A 
ATOM     53  C   UNL A   1      42.187  25.285  27.780  1.00  0.00     0.049 A 
ATOM     54  H   UNL A   1      43.190  27.047  28.251  1.00  0.00     0.167 HD
ATOM     55  C   UNL A   1      45.089  30.970  28.589  1.00  0.00     0.037 A 
ATOM     56  C   UNL A   1      43.124  24.382  27.439  1.00  0.00     0.037 A 
ATOM     57  C   UNL A   1      46.132  30.101  28.117  1.00  0.00     0.049 A 
ATOM     58  C   UNL A   1      44.564  24.786  27.405  1.00  0.00     0.074 A 
ATOM     59  C   UNL A   1      47.437  30.411  27.775  1.00  0.00     0.029 A 
ATOM     60  N   UNL A   1      45.991  28.731  27.961  1.00  0.00    -0.354 N 
ATOM     61  N   UNL A   1      45.082  25.981  27.541  1.00  0.00    -0.248 NA
ATOM     62  C   UNL A   1      45.549  23.721  27.170  1.00  0.00     0.031 C 
ATOM     63  C   UNL A   1      48.097  29.219  27.443  1.00  0.00     0.029 A 
ATOM     64  C   UNL A   1      47.199  28.173  27.578  1.00  0.00     0.049 A 
ATOM     65  H   UNL A   1      45.156  28.230  28.102  1.00  0.00     0.167 HD
ATOM     66  C   UNL A   1      46.451  25.818  27.391  1.00  0.00     0.074 A 
ATOM     67  C   UNL A   1      46.687  24.403  27.180  1.00  0.00     0.031 C 
ATOM     68  C   UNL A   1      47.421  26.762  27.404  1.00  0.00     0.037 A 
BRANCH  55  69
ATOM     69  C   UNL A   1      45.394  32.420  28.779  1.00  0.00     0.057 A 
ATOM     70  C   UNL A   1      45.913  32.913  29.979  1.00  0.00     0.134 A 
ATOM     71  C   UNL A   1      45.158  33.331  27.743  1.00  0.00     0.134 A 
ATOM     72  F   UNL A   1      46.138  32.088  31.013  1.00  0.00    -0.206 F 
ATOM     73  C   UNL A   1      46.180  34.273  30.146  1.00  0.00     0.040 A 
ATOM     74  C   UNL A   1      45.428  34.691  27.895  1.00  0.00     0.040 A 
ATOM     75  F   UNL A   1      44.651  32.914  26.572  1.00  0.00    -0.206 F 
ATOM     76  C   UNL A   1      45.940  35.165  29.101  1.00  0.00     0.006 A 
ENDBRANCH  55  69
BRANCH  56  77
ATOM     77  C   UNL A   1      42.716  23.000  27.110  1.00  0.00     0.057 A 
ATOM     78  C   UNL A   1      42.705  22.556  25.785  1.00  0.00     0.134 A 
ATOM     79  C   UNL A   1      42.361  22.091  28.110  1.00  0.00     0.134 A 
ATOM     80  F   UNL A   1      43.030  23.394  24.789  1.00  0.00    -0.206 F 
ATOM     81  C   UNL A   1      42.351  21.247  25.461  1.00  0.00     0.040 A 
ATOM     82  C   UNL A   1      42.009  20.777  27.801  1.00  0.00     0.040 A 
ATOM     83  F   UNL A   1      42.360  22.465  29.397  1.00  0.00    -0.206 F 
ATOM     84  C   UNL A   1      42.004  20.352  26.472  1.00  0.00     0.006 A 
ENDBRANCH  56  77
BRANCH  68  85
ATOM     85  C   UNL A   1      48.821  26.290  27.198  1.00  0.00     0.057 A 
ATOM     86  C   UNL A   1      49.599  25.846  28.274  1.00  0.00     0.134 A 
ATOM     87  C   UNL A   1      49.393  26.268  25.922  1.00  0.00     0.134 A 
ATOM     88  F   UNL A   1      49.104  25.854  29.520  1.00  0.00    -0.206 F 
ATOM     89  C   UNL A   1      50.906  25.397  28.085  1.00  0.00     0.040 A 
ATOM     90  C   UNL A   1      50.699  25.822  25.721  1.00  0.00     0.040 A 
ATOM     91  F   UNL A   1      48.696  26.694  24.858  1.00  0.00    -0.206 F 
ATOM     92  C   UNL A   1      51.459  25.385  26.805  1.00  0.00     0.006 A 
ENDBRANCH  68  85
ENDBRANCH  42  43
ENDBRANCH  34  37
ENDBRANCH  32  33
ENDBRANCH  31  32
ENDBRANCH   1  31
TORSDOF 15
ENDMDL
MODEL 2
REMARK VINA RESULT:     -12.7      4.103      7.568
REMARK SMILES CC(=O)NS(=O)(=O)c1cc(-c2ccn(C(F)F)c(=O)c2)ccc1C(=O)NCCCCNC(=O)c1ccc(-c2c3nc(c(-c4c(F)cccc4F)c4ccc([nH]4)c(-c4c(F)cccc4F)c4nc(c(-c5c(F)cccc5F)c5ccc2[nH]5)C=C4)C=C3)cc1
REMARK SMILES IDX 28 1 27 2 26 3 24 4 25 5 23 7 8 8 9 9 10 10 22 11 21 12 5 13
REMARK SMILES IDX 6 14 7 15 4 16 1 17 2 18 3 19 11 21 12 22 20 23 13 24 18 25
REMARK SMILES IDX 14 26 19 27 15 28 16 29 17 30 29 31 30 32 31 33 32 34 33 36
REMARK SMILES IDX 34 37 35 38 87 39 36 40 86 41 37 42 38 43 39 44 80 45 40 46
REMARK SMILES IDX 85 47 79 48 81 49 41 50 84 51 78 52 77 53 42 55 68 56 51 57
REMARK SMILES IDX 67 58 52 59 55 60 66 61 82 62 53 63 54 64 65 66 83 67 56 68
REMARK SMILES IDX 43 69 44 70 49 71 45 72 46 73 48 74 50 75 47 76 69 77 70 78
REMARK SMILES IDX 75 79 71 80 72 81 74 82 76 83 73 84 57 85 58 86 63 87 59 88
REMARK SMILES IDX 60 89 62 90 64 91 61 92
REMARK H PARENT 26 6 4 20 31 35 81 54 55 65
REMARK Flexibility Score: inf
ROOT
ATOM      1  C   UNL A   1      33.750  26.415  25.743  1.00  0.00     0.023 C 
ENDROOT
BRANCH   1   2
ATOM      2  C   UNL A   1      33.146  25.042  26.072  1.00  0.00     0.116 C 
BRANCH   2   3
ATOM      3  N   UNL A   1      32.459  24.536  24.900  1.00  0.00    -0.352 N 
ATOM      4  C   UNL A   1      32.806  23.635  23.938  1.00  0.00     0.252 C 
ATOM      5  O   UNL A   1      32.054  23.487  22.973  1.00  0.00    -0.269 OA
ATOM      6  H   UNL A   1      31.561  24.919  24.774  1.00  0.00     0.163 HD
BRANCH   4   7
ATOM      7  C   UNL A   1      33.970  22.723  24.013  1.00  0.00     0.060 A 
ATOM      8  C   UNL A   1      34.180  21.733  24.980  1.00  0.00     0.101 A 
ATOM      9  C   UNL A   1      35.475  21.231  25.197  1.00  0.00     0.031 A 
ATOM     10  C   UNL A   1      36.575  21.757  24.508  1.00  0.00    -0.017 A 
ATOM     11  C   UNL A   1      35.068  23.148  23.235  1.00  0.00     0.016 A 
ATOM     12  C   UNL A   1      36.362  22.678  23.485  1.00  0.00     0.009 A 
BRANCH   8  13
ATOM     13  S   UNL A   1      32.893  21.165  26.039  1.00  0.00     0.264 S 
ATOM     14  O   UNL A   1      31.661  21.398  25.337  1.00  0.00    -0.201 OA
ATOM     15  O   UNL A   1      33.134  21.656  27.382  1.00  0.00    -0.201 OA
BRANCH  13  16
ATOM     16  N   UNL A   1      33.042  19.510  26.081  1.00  0.00    -0.249 N 
ATOM     17  C   UNL A   1      32.419  18.895  23.741  1.00  0.00     0.115 C 
ATOM     18  C   UNL A   1      33.220  18.650  24.988  1.00  0.00     0.230 C 
ATOM     19  O   UNL A   1      33.884  17.637  25.146  1.00  0.00    -0.274 OA
ATOM     20  H   UNL A   1      33.000  19.088  26.970  1.00  0.00     0.183 HD
ENDBRANCH  13  16
ENDBRANCH   8  13
BRANCH  10  21
ATOM     21  C   UNL A   1      37.916  21.543  25.082  1.00  0.00    -0.011 A 
ATOM     22  C   UNL A   1      38.550  22.590  25.864  1.00  0.00     0.027 A 
ATOM     23  C   UNL A   1      38.486  20.327  25.034  1.00  0.00     0.080 A 
ATOM     24  C   UNL A   1      39.631  22.330  26.605  1.00  0.00     0.095 A 
ATOM     25  C   UNL A   1      39.723  20.036  25.819  1.00  0.00     0.255 A 
ATOM     26  N   UNL A   1      40.199  21.071  26.610  1.00  0.00    -0.258 N 
ATOM     27  O   UNL A   1      40.204  18.911  25.751  1.00  0.00    -0.269 OA
BRANCH  26  28
ATOM     28  C   UNL A   1      41.316  20.783  27.472  1.00  0.00     0.451 C 
ATOM     29  F   UNL A   1      42.437  20.551  26.746  1.00  0.00    -0.185 F 
ATOM     30  F   UNL A   1      41.564  21.813  28.315  1.00  0.00    -0.185 F 
ENDBRANCH  26  28
ENDBRANCH  10  21
ENDBRANCH   4   7
ENDBRANCH   2   3
ENDBRANCH   1   2
BRANCH   1  31
ATOM     31  C   UNL A   1      32.764  27.580  25.805  1.00  0.00     0.023 C 
BRANCH  31  32
ATOM     32  C   UNL A   1      33.339  28.902  25.306  1.00  0.00     0.116 C 
BRANCH  32  33
ATOM     33  N   UNL A   1      32.710  30.060  25.930  1.00  0.00    -0.352 N 
ATOM     34  C   UNL A   1      33.151  30.861  26.954  1.00  0.00     0.251 C 
ATOM     35  H   UNL A   1      31.832  30.306  25.559  1.00  0.00     0.163 HD
ATOM     36  O   UNL A   1      32.413  31.713  27.438  1.00  0.00    -0.269 OA
BRANCH  34  37
ATOM     37  C   UNL A   1      34.510  30.678  27.499  1.00  0.00     0.039 A 
ATOM     38  C   UNL A   1      35.339  31.796  27.629  1.00  0.00     0.014 A 
ATOM     39  C   UNL A   1      34.962  29.413  27.882  1.00  0.00     0.014 A 
ATOM     40  C   UNL A   1      36.589  31.663  28.234  1.00  0.00     0.010 A 
ATOM     41  C   UNL A   1      36.190  29.288  28.523  1.00  0.00     0.010 A 
ATOM     42  C   UNL A   1      37.001  30.414  28.725  1.00  0.00    -0.014 A 
BRANCH  42  43
ATOM     43  C   UNL A   1      38.252  30.258  29.500  1.00  0.00     0.031 A 
ATOM     44  C   UNL A   1      39.381  29.447  28.945  1.00  0.00     0.074 A 
ATOM     45  C   UNL A   1      38.316  30.737  30.756  1.00  0.00     0.049 A 
ATOM     46  N   UNL A   1      40.418  28.951  29.567  1.00  0.00    -0.248 NA
ATOM     47  C   UNL A   1      39.317  29.122  27.512  1.00  0.00     0.031 C 
ATOM     48  C   UNL A   1      37.268  31.505  31.430  1.00  0.00     0.029 A 
ATOM     49  N   UNL A   1      39.305  30.621  31.698  1.00  0.00    -0.354 N 
ATOM     50  C   UNL A   1      41.080  28.176  28.627  1.00  0.00     0.074 A 
ATOM     51  C   UNL A   1      40.364  28.319  27.375  1.00  0.00     0.031 C 
ATOM     52  C   UNL A   1      37.675  31.800  32.676  1.00  0.00     0.029 A 
ATOM     53  C   UNL A   1      38.993  31.215  32.894  1.00  0.00     0.049 A 
ATOM     54  H   UNL A   1      40.157  30.156  31.531  1.00  0.00     0.167 HD
ATOM     55  C   UNL A   1      42.160  27.383  28.809  1.00  0.00     0.037 A 
ATOM     56  C   UNL A   1      39.688  31.266  34.044  1.00  0.00     0.037 A 
ATOM     57  C   UNL A   1      42.902  27.287  30.037  1.00  0.00     0.049 A 
ATOM     58  C   UNL A   1      41.009  30.570  34.142  1.00  0.00     0.074 A 
ATOM     59  C   UNL A   1      43.974  26.468  30.347  1.00  0.00     0.029 A 
ATOM     60  N   UNL A   1      42.667  28.077  31.151  1.00  0.00    -0.354 N 
ATOM     61  N   UNL A   1      41.577  29.766  33.278  1.00  0.00    -0.248 NA
ATOM     62  C   UNL A   1      41.785  30.785  35.371  1.00  0.00     0.031 C 
ATOM     63  C   UNL A   1      44.409  26.787  31.641  1.00  0.00     0.029 A 
ATOM     64  C   UNL A   1      43.605  27.802  32.131  1.00  0.00     0.049 A 
ATOM     65  H   UNL A   1      41.940  28.735  31.233  1.00  0.00     0.167 HD
ATOM     66  C   UNL A   1      42.769  29.365  33.863  1.00  0.00     0.074 A 
ATOM     67  C   UNL A   1      42.855  30.034  35.146  1.00  0.00     0.031 C 
ATOM     68  C   UNL A   1      43.694  28.499  33.387  1.00  0.00     0.037 A 
BRANCH  55  69
ATOM     69  C   UNL A   1      42.562  26.520  27.659  1.00  0.00     0.057 A 
ATOM     70  C   UNL A   1      43.480  26.953  26.698  1.00  0.00     0.134 A 
ATOM     71  C   UNL A   1      42.015  25.239  27.513  1.00  0.00     0.134 A 
ATOM     72  F   UNL A   1      44.020  28.178  26.776  1.00  0.00    -0.206 F 
ATOM     73  C   UNL A   1      43.836  26.139  25.621  1.00  0.00     0.040 A 
ATOM     74  C   UNL A   1      42.368  24.415  26.446  1.00  0.00     0.040 A 
ATOM     75  F   UNL A   1      41.121  24.777  28.401  1.00  0.00    -0.206 F 
ATOM     76  C   UNL A   1      43.281  24.865  25.494  1.00  0.00     0.006 A 
ENDBRANCH  55  69
BRANCH  56  77
ATOM     77  C   UNL A   1      39.139  32.016  35.193  1.00  0.00     0.057 A 
ATOM     78  C   UNL A   1      39.379  33.386  35.330  1.00  0.00     0.134 A 
ATOM     79  C   UNL A   1      38.344  31.389  36.156  1.00  0.00     0.134 A 
ATOM     80  F   UNL A   1      40.144  34.031  34.436  1.00  0.00    -0.206 F 
ATOM     81  C   UNL A   1      38.844  34.114  36.392  1.00  0.00     0.040 A 
ATOM     82  C   UNL A   1      37.798  32.105  37.221  1.00  0.00     0.040 A 
ATOM     83  F   UNL A   1      38.080  30.078  36.067  1.00  0.00    -0.206 F 
ATOM     84  C   UNL A   1      38.048  33.472  37.341  1.00  0.00     0.006 A 
ENDBRANCH  56  77
BRANCH  68  85
ATOM     85  C   UNL A   1      44.882  28.243  34.252  1.00  0.00     0.057 A 
ATOM     86  C   UNL A   1      46.052  28.998  34.115  1.00  0.00     0.134 A 
ATOM     87  C   UNL A   1      44.855  27.246  35.233  1.00  0.00     0.134 A 
ATOM     88  F   UNL A   1      46.136  29.960  33.184  1.00  0.00    -0.206 F 
ATOM     89  C   UNL A   1      47.163  28.766  34.926  1.00  0.00     0.040 A 
ATOM     90  C   UNL A   1      45.960  27.004  36.050  1.00  0.00     0.040 A 
ATOM     91  F   UNL A   1      43.763  26.484  35.399  1.00  0.00    -0.206 F 
ATOM     92  C   UNL A   1      47.117  27.765  35.897  1.00  0.00     0.006 A 
ENDBRANCH  68  85
ENDBRANCH  42  43
ENDBRANCH  34  37
ENDBRANCH  32  33
ENDBRANCH  31  32
ENDBRANCH   1  31
TORSDOF 15
ENDMDL
MODEL 3
REMARK VINA RESULT:     -12.5      2.519      3.724
REMARK SMILES CC(=O)NS(=O)(=O)c1cc(-c2ccn(C(F)F)c(=O)c2)ccc1C(=O)NCCCCNC(=O)c1ccc(-c2c3nc(c(-c4c(F)cccc4F)c4ccc([nH]4)c(-c4c(F)cccc4F)c4nc(c(-c5c(F)cccc5F)c5ccc2[nH]5)C=C4)C=C3)cc1
REMARK SMILES IDX 28 1 27 2 26 3 24 4 25 5 23 7 8 8 9 9 10 10 22 11 21 12 5 13
REMARK SMILES IDX 6 14 7 15 4 16 1 17 2 18 3 19 11 21 12 22 20 23 13 24 18 25
REMARK SMILES IDX 14 26 19 27 15 28 16 29 17 30 29 31 30 32 31 33 32 34 33 36
REMARK SMILES IDX 34 37 35 38 87 39 36 40 86 41 37 42 38 43 39 44 80 45 40 46
REMARK SMILES IDX 85 47 79 48 81 49 41 50 84 51 78 52 77 53 42 55 68 56 51 57
REMARK SMILES IDX 67 58 52 59 55 60 66 61 82 62 53 63 54 64 65 66 83 67 56 68
REMARK SMILES IDX 43 69 44 70 49 71 45 72 46 73 48 74 50 75 47 76 69 77 70 78
REMARK SMILES IDX 75 79 71 80 72 81 74 82 76 83 73 84 57 85 58 86 63 87 59 88
REMARK SMILES IDX 60 89 62 90 64 91 61 92
REMARK H PARENT 26 6 4 20 31 35 81 54 55 65
REMARK Flexibility Score: inf
ROOT
ATOM      1  C   UNL A   1      33.908  27.804  24.615  1.00  0.00     0.023 C 
ENDROOT
BRANCH   1   2
ATOM      2  C   UNL A   1      33.638  26.305  24.818  1.00  0.00     0.116 C 
BRANCH   2   3
ATOM      3  N   UNL A   1      33.521  25.667  23.521  1.00  0.00    -0.352 N 
ATOM      4  C   UNL A   1      33.658  24.375  23.108  1.00  0.00     0.252 C 
ATOM      5  O   UNL A   1      33.619  24.138  21.900  1.00  0.00    -0.269 OA
ATOM      6  H   UNL A   1      33.298  26.291  22.794  1.00  0.00     0.163 HD
BRANCH   4   7
ATOM      7  C   UNL A   1      33.734  23.203  24.008  1.00  0.00     0.060 A 
ATOM      8  C   UNL A   1      34.888  22.473  24.317  1.00  0.00     0.101 A 
ATOM      9  C   UNL A   1      34.775  21.168  24.826  1.00  0.00     0.031 A 
ATOM     10  C   UNL A   1      33.523  20.557  24.967  1.00  0.00    -0.017 A 
ATOM     11  C   UNL A   1      32.477  22.621  24.280  1.00  0.00     0.016 A 
ATOM     12  C   UNL A   1      32.370  21.305  24.746  1.00  0.00     0.009 A 
BRANCH   8  13
ATOM     13  S   UNL A   1      36.504  23.082  23.973  1.00  0.00     0.264 S 
ATOM     14  O   UNL A   1      36.807  24.029  25.011  1.00  0.00    -0.201 OA
ATOM     15  O   UNL A   1      36.597  23.408  22.564  1.00  0.00    -0.201 OA
BRANCH  13  16
ATOM     16  N   UNL A   1      37.534  21.809  24.258  1.00  0.00    -0.249 N 
ATOM     17  C   UNL A   1      38.920  22.700  26.135  1.00  0.00     0.115 C 
ATOM     18  C   UNL A   1      38.255  21.552  25.433  1.00  0.00     0.230 C 
ATOM     19  O   UNL A   1      38.461  20.390  25.748  1.00  0.00    -0.274 OA
ATOM     20  H   UNL A   1      37.651  21.165  23.522  1.00  0.00     0.183 HD
ENDBRANCH  13  16
ENDBRANCH   8  13
BRANCH  10  21
ATOM     21  C   UNL A   1      33.479  19.085  25.053  1.00  0.00    -0.011 A 
ATOM     22  C   UNL A   1      32.811  18.441  26.170  1.00  0.00     0.027 A 
ATOM     23  C   UNL A   1      33.899  18.334  24.021  1.00  0.00     0.080 A 
ATOM     24  C   UNL A   1      32.529  17.134  26.137  1.00  0.00     0.095 A 
ATOM     25  C   UNL A   1      33.634  16.864  23.993  1.00  0.00     0.255 A 
ATOM     26  N   UNL A   1      32.907  16.358  25.059  1.00  0.00    -0.258 N 
ATOM     27  O   UNL A   1      34.030  16.220  23.028  1.00  0.00    -0.269 OA
BRANCH  26  28
ATOM     28  C   UNL A   1      32.529  14.969  24.999  1.00  0.00     0.451 C 
ATOM     29  F   UNL A   1      33.499  14.183  25.527  1.00  0.00    -0.185 F 
ATOM     30  F   UNL A   1      31.383  14.741  25.684  1.00  0.00    -0.185 F 
ENDBRANCH  26  28
ENDBRANCH  10  21
ENDBRANCH   4   7
ENDBRANCH   2   3
ENDBRANCH   1   2
BRANCH   1  31
ATOM     31  C   UNL A   1      33.187  28.723  25.599  1.00  0.00     0.023 C 
BRANCH  31  32
ATOM     32  C   UNL A   1      33.781  28.708  27.005  1.00  0.00     0.116 C 
BRANCH  32  33
ATOM     33  N   UNL A   1      33.806  30.031  27.618  1.00  0.00    -0.352 N 
ATOM     34  C   UNL A   1      34.806  30.663  28.314  1.00  0.00     0.251 C 
ATOM     35  H   UNL A   1      32.976  30.552  27.517  1.00  0.00     0.163 HD
ATOM     36  O   UNL A   1      34.590  31.732  28.877  1.00  0.00    -0.269 OA
BRANCH  34  37
ATOM     37  C   UNL A   1      36.141  30.042  28.413  1.00  0.00     0.039 A 
ATOM     38  C   UNL A   1      37.000  30.115  27.312  1.00  0.00     0.014 A 
ATOM     39  C   UNL A   1      36.543  29.397  29.585  1.00  0.00     0.014 A 
ATOM     40  C   UNL A   1      38.301  29.623  27.418  1.00  0.00     0.010 A 
ATOM     41  C   UNL A   1      37.853  28.946  29.704  1.00  0.00     0.010 A 
ATOM     42  C   UNL A   1      38.747  29.077  28.632  1.00  0.00    -0.014 A 
BRANCH  42  43
ATOM     43  C   UNL A   1      40.158  28.678  28.832  1.00  0.00     0.031 A 
ATOM     44  C   UNL A   1      41.160  29.682  29.310  1.00  0.00     0.074 A 
ATOM     45  C   UNL A   1      40.558  27.448  28.459  1.00  0.00     0.049 A 
ATOM     46  N   UNL A   1      42.465  29.623  29.268  1.00  0.00    -0.248 NA
ATOM     47  C   UNL A   1      40.625  30.930  29.874  1.00  0.00     0.031 C 
ATOM     48  C   UNL A   1      39.690  26.392  27.936  1.00  0.00     0.029 A 
ATOM     49  N   UNL A   1      41.810  26.893  28.439  1.00  0.00    -0.354 N 
ATOM     50  C   UNL A   1      42.909  30.860  29.710  1.00  0.00     0.074 A 
ATOM     51  C   UNL A   1      41.735  31.628  30.076  1.00  0.00     0.031 C 
ATOM     52  C   UNL A   1      40.437  25.311  27.657  1.00  0.00     0.029 A 
ATOM     53  C   UNL A   1      41.833  25.612  27.949  1.00  0.00     0.049 A 
ATOM     54  H   UNL A   1      42.616  27.368  28.747  1.00  0.00     0.167 HD
ATOM     55  C   UNL A   1      44.178  31.323  29.761  1.00  0.00     0.037 A 
ATOM     56  C   UNL A   1      42.869  24.780  27.744  1.00  0.00     0.037 A 
ATOM     57  C   UNL A   1      45.344  30.541  29.451  1.00  0.00     0.049 A 
ATOM     58  C   UNL A   1      44.261  25.245  28.038  1.00  0.00     0.074 A 
ATOM     59  C   UNL A   1      46.671  30.931  29.410  1.00  0.00     0.029 A 
ATOM     60  N   UNL A   1      45.316  29.184  29.169  1.00  0.00    -0.354 N 
ATOM     61  N   UNL A   1      44.671  26.444  28.367  1.00  0.00    -0.248 NA
ATOM     62  C   UNL A   1      45.333  24.245  27.935  1.00  0.00     0.031 C 
ATOM     63  C   UNL A   1      47.452  29.800  29.135  1.00  0.00     0.029 A 
ATOM     64  C   UNL A   1      46.607  28.710  29.004  1.00  0.00     0.049 A 
ATOM     65  H   UNL A   1      44.501  28.639  29.096  1.00  0.00     0.167 HD
ATOM     66  C   UNL A   1      46.049  26.351  28.492  1.00  0.00     0.074 A 
ATOM     67  C   UNL A   1      46.404  24.970  28.230  1.00  0.00     0.031 C 
ATOM     68  C   UNL A   1      46.940  27.330  28.775  1.00  0.00     0.037 A 
BRANCH  55  69
ATOM     69  C   UNL A   1      44.355  32.763  30.116  1.00  0.00     0.057 A 
ATOM     70  C   UNL A   1      44.589  33.174  31.432  1.00  0.00     0.134 A 
ATOM     71  C   UNL A   1      44.282  33.748  29.124  1.00  0.00     0.134 A 
ATOM     72  F   UNL A   1      44.646  32.275  32.425  1.00  0.00    -0.206 F 
ATOM     73  C   UNL A   1      44.738  34.525  31.750  1.00  0.00     0.040 A 
ATOM     74  C   UNL A   1      44.438  35.100  29.429  1.00  0.00     0.040 A 
ATOM     75  F   UNL A   1      44.049  33.411  27.846  1.00  0.00    -0.206 F 
ATOM     76  C   UNL A   1      44.666  35.491  30.747  1.00  0.00     0.006 A 
ENDBRANCH  55  69
BRANCH  56  77
ATOM     77  C   UNL A   1      42.617  23.416  27.237  1.00  0.00     0.057 A 
ATOM     78  C   UNL A   1      42.731  23.129  25.873  1.00  0.00     0.134 A 
ATOM     79  C   UNL A   1      42.289  22.369  28.102  1.00  0.00     0.134 A 
ATOM     80  F   UNL A   1      43.035  24.102  25.002  1.00  0.00    -0.206 F 
ATOM     81  C   UNL A   1      42.525  21.840  25.382  1.00  0.00     0.040 A 
ATOM     82  C   UNL A   1      42.084  21.073  27.626  1.00  0.00     0.040 A 
ATOM     83  F   UNL A   1      42.172  22.589  29.419  1.00  0.00    -0.206 F 
ATOM     84  C   UNL A   1      42.203  20.807  26.261  1.00  0.00     0.006 A 
ENDBRANCH  56  77
BRANCH  68  85
ATOM     85  C   UNL A   1      48.378  26.934  28.829  1.00  0.00     0.057 A 
ATOM     86  C   UNL A   1      49.204  27.059  27.707  1.00  0.00     0.134 A 
ATOM     87  C   UNL A   1      48.942  26.435  30.007  1.00  0.00     0.134 A 
ATOM     88  F   UNL A   1      48.713  27.523  26.548  1.00  0.00    -0.206 F 
ATOM     89  C   UNL A   1      50.550  26.696  27.755  1.00  0.00     0.040 A 
ATOM     90  C   UNL A   1      50.287  26.068  30.067  1.00  0.00     0.040 A 
ATOM     91  F   UNL A   1      48.192  26.282  31.109  1.00  0.00    -0.206 F 
ATOM     92  C   UNL A   1      51.094  26.198  28.939  1.00  0.00     0.006 A 
ENDBRANCH  68  85
ENDBRANCH  42  43
ENDBRANCH  34  37
ENDBRANCH  32  33
ENDBRANCH  31  32
ENDBRANCH   1  31
TORSDOF 15
ENDMDL
