MODEL 1
REMARK VINA RESULT:     -11.4      0.000      0.000
REMARK SMILES C[C@@H]1[C@H](C)CC[C@@H]1NC(=O)N1CCO[C@H](CC(=O)NCCCCNC(=O)c2ccc(-c3c4nc(c(-c5c(F)cccc5F)c5ccc([nH]5)c(-c5c(F)cccc5F)c5nc(c(-c6c(F)cccc6F)c6ccc3[nH]6)C=C5)C=C4)cc2)C1
REMARK SMILES IDX 21 1 20 2 19 3 17 4 18 5 16 7 15 8 11 9 12 10 81 11 13 12
REMARK SMILES IDX 14 13 9 14 8 15 10 17 7 18 1 19 2 20 3 21 4 22 5 23 6 24
REMARK SMILES IDX 22 25 23 26 24 27 25 28 26 30 27 31 28 32 80 33 29 34 79 35
REMARK SMILES IDX 30 36 31 37 32 38 73 39 33 40 78 41 72 42 74 43 34 44 77 45
REMARK SMILES IDX 71 46 70 47 35 49 61 50 44 51 60 52 45 53 48 54 59 55 75 56
REMARK SMILES IDX 46 57 47 58 58 60 76 61 49 62 36 63 37 64 42 65 38 66 39 67
REMARK SMILES IDX 41 68 43 69 40 70 62 71 63 72 68 73 64 74 65 75 67 76 69 77
REMARK SMILES IDX 66 78 50 79 51 80 56 81 52 82 53 83 55 84 57 85 54 86
REMARK H PARENT 19 6 8 16 24 29 74 48 48 59
REMARK Flexibility Score: inf
ROOT
ATOM      1  C   UNL A   1      38.962  22.626  26.338  1.00  0.00     0.023 C 
ENDROOT
BRANCH   1   2
ATOM      2  C   UNL A   1      37.708  23.418  25.973  1.00  0.00     0.116 C 
BRANCH   2   3
ATOM      3  N   UNL A   1      37.574  23.461  24.536  1.00  0.00    -0.356 N 
ATOM      4  C   UNL A   1      36.446  23.172  23.819  1.00  0.00     0.222 C 
ATOM      5  O   UNL A   1      36.558  22.904  22.624  1.00  0.00    -0.275 OA
ATOM      6  H   UNL A   1      38.372  23.725  24.023  1.00  0.00     0.163 HD
BRANCH   4   7
ATOM      7  C   UNL A   1      35.090  23.332  24.474  1.00  0.00     0.133 C 
BRANCH   7   8
ATOM      8  C   UNL A   1      34.306  22.094  24.928  1.00  0.00     0.147 C 
ATOM      9  N   UNL A   1      32.625  23.109  26.476  1.00  0.00    -0.320 N 
ATOM     10  C   UNL A   1      33.051  22.239  27.558  1.00  0.00     0.150 C 
ATOM     11  C   UNL A   1      32.824  22.475  25.166  1.00  0.00     0.154 C 
ATOM     12  C   UNL A   1      34.515  21.866  27.371  1.00  0.00     0.182 C 
ATOM     13  O   UNL A   1      34.835  21.375  26.060  1.00  0.00    -0.374 OA
BRANCH   9  14
ATOM     14  C   UNL A   1      31.619  24.014  26.629  1.00  0.00     0.317 C 
ATOM     15  N   UNL A   1      31.714  25.270  26.138  1.00  0.00    -0.335 N 
ATOM     16  H   UNL A   1      31.462  25.942  26.812  1.00  0.00     0.165 HD
ATOM     17  O   UNL A   1      30.602  23.742  27.269  1.00  0.00    -0.249 OA
BRANCH  15  18
ATOM     18  C   UNL A   1      32.097  25.898  24.860  1.00  0.00     0.087 C 
ATOM     19  C   UNL A   1      34.050  27.166  26.048  1.00  0.00     0.010 C 
ATOM     20  C   UNL A   1      32.962  27.175  24.990  1.00  0.00     0.011 C 
ATOM     21  C   UNL A   1      31.965  28.347  25.037  1.00  0.00    -0.009 C 
ATOM     22  C   UNL A   1      31.665  28.906  26.427  1.00  0.00     0.008 C 
ATOM     23  C   UNL A   1      30.718  27.802  24.326  1.00  0.00     0.006 C 
ATOM     24  C   UNL A   1      31.033  26.381  23.886  1.00  0.00     0.025 C 
ENDBRANCH  15  18
ENDBRANCH   9  14
ENDBRANCH   7   8
ENDBRANCH   4   7
ENDBRANCH   2   3
ENDBRANCH   1   2
BRANCH   1  25
ATOM     25  C   UNL A   1      39.061  21.290  25.620  1.00  0.00     0.023 C 
BRANCH  25  26
ATOM     26  C   UNL A   1      39.588  20.179  26.511  1.00  0.00     0.116 C 
BRANCH  26  27
ATOM     27  N   UNL A   1      40.662  19.405  25.902  1.00  0.00    -0.352 N 
ATOM     28  C   UNL A   1      41.991  19.752  25.794  1.00  0.00     0.251 C 
ATOM     29  H   UNL A   1      40.409  18.531  25.526  1.00  0.00     0.163 HD
ATOM     30  O   UNL A   1      42.788  19.051  25.201  1.00  0.00    -0.269 OA
BRANCH  28  31
ATOM     31  C   UNL A   1      42.401  21.039  26.385  1.00  0.00     0.039 A 
ATOM     32  C   UNL A   1      42.684  22.109  25.536  1.00  0.00     0.014 A 
ATOM     33  C   UNL A   1      42.362  21.205  27.770  1.00  0.00     0.014 A 
ATOM     34  C   UNL A   1      42.876  23.375  26.085  1.00  0.00     0.010 A 
ATOM     35  C   UNL A   1      42.447  22.482  28.302  1.00  0.00     0.010 A 
ATOM     36  C   UNL A   1      42.726  23.575  27.467  1.00  0.00    -0.014 A 
BRANCH  36  37
ATOM     37  C   UNL A   1      42.920  24.910  28.078  1.00  0.00     0.031 A 
ATOM     38  C   UNL A   1      44.293  25.309  28.542  1.00  0.00     0.074 A 
ATOM     39  C   UNL A   1      41.868  25.729  28.268  1.00  0.00     0.049 A 
ATOM     40  N   UNL A   1      44.674  26.394  29.165  1.00  0.00    -0.248 NA
ATOM     41  C   UNL A   1      45.376  24.337  28.317  1.00  0.00     0.031 C 
ATOM     42  C   UNL A   1      40.477  25.425  27.922  1.00  0.00     0.029 A 
ATOM     43  N   UNL A   1      41.807  26.988  28.807  1.00  0.00    -0.354 N 
ATOM     44  C   UNL A   1      46.026  26.216  29.431  1.00  0.00     0.074 A 
ATOM     45  C   UNL A   1      46.383  24.895  28.968  1.00  0.00     0.031 C 
ATOM     46  C   UNL A   1      39.707  26.483  28.224  1.00  0.00     0.029 A 
ATOM     47  C   UNL A   1      40.544  27.528  28.806  1.00  0.00     0.049 A 
ATOM     48  H   UNL A   1      42.595  27.461  29.160  1.00  0.00     0.167 HD
ATOM     49  C   UNL A   1      46.903  27.090  29.976  1.00  0.00     0.037 A 
ATOM     50  C   UNL A   1      40.120  28.737  29.219  1.00  0.00     0.037 A 
ATOM     51  C   UNL A   1      46.555  28.424  30.381  1.00  0.00     0.049 A 
ATOM     52  C   UNL A   1      41.124  29.714  29.764  1.00  0.00     0.074 A 
ATOM     53  C   UNL A   1      47.375  29.415  30.891  1.00  0.00     0.029 A 
ATOM     54  N   UNL A   1      45.277  28.957  30.306  1.00  0.00    -0.354 N 
ATOM     55  N   UNL A   1      42.413  29.558  29.953  1.00  0.00    -0.248 NA
ATOM     56  C   UNL A   1      40.618  31.042  30.137  1.00  0.00     0.031 C 
ATOM     57  C   UNL A   1      46.587  30.543  31.143  1.00  0.00     0.029 A 
ATOM     58  C   UNL A   1      45.285  30.266  30.756  1.00  0.00     0.049 A 
ATOM     59  H   UNL A   1      44.482  28.476  29.980  1.00  0.00     0.167 HD
ATOM     60  C   UNL A   1      42.877  30.776  30.432  1.00  0.00     0.074 A 
ATOM     61  C   UNL A   1      41.733  31.663  30.495  1.00  0.00     0.031 C 
ATOM     62  C   UNL A   1      44.136  31.132  30.788  1.00  0.00     0.037 A 
BRANCH  49  63
ATOM     63  C   UNL A   1      48.319  26.625  30.139  1.00  0.00     0.057 A 
ATOM     64  C   UNL A   1      48.735  25.905  31.269  1.00  0.00     0.134 A 
ATOM     65  C   UNL A   1      49.283  26.906  29.164  1.00  0.00     0.134 A 
ATOM     66  F   UNL A   1      47.865  25.620  32.251  1.00  0.00    -0.206 F 
ATOM     67  C   UNL A   1      50.063  25.514  31.439  1.00  0.00     0.040 A 
ATOM     68  C   UNL A   1      50.610  26.495  29.309  1.00  0.00     0.040 A 
ATOM     69  F   UNL A   1      48.954  27.591  28.058  1.00  0.00    -0.206 F 
ATOM     70  C   UNL A   1      51.004  25.805  30.453  1.00  0.00     0.006 A 
ENDBRANCH  49  63
BRANCH  50  71
ATOM     71  C   UNL A   1      38.692  29.115  29.076  1.00  0.00     0.057 A 
ATOM     72  C   UNL A   1      38.184  29.553  27.848  1.00  0.00     0.134 A 
ATOM     73  C   UNL A   1      37.806  29.064  30.159  1.00  0.00     0.134 A 
ATOM     74  F   UNL A   1      38.988  29.639  26.778  1.00  0.00    -0.206 F 
ATOM     75  C   UNL A   1      36.854  29.951  27.704  1.00  0.00     0.040 A 
ATOM     76  C   UNL A   1      36.468  29.438  30.025  1.00  0.00     0.040 A 
ATOM     77  F   UNL A   1      38.229  28.644  31.360  1.00  0.00    -0.206 F 
ATOM     78  C   UNL A   1      35.990  29.890  28.796  1.00  0.00     0.006 A 
ENDBRANCH  50  71
BRANCH  62  79
ATOM     79  C   UNL A   1      44.345  32.551  31.224  1.00  0.00     0.057 A 
ATOM     80  C   UNL A   1      44.645  33.569  30.311  1.00  0.00     0.134 A 
ATOM     81  C   UNL A   1      44.214  32.905  32.573  1.00  0.00     0.134 A 
ATOM     82  F   UNL A   1      44.796  33.291  29.007  1.00  0.00    -0.206 F 
ATOM     83  C   UNL A   1      44.836  34.887  30.730  1.00  0.00     0.040 A 
ATOM     84  C   UNL A   1      44.377  34.222  32.999  1.00  0.00     0.040 A 
ATOM     85  F   UNL A   1      43.917  31.976  33.495  1.00  0.00    -0.206 F 
ATOM     86  C   UNL A   1      44.696  35.217  32.076  1.00  0.00     0.006 A 
ENDBRANCH  62  79
ENDBRANCH  36  37
ENDBRANCH  28  31
ENDBRANCH  26  27
ENDBRANCH  25  26
ENDBRANCH   1  25
TORSDOF 14
ENDMDL
MODEL 2
REMARK VINA RESULT:     -11.4      0.837      1.906
REMARK SMILES C[C@@H]1[C@H](C)CC[C@@H]1NC(=O)N1CCO[C@H](CC(=O)NCCCCNC(=O)c2ccc(-c3c4nc(c(-c5c(F)cccc5F)c5ccc([nH]5)c(-c5c(F)cccc5F)c5nc(c(-c6c(F)cccc6F)c6ccc3[nH]6)C=C5)C=C4)cc2)C1
REMARK SMILES IDX 21 1 20 2 19 3 17 4 18 5 16 7 15 8 11 9 12 10 81 11 13 12
REMARK SMILES IDX 14 13 9 14 8 15 10 17 7 18 1 19 2 20 3 21 4 22 5 23 6 24
REMARK SMILES IDX 22 25 23 26 24 27 25 28 26 30 27 31 28 32 80 33 29 34 79 35
REMARK SMILES IDX 30 36 31 37 32 38 73 39 33 40 78 41 72 42 74 43 34 44 77 45
REMARK SMILES IDX 71 46 70 47 35 49 61 50 44 51 60 52 45 53 48 54 59 55 75 56
REMARK SMILES IDX 46 57 47 58 58 60 76 61 49 62 36 63 37 64 42 65 38 66 39 67
REMARK SMILES IDX 41 68 43 69 40 70 62 71 63 72 68 73 64 74 65 75 67 76 69 77
REMARK SMILES IDX 66 78 50 79 51 80 56 81 52 82 53 83 55 84 57 85 54 86
REMARK H PARENT 19 6 8 16 24 29 74 48 48 59
REMARK Flexibility Score: inf
ROOT
ATOM      1  C   UNL A   1      38.898  22.663  26.157  1.00  0.00     0.023 C 
ENDROOT
BRANCH   1   2
ATOM      2  C   UNL A   1      37.584  23.388  25.871  1.00  0.00     0.116 C 
BRANCH   2   3
ATOM      3  N   UNL A   1      37.424  23.537  24.445  1.00  0.00    -0.356 N 
ATOM      4  C   UNL A   1      36.304  23.234  23.720  1.00  0.00     0.222 C 
ATOM      5  O   UNL A   1      36.413  23.069  22.506  1.00  0.00    -0.275 OA
ATOM      6  H   UNL A   1      38.195  23.890  23.945  1.00  0.00     0.163 HD
BRANCH   4   7
ATOM      7  C   UNL A   1      34.952  23.254  24.402  1.00  0.00     0.133 C 
BRANCH   7   8
ATOM      8  C   UNL A   1      33.770  22.495  23.785  1.00  0.00     0.147 C 
ATOM      9  N   UNL A   1      31.825  23.772  24.703  1.00  0.00    -0.320 N 
ATOM     10  C   UNL A   1      31.261  22.562  25.273  1.00  0.00     0.150 C 
ATOM     11  C   UNL A   1      32.612  23.483  23.497  1.00  0.00     0.154 C 
ATOM     12  C   UNL A   1      32.376  21.578  25.596  1.00  0.00     0.182 C 
ATOM     13  O   UNL A   1      33.290  21.347  24.513  1.00  0.00    -0.374 OA
BRANCH   9  14
ATOM     14  C   UNL A   1      31.211  24.982  24.819  1.00  0.00     0.317 C 
ATOM     15  N   UNL A   1      31.603  25.891  25.739  1.00  0.00    -0.335 N 
ATOM     16  H   UNL A   1      30.837  26.252  26.242  1.00  0.00     0.165 HD
ATOM     17  O   UNL A   1      30.235  25.276  24.126  1.00  0.00    -0.249 OA
BRANCH  15  18
ATOM     18  C   UNL A   1      32.876  26.486  26.188  1.00  0.00     0.087 C 
ATOM     19  C   UNL A   1      31.574  28.149  27.730  1.00  0.00     0.010 C 
ATOM     20  C   UNL A   1      32.756  27.898  26.811  1.00  0.00     0.011 C 
ATOM     21  C   UNL A   1      32.941  28.883  25.642  1.00  0.00    -0.009 C 
ATOM     22  C   UNL A   1      31.656  29.476  25.067  1.00  0.00     0.008 C 
ATOM     23  C   UNL A   1      33.749  28.084  24.609  1.00  0.00     0.006 C 
ATOM     24  C   UNL A   1      34.014  26.711  25.205  1.00  0.00     0.025 C 
ENDBRANCH  15  18
ENDBRANCH   9  14
ENDBRANCH   7   8
ENDBRANCH   4   7
ENDBRANCH   2   3
ENDBRANCH   1   2
BRANCH   1  25
ATOM     25  C   UNL A   1      38.974  21.282  25.529  1.00  0.00     0.023 C 
BRANCH  25  26
ATOM     26  C   UNL A   1      39.499  20.226  26.485  1.00  0.00     0.116 C 
BRANCH  26  27
ATOM     27  N   UNL A   1      40.576  19.419  25.926  1.00  0.00    -0.352 N 
ATOM     28  C   UNL A   1      41.914  19.737  25.852  1.00  0.00     0.251 C 
ATOM     29  H   UNL A   1      40.318  18.542  25.561  1.00  0.00     0.163 HD
ATOM     30  O   UNL A   1      42.715  19.009  25.299  1.00  0.00    -0.269 OA
BRANCH  28  31
ATOM     31  C   UNL A   1      42.331  21.029  26.429  1.00  0.00     0.039 A 
ATOM     32  C   UNL A   1      42.620  22.088  25.568  1.00  0.00     0.014 A 
ATOM     33  C   UNL A   1      42.293  21.211  27.812  1.00  0.00     0.014 A 
ATOM     34  C   UNL A   1      42.819  23.359  26.103  1.00  0.00     0.010 A 
ATOM     35  C   UNL A   1      42.385  22.493  28.330  1.00  0.00     0.010 A 
ATOM     36  C   UNL A   1      42.670  23.575  27.483  1.00  0.00    -0.014 A 
BRANCH  36  37
ATOM     37  C   UNL A   1      42.871  24.916  28.078  1.00  0.00     0.031 A 
ATOM     38  C   UNL A   1      44.247  25.313  28.537  1.00  0.00     0.074 A 
ATOM     39  C   UNL A   1      41.823  25.741  28.261  1.00  0.00     0.049 A 
ATOM     40  N   UNL A   1      44.634  26.403  29.148  1.00  0.00    -0.248 NA
ATOM     41  C   UNL A   1      45.324  24.333  28.321  1.00  0.00     0.031 C 
ATOM     42  C   UNL A   1      40.431  25.440  27.920  1.00  0.00     0.029 A 
ATOM     43  N   UNL A   1      41.770  27.007  28.786  1.00  0.00    -0.354 N 
ATOM     44  C   UNL A   1      45.985  26.221  29.414  1.00  0.00     0.074 A 
ATOM     45  C   UNL A   1      46.335  24.894  28.965  1.00  0.00     0.031 C 
ATOM     46  C   UNL A   1      39.666  26.506  28.212  1.00  0.00     0.029 A 
ATOM     47  C   UNL A   1      40.509  27.553  28.781  1.00  0.00     0.049 A 
ATOM     48  H   UNL A   1      42.560  27.480  29.134  1.00  0.00     0.167 HD
ATOM     49  C   UNL A   1      46.867  27.097  29.949  1.00  0.00     0.037 A 
ATOM     50  C   UNL A   1      40.091  28.768  29.181  1.00  0.00     0.037 A 
ATOM     51  C   UNL A   1      46.526  28.437  30.339  1.00  0.00     0.049 A 
ATOM     52  C   UNL A   1      41.101  29.747  29.714  1.00  0.00     0.074 A 
ATOM     53  C   UNL A   1      47.352  29.429  30.837  1.00  0.00     0.029 A 
ATOM     54  N   UNL A   1      45.251  28.975  30.260  1.00  0.00    -0.354 N 
ATOM     55  N   UNL A   1      42.389  29.587  29.903  1.00  0.00    -0.248 NA
ATOM     56  C   UNL A   1      40.602  31.081  30.073  1.00  0.00     0.031 C 
ATOM     57  C   UNL A   1      46.569  30.564  31.078  1.00  0.00     0.029 A 
ATOM     58  C   UNL A   1      45.266  30.288  30.696  1.00  0.00     0.049 A 
ATOM     59  H   UNL A   1      44.453  28.495  29.940  1.00  0.00     0.167 HD
ATOM     60  C   UNL A   1      42.860  30.808  30.368  1.00  0.00     0.074 A 
ATOM     61  C   UNL A   1      41.720  31.701  30.423  1.00  0.00     0.031 C 
ATOM     62  C   UNL A   1      44.120  31.161  30.720  1.00  0.00     0.037 A 
BRANCH  49  63
ATOM     63  C   UNL A   1      48.281  26.627  30.115  1.00  0.00     0.057 A 
ATOM     64  C   UNL A   1      49.254  26.848  29.129  1.00  0.00     0.134 A 
ATOM     65  C   UNL A   1      48.677  25.937  31.267  1.00  0.00     0.134 A 
ATOM     66  F   UNL A   1      48.935  27.484  27.991  1.00  0.00    -0.206 F 
ATOM     67  C   UNL A   1      50.557  26.368  29.267  1.00  0.00     0.040 A 
ATOM     68  C   UNL A   1      49.986  25.478  31.429  1.00  0.00     0.040 A 
ATOM     69  F   UNL A   1      47.798  25.691  32.250  1.00  0.00    -0.206 F 
ATOM     70  C   UNL A   1      50.927  25.685  30.423  1.00  0.00     0.006 A 
ENDBRANCH  49  63
BRANCH  50  71
ATOM     71  C   UNL A   1      38.665  29.152  29.036  1.00  0.00     0.057 A 
ATOM     72  C   UNL A   1      37.793  29.105  30.130  1.00  0.00     0.134 A 
ATOM     73  C   UNL A   1      38.135  29.560  27.807  1.00  0.00     0.134 A 
ATOM     74  F   UNL A   1      38.240  28.707  31.331  1.00  0.00    -0.206 F 
ATOM     75  C   UNL A   1      36.441  29.425  30.004  1.00  0.00     0.040 A 
ATOM     76  C   UNL A   1      36.789  29.904  27.670  1.00  0.00     0.040 A 
ATOM     77  F   UNL A   1      38.921  29.635  26.723  1.00  0.00    -0.206 F 
ATOM     78  C   UNL A   1      35.936  29.829  28.770  1.00  0.00     0.006 A 
ENDBRANCH  50  71
BRANCH  62  79
ATOM     79  C   UNL A   1      44.337  32.584  31.140  1.00  0.00     0.057 A 
ATOM     80  C   UNL A   1      44.254  32.981  32.479  1.00  0.00     0.134 A 
ATOM     81  C   UNL A   1      44.664  33.561  30.190  1.00  0.00     0.134 A 
ATOM     82  F   UNL A   1      43.933  32.094  33.434  1.00  0.00    -0.206 F 
ATOM     83  C   UNL A   1      44.460  34.309  32.857  1.00  0.00     0.040 A 
ATOM     84  C   UNL A   1      44.897  34.885  30.560  1.00  0.00     0.040 A 
ATOM     85  F   UNL A   1      44.770  33.240  28.892  1.00  0.00    -0.206 F 
ATOM     86  C   UNL A   1      44.788  35.263  31.896  1.00  0.00     0.006 A 
ENDBRANCH  62  79
ENDBRANCH  36  37
ENDBRANCH  28  31
ENDBRANCH  26  27
ENDBRANCH  25  26
ENDBRANCH   1  25
TORSDOF 14
ENDMDL
MODEL 3
REMARK VINA RESULT:     -11.3      1.833      2.665
REMARK SMILES C[C@@H]1[C@H](C)CC[C@@H]1NC(=O)N1CCO[C@H](CC(=O)NCCCCNC(=O)c2ccc(-c3c4nc(c(-c5c(F)cccc5F)c5ccc([nH]5)c(-c5c(F)cccc5F)c5nc(c(-c6c(F)cccc6F)c6ccc3[nH]6)C=C5)C=C4)cc2)C1
REMARK SMILES IDX 21 1 20 2 19 3 17 4 18 5 16 7 15 8 11 9 12 10 81 11 13 12
REMARK SMILES IDX 14 13 9 14 8 15 10 17 7 18 1 19 2 20 3 21 4 22 5 23 6 24
REMARK SMILES IDX 22 25 23 26 24 27 25 28 26 30 27 31 28 32 80 33 29 34 79 35
REMARK SMILES IDX 30 36 31 37 32 38 73 39 33 40 78 41 72 42 74 43 34 44 77 45
REMARK SMILES IDX 71 46 70 47 35 49 61 50 44 51 60 52 45 53 48 54 59 55 75 56
REMARK SMILES IDX 46 57 47 58 58 60 76 61 49 62 36 63 37 64 42 65 38 66 39 67
REMARK SMILES IDX 41 68 43 69 40 70 62 71 63 72 68 73 64 74 65 75 67 76 69 77
REMARK SMILES IDX 66 78 50 79 51 80 56 81 52 82 53 83 55 84 57 85 54 86
REMARK H PARENT 19 6 8 16 24 29 74 48 48 59
REMARK Flexibility Score: inf
ROOT
ATOM      1  C   UNL A   1      37.259  21.105  24.484  1.00  0.00     0.023 C 
ENDROOT
BRANCH   1   2
ATOM      2  C   UNL A   1      37.353  22.302  25.428  1.00  0.00     0.116 C 
BRANCH   2   3
ATOM      3  N   UNL A   1      36.133  22.400  26.193  1.00  0.00    -0.356 N 
ATOM      4  C   UNL A   1      35.097  23.262  25.959  1.00  0.00     0.222 C 
ATOM      5  O   UNL A   1      34.300  23.489  26.868  1.00  0.00    -0.275 OA
ATOM      6  H   UNL A   1      36.037  21.787  26.958  1.00  0.00     0.163 HD
BRANCH   4   7
ATOM      7  C   UNL A   1      34.878  23.795  24.559  1.00  0.00     0.133 C 
BRANCH   7   8
ATOM      8  C   UNL A   1      34.099  22.962  23.533  1.00  0.00     0.147 C 
ATOM      9  N   UNL A   1      32.083  24.395  23.158  1.00  0.00    -0.320 N 
ATOM     10  C   UNL A   1      31.200  23.299  23.516  1.00  0.00     0.150 C 
ATOM     11  C   UNL A   1      33.337  23.905  22.569  1.00  0.00     0.154 C 
ATOM     12  C   UNL A   1      31.908  22.366  24.487  1.00  0.00     0.182 C 
ATOM     13  O   UNL A   1      33.215  21.952  24.060  1.00  0.00    -0.374 OA
BRANCH   9  14
ATOM     14  C   UNL A   1      31.608  25.615  22.784  1.00  0.00     0.317 C 
ATOM     15  N   UNL A   1      30.876  26.379  23.625  1.00  0.00    -0.335 N 
ATOM     16  H   UNL A   1      30.061  26.719  23.190  1.00  0.00     0.165 HD
ATOM     17  O   UNL A   1      31.780  26.050  21.644  1.00  0.00    -0.249 OA
BRANCH  15  18
ATOM     18  C   UNL A   1      30.976  26.837  25.024  1.00  0.00     0.087 C 
ATOM     19  C   UNL A   1      30.872  29.327  24.233  1.00  0.00     0.010 C 
ATOM     20  C   UNL A   1      31.438  28.304  25.201  1.00  0.00     0.011 C 
ATOM     21  C   UNL A   1      32.971  28.243  25.323  1.00  0.00    -0.009 C 
ATOM     22  C   UNL A   1      33.750  28.585  24.053  1.00  0.00     0.008 C 
ATOM     23  C   UNL A   1      33.247  26.821  25.833  1.00  0.00     0.006 C 
ATOM     24  C   UNL A   1      31.902  26.133  26.004  1.00  0.00     0.025 C 
ENDBRANCH  15  18
ENDBRANCH   9  14
ENDBRANCH   7   8
ENDBRANCH   4   7
ENDBRANCH   2   3
ENDBRANCH   1   2
BRANCH   1  25
ATOM     25  C   UNL A   1      37.978  19.871  25.001  1.00  0.00     0.023 C 
BRANCH  25  26
ATOM     26  C   UNL A   1      39.255  20.203  25.753  1.00  0.00     0.116 C 
BRANCH  26  27
ATOM     27  N   UNL A   1      40.215  19.107  25.784  1.00  0.00    -0.352 N 
ATOM     28  C   UNL A   1      41.562  19.176  26.061  1.00  0.00     0.251 C 
ATOM     29  H   UNL A   1      39.858  18.211  25.585  1.00  0.00     0.163 HD
ATOM     30  O   UNL A   1      42.281  18.199  25.990  1.00  0.00    -0.269 OA
BRANCH  28  31
ATOM     31  C   UNL A   1      42.111  20.502  26.400  1.00  0.00     0.039 A 
ATOM     32  C   UNL A   1      42.347  21.416  25.373  1.00  0.00     0.014 A 
ATOM     33  C   UNL A   1      42.252  20.868  27.740  1.00  0.00     0.014 A 
ATOM     34  C   UNL A   1      42.673  22.731  25.699  1.00  0.00     0.010 A 
ATOM     35  C   UNL A   1      42.471  22.198  28.060  1.00  0.00     0.010 A 
ATOM     36  C   UNL A   1      42.705  23.137  27.043  1.00  0.00    -0.014 A 
BRANCH  36  37
ATOM     37  C   UNL A   1      43.046  24.529  27.418  1.00  0.00     0.031 A 
ATOM     38  C   UNL A   1      44.478  24.978  27.339  1.00  0.00     0.074 A 
ATOM     39  C   UNL A   1      42.093  25.359  27.883  1.00  0.00     0.049 A 
ATOM     40  N   UNL A   1      45.008  26.122  27.686  1.00  0.00    -0.248 NA
ATOM     41  C   UNL A   1      45.454  23.991  26.846  1.00  0.00     0.031 C 
ATOM     42  C   UNL A   1      40.681  25.016  28.070  1.00  0.00     0.029 A 
ATOM     43  N   UNL A   1      42.173  26.667  28.287  1.00  0.00    -0.354 N 
ATOM     44  C   UNL A   1      46.375  25.977  27.482  1.00  0.00     0.074 A 
ATOM     45  C   UNL A   1      46.601  24.617  27.052  1.00  0.00     0.031 C 
ATOM     46  C   UNL A   1      40.022  26.098  28.518  1.00  0.00     0.029 A 
ATOM     47  C   UNL A   1      40.966  27.200  28.672  1.00  0.00     0.049 A 
ATOM     48  H   UNL A   1      43.015  27.176  28.299  1.00  0.00     0.167 HD
ATOM     49  C   UNL A   1      47.352  26.905  27.605  1.00  0.00     0.037 A 
ATOM     50  C   UNL A   1      40.664  28.443  29.089  1.00  0.00     0.037 A 
ATOM     51  C   UNL A   1      47.113  28.272  27.976  1.00  0.00     0.049 A 
ATOM     52  C   UNL A   1      41.756  29.475  29.157  1.00  0.00     0.074 A 
ATOM     53  C   UNL A   1      48.019  29.313  28.073  1.00  0.00     0.029 A 
ATOM     54  N   UNL A   1      45.868  28.790  28.298  1.00  0.00    -0.354 N 
ATOM     55  N   UNL A   1      43.036  29.343  28.902  1.00  0.00    -0.248 NA
ATOM     56  C   UNL A   1      41.358  30.831  29.555  1.00  0.00     0.031 C 
ATOM     57  C   UNL A   1      47.323  30.458  28.474  1.00  0.00     0.029 A 
ATOM     58  C   UNL A   1      45.980  30.138  28.591  1.00  0.00     0.049 A 
ATOM     59  H   UNL A   1      45.028  28.276  28.314  1.00  0.00     0.167 HD
ATOM     60  C   UNL A   1      43.589  30.605  29.073  1.00  0.00     0.074 A 
ATOM     61  C   UNL A   1      42.503  31.490  29.443  1.00  0.00     0.031 C 
ATOM     62  C   UNL A   1      44.879  31.000  28.936  1.00  0.00     0.037 A 
BRANCH  49  63
ATOM     63  C   UNL A   1      48.754  26.464  27.311  1.00  0.00     0.057 A 
ATOM     64  C   UNL A   1      49.280  26.491  26.011  1.00  0.00     0.134 A 
ATOM     65  C   UNL A   1      49.589  25.997  28.333  1.00  0.00     0.134 A 
ATOM     66  F   UNL A   1      48.525  26.907  24.981  1.00  0.00    -0.206 F 
ATOM     67  C   UNL A   1      50.569  26.036  25.734  1.00  0.00     0.040 A 
ATOM     68  C   UNL A   1      50.892  25.567  28.073  1.00  0.00     0.040 A 
ATOM     69  F   UNL A   1      49.150  25.944  29.600  1.00  0.00    -0.206 F 
ATOM     70  C   UNL A   1      51.381  25.577  26.769  1.00  0.00     0.006 A 
ENDBRANCH  49  63
BRANCH  50  71
ATOM     71  C   UNL A   1      39.260  28.800  29.415  1.00  0.00     0.057 A 
ATOM     72  C   UNL A   1      38.421  29.367  28.449  1.00  0.00     0.134 A 
ATOM     73  C   UNL A   1      38.728  28.600  30.693  1.00  0.00     0.134 A 
ATOM     74  F   UNL A   1      38.880  29.598  27.209  1.00  0.00    -0.206 F 
ATOM     75  C   UNL A   1      37.112  29.746  28.746  1.00  0.00     0.040 A 
ATOM     76  C   UNL A   1      37.413  28.953  31.000  1.00  0.00     0.040 A 
ATOM     77  F   UNL A   1      39.479  28.052  31.660  1.00  0.00    -0.206 F 
ATOM     78  C   UNL A   1      36.603  29.536  30.027  1.00  0.00     0.006 A 
ENDBRANCH  50  71
BRANCH  62  79
ATOM     79  C   UNL A   1      45.171  32.457  29.135  1.00  0.00     0.057 A 
ATOM     80  C   UNL A   1      45.561  32.970  30.378  1.00  0.00     0.134 A 
ATOM     81  C   UNL A   1      45.088  33.350  28.059  1.00  0.00     0.134 A 
ATOM     82  F   UNL A   1      45.647  32.168  31.449  1.00  0.00    -0.206 F 
ATOM     83  C   UNL A   1      45.832  34.329  30.550  1.00  0.00     0.040 A 
ATOM     84  C   UNL A   1      45.380  34.704  28.213  1.00  0.00     0.040 A 
ATOM     85  F   UNL A   1      44.729  32.916  26.841  1.00  0.00    -0.206 F 
ATOM     86  C   UNL A   1      45.747  35.198  29.464  1.00  0.00     0.006 A 
ENDBRANCH  62  79
ENDBRANCH  36  37
ENDBRANCH  28  31
ENDBRANCH  26  27
ENDBRANCH  25  26
ENDBRANCH   1  25
TORSDOF 14
ENDMDL
