MODEL 1
REMARK VINA RESULT:     -11.4      0.000      0.000
REMARK SMILES CCN1C(=O)CC[C@H](C(=O)NCCCCNC(=O)c2ccc(-c3c4nc(c(-c5c(F)cccc5F)c5ccc([nH]5)c(-c5c(F)cccc5F)c5nc(c(-c6c(F)cccc6F)c6ccc3[nH]6)C=C5)C=C4)cc2)[C@@H]1c1ccc(OC)cc1
REMARK SMILES IDX 13 1 12 2 11 3 9 4 10 5 8 7 3 8 4 9 73 10 5 11 6 12 7 13
REMARK SMILES IDX 2 14 1 15 74 16 75 17 81 18 76 19 80 20 77 21 78 22 79 23
REMARK SMILES IDX 14 24 15 25 16 26 17 27 18 29 19 30 20 31 72 32 21 33 71 34
REMARK SMILES IDX 22 35 23 36 24 37 65 38 25 39 70 40 64 41 66 42 26 43 69 44
REMARK SMILES IDX 63 45 62 46 27 48 53 49 36 50 52 51 37 52 40 53 51 54 67 55
REMARK SMILES IDX 38 56 39 57 50 59 68 60 41 61 28 62 29 63 34 64 30 65 31 66
REMARK SMILES IDX 33 67 35 68 32 69 54 70 55 71 60 72 56 73 57 74 59 75 61 76
REMARK SMILES IDX 58 77 42 78 43 79 48 80 44 81 45 82 47 83 49 84 46 85
REMARK H PARENT 11 6 16 28 66 47 40 58
REMARK Flexibility Score: inf
ROOT
ATOM      1  C   UNL A   1      38.960  21.903  26.079  1.00  0.00     0.023 C 
ENDROOT
BRANCH   1   2
ATOM      2  C   UNL A   1      37.635  22.559  25.729  1.00  0.00     0.116 C 
BRANCH   2   3
ATOM      3  N   UNL A   1      37.234  22.379  24.349  1.00  0.00    -0.356 N 
ATOM      4  C   UNL A   1      36.224  22.969  23.651  1.00  0.00     0.225 C 
ATOM      5  O   UNL A   1      36.293  22.924  22.419  1.00  0.00    -0.275 OA
ATOM      6  H   UNL A   1      37.773  21.734  23.837  1.00  0.00     0.163 HD
BRANCH   4   7
ATOM      7  C   UNL A   1      35.037  23.663  24.317  1.00  0.00     0.106 C 
ATOM      8  N   UNL A   1      32.942  23.492  25.714  1.00  0.00    -0.335 N 
ATOM      9  C   UNL A   1      32.459  24.688  25.202  1.00  0.00     0.223 C 
ATOM     10  C   UNL A   1      34.138  22.774  25.203  1.00  0.00     0.128 C 
ATOM     11  O   UNL A   1      31.419  25.209  25.612  1.00  0.00    -0.275 OA
ATOM     12  C   UNL A   1      33.294  25.442  24.193  1.00  0.00     0.101 C 
ATOM     13  C   UNL A   1      34.266  24.601  23.399  1.00  0.00     0.026 C 
BRANCH   8  14
ATOM     14  C   UNL A   1      32.250  22.939  26.887  1.00  0.00     0.117 C 
ATOM     15  C   UNL A   1      33.173  22.442  27.995  1.00  0.00     0.027 C 
ENDBRANCH   8  14
BRANCH  10  16
ATOM     16  C   UNL A   1      33.795  21.396  24.642  1.00  0.00    -0.024 A 
ATOM     17  C   UNL A   1      34.480  20.233  25.028  1.00  0.00     0.010 A 
ATOM     18  C   UNL A   1      32.739  21.265  23.720  1.00  0.00     0.010 A 
ATOM     19  C   UNL A   1      34.110  18.984  24.518  1.00  0.00     0.047 A 
ATOM     20  C   UNL A   1      32.355  20.011  23.229  1.00  0.00     0.047 A 
ATOM     21  C   UNL A   1      33.031  18.865  23.644  1.00  0.00     0.118 A 
BRANCH  21  22
ATOM     22  O   UNL A   1      32.737  17.590  23.253  1.00  0.00    -0.497 OA
ATOM     23  C   UNL A   1      33.755  16.625  23.487  1.00  0.00     0.278 C 
ENDBRANCH  21  22
ENDBRANCH  10  16
ENDBRANCH   4   7
ENDBRANCH   2   3
ENDBRANCH   1   2
BRANCH   1  24
ATOM     24  C   UNL A   1      39.214  20.577  25.368  1.00  0.00     0.023 C 
BRANCH  24  25
ATOM     25  C   UNL A   1      39.766  19.451  26.240  1.00  0.00     0.116 C 
BRANCH  25  26
ATOM     26  N   UNL A   1      41.095  19.001  25.857  1.00  0.00    -0.352 N 
ATOM     27  C   UNL A   1      42.290  19.685  25.902  1.00  0.00     0.251 C 
ATOM     28  H   UNL A   1      41.149  18.077  25.517  1.00  0.00     0.163 HD
ATOM     29  O   UNL A   1      43.311  19.189  25.458  1.00  0.00    -0.269 OA
BRANCH  27  30
ATOM     30  C   UNL A   1      42.316  21.050  26.471  1.00  0.00     0.039 A 
ATOM     31  C   UNL A   1      42.150  21.203  27.849  1.00  0.00     0.014 A 
ATOM     32  C   UNL A   1      42.543  22.162  25.657  1.00  0.00     0.014 A 
ATOM     33  C   UNL A   1      42.303  22.466  28.423  1.00  0.00     0.010 A 
ATOM     34  C   UNL A   1      42.753  23.407  26.232  1.00  0.00     0.010 A 
ATOM     35  C   UNL A   1      42.651  23.564  27.621  1.00  0.00    -0.014 A 
BRANCH  35  36
ATOM     36  C   UNL A   1      42.983  24.878  28.217  1.00  0.00     0.031 A 
ATOM     37  C   UNL A   1      41.914  25.907  28.431  1.00  0.00     0.074 A 
ATOM     38  C   UNL A   1      44.275  25.172  28.452  1.00  0.00     0.049 A 
ATOM     39  N   UNL A   1      42.026  27.131  28.876  1.00  0.00    -0.248 NA
ATOM     40  C   UNL A   1      40.544  25.519  28.064  1.00  0.00     0.031 C 
ATOM     41  C   UNL A   1      45.406  24.276  28.197  1.00  0.00     0.029 A 
ATOM     42  N   UNL A   1      44.861  26.316  28.931  1.00  0.00    -0.354 N 
ATOM     43  C   UNL A   1      40.744  27.662  28.841  1.00  0.00     0.074 A 
ATOM     44  C   UNL A   1      39.881  26.648  28.276  1.00  0.00     0.031 C 
ATOM     45  C   UNL A   1      46.546  24.901  28.528  1.00  0.00     0.029 A 
ATOM     46  C   UNL A   1      46.230  26.247  28.992  1.00  0.00     0.049 A 
ATOM     47  H   UNL A   1      44.347  27.110  29.205  1.00  0.00     0.167 HD
ATOM     48  C   UNL A   1      40.325  28.878  29.263  1.00  0.00     0.037 A 
ATOM     49  C   UNL A   1      47.131  27.172  29.374  1.00  0.00     0.037 A 
ATOM     50  C   UNL A   1      41.197  29.877  29.825  1.00  0.00     0.049 A 
ATOM     51  C   UNL A   1      46.642  28.508  29.852  1.00  0.00     0.074 A 
ATOM     52  C   UNL A   1      40.867  31.113  30.354  1.00  0.00     0.029 A 
ATOM     53  N   UNL A   1      42.577  29.758  29.919  1.00  0.00    -0.354 N 
ATOM     54  N   UNL A   1      45.414  28.963  29.916  1.00  0.00    -0.248 NA
ATOM     55  C   UNL A   1      47.661  29.455  30.326  1.00  0.00     0.031 C 
ATOM     56  C   UNL A   1      42.051  31.761  30.721  1.00  0.00     0.029 A 
ATOM     57  C   UNL A   1      43.115  30.908  30.471  1.00  0.00     0.049 A 
ATOM     58  H   UNL A   1      43.096  28.971  29.634  1.00  0.00     0.167 HD
ATOM     59  C   UNL A   1      45.507  30.237  30.458  1.00  0.00     0.074 A 
ATOM     60  C   UNL A   1      46.913  30.477  30.720  1.00  0.00     0.031 C 
ATOM     61  C   UNL A   1      44.519  31.129  30.718  1.00  0.00     0.037 A 
BRANCH  48  62
ATOM     62  C   UNL A   1      38.861  29.190  29.130  1.00  0.00     0.057 A 
ATOM     63  C   UNL A   1      37.985  29.101  30.221  1.00  0.00     0.134 A 
ATOM     64  C   UNL A   1      38.323  29.599  27.904  1.00  0.00     0.134 A 
ATOM     65  F   UNL A   1      38.431  28.705  31.422  1.00  0.00    -0.206 F 
ATOM     66  C   UNL A   1      36.622  29.377  30.090  1.00  0.00     0.040 A 
ATOM     67  C   UNL A   1      36.967  29.905  27.767  1.00  0.00     0.040 A 
ATOM     68  F   UNL A   1      39.105  29.711  26.819  1.00  0.00    -0.206 F 
ATOM     69  C   UNL A   1      36.111  29.786  28.860  1.00  0.00     0.006 A 
ENDBRANCH  48  62
BRANCH  49  70
ATOM     70  C   UNL A   1      48.578  26.844  29.345  1.00  0.00     0.057 A 
ATOM     71  C   UNL A   1      49.367  27.152  28.232  1.00  0.00     0.134 A 
ATOM     72  C   UNL A   1      49.212  26.239  30.437  1.00  0.00     0.134 A 
ATOM     73  F   UNL A   1      48.815  27.721  27.151  1.00  0.00    -0.206 F 
ATOM     74  C   UNL A   1      50.731  26.857  28.198  1.00  0.00     0.040 A 
ATOM     75  C   UNL A   1      50.579  25.960  30.427  1.00  0.00     0.040 A 
ATOM     76  F   UNL A   1      48.513  25.931  31.540  1.00  0.00    -0.206 F 
ATOM     77  C   UNL A   1      51.342  26.264  29.301  1.00  0.00     0.006 A 
ENDBRANCH  49  70
BRANCH  61  78
ATOM     78  C   UNL A   1      44.924  32.435  31.337  1.00  0.00     0.057 A 
ATOM     79  C   UNL A   1      45.225  33.560  30.558  1.00  0.00     0.134 A 
ATOM     80  C   UNL A   1      44.980  32.576  32.729  1.00  0.00     0.134 A 
ATOM     81  F   UNL A   1      45.204  33.486  29.219  1.00  0.00    -0.206 F 
ATOM     82  C   UNL A   1      45.588  34.774  31.144  1.00  0.00     0.040 A 
ATOM     83  C   UNL A   1      45.314  33.792  33.326  1.00  0.00     0.040 A 
ATOM     84  F   UNL A   1      44.695  31.539  33.532  1.00  0.00    -0.206 F 
ATOM     85  C   UNL A   1      45.626  34.893  32.532  1.00  0.00     0.006 A 
ENDBRANCH  61  78
ENDBRANCH  35  36
ENDBRANCH  27  30
ENDBRANCH  25  26
ENDBRANCH  24  25
ENDBRANCH   1  24
TORSDOF 14
ENDMDL
MODEL 2
REMARK VINA RESULT:     -11.4      0.374      6.111
REMARK SMILES CCN1C(=O)CC[C@H](C(=O)NCCCCNC(=O)c2ccc(-c3c4nc(c(-c5c(F)cccc5F)c5ccc([nH]5)c(-c5c(F)cccc5F)c5nc(c(-c6c(F)cccc6F)c6ccc3[nH]6)C=C5)C=C4)cc2)[C@@H]1c1ccc(OC)cc1
REMARK SMILES IDX 13 1 12 2 11 3 9 4 10 5 8 7 3 8 4 9 73 10 5 11 6 12 7 13
REMARK SMILES IDX 2 14 1 15 74 16 75 17 81 18 76 19 80 20 77 21 78 22 79 23
REMARK SMILES IDX 14 24 15 25 16 26 17 27 18 29 19 30 20 31 72 32 21 33 71 34
REMARK SMILES IDX 22 35 23 36 24 37 65 38 25 39 70 40 64 41 66 42 26 43 69 44
REMARK SMILES IDX 63 45 62 46 27 48 53 49 36 50 52 51 37 52 40 53 51 54 67 55
REMARK SMILES IDX 38 56 39 57 50 59 68 60 41 61 28 62 29 63 34 64 30 65 31 66
REMARK SMILES IDX 33 67 35 68 32 69 54 70 55 71 60 72 56 73 57 74 59 75 61 76
REMARK SMILES IDX 58 77 42 78 43 79 48 80 44 81 45 82 47 83 49 84 46 85
REMARK H PARENT 11 6 16 28 66 47 40 58
REMARK Flexibility Score: inf
ROOT
ATOM      1  C   UNL A   1      39.056  21.813  26.067  1.00  0.00     0.023 C 
ENDROOT
BRANCH   1   2
ATOM      2  C   UNL A   1      37.724  22.462  25.730  1.00  0.00     0.116 C 
BRANCH   2   3
ATOM      3  N   UNL A   1      37.322  22.303  24.348  1.00  0.00    -0.356 N 
ATOM      4  C   UNL A   1      36.334  22.929  23.650  1.00  0.00     0.225 C 
ATOM      5  O   UNL A   1      36.405  22.888  22.418  1.00  0.00    -0.275 OA
ATOM      6  H   UNL A   1      37.840  21.643  23.835  1.00  0.00     0.163 HD
BRANCH   4   7
ATOM      7  C   UNL A   1      35.169  23.659  24.316  1.00  0.00     0.106 C 
ATOM      8  N   UNL A   1      33.085  23.556  25.737  1.00  0.00    -0.335 N 
ATOM      9  C   UNL A   1      32.622  24.752  25.209  1.00  0.00     0.223 C 
ATOM     10  C   UNL A   1      34.261  22.804  25.227  1.00  0.00     0.128 C 
ATOM     11  O   UNL A   1      31.597  25.302  25.621  1.00  0.00    -0.275 OA
ATOM     12  C   UNL A   1      33.462  25.472  24.179  1.00  0.00     0.101 C 
ATOM     13  C   UNL A   1      34.408  24.597  23.390  1.00  0.00     0.026 C 
BRANCH   8  14
ATOM     14  C   UNL A   1      32.395  23.037  26.926  1.00  0.00     0.117 C 
ATOM     15  C   UNL A   1      33.313  22.435  27.984  1.00  0.00     0.027 C 
ENDBRANCH   8  14
BRANCH  10  16
ATOM     16  C   UNL A   1      33.884  21.424  24.693  1.00  0.00    -0.024 A 
ATOM     17  C   UNL A   1      34.546  20.254  25.094  1.00  0.00     0.010 A 
ATOM     18  C   UNL A   1      32.818  21.300  23.782  1.00  0.00     0.010 A 
ATOM     19  C   UNL A   1      34.145  19.004  24.610  1.00  0.00     0.047 A 
ATOM     20  C   UNL A   1      32.403  20.046  23.315  1.00  0.00     0.047 A 
ATOM     21  C   UNL A   1      33.056  18.894  23.746  1.00  0.00     0.118 A 
BRANCH  21  22
ATOM     22  O   UNL A   1      32.732  17.618  23.380  1.00  0.00    -0.497 OA
ATOM     23  C   UNL A   1      33.831  16.743  23.160  1.00  0.00     0.278 C 
ENDBRANCH  21  22
ENDBRANCH  10  16
ENDBRANCH   4   7
ENDBRANCH   2   3
ENDBRANCH   1   2
BRANCH   1  24
ATOM     24  C   UNL A   1      39.292  20.469  25.384  1.00  0.00     0.023 C 
BRANCH  24  25
ATOM     25  C   UNL A   1      39.908  19.379  26.258  1.00  0.00     0.116 C 
BRANCH  25  26
ATOM     26  N   UNL A   1      41.246  18.976  25.851  1.00  0.00    -0.352 N 
ATOM     27  C   UNL A   1      42.408  19.715  25.838  1.00  0.00     0.251 C 
ATOM     28  H   UNL A   1      41.332  18.045  25.541  1.00  0.00     0.163 HD
ATOM     29  O   UNL A   1      43.438  19.251  25.380  1.00  0.00    -0.269 OA
BRANCH  27  30
ATOM     30  C   UNL A   1      42.387  21.099  26.360  1.00  0.00     0.039 A 
ATOM     31  C   UNL A   1      42.221  21.294  27.733  1.00  0.00     0.014 A 
ATOM     32  C   UNL A   1      42.570  22.190  25.507  1.00  0.00     0.014 A 
ATOM     33  C   UNL A   1      42.330  22.580  28.262  1.00  0.00     0.010 A 
ATOM     34  C   UNL A   1      42.737  23.460  26.038  1.00  0.00     0.010 A 
ATOM     35  C   UNL A   1      42.635  23.662  27.421  1.00  0.00    -0.014 A 
BRANCH  35  36
ATOM     36  C   UNL A   1      42.921  25.006  27.970  1.00  0.00     0.031 A 
ATOM     37  C   UNL A   1      44.300  25.356  28.443  1.00  0.00     0.074 A 
ATOM     38  C   UNL A   1      41.898  25.863  28.145  1.00  0.00     0.049 A 
ATOM     39  N   UNL A   1      44.722  26.455  29.011  1.00  0.00    -0.248 NA
ATOM     40  C   UNL A   1      45.333  24.321  28.286  1.00  0.00     0.031 C 
ATOM     41  C   UNL A   1      40.499  25.591  27.801  1.00  0.00     0.029 A 
ATOM     42  N   UNL A   1      41.868  27.125  28.680  1.00  0.00    -0.354 N 
ATOM     43  C   UNL A   1      46.067  26.246  29.284  1.00  0.00     0.074 A 
ATOM     44  C   UNL A   1      46.376  24.893  28.872  1.00  0.00     0.031 C 
ATOM     45  C   UNL A   1      39.751  26.656  28.128  1.00  0.00     0.029 A 
ATOM     46  C   UNL A   1      40.610  27.672  28.727  1.00  0.00     0.049 A 
ATOM     47  H   UNL A   1      42.673  27.594  29.001  1.00  0.00     0.167 HD
ATOM     48  C   UNL A   1      46.964  27.112  29.809  1.00  0.00     0.037 A 
ATOM     49  C   UNL A   1      40.194  28.859  29.207  1.00  0.00     0.037 A 
ATOM     50  C   UNL A   1      46.642  28.456  30.212  1.00  0.00     0.049 A 
ATOM     51  C   UNL A   1      41.210  29.809  29.772  1.00  0.00     0.074 A 
ATOM     52  C   UNL A   1      47.489  29.442  30.687  1.00  0.00     0.029 A 
ATOM     53  N   UNL A   1      45.363  28.997  30.201  1.00  0.00    -0.354 N 
ATOM     54  N   UNL A   1      42.501  29.642  29.925  1.00  0.00    -0.248 NA
ATOM     55  C   UNL A   1      40.716  31.120  30.214  1.00  0.00     0.031 C 
ATOM     56  C   UNL A   1      46.716  30.563  31.009  1.00  0.00     0.029 A 
ATOM     57  C   UNL A   1      45.395  30.295  30.686  1.00  0.00     0.049 A 
ATOM     58  H   UNL A   1      44.554  28.528  29.894  1.00  0.00     0.167 HD
ATOM     59  C   UNL A   1      42.979  30.830  30.460  1.00  0.00     0.074 A 
ATOM     60  C   UNL A   1      41.840  31.716  30.589  1.00  0.00     0.031 C 
ATOM     61  C   UNL A   1      44.247  31.159  30.811  1.00  0.00     0.037 A 
BRANCH  48  62
ATOM     62  C   UNL A   1      48.377  26.627  29.975  1.00  0.00     0.057 A 
ATOM     63  C   UNL A   1      48.782  25.904  31.106  1.00  0.00     0.134 A 
ATOM     64  C   UNL A   1      49.340  26.871  28.988  1.00  0.00     0.134 A 
ATOM     65  F   UNL A   1      47.913  25.644  32.095  1.00  0.00    -0.206 F 
ATOM     66  C   UNL A   1      50.099  25.469  31.264  1.00  0.00     0.040 A 
ATOM     67  C   UNL A   1      50.654  26.416  29.122  1.00  0.00     0.040 A 
ATOM     68  F   UNL A   1      49.021  27.553  27.878  1.00  0.00    -0.206 F 
ATOM     69  C   UNL A   1      51.038  25.721  30.266  1.00  0.00     0.006 A 
ENDBRANCH  48  62
BRANCH  49  70
ATOM     70  C   UNL A   1      38.756  29.216  29.140  1.00  0.00     0.057 A 
ATOM     71  C   UNL A   1      38.169  29.630  27.940  1.00  0.00     0.134 A 
ATOM     72  C   UNL A   1      37.928  29.128  30.267  1.00  0.00     0.134 A 
ATOM     73  F   UNL A   1      38.912  29.745  26.830  1.00  0.00    -0.206 F 
ATOM     74  C   UNL A   1      36.815  29.960  27.864  1.00  0.00     0.040 A 
ATOM     75  C   UNL A   1      36.568  29.431  30.200  1.00  0.00     0.040 A 
ATOM     76  F   UNL A   1      38.429  28.724  31.444  1.00  0.00    -0.206 F 
ATOM     77  C   UNL A   1      36.008  29.854  28.995  1.00  0.00     0.006 A 
ENDBRANCH  49  70
BRANCH  61  78
ATOM     78  C   UNL A   1      44.469  32.544  31.346  1.00  0.00     0.057 A 
ATOM     79  C   UNL A   1      44.743  33.627  30.502  1.00  0.00     0.134 A 
ATOM     80  C   UNL A   1      44.374  32.800  32.720  1.00  0.00     0.134 A 
ATOM     81  F   UNL A   1      44.861  33.445  29.178  1.00  0.00    -0.206 F 
ATOM     82  C   UNL A   1      44.936  34.913  31.009  1.00  0.00     0.040 A 
ATOM     83  C   UNL A   1      44.536  34.086  33.235  1.00  0.00     0.040 A 
ATOM     84  F   UNL A   1      44.106  31.808  33.582  1.00  0.00    -0.206 F 
ATOM     85  C   UNL A   1      44.825  35.147  32.378  1.00  0.00     0.006 A 
ENDBRANCH  61  78
ENDBRANCH  35  36
ENDBRANCH  27  30
ENDBRANCH  25  26
ENDBRANCH  24  25
ENDBRANCH   1  24
TORSDOF 14
ENDMDL
MODEL 3
REMARK VINA RESULT:     -11.4      4.667      9.200
REMARK SMILES CCN1C(=O)CC[C@H](C(=O)NCCCCNC(=O)c2ccc(-c3c4nc(c(-c5c(F)cccc5F)c5ccc([nH]5)c(-c5c(F)cccc5F)c5nc(c(-c6c(F)cccc6F)c6ccc3[nH]6)C=C5)C=C4)cc2)[C@@H]1c1ccc(OC)cc1
REMARK SMILES IDX 13 1 12 2 11 3 9 4 10 5 8 7 3 8 4 9 73 10 5 11 6 12 7 13
REMARK SMILES IDX 2 14 1 15 74 16 75 17 81 18 76 19 80 20 77 21 78 22 79 23
REMARK SMILES IDX 14 24 15 25 16 26 17 27 18 29 19 30 20 31 72 32 21 33 71 34
REMARK SMILES IDX 22 35 23 36 24 37 65 38 25 39 70 40 64 41 66 42 26 43 69 44
REMARK SMILES IDX 63 45 62 46 27 48 53 49 36 50 52 51 37 52 40 53 51 54 67 55
REMARK SMILES IDX 38 56 39 57 50 59 68 60 41 61 28 62 29 63 34 64 30 65 31 66
REMARK SMILES IDX 33 67 35 68 32 69 54 70 55 71 60 72 56 73 57 74 59 75 61 76
REMARK SMILES IDX 58 77 42 78 43 79 48 80 44 81 45 82 47 83 49 84 46 85
REMARK H PARENT 11 6 16 28 66 47 40 58
REMARK Flexibility Score: inf
ROOT
ATOM      1  C   UNL A   1      31.795  30.483  26.522  1.00  0.00     0.023 C 
ENDROOT
BRANCH   1   2
ATOM      2  C   UNL A   1      33.243  30.026  26.571  1.00  0.00     0.116 C 
BRANCH   2   3
ATOM      3  N   UNL A   1      33.781  29.631  25.286  1.00  0.00    -0.356 N 
ATOM      4  C   UNL A   1      33.146  29.115  24.196  1.00  0.00     0.225 C 
ATOM      5  O   UNL A   1      33.741  29.184  23.117  1.00  0.00    -0.275 OA
ATOM      6  H   UNL A   1      34.752  29.752  25.183  1.00  0.00     0.163 HD
BRANCH   4   7
ATOM      7  C   UNL A   1      31.763  28.469  24.258  1.00  0.00     0.106 C 
ATOM      8  N   UNL A   1      30.329  26.498  24.913  1.00  0.00    -0.335 N 
ATOM      9  C   UNL A   1      29.352  26.859  23.997  1.00  0.00     0.223 C 
ATOM     10  C   UNL A   1      31.677  27.118  25.002  1.00  0.00     0.128 C 
ATOM     11  O   UNL A   1      28.274  26.264  23.914  1.00  0.00    -0.275 OA
ATOM     12  C   UNL A   1      29.560  28.096  23.153  1.00  0.00     0.101 C 
ATOM     13  C   UNL A   1      31.000  28.500  22.942  1.00  0.00     0.026 C 
BRANCH   8  14
ATOM     14  C   UNL A   1      29.973  25.472  25.903  1.00  0.00     0.117 C 
ATOM     15  C   UNL A   1      30.452  24.065  25.563  1.00  0.00     0.027 C 
ENDBRANCH   8  14
BRANCH  10  16
ATOM     16  C   UNL A   1      32.798  26.122  24.718  1.00  0.00    -0.024 A 
ATOM     17  C   UNL A   1      32.984  25.536  23.457  1.00  0.00     0.010 A 
ATOM     18  C   UNL A   1      33.703  25.784  25.743  1.00  0.00     0.010 A 
ATOM     19  C   UNL A   1      34.046  24.656  23.227  1.00  0.00     0.047 A 
ATOM     20  C   UNL A   1      34.779  24.920  25.505  1.00  0.00     0.047 A 
ATOM     21  C   UNL A   1      34.962  24.370  24.238  1.00  0.00     0.118 A 
BRANCH  21  22
ATOM     22  O   UNL A   1      35.982  23.535  23.880  1.00  0.00    -0.497 OA
ATOM     23  C   UNL A   1      37.033  23.405  24.829  1.00  0.00     0.278 C 
ENDBRANCH  21  22
ENDBRANCH  10  16
ENDBRANCH   4   7
ENDBRANCH   2   3
ENDBRANCH   1   2
BRANCH   1  24
ATOM     24  C   UNL A   1      31.607  31.993  26.631  1.00  0.00     0.023 C 
BRANCH  24  25
ATOM     25  C   UNL A   1      32.734  32.755  27.325  1.00  0.00     0.116 C 
BRANCH  25  26
ATOM     26  N   UNL A   1      32.415  34.141  27.629  1.00  0.00    -0.352 N 
ATOM     27  C   UNL A   1      33.004  34.987  28.542  1.00  0.00     0.251 C 
ATOM     28  H   UNL A   1      31.673  34.530  27.108  1.00  0.00     0.163 HD
ATOM     29  O   UNL A   1      32.557  36.104  28.739  1.00  0.00    -0.269 OA
BRANCH  27  30
ATOM     30  C   UNL A   1      34.175  34.513  29.310  1.00  0.00     0.039 A 
ATOM     31  C   UNL A   1      33.967  33.960  30.575  1.00  0.00     0.014 A 
ATOM     32  C   UNL A   1      35.462  34.578  28.769  1.00  0.00     0.014 A 
ATOM     33  C   UNL A   1      35.039  33.387  31.260  1.00  0.00     0.010 A 
ATOM     34  C   UNL A   1      36.517  33.958  29.423  1.00  0.00     0.010 A 
ATOM     35  C   UNL A   1      36.310  33.343  30.665  1.00  0.00    -0.014 A 
BRANCH  35  36
ATOM     36  C   UNL A   1      37.426  32.599  31.289  1.00  0.00     0.031 A 
ATOM     37  C   UNL A   1      38.023  33.068  32.582  1.00  0.00     0.074 A 
ATOM     38  C   UNL A   1      37.971  31.567  30.617  1.00  0.00     0.049 A 
ATOM     39  N   UNL A   1      39.044  32.587  33.241  1.00  0.00    -0.248 NA
ATOM     40  C   UNL A   1      37.412  34.256  33.197  1.00  0.00     0.031 C 
ATOM     41  C   UNL A   1      37.524  31.082  29.308  1.00  0.00     0.029 A 
ATOM     42  N   UNL A   1      39.034  30.758  30.926  1.00  0.00    -0.354 N 
ATOM     43  C   UNL A   1      39.201  33.412  34.347  1.00  0.00     0.074 A 
ATOM     44  C   UNL A   1      38.208  34.459  34.237  1.00  0.00     0.031 C 
ATOM     45  C   UNL A   1      38.303  30.057  28.931  1.00  0.00     0.029 A 
ATOM     46  C   UNL A   1      39.316  29.830  29.955  1.00  0.00     0.049 A 
ATOM     47  H   UNL A   1      39.545  30.837  31.764  1.00  0.00     0.167 HD
ATOM     48  C   UNL A   1      40.081  33.291  35.368  1.00  0.00     0.037 A 
ATOM     49  C   UNL A   1      40.291  28.904  29.895  1.00  0.00     0.037 A 
ATOM     50  C   UNL A   1      41.062  32.242  35.463  1.00  0.00     0.049 A 
ATOM     51  C   UNL A   1      41.246  28.779  31.047  1.00  0.00     0.074 A 
ATOM     52  C   UNL A   1      41.952  31.982  36.491  1.00  0.00     0.029 A 
ATOM     53  N   UNL A   1      41.292  31.285  34.484  1.00  0.00    -0.354 N 
ATOM     54  N   UNL A   1      41.318  29.498  32.141  1.00  0.00    -0.248 NA
ATOM     55  C   UNL A   1      42.245  27.705  30.966  1.00  0.00     0.031 C 
ATOM     56  C   UNL A   1      42.753  30.899  36.111  1.00  0.00     0.029 A 
ATOM     57  C   UNL A   1      42.327  30.450  34.871  1.00  0.00     0.049 A 
ATOM     58  H   UNL A   1      40.792  31.212  33.639  1.00  0.00     0.167 HD
ATOM     59  C   UNL A   1      42.351  28.952  32.889  1.00  0.00     0.074 A 
ATOM     60  C   UNL A   1      42.867  27.830  32.130  1.00  0.00     0.031 C 
ATOM     61  C   UNL A   1      42.830  29.342  34.097  1.00  0.00     0.037 A 
BRANCH  48  62
ATOM     62  C   UNL A   1      40.017  34.321  36.461  1.00  0.00     0.057 A 
ATOM     63  C   UNL A   1      40.727  35.527  36.381  1.00  0.00     0.134 A 
ATOM     64  C   UNL A   1      39.224  34.115  37.596  1.00  0.00     0.134 A 
ATOM     65  F   UNL A   1      41.515  35.785  35.326  1.00  0.00    -0.206 F 
ATOM     66  C   UNL A   1      40.677  36.475  37.406  1.00  0.00     0.040 A 
ATOM     67  C   UNL A   1      39.143  35.068  38.614  1.00  0.00     0.040 A 
ATOM     68  F   UNL A   1      38.513  32.985  37.736  1.00  0.00    -0.206 F 
ATOM     69  C   UNL A   1      39.878  36.248  38.524  1.00  0.00     0.006 A 
ENDBRANCH  48  62
BRANCH  49  70
ATOM     70  C   UNL A   1      40.384  28.009  28.715  1.00  0.00     0.057 A 
ATOM     71  C   UNL A   1      39.713  26.782  28.685  1.00  0.00     0.134 A 
ATOM     72  C   UNL A   1      41.123  28.369  27.581  1.00  0.00     0.134 A 
ATOM     73  F   UNL A   1      39.000  26.377  29.745  1.00  0.00    -0.206 F 
ATOM     74  C   UNL A   1      39.786  25.936  27.577  1.00  0.00     0.040 A 
ATOM     75  C   UNL A   1      41.184  27.546  26.457  1.00  0.00     0.040 A 
ATOM     76  F   UNL A   1      41.776  29.540  27.543  1.00  0.00    -0.206 F 
ATOM     77  C   UNL A   1      40.518  26.321  26.455  1.00  0.00     0.006 A 
ENDBRANCH  49  70
BRANCH  61  78
ATOM     78  C   UNL A   1      43.952  28.534  34.679  1.00  0.00     0.057 A 
ATOM     79  C   UNL A   1      45.295  28.862  34.452  1.00  0.00     0.134 A 
ATOM     80  C   UNL A   1      43.685  27.434  35.504  1.00  0.00     0.134 A 
ATOM     81  F   UNL A   1      45.617  29.895  33.659  1.00  0.00    -0.206 F 
ATOM     82  C   UNL A   1      46.332  28.112  35.009  1.00  0.00     0.040 A 
ATOM     83  C   UNL A   1      44.712  26.694  36.089  1.00  0.00     0.040 A 
ATOM     84  F   UNL A   1      42.421  27.071  35.768  1.00  0.00    -0.206 F 
ATOM     85  C   UNL A   1      46.041  27.029  35.835  1.00  0.00     0.006 A 
ENDBRANCH  61  78
ENDBRANCH  35  36
ENDBRANCH  27  30
ENDBRANCH  25  26
ENDBRANCH  24  25
ENDBRANCH   1  24
TORSDOF 14
ENDMDL
