MODEL 1
REMARK VINA RESULT:      -8.9      0.000      0.000
REMARK SMILES Nc1nc(CC(=O)N(CC(=O)NCCCCNC(=O)c2ccc(-c3c4nc(c(-c5c(F)cccc5F)c5ccc([nH]5)c(-c5c(F)cccc5F)c5nc(c(-c6c(F)cccc6F)c6ccc3[nH]6)C=C5)C=C4)cc2)CC(F)(F)F)cs1
REMARK SMILES IDX 13 1 12 2 10 3 11 4 9 6 8 7 6 8 7 9 5 10 4 11 2 12 3 13
REMARK SMILES IDX 80 14 79 15 1 16 74 19 75 20 76 21 77 22 78 23 14 24 15 25
REMARK SMILES IDX 16 26 17 27 18 28 19 30 20 31 21 32 73 33 22 34 72 35 23 36
REMARK SMILES IDX 24 37 25 38 66 39 26 40 71 41 65 42 67 43 27 44 70 45 64 46
REMARK SMILES IDX 63 47 28 49 54 50 37 51 53 52 38 53 41 54 52 55 68 56 39 57
REMARK SMILES IDX 40 58 51 60 69 61 42 62 29 63 30 64 35 65 31 66 32 67 34 68
REMARK SMILES IDX 36 69 33 70 55 71 56 72 61 73 57 74 58 75 60 76 62 77 59 78
REMARK SMILES IDX 43 79 44 80 49 81 45 82 46 83 48 84 50 85 47 86
REMARK H PARENT 12 5 1 17 1 18 17 29 67 48 41 59
REMARK Flexibility Score: inf
ROOT
ATOM      1  C   UNL A   1      34.215  34.194  33.071  1.00  0.00     0.116 C 
ENDROOT
BRANCH   1   2
ATOM      2  N   UNL A   1      34.704  33.924  34.400  1.00  0.00    -0.355 N 
ATOM      3  C   UNL A   1      35.948  33.482  34.755  1.00  0.00     0.239 C 
ATOM      4  O   UNL A   1      36.284  33.578  35.939  1.00  0.00    -0.273 OA
ATOM      5  H   UNL A   1      34.069  34.073  35.137  1.00  0.00     0.163 HD
BRANCH   3   6
ATOM      6  C   UNL A   1      36.953  32.985  33.695  1.00  0.00     0.219 C 
BRANCH   6   7
ATOM      7  N   UNL A   1      37.403  31.588  33.831  1.00  0.00    -0.324 N 
BRANCH   7   8
ATOM      8  C   UNL A   1      38.362  31.132  34.732  1.00  0.00     0.229 C 
ATOM      9  O   UNL A   1      38.015  30.531  35.754  1.00  0.00    -0.274 OA
BRANCH   8  10
ATOM     10  C   UNL A   1      39.840  31.467  34.532  1.00  0.00     0.157 C 
BRANCH  10  11
ATOM     11  C   UNL A   1      40.802  30.453  35.060  1.00  0.00     0.063 A 
ATOM     12  C   UNL A   1      41.520  28.352  35.235  1.00  0.00     0.180 A 
ATOM     13  N   UNL A   1      40.626  29.128  34.677  1.00  0.00    -0.225 NA
ATOM     14  S   UNL A   1      42.663  29.159  36.226  1.00  0.00    -0.106 S 
ATOM     15  C   UNL A   1      41.881  30.655  35.903  1.00  0.00     0.093 A 
BRANCH  12  16
ATOM     16  N   UNL A   1      41.524  27.026  35.074  1.00  0.00    -0.375 N 
ATOM     17  H   UNL A   1      40.708  26.563  34.777  1.00  0.00     0.159 HD
ATOM     18  H   UNL A   1      42.344  26.512  35.255  1.00  0.00     0.159 HD
ENDBRANCH  12  16
ENDBRANCH  10  11
ENDBRANCH   8  10
ENDBRANCH   7   8
BRANCH   7  19
ATOM     19  C   UNL A   1      36.720  30.581  32.981  1.00  0.00     0.235 C 
BRANCH  19  20
ATOM     20  C   UNL A   1      37.527  29.400  32.427  1.00  0.00     0.406 C 
ATOM     21  F   UNL A   1      38.817  29.695  32.182  1.00  0.00    -0.169 F 
ATOM     22  F   UNL A   1      37.513  28.374  33.316  1.00  0.00    -0.169 F 
ATOM     23  F   UNL A   1      36.981  28.921  31.286  1.00  0.00    -0.169 F 
ENDBRANCH  19  20
ENDBRANCH   7  19
ENDBRANCH   6   7
ENDBRANCH   3   6
ENDBRANCH   1   2
BRANCH   1  24
ATOM     24  C   UNL A   1      34.131  35.669  32.708  1.00  0.00     0.023 C 
BRANCH  24  25
ATOM     25  C   UNL A   1      32.978  36.024  31.786  1.00  0.00     0.023 C 
BRANCH  25  26
ATOM     26  C   UNL A   1      33.400  36.367  30.368  1.00  0.00     0.116 C 
BRANCH  26  27
ATOM     27  N   UNL A   1      32.712  35.581  29.354  1.00  0.00    -0.352 N 
ATOM     28  C   UNL A   1      33.176  34.490  28.655  1.00  0.00     0.251 C 
ATOM     29  H   UNL A   1      31.794  35.868  29.139  1.00  0.00     0.163 HD
ATOM     30  O   UNL A   1      32.529  34.008  27.739  1.00  0.00    -0.269 OA
BRANCH  28  31
ATOM     31  C   UNL A   1      34.491  33.924  29.022  1.00  0.00     0.039 A 
ATOM     32  C   UNL A   1      34.555  32.919  29.988  1.00  0.00     0.014 A 
ATOM     33  C   UNL A   1      35.649  34.360  28.372  1.00  0.00     0.014 A 
ATOM     34  C   UNL A   1      35.783  32.317  30.269  1.00  0.00     0.010 A 
ATOM     35  C   UNL A   1      36.843  33.683  28.570  1.00  0.00     0.010 A 
ATOM     36  C   UNL A   1      36.931  32.678  29.543  1.00  0.00    -0.014 A 
BRANCH  36  37
ATOM     37  C   UNL A   1      38.252  32.071  29.836  1.00  0.00     0.031 A 
ATOM     38  C   UNL A   1      39.243  32.830  30.678  1.00  0.00     0.074 A 
ATOM     39  C   UNL A   1      38.578  30.874  29.313  1.00  0.00     0.049 A 
ATOM     40  N   UNL A   1      40.467  32.508  31.010  1.00  0.00    -0.248 NA
ATOM     41  C   UNL A   1      38.813  34.145  31.185  1.00  0.00     0.031 C 
ATOM     42  C   UNL A   1      37.725  30.069  28.436  1.00  0.00     0.029 A 
ATOM     43  N   UNL A   1      39.722  30.129  29.439  1.00  0.00    -0.354 N 
ATOM     44  C   UNL A   1      40.953  33.583  31.743  1.00  0.00     0.074 A 
ATOM     45  C   UNL A   1      39.923  34.598  31.745  1.00  0.00     0.031 C 
ATOM     46  C   UNL A   1      38.363  28.925  28.134  1.00  0.00     0.029 A 
ATOM     47  C   UNL A   1      39.678  28.933  28.765  1.00  0.00     0.049 A 
ATOM     48  H   UNL A   1      40.500  30.422  29.966  1.00  0.00     0.167 HD
ATOM     49  C   UNL A   1      42.135  33.703  32.390  1.00  0.00     0.037 A 
ATOM     50  C   UNL A   1      40.599  27.954  28.670  1.00  0.00     0.037 A 
ATOM     51  C   UNL A   1      43.141  32.677  32.416  1.00  0.00     0.049 A 
ATOM     52  C   UNL A   1      41.902  28.105  29.407  1.00  0.00     0.074 A 
ATOM     53  C   UNL A   1      44.351  32.672  33.085  1.00  0.00     0.029 A 
ATOM     54  N   UNL A   1      43.047  31.467  31.745  1.00  0.00    -0.354 N 
ATOM     55  N   UNL A   1      42.323  29.099  30.154  1.00  0.00    -0.248 NA
ATOM     56  C   UNL A   1      42.855  26.992  29.300  1.00  0.00     0.031 C 
ATOM     57  C   UNL A   1      45.011  31.475  32.782  1.00  0.00     0.029 A 
ATOM     58  C   UNL A   1      44.185  30.712  31.971  1.00  0.00     0.049 A 
ATOM     59  H   UNL A   1      42.283  31.186  31.188  1.00  0.00     0.167 HD
ATOM     60  C   UNL A   1      43.567  28.714  30.635  1.00  0.00     0.074 A 
ATOM     61  C   UNL A   1      43.830  27.392  30.104  1.00  0.00     0.031 C 
ATOM     62  C   UNL A   1      44.418  29.390  31.447  1.00  0.00     0.037 A 
BRANCH  49  63
ATOM     63  C   UNL A   1      42.393  34.987  33.126  1.00  0.00     0.057 A 
ATOM     64  C   UNL A   1      41.910  35.206  34.423  1.00  0.00     0.134 A 
ATOM     65  C   UNL A   1      43.144  36.011  32.537  1.00  0.00     0.134 A 
ATOM     66  F   UNL A   1      41.168  34.274  35.040  1.00  0.00    -0.206 F 
ATOM     67  C   UNL A   1      42.136  36.409  35.095  1.00  0.00     0.040 A 
ATOM     68  C   UNL A   1      43.406  37.205  33.210  1.00  0.00     0.040 A 
ATOM     69  F   UNL A   1      43.640  35.868  31.298  1.00  0.00    -0.206 F 
ATOM     70  C   UNL A   1      42.894  37.410  34.490  1.00  0.00     0.006 A 
ENDBRANCH  49  63
BRANCH  50  71
ATOM     71  C   UNL A   1      40.309  26.729  27.883  1.00  0.00     0.057 A 
ATOM     72  C   UNL A   1      40.817  26.565  26.588  1.00  0.00     0.134 A 
ATOM     73  C   UNL A   1      39.509  25.701  28.395  1.00  0.00     0.134 A 
ATOM     74  F   UNL A   1      41.576  27.523  26.035  1.00  0.00    -0.206 F 
ATOM     75  C   UNL A   1      40.517  25.438  25.821  1.00  0.00     0.040 A 
ATOM     76  C   UNL A   1      39.223  24.556  27.649  1.00  0.00     0.040 A 
ATOM     77  F   UNL A   1      39.000  25.791  29.632  1.00  0.00    -0.206 F 
ATOM     78  C   UNL A   1      39.721  24.427  26.354  1.00  0.00     0.006 A 
ENDBRANCH  50  71
BRANCH  62  79
ATOM     79  C   UNL A   1      45.681  28.691  31.856  1.00  0.00     0.057 A 
ATOM     80  C   UNL A   1      46.864  28.796  31.115  1.00  0.00     0.134 A 
ATOM     81  C   UNL A   1      45.719  27.932  33.033  1.00  0.00     0.134 A 
ATOM     82  F   UNL A   1      46.892  29.500  29.972  1.00  0.00    -0.206 F 
ATOM     83  C   UNL A   1      48.033  28.146  31.513  1.00  0.00     0.040 A 
ATOM     84  C   UNL A   1      46.890  27.303  33.458  1.00  0.00     0.040 A 
ATOM     85  F   UNL A   1      44.625  27.801  33.796  1.00  0.00    -0.206 F 
ATOM     86  C   UNL A   1      48.050  27.402  32.692  1.00  0.00     0.006 A 
ENDBRANCH  62  79
ENDBRANCH  36  37
ENDBRANCH  28  31
ENDBRANCH  26  27
ENDBRANCH  25  26
ENDBRANCH  24  25
ENDBRANCH   1  24
TORSDOF 18
ENDMDL
MODEL 2
REMARK VINA RESULT:      -8.7      6.539     11.437
REMARK SMILES Nc1nc(CC(=O)N(CC(=O)NCCCCNC(=O)c2ccc(-c3c4nc(c(-c5c(F)cccc5F)c5ccc([nH]5)c(-c5c(F)cccc5F)c5nc(c(-c6c(F)cccc6F)c6ccc3[nH]6)C=C5)C=C4)cc2)CC(F)(F)F)cs1
REMARK SMILES IDX 13 1 12 2 10 3 11 4 9 6 8 7 6 8 7 9 5 10 4 11 2 12 3 13
REMARK SMILES IDX 80 14 79 15 1 16 74 19 75 20 76 21 77 22 78 23 14 24 15 25
REMARK SMILES IDX 16 26 17 27 18 28 19 30 20 31 21 32 73 33 22 34 72 35 23 36
REMARK SMILES IDX 24 37 25 38 66 39 26 40 71 41 65 42 67 43 27 44 70 45 64 46
REMARK SMILES IDX 63 47 28 49 54 50 37 51 53 52 38 53 41 54 52 55 68 56 39 57
REMARK SMILES IDX 40 58 51 60 69 61 42 62 29 63 30 64 35 65 31 66 32 67 34 68
REMARK SMILES IDX 36 69 33 70 55 71 56 72 61 73 57 74 58 75 60 76 62 77 59 78
REMARK SMILES IDX 43 79 44 80 49 81 45 82 46 83 48 84 50 85 47 86
REMARK H PARENT 12 5 1 17 1 18 17 29 67 48 41 59
REMARK Flexibility Score: inf
ROOT
ATOM      1  C   UNL A   1      36.494  21.803  25.731  1.00  0.00     0.116 C 
ENDROOT
BRANCH   1   2
ATOM      2  N   UNL A   1      36.131  23.187  25.555  1.00  0.00    -0.355 N 
ATOM      3  C   UNL A   1      35.032  23.683  24.909  1.00  0.00     0.239 C 
ATOM      4  O   UNL A   1      34.730  24.865  25.099  1.00  0.00    -0.273 OA
ATOM      5  H   UNL A   1      36.745  23.852  25.943  1.00  0.00     0.163 HD
BRANCH   3   6
ATOM      6  C   UNL A   1      34.124  22.770  24.060  1.00  0.00     0.219 C 
BRANCH   6   7
ATOM      7  N   UNL A   1      32.994  22.140  24.766  1.00  0.00    -0.324 N 
BRANCH   7   8
ATOM      8  C   UNL A   1      32.926  20.804  25.153  1.00  0.00     0.229 C 
ATOM      9  O   UNL A   1      33.298  20.468  26.282  1.00  0.00    -0.274 OA
BRANCH   8  10
ATOM     10  C   UNL A   1      32.503  19.725  24.157  1.00  0.00     0.157 C 
BRANCH  10  11
ATOM     11  C   UNL A   1      33.010  18.350  24.450  1.00  0.00     0.063 A 
ATOM     12  C   UNL A   1      32.699  16.277  25.202  1.00  0.00     0.180 A 
ATOM     13  N   UNL A   1      32.112  17.424  24.970  1.00  0.00    -0.225 NA
ATOM     14  S   UNL A   1      34.358  16.212  24.776  1.00  0.00    -0.106 S 
ATOM     15  C   UNL A   1      34.288  17.853  24.269  1.00  0.00     0.093 A 
BRANCH  12  16
ATOM     16  N   UNL A   1      32.064  15.244  25.762  1.00  0.00    -0.375 N 
ATOM     17  H   UNL A   1      32.533  14.388  25.891  1.00  0.00     0.159 HD
ATOM     18  H   UNL A   1      31.127  15.339  26.046  1.00  0.00     0.159 HD
ENDBRANCH  12  16
ENDBRANCH  10  11
ENDBRANCH   8  10
ENDBRANCH   7   8
BRANCH   7  19
ATOM     19  C   UNL A   1      31.870  23.030  25.153  1.00  0.00     0.235 C 
BRANCH  19  20
ATOM     20  C   UNL A   1      31.766  23.513  26.604  1.00  0.00     0.406 C 
ATOM     21  F   UNL A   1      31.424  24.810  26.719  1.00  0.00    -0.169 F 
ATOM     22  F   UNL A   1      30.824  22.791  27.264  1.00  0.00    -0.169 F 
ATOM     23  F   UNL A   1      32.927  23.323  27.272  1.00  0.00    -0.169 F 
ENDBRANCH  19  20
ENDBRANCH   7  19
ENDBRANCH   6   7
ENDBRANCH   3   6
ENDBRANCH   1   2
BRANCH   1  24
ATOM     24  C   UNL A   1      37.321  21.209  24.602  1.00  0.00     0.023 C 
BRANCH  24  25
ATOM     25  C   UNL A   1      38.072  19.943  24.972  1.00  0.00     0.023 C 
BRANCH  25  26
ATOM     26  C   UNL A   1      39.180  20.152  25.990  1.00  0.00     0.116 C 
BRANCH  26  27
ATOM     27  N   UNL A   1      40.197  19.110  25.961  1.00  0.00    -0.352 N 
ATOM     28  C   UNL A   1      41.561  19.240  26.088  1.00  0.00     0.251 C 
ATOM     29  H   UNL A   1      39.865  18.192  25.833  1.00  0.00     0.163 HD
ATOM     30  O   UNL A   1      42.303  18.287  25.915  1.00  0.00    -0.269 OA
BRANCH  28  31
ATOM     31  C   UNL A   1      42.115  20.570  26.416  1.00  0.00     0.039 A 
ATOM     32  C   UNL A   1      42.416  21.457  25.381  1.00  0.00     0.014 A 
ATOM     33  C   UNL A   1      42.288  20.950  27.750  1.00  0.00     0.014 A 
ATOM     34  C   UNL A   1      42.850  22.747  25.690  1.00  0.00     0.010 A 
ATOM     35  C   UNL A   1      42.608  22.265  28.053  1.00  0.00     0.010 A 
ATOM     36  C   UNL A   1      42.925  23.168  27.029  1.00  0.00    -0.014 A 
BRANCH  36  37
ATOM     37  C   UNL A   1      43.404  24.525  27.386  1.00  0.00     0.031 A 
ATOM     38  C   UNL A   1      42.411  25.563  27.837  1.00  0.00     0.074 A 
ATOM     39  C   UNL A   1      44.707  24.839  27.261  1.00  0.00     0.049 A 
ATOM     40  N   UNL A   1      42.607  26.819  28.145  1.00  0.00    -0.248 NA
ATOM     41  C   UNL A   1      41.001  25.142  27.917  1.00  0.00     0.031 C 
ATOM     42  C   UNL A   1      45.756  23.937  26.780  1.00  0.00     0.029 A 
ATOM     43  N   UNL A   1      45.371  26.010  27.524  1.00  0.00    -0.354 N 
ATOM     44  C   UNL A   1      41.350  27.336  28.435  1.00  0.00     0.074 A 
ATOM     45  C   UNL A   1      40.391  26.282  28.194  1.00  0.00     0.031 C 
ATOM     46  C   UNL A   1      46.936  24.578  26.817  1.00  0.00     0.029 A 
ATOM     47  C   UNL A   1      46.722  25.942  27.289  1.00  0.00     0.049 A 
ATOM     48  H   UNL A   1      44.921  26.821  27.852  1.00  0.00     0.167 HD
ATOM     49  C   UNL A   1      41.025  28.565  28.897  1.00  0.00     0.037 A 
ATOM     50  C   UNL A   1      47.679  26.878  27.441  1.00  0.00     0.037 A 
ATOM     51  C   UNL A   1      41.987  29.598  29.170  1.00  0.00     0.049 A 
ATOM     52  C   UNL A   1      47.295  28.235  27.966  1.00  0.00     0.074 A 
ATOM     53  C   UNL A   1      41.772  30.860  29.692  1.00  0.00     0.029 A 
ATOM     54  N   UNL A   1      43.351  29.481  28.948  1.00  0.00    -0.354 N 
ATOM     55  N   UNL A   1      46.110  28.690  28.301  1.00  0.00    -0.248 NA
ATOM     56  C   UNL A   1      48.382  29.205  28.148  1.00  0.00     0.031 C 
ATOM     57  C   UNL A   1      43.002  31.525  29.744  1.00  0.00     0.029 A 
ATOM     58  C   UNL A   1      43.990  30.655  29.308  1.00  0.00     0.049 A 
ATOM     59  H   UNL A   1      43.798  28.681  28.587  1.00  0.00     0.167 HD
ATOM     60  C   UNL A   1      46.317  29.981  28.770  1.00  0.00     0.074 A 
ATOM     61  C   UNL A   1      47.740  30.234  28.684  1.00  0.00     0.031 C 
ATOM     62  C   UNL A   1      45.411  30.878  29.232  1.00  0.00     0.037 A 
BRANCH  49  63
ATOM     63  C   UNL A   1      39.570  28.849  29.141  1.00  0.00     0.057 A 
ATOM     64  C   UNL A   1      38.727  29.321  28.125  1.00  0.00     0.134 A 
ATOM     65  C   UNL A   1      39.001  28.635  30.402  1.00  0.00     0.134 A 
ATOM     66  F   UNL A   1      39.210  29.565  26.897  1.00  0.00    -0.206 F 
ATOM     67  C   UNL A   1      37.380  29.602  28.363  1.00  0.00     0.040 A 
ATOM     68  C   UNL A   1      37.649  28.881  30.645  1.00  0.00     0.040 A 
ATOM     69  F   UNL A   1      39.749  28.181  31.420  1.00  0.00    -0.206 F 
ATOM     70  C   UNL A   1      36.836  29.374  29.626  1.00  0.00     0.006 A 
ENDBRANCH  49  63
BRANCH  50  71
ATOM     71  C   UNL A   1      49.096  26.556  27.133  1.00  0.00     0.057 A 
ATOM     72  C   UNL A   1      49.632  26.803  25.863  1.00  0.00     0.134 A 
ATOM     73  C   UNL A   1      49.942  25.983  28.089  1.00  0.00     0.134 A 
ATOM     74  F   UNL A   1      48.867  27.336  24.899  1.00  0.00    -0.206 F 
ATOM     75  C   UNL A   1      50.950  26.466  25.547  1.00  0.00     0.040 A 
ATOM     76  C   UNL A   1      51.269  25.666  27.794  1.00  0.00     0.040 A 
ATOM     77  F   UNL A   1      49.493  25.730  29.326  1.00  0.00    -0.206 F 
ATOM     78  C   UNL A   1      51.773  25.899  26.516  1.00  0.00     0.006 A 
ENDBRANCH  50  71
BRANCH  62  79
ATOM     79  C   UNL A   1      45.937  32.191  29.734  1.00  0.00     0.057 A 
ATOM     80  C   UNL A   1      46.051  33.314  28.905  1.00  0.00     0.134 A 
ATOM     81  C   UNL A   1      46.298  32.340  31.080  1.00  0.00     0.134 A 
ATOM     82  F   UNL A   1      45.731  33.236  27.604  1.00  0.00    -0.206 F 
ATOM     83  C   UNL A   1      46.536  34.530  29.390  1.00  0.00     0.040 A 
ATOM     84  C   UNL A   1      46.755  33.558  31.583  1.00  0.00     0.040 A 
ATOM     85  F   UNL A   1      46.201  31.307  31.930  1.00  0.00    -0.206 F 
ATOM     86  C   UNL A   1      46.882  34.656  30.735  1.00  0.00     0.006 A 
ENDBRANCH  62  79
ENDBRANCH  36  37
ENDBRANCH  28  31
ENDBRANCH  26  27
ENDBRANCH  25  26
ENDBRANCH  24  25
ENDBRANCH   1  24
TORSDOF 18
ENDMDL
MODEL 3
REMARK VINA RESULT:      -8.7      4.516      6.960
REMARK SMILES Nc1nc(CC(=O)N(CC(=O)NCCCCNC(=O)c2ccc(-c3c4nc(c(-c5c(F)cccc5F)c5ccc([nH]5)c(-c5c(F)cccc5F)c5nc(c(-c6c(F)cccc6F)c6ccc3[nH]6)C=C5)C=C4)cc2)CC(F)(F)F)cs1
REMARK SMILES IDX 13 1 12 2 10 3 11 4 9 6 8 7 6 8 7 9 5 10 4 11 2 12 3 13
REMARK SMILES IDX 80 14 79 15 1 16 74 19 75 20 76 21 77 22 78 23 14 24 15 25
REMARK SMILES IDX 16 26 17 27 18 28 19 30 20 31 21 32 73 33 22 34 72 35 23 36
REMARK SMILES IDX 24 37 25 38 66 39 26 40 71 41 65 42 67 43 27 44 70 45 64 46
REMARK SMILES IDX 63 47 28 49 54 50 37 51 53 52 38 53 41 54 52 55 68 56 39 57
REMARK SMILES IDX 40 58 51 60 69 61 42 62 29 63 30 64 35 65 31 66 32 67 34 68
REMARK SMILES IDX 36 69 33 70 55 71 56 72 61 73 57 74 58 75 60 76 62 77 59 78
REMARK SMILES IDX 43 79 44 80 49 81 45 82 46 83 48 84 50 85 47 86
REMARK H PARENT 12 5 1 17 1 18 17 29 67 48 41 59
REMARK Flexibility Score: inf
ROOT
ATOM      1  C   UNL A   1      31.732  29.984  25.208  1.00  0.00     0.116 C 
ENDROOT
BRANCH   1   2
ATOM      2  N   UNL A   1      33.014  29.660  24.633  1.00  0.00    -0.355 N 
ATOM      3  C   UNL A   1      33.280  28.737  23.660  1.00  0.00     0.239 C 
ATOM      4  O   UNL A   1      34.373  28.792  23.090  1.00  0.00    -0.273 OA
ATOM      5  H   UNL A   1      33.787  30.159  24.983  1.00  0.00     0.163 HD
BRANCH   3   6
ATOM      6  C   UNL A   1      32.207  27.729  23.199  1.00  0.00     0.219 C 
BRANCH   6   7
ATOM      7  N   UNL A   1      32.515  26.305  23.424  1.00  0.00    -0.324 N 
BRANCH   7   8
ATOM      8  C   UNL A   1      33.189  25.474  22.533  1.00  0.00     0.229 C 
ATOM      9  O   UNL A   1      33.879  25.963  21.631  1.00  0.00    -0.274 OA
BRANCH   8  10
ATOM     10  C   UNL A   1      32.997  23.959  22.583  1.00  0.00     0.157 C 
BRANCH  10  11
ATOM     11  C   UNL A   1      34.072  23.201  23.293  1.00  0.00     0.063 A 
ATOM     12  C   UNL A   1      34.727  21.644  24.744  1.00  0.00     0.180 A 
ATOM     13  N   UNL A   1      33.686  22.200  24.178  1.00  0.00    -0.225 NA
ATOM     14  S   UNL A   1      36.244  22.250  24.227  1.00  0.00    -0.106 S 
ATOM     15  C   UNL A   1      35.442  23.360  23.188  1.00  0.00     0.093 A 
BRANCH  12  16
ATOM     16  N   UNL A   1      34.617  20.698  25.681  1.00  0.00    -0.375 N 
ATOM     17  H   UNL A   1      34.740  19.751  25.443  1.00  0.00     0.159 HD
ATOM     18  H   UNL A   1      34.413  20.949  26.611  1.00  0.00     0.159 HD
ENDBRANCH  12  16
ENDBRANCH  10  11
ENDBRANCH   8  10
ENDBRANCH   7   8
BRANCH   7  19
ATOM     19  C   UNL A   1      32.131  25.739  24.741  1.00  0.00     0.235 C 
BRANCH  19  20
ATOM     20  C   UNL A   1      33.128  25.811  25.904  1.00  0.00     0.406 C 
ATOM     21  F   UNL A   1      33.133  26.998  26.538  1.00  0.00    -0.169 F 
ATOM     22  F   UNL A   1      32.828  24.864  26.829  1.00  0.00    -0.169 F 
ATOM     23  F   UNL A   1      34.389  25.550  25.489  1.00  0.00    -0.169 F 
ENDBRANCH  19  20
ENDBRANCH   7  19
ENDBRANCH   6   7
ENDBRANCH   3   6
ENDBRANCH   1   2
BRANCH   1  24
ATOM     24  C   UNL A   1      31.779  30.446  26.656  1.00  0.00     0.023 C 
BRANCH  24  25
ATOM     25  C   UNL A   1      31.459  31.917  26.857  1.00  0.00     0.023 C 
BRANCH  25  26
ATOM     26  C   UNL A   1      32.679  32.822  26.864  1.00  0.00     0.116 C 
BRANCH  26  27
ATOM     27  N   UNL A   1      32.472  34.065  27.595  1.00  0.00    -0.352 N 
ATOM     28  C   UNL A   1      33.168  34.547  28.680  1.00  0.00     0.251 C 
ATOM     29  H   UNL A   1      31.738  34.635  27.270  1.00  0.00     0.163 HD
ATOM     30  O   UNL A   1      32.799  35.549  29.270  1.00  0.00    -0.269 OA
BRANCH  28  31
ATOM     31  C   UNL A   1      34.365  33.809  29.134  1.00  0.00     0.039 A 
ATOM     32  C   UNL A   1      35.631  34.294  28.804  1.00  0.00     0.014 A 
ATOM     33  C   UNL A   1      34.227  32.666  29.927  1.00  0.00     0.014 A 
ATOM     34  C   UNL A   1      36.763  33.653  29.311  1.00  0.00     0.010 A 
ATOM     35  C   UNL A   1      35.347  32.102  30.520  1.00  0.00     0.010 A 
ATOM     36  C   UNL A   1      36.628  32.567  30.193  1.00  0.00    -0.014 A 
BRANCH  36  37
ATOM     37  C   UNL A   1      37.812  31.855  30.728  1.00  0.00     0.031 A 
ATOM     38  C   UNL A   1      38.347  32.228  32.085  1.00  0.00     0.074 A 
ATOM     39  C   UNL A   1      38.432  30.918  29.986  1.00  0.00     0.049 A 
ATOM     40  N   UNL A   1      39.398  31.771  32.717  1.00  0.00    -0.248 NA
ATOM     41  C   UNL A   1      37.625  33.285  32.815  1.00  0.00     0.031 C 
ATOM     42  C   UNL A   1      38.043  30.509  28.634  1.00  0.00     0.029 A 
ATOM     43  N   UNL A   1      39.528  30.142  30.265  1.00  0.00    -0.354 N 
ATOM     44  C   UNL A   1      39.469  32.494  33.900  1.00  0.00     0.074 A 
ATOM     45  C   UNL A   1      38.405  33.471  33.868  1.00  0.00     0.031 C 
ATOM     46  C   UNL A   1      38.866  29.532  28.218  1.00  0.00     0.029 A 
ATOM     47  C   UNL A   1      39.858  29.271  29.255  1.00  0.00     0.049 A 
ATOM     48  H   UNL A   1      40.029  30.201  31.110  1.00  0.00     0.167 HD
ATOM     49  C   UNL A   1      40.321  32.337  34.940  1.00  0.00     0.037 A 
ATOM     50  C   UNL A   1      40.852  28.365  29.179  1.00  0.00     0.037 A 
ATOM     51  C   UNL A   1      41.355  31.339  34.984  1.00  0.00     0.049 A 
ATOM     52  C   UNL A   1      41.779  28.200  30.352  1.00  0.00     0.074 A 
ATOM     53  C   UNL A   1      42.237  31.056  36.010  1.00  0.00     0.029 A 
ATOM     54  N   UNL A   1      41.639  30.456  33.953  1.00  0.00    -0.354 N 
ATOM     55  N   UNL A   1      41.794  28.844  31.495  1.00  0.00    -0.248 NA
ATOM     56  C   UNL A   1      42.821  27.171  30.232  1.00  0.00     0.031 C 
ATOM     57  C   UNL A   1      43.087  30.029  35.582  1.00  0.00     0.029 A 
ATOM     58  C   UNL A   1      42.695  29.635  34.312  1.00  0.00     0.049 A 
ATOM     59  H   UNL A   1      41.161  30.418  33.092  1.00  0.00     0.167 HD
ATOM     60  C   UNL A   1      42.817  28.273  32.242  1.00  0.00     0.074 A 
ATOM     61  C   UNL A   1      43.393  27.224  31.426  1.00  0.00     0.031 C 
ATOM     62  C   UNL A   1      43.241  28.585  33.492  1.00  0.00     0.037 A 
BRANCH  49  63
ATOM     63  C   UNL A   1      40.157  33.260  36.113  1.00  0.00     0.057 A 
ATOM     64  C   UNL A   1      39.296  32.959  37.178  1.00  0.00     0.134 A 
ATOM     65  C   UNL A   1      40.878  34.457  36.188  1.00  0.00     0.134 A 
ATOM     66  F   UNL A   1      38.561  31.836  37.163  1.00  0.00    -0.206 F 
ATOM     67  C   UNL A   1      39.133  33.830  38.257  1.00  0.00     0.040 A 
ATOM     68  C   UNL A   1      40.750  35.322  37.277  1.00  0.00     0.040 A 
ATOM     69  F   UNL A   1      41.723  34.807  35.206  1.00  0.00    -0.206 F 
ATOM     70  C   UNL A   1      39.869  35.013  38.311  1.00  0.00     0.006 A 
ENDBRANCH  49  63
BRANCH  50  71
ATOM     71  C   UNL A   1      40.998  27.515  27.970  1.00  0.00     0.057 A 
ATOM     72  C   UNL A   1      41.748  27.947  26.870  1.00  0.00     0.134 A 
ATOM     73  C   UNL A   1      40.382  26.262  27.877  1.00  0.00     0.134 A 
ATOM     74  F   UNL A   1      42.349  29.147  26.892  1.00  0.00    -0.206 F 
ATOM     75  C   UNL A   1      41.858  27.178  25.710  1.00  0.00     0.040 A 
ATOM     76  C   UNL A   1      40.506  25.470  26.733  1.00  0.00     0.040 A 
ATOM     77  F   UNL A   1      39.657  25.785  28.899  1.00  0.00    -0.206 F 
ATOM     78  C   UNL A   1      41.239  25.933  25.642  1.00  0.00     0.006 A 
ENDBRANCH  50  71
BRANCH  62  79
ATOM     79  C   UNL A   1      44.341  27.747  34.074  1.00  0.00     0.057 A 
ATOM     80  C   UNL A   1      44.088  26.541  34.740  1.00  0.00     0.134 A 
ATOM     81  C   UNL A   1      45.679  28.138  33.930  1.00  0.00     0.134 A 
ATOM     82  F   UNL A   1      42.828  26.115  34.920  1.00  0.00    -0.206 F 
ATOM     83  C   UNL A   1      45.124  25.770  35.269  1.00  0.00     0.040 A 
ATOM     84  C   UNL A   1      46.725  27.361  34.427  1.00  0.00     0.040 A 
ATOM     85  F   UNL A   1      45.992  29.276  33.292  1.00  0.00    -0.206 F 
ATOM     86  C   UNL A   1      46.448  26.176  35.107  1.00  0.00     0.006 A 
ENDBRANCH  62  79
ENDBRANCH  36  37
ENDBRANCH  28  31
ENDBRANCH  26  27
ENDBRANCH  25  26
ENDBRANCH  24  25
ENDBRANCH   1  24
TORSDOF 18
ENDMDL
