MODEL 1
REMARK VINA RESULT:     -11.6      0.000      0.000
REMARK SMILES COc1cc(C(=O)N[C@H]2CCCC[C@H]2C(=O)NCCCCNC(=O)c2ccc(-c3c4nc(c(-c5c(F)cccc5F)c5ccc([nH]5)c(-c5c(F)cccc5F)c5nc(c(-c6c(F)cccc6F)c6ccc3[nH]6)C=C5)C=C4)cc2)cc(Cl)c1OC
REMARK SMILES IDX 19 1 18 2 17 3 15 4 16 5 14 7 9 8 10 9 11 10 13 11 12 12
REMARK SMILES IDX 8 13 6 14 7 15 5 17 3 18 4 19 82 20 80 21 79 22 81 23 2 24
REMARK SMILES IDX 1 25 83 26 84 27 20 28 21 29 22 30 23 31 24 33 25 34 26 35
REMARK SMILES IDX 78 36 27 37 77 38 28 39 29 40 30 41 71 42 31 43 76 44 70 45
REMARK SMILES IDX 72 46 32 47 75 48 69 49 68 50 33 52 59 53 42 54 58 55 43 56
REMARK SMILES IDX 46 57 57 58 73 59 44 60 45 61 56 63 74 64 47 65 34 66 35 67
REMARK SMILES IDX 40 68 36 69 37 70 39 71 41 72 38 73 60 74 61 75 66 76 62 77
REMARK SMILES IDX 63 78 65 79 67 80 64 81 48 82 49 83 54 84 50 85 51 86 53 87
REMARK SMILES IDX 55 88 52 89
REMARK H PARENT 17 6 8 16 22 32 72 51 46 62
REMARK Flexibility Score: inf
ROOT
ATOM      1  C   UNL A   1      39.009  22.743  26.359  1.00  0.00     0.023 C 
ENDROOT
BRANCH   1   2
ATOM      2  C   UNL A   1      37.753  23.558  26.036  1.00  0.00     0.116 C 
BRANCH   2   3
ATOM      3  N   UNL A   1      37.427  23.475  24.617  1.00  0.00    -0.356 N 
ATOM      4  C   UNL A   1      36.375  22.956  23.923  1.00  0.00     0.225 C 
ATOM      5  O   UNL A   1      36.437  23.026  22.692  1.00  0.00    -0.275 OA
ATOM      6  H   UNL A   1      38.111  23.882  24.037  1.00  0.00     0.163 HD
BRANCH   4   7
ATOM      7  C   UNL A   1      35.165  22.290  24.584  1.00  0.00     0.101 C 
ATOM      8  C   UNL A   1      33.782  22.901  24.190  1.00  0.00     0.094 C 
ATOM      9  C   UNL A   1      32.631  22.076  24.793  1.00  0.00     0.026 C 
ATOM     10  C   UNL A   1      32.789  20.576  24.575  1.00  0.00     0.002 C 
ATOM     11  C   UNL A   1      35.282  20.758  24.601  1.00  0.00     0.015 C 
ATOM     12  C   UNL A   1      34.071  20.081  25.223  1.00  0.00     0.001 C 
BRANCH   8  13
ATOM     13  N   UNL A   1      33.637  23.100  22.750  1.00  0.00    -0.349 N 
ATOM     14  C   UNL A   1      33.203  24.084  21.912  1.00  0.00     0.251 C 
ATOM     15  O   UNL A   1      33.195  23.856  20.702  1.00  0.00    -0.269 OA
ATOM     16  H   UNL A   1      33.932  22.306  22.248  1.00  0.00     0.164 HD
BRANCH  14  17
ATOM     17  C   UNL A   1      32.756  25.408  22.367  1.00  0.00     0.045 A 
ATOM     18  C   UNL A   1      30.887  26.858  22.890  1.00  0.00     0.163 A 
ATOM     19  C   UNL A   1      31.382  25.601  22.539  1.00  0.00     0.064 A 
ATOM     20  C   UNL A   1      31.775  27.947  23.072  1.00  0.00     0.179 A 
ATOM     21  C   UNL A   1      33.151  27.742  22.860  1.00  0.00     0.087 A 
ATOM     22  C   UNL A   1      33.630  26.480  22.494  1.00  0.00     0.038 A 
ATOM     23  Cl  UNL A   1      34.365  28.972  22.943  1.00  0.00    -0.080 Cl
BRANCH  18  24
ATOM     24  O   UNL A   1      29.548  27.128  23.053  1.00  0.00    -0.493 OA
ATOM     25  C   UNL A   1      28.840  26.396  24.047  1.00  0.00     0.278 C 
ENDBRANCH  18  24
BRANCH  20  26
ATOM     26  O   UNL A   1      31.147  29.131  23.364  1.00  0.00    -0.491 OA
ATOM     27  C   UNL A   1      31.208  29.636  24.687  1.00  0.00     0.278 C 
ENDBRANCH  20  26
ENDBRANCH  14  17
ENDBRANCH   8  13
ENDBRANCH   4   7
ENDBRANCH   2   3
ENDBRANCH   1   2
BRANCH   1  28
ATOM     28  C   UNL A   1      39.102  21.392  25.677  1.00  0.00     0.023 C 
BRANCH  28  29
ATOM     29  C   UNL A   1      39.594  20.273  26.574  1.00  0.00     0.116 C 
BRANCH  29  30
ATOM     30  N   UNL A   1      40.650  19.462  25.980  1.00  0.00    -0.352 N 
ATOM     31  C   UNL A   1      41.987  19.767  25.832  1.00  0.00     0.251 C 
ATOM     32  H   UNL A   1      40.373  18.582  25.640  1.00  0.00     0.163 HD
ATOM     33  O   UNL A   1      42.746  19.026  25.241  1.00  0.00    -0.269 OA
BRANCH  31  34
ATOM     34  C   UNL A   1      42.462  21.054  26.381  1.00  0.00     0.039 A 
ATOM     35  C   UNL A   1      42.772  22.092  25.502  1.00  0.00     0.014 A 
ATOM     36  C   UNL A   1      42.475  21.253  27.763  1.00  0.00     0.014 A 
ATOM     37  C   UNL A   1      43.012  23.367  26.015  1.00  0.00     0.010 A 
ATOM     38  C   UNL A   1      42.597  22.541  28.257  1.00  0.00     0.010 A 
ATOM     39  C   UNL A   1      42.879  23.609  27.391  1.00  0.00    -0.014 A 
BRANCH  39  40
ATOM     40  C   UNL A   1      43.068  24.958  27.974  1.00  0.00     0.031 A 
ATOM     41  C   UNL A   1      44.435  25.362  28.449  1.00  0.00     0.074 A 
ATOM     42  C   UNL A   1      42.011  25.771  28.167  1.00  0.00     0.049 A 
ATOM     43  N   UNL A   1      44.799  26.416  29.131  1.00  0.00    -0.248 NA
ATOM     44  C   UNL A   1      45.534  24.423  28.163  1.00  0.00     0.031 C 
ATOM     45  C   UNL A   1      40.624  25.467  27.807  1.00  0.00     0.029 A 
ATOM     46  N   UNL A   1      41.940  27.018  28.733  1.00  0.00    -0.354 N 
ATOM     47  C   UNL A   1      46.152  26.241  29.394  1.00  0.00     0.074 A 
ATOM     48  C   UNL A   1      46.531  24.957  28.850  1.00  0.00     0.031 C 
ATOM     49  C   UNL A   1      39.845  26.514  28.133  1.00  0.00     0.029 A 
ATOM     50  C   UNL A   1      40.671  27.543  28.757  1.00  0.00     0.049 A 
ATOM     51  H   UNL A   1      42.726  27.494  29.087  1.00  0.00     0.167 HD
ATOM     52  C   UNL A   1      47.010  27.090  30.006  1.00  0.00     0.037 A 
ATOM     53  C   UNL A   1      40.228  28.722  29.234  1.00  0.00     0.037 A 
ATOM     54  C   UNL A   1      46.643  28.395  30.479  1.00  0.00     0.049 A 
ATOM     55  C   UNL A   1      41.212  29.675  29.853  1.00  0.00     0.074 A 
ATOM     56  C   UNL A   1      47.450  29.368  31.040  1.00  0.00     0.029 A 
ATOM     57  N   UNL A   1      45.359  28.916  30.425  1.00  0.00    -0.354 N 
ATOM     58  N   UNL A   1      42.499  29.521  30.049  1.00  0.00    -0.248 NA
ATOM     59  C   UNL A   1      40.683  30.965  30.314  1.00  0.00     0.031 C 
ATOM     60  C   UNL A   1      46.649  30.474  31.345  1.00  0.00     0.029 A 
ATOM     61  C   UNL A   1      45.349  30.198  30.945  1.00  0.00     0.049 A 
ATOM     62  H   UNL A   1      44.572  28.444  30.070  1.00  0.00     0.167 HD
ATOM     63  C   UNL A   1      42.939  30.703  30.629  1.00  0.00     0.074 A 
ATOM     64  C   UNL A   1      41.782  31.568  30.744  1.00  0.00     0.031 C 
ATOM     65  C   UNL A   1      44.188  31.043  31.032  1.00  0.00     0.037 A 
BRANCH  52  66
ATOM     66  C   UNL A   1      48.427  26.628  30.174  1.00  0.00     0.057 A 
ATOM     67  C   UNL A   1      49.413  26.905  29.217  1.00  0.00     0.134 A 
ATOM     68  C   UNL A   1      48.810  25.895  31.304  1.00  0.00     0.134 A 
ATOM     69  F   UNL A   1      49.105  27.585  28.102  1.00  0.00    -0.206 F 
ATOM     70  C   UNL A   1      50.721  26.440  29.360  1.00  0.00     0.040 A 
ATOM     71  C   UNL A   1      50.122  25.450  31.472  1.00  0.00     0.040 A 
ATOM     72  F   UNL A   1      47.917  25.597  32.259  1.00  0.00    -0.206 F 
ATOM     73  C   UNL A   1      51.080  25.714  30.494  1.00  0.00     0.006 A 
ENDBRANCH  52  66
BRANCH  53  74
ATOM     74  C   UNL A   1      38.795  29.086  29.105  1.00  0.00     0.057 A 
ATOM     75  C   UNL A   1      38.276  29.526  27.881  1.00  0.00     0.134 A 
ATOM     76  C   UNL A   1      37.915  29.008  30.189  1.00  0.00     0.134 A 
ATOM     77  F   UNL A   1      39.076  29.637  26.810  1.00  0.00    -0.206 F 
ATOM     78  C   UNL A   1      36.936  29.893  27.744  1.00  0.00     0.040 A 
ATOM     79  C   UNL A   1      36.568  29.353  30.062  1.00  0.00     0.040 A 
ATOM     80  F   UNL A   1      38.350  28.586  31.385  1.00  0.00    -0.206 F 
ATOM     81  C   UNL A   1      36.077  29.803  28.836  1.00  0.00     0.006 A 
ENDBRANCH  53  74
BRANCH  65  82
ATOM     82  C   UNL A   1      44.373  32.418  31.596  1.00  0.00     0.057 A 
ATOM     83  C   UNL A   1      44.656  33.517  30.777  1.00  0.00     0.134 A 
ATOM     84  C   UNL A   1      44.212  32.651  32.967  1.00  0.00     0.134 A 
ATOM     85  F   UNL A   1      44.833  33.354  29.457  1.00  0.00    -0.206 F 
ATOM     86  C   UNL A   1      44.791  34.801  31.306  1.00  0.00     0.040 A 
ATOM     87  C   UNL A   1      44.323  33.933  33.505  1.00  0.00     0.040 A 
ATOM     88  F   UNL A   1      43.931  31.639  33.802  1.00  0.00    -0.206 F 
ATOM     89  C   UNL A   1      44.616  35.012  32.673  1.00  0.00     0.006 A 
ENDBRANCH  65  82
ENDBRANCH  39  40
ENDBRANCH  31  34
ENDBRANCH  29  30
ENDBRANCH  28  29
ENDBRANCH   1  28
TORSDOF 15
ENDMDL
MODEL 2
REMARK VINA RESULT:     -11.2      3.447      8.792
REMARK SMILES COc1cc(C(=O)N[C@H]2CCCC[C@H]2C(=O)NCCCCNC(=O)c2ccc(-c3c4nc(c(-c5c(F)cccc5F)c5ccc([nH]5)c(-c5c(F)cccc5F)c5nc(c(-c6c(F)cccc6F)c6ccc3[nH]6)C=C5)C=C4)cc2)cc(Cl)c1OC
REMARK SMILES IDX 19 1 18 2 17 3 15 4 16 5 14 7 9 8 10 9 11 10 13 11 12 12
REMARK SMILES IDX 8 13 6 14 7 15 5 17 3 18 4 19 82 20 80 21 79 22 81 23 2 24
REMARK SMILES IDX 1 25 83 26 84 27 20 28 21 29 22 30 23 31 24 33 25 34 26 35
REMARK SMILES IDX 78 36 27 37 77 38 28 39 29 40 30 41 71 42 31 43 76 44 70 45
REMARK SMILES IDX 72 46 32 47 75 48 69 49 68 50 33 52 59 53 42 54 58 55 43 56
REMARK SMILES IDX 46 57 57 58 73 59 44 60 45 61 56 63 74 64 47 65 34 66 35 67
REMARK SMILES IDX 40 68 36 69 37 70 39 71 41 72 38 73 60 74 61 75 66 76 62 77
REMARK SMILES IDX 63 78 65 79 67 80 64 81 48 82 49 83 54 84 50 85 51 86 53 87
REMARK SMILES IDX 55 88 52 89
REMARK H PARENT 17 6 8 16 22 32 72 51 46 62
REMARK Flexibility Score: inf
ROOT
ATOM      1  C   UNL A   1      34.583  30.848  27.716  1.00  0.00     0.023 C 
ENDROOT
BRANCH   1   2
ATOM      2  C   UNL A   1      34.429  29.392  27.265  1.00  0.00     0.116 C 
BRANCH   2   3
ATOM      3  N   UNL A   1      33.194  28.814  27.781  1.00  0.00    -0.356 N 
ATOM      4  C   UNL A   1      32.165  28.128  27.208  1.00  0.00     0.225 C 
ATOM      5  O   UNL A   1      31.233  27.807  27.952  1.00  0.00    -0.275 OA
ATOM      6  H   UNL A   1      33.079  28.946  28.751  1.00  0.00     0.163 HD
BRANCH   4   7
ATOM      7  C   UNL A   1      32.107  27.767  25.722  1.00  0.00     0.101 C 
ATOM      8  C   UNL A   1      32.227  26.240  25.410  1.00  0.00     0.094 C 
ATOM      9  C   UNL A   1      32.017  25.973  23.910  1.00  0.00     0.026 C 
ATOM     10  C   UNL A   1      30.792  26.679  23.340  1.00  0.00     0.002 C 
ATOM     11  C   UNL A   1      31.022  28.558  24.974  1.00  0.00     0.015 C 
ATOM     12  C   UNL A   1      30.928  28.184  23.503  1.00  0.00     0.001 C 
BRANCH   8  13
ATOM     13  N   UNL A   1      31.365  25.418  26.255  1.00  0.00    -0.349 N 
ATOM     14  C   UNL A   1      31.218  24.095  26.552  1.00  0.00     0.251 C 
ATOM     15  O   UNL A   1      30.310  23.768  27.316  1.00  0.00    -0.269 OA
ATOM     16  H   UNL A   1      30.711  25.969  26.743  1.00  0.00     0.164 HD
BRANCH  14  17
ATOM     17  C   UNL A   1      32.088  23.036  26.022  1.00  0.00     0.045 A 
ATOM     18  C   UNL A   1      34.269  21.982  26.062  1.00  0.00     0.163 A 
ATOM     19  C   UNL A   1      33.365  22.913  26.577  1.00  0.00     0.064 A 
ATOM     20  C   UNL A   1      33.898  21.157  24.971  1.00  0.00     0.179 A 
ATOM     21  C   UNL A   1      32.621  21.320  24.403  1.00  0.00     0.087 A 
ATOM     22  C   UNL A   1      31.732  22.268  24.921  1.00  0.00     0.038 A 
ATOM     23  Cl  UNL A   1      32.033  20.472  23.014  1.00  0.00    -0.080 Cl
BRANCH  18  24
ATOM     24  O   UNL A   1      35.549  21.821  26.541  1.00  0.00    -0.493 OA
ATOM     25  C   UNL A   1      36.531  22.770  26.142  1.00  0.00     0.278 C 
ENDBRANCH  18  24
BRANCH  20  26
ATOM     26  O   UNL A   1      34.899  20.328  24.538  1.00  0.00    -0.491 OA
ATOM     27  C   UNL A   1      34.751  18.926  24.694  1.00  0.00     0.278 C 
ENDBRANCH  20  26
ENDBRANCH  14  17
ENDBRANCH   8  13
ENDBRANCH   4   7
ENDBRANCH   2   3
ENDBRANCH   1   2
BRANCH   1  28
ATOM     28  C   UNL A   1      33.308  31.669  27.716  1.00  0.00     0.023 C 
BRANCH  28  29
ATOM     29  C   UNL A   1      33.482  33.093  27.228  1.00  0.00     0.116 C 
BRANCH  29  30
ATOM     30  N   UNL A   1      32.853  34.092  28.085  1.00  0.00    -0.352 N 
ATOM     31  C   UNL A   1      33.298  34.593  29.290  1.00  0.00     0.251 C 
ATOM     32  H   UNL A   1      31.999  34.456  27.760  1.00  0.00     0.163 HD
ATOM     33  O   UNL A   1      32.629  35.368  29.942  1.00  0.00    -0.269 OA
BRANCH  31  34
ATOM     34  C   UNL A   1      34.607  34.120  29.789  1.00  0.00     0.039 A 
ATOM     35  C   UNL A   1      34.641  33.249  30.878  1.00  0.00     0.014 A 
ATOM     36  C   UNL A   1      35.771  34.447  29.092  1.00  0.00     0.014 A 
ATOM     37  C   UNL A   1      35.845  32.632  31.217  1.00  0.00     0.010 A 
ATOM     38  C   UNL A   1      36.935  33.745  29.358  1.00  0.00     0.010 A 
ATOM     39  C   UNL A   1      36.988  32.840  30.430  1.00  0.00    -0.014 A 
BRANCH  39  40
ATOM     40  C   UNL A   1      38.275  32.163  30.717  1.00  0.00     0.031 A 
ATOM     41  C   UNL A   1      39.257  32.825  31.642  1.00  0.00     0.074 A 
ATOM     42  C   UNL A   1      38.601  31.021  30.079  1.00  0.00     0.049 A 
ATOM     43  N   UNL A   1      40.495  32.501  31.908  1.00  0.00    -0.248 NA
ATOM     44  C   UNL A   1      38.798  34.051  32.318  1.00  0.00     0.031 C 
ATOM     45  C   UNL A   1      37.759  30.315  29.111  1.00  0.00     0.029 A 
ATOM     46  N   UNL A   1      39.741  30.262  30.142  1.00  0.00    -0.354 N 
ATOM     47  C   UNL A   1      40.972  33.505  32.741  1.00  0.00     0.074 A 
ATOM     48  C   UNL A   1      39.913  34.477  32.889  1.00  0.00     0.031 C 
ATOM     49  C   UNL A   1      38.401  29.209  28.694  1.00  0.00     0.029 A 
ATOM     50  C   UNL A   1      39.710  29.150  29.336  1.00  0.00     0.049 A 
ATOM     51  H   UNL A   1      40.510  30.493  30.713  1.00  0.00     0.167 HD
ATOM     52  C   UNL A   1      42.175  33.594  33.353  1.00  0.00     0.037 A 
ATOM     53  C   UNL A   1      40.639  28.195  29.140  1.00  0.00     0.037 A 
ATOM     54  C   UNL A   1      43.196  32.589  33.260  1.00  0.00     0.049 A 
ATOM     55  C   UNL A   1      41.944  28.282  29.880  1.00  0.00     0.074 A 
ATOM     56  C   UNL A   1      44.420  32.537  33.904  1.00  0.00     0.029 A 
ATOM     57  N   UNL A   1      43.100  31.443  32.484  1.00  0.00    -0.354 N 
ATOM     58  N   UNL A   1      42.364  29.210  30.706  1.00  0.00    -0.248 NA
ATOM     59  C   UNL A   1      42.902  27.189  29.664  1.00  0.00     0.031 C 
ATOM     60  C   UNL A   1      45.074  31.368  33.500  1.00  0.00     0.029 A 
ATOM     61  C   UNL A   1      44.244  30.678  32.630  1.00  0.00     0.049 A 
ATOM     62  H   UNL A   1      42.332  31.209  31.914  1.00  0.00     0.167 HD
ATOM     63  C   UNL A   1      43.621  28.800  31.130  1.00  0.00     0.074 A 
ATOM     64  C   UNL A   1      43.891  27.534  30.477  1.00  0.00     0.031 C 
ATOM     65  C   UNL A   1      44.478  29.414  31.982  1.00  0.00     0.037 A 
BRANCH  52  66
ATOM     66  C   UNL A   1      42.431  34.812  34.188  1.00  0.00     0.057 A 
ATOM     67  C   UNL A   1      42.969  35.985  33.639  1.00  0.00     0.134 A 
ATOM     68  C   UNL A   1      42.139  34.814  35.558  1.00  0.00     0.134 A 
ATOM     69  F   UNL A   1      43.289  36.040  32.337  1.00  0.00    -0.206 F 
ATOM     70  C   UNL A   1      43.239  37.103  34.429  1.00  0.00     0.040 A 
ATOM     71  C   UNL A   1      42.379  35.937  36.352  1.00  0.00     0.040 A 
ATOM     72  F   UNL A   1      41.622  33.726  36.147  1.00  0.00    -0.206 F 
ATOM     73  C   UNL A   1      42.939  37.083  35.789  1.00  0.00     0.006 A 
ENDBRANCH  52  66
BRANCH  53  74
ATOM     74  C   UNL A   1      40.351  27.053  28.238  1.00  0.00     0.057 A 
ATOM     75  C   UNL A   1      40.887  27.010  26.945  1.00  0.00     0.134 A 
ATOM     76  C   UNL A   1      39.540  25.985  28.637  1.00  0.00     0.134 A 
ATOM     77  F   UNL A   1      41.659  28.012  26.501  1.00  0.00    -0.206 F 
ATOM     78  C   UNL A   1      40.612  25.954  26.073  1.00  0.00     0.040 A 
ATOM     79  C   UNL A   1      39.272  24.914  27.782  1.00  0.00     0.040 A 
ATOM     80  F   UNL A   1      39.003  25.965  29.865  1.00  0.00    -0.206 F 
ATOM     81  C   UNL A   1      39.805  24.900  26.493  1.00  0.00     0.006 A 
ENDBRANCH  53  74
BRANCH  65  82
ATOM     82  C   UNL A   1      45.764  28.709  32.285  1.00  0.00     0.057 A 
ATOM     83  C   UNL A   1      46.927  28.949  31.546  1.00  0.00     0.134 A 
ATOM     84  C   UNL A   1      45.848  27.819  33.364  1.00  0.00     0.134 A 
ATOM     85  F   UNL A   1      46.904  29.782  30.494  1.00  0.00    -0.206 F 
ATOM     86  C   UNL A   1      48.130  28.315  31.858  1.00  0.00     0.040 A 
ATOM     87  C   UNL A   1      47.050  27.196  33.699  1.00  0.00     0.040 A 
ATOM     88  F   UNL A   1      44.769  27.554  34.115  1.00  0.00    -0.206 F 
ATOM     89  C   UNL A   1      48.195  27.441  32.943  1.00  0.00     0.006 A 
ENDBRANCH  65  82
ENDBRANCH  39  40
ENDBRANCH  31  34
ENDBRANCH  29  30
ENDBRANCH  28  29
ENDBRANCH   1  28
TORSDOF 15
ENDMDL
MODEL 3
REMARK VINA RESULT:     -11.2      3.451      8.862
REMARK SMILES COc1cc(C(=O)N[C@H]2CCCC[C@H]2C(=O)NCCCCNC(=O)c2ccc(-c3c4nc(c(-c5c(F)cccc5F)c5ccc([nH]5)c(-c5c(F)cccc5F)c5nc(c(-c6c(F)cccc6F)c6ccc3[nH]6)C=C5)C=C4)cc2)cc(Cl)c1OC
REMARK SMILES IDX 19 1 18 2 17 3 15 4 16 5 14 7 9 8 10 9 11 10 13 11 12 12
REMARK SMILES IDX 8 13 6 14 7 15 5 17 3 18 4 19 82 20 80 21 79 22 81 23 2 24
REMARK SMILES IDX 1 25 83 26 84 27 20 28 21 29 22 30 23 31 24 33 25 34 26 35
REMARK SMILES IDX 78 36 27 37 77 38 28 39 29 40 30 41 71 42 31 43 76 44 70 45
REMARK SMILES IDX 72 46 32 47 75 48 69 49 68 50 33 52 59 53 42 54 58 55 43 56
REMARK SMILES IDX 46 57 57 58 73 59 44 60 45 61 56 63 74 64 47 65 34 66 35 67
REMARK SMILES IDX 40 68 36 69 37 70 39 71 41 72 38 73 60 74 61 75 66 76 62 77
REMARK SMILES IDX 63 78 65 79 67 80 64 81 48 82 49 83 54 84 50 85 51 86 53 87
REMARK SMILES IDX 55 88 52 89
REMARK H PARENT 17 6 8 16 22 32 72 51 46 62
REMARK Flexibility Score: inf
ROOT
ATOM      1  C   UNL A   1      34.558  30.857  27.771  1.00  0.00     0.023 C 
ENDROOT
BRANCH   1   2
ATOM      2  C   UNL A   1      34.464  29.398  27.317  1.00  0.00     0.116 C 
BRANCH   2   3
ATOM      3  N   UNL A   1      33.234  28.779  27.799  1.00  0.00    -0.356 N 
ATOM      4  C   UNL A   1      32.149  28.238  27.178  1.00  0.00     0.225 C 
ATOM      5  O   UNL A   1      31.243  27.824  27.910  1.00  0.00    -0.275 OA
ATOM      6  H   UNL A   1      33.177  28.745  28.782  1.00  0.00     0.163 HD
BRANCH   4   7
ATOM      7  C   UNL A   1      31.997  28.142  25.658  1.00  0.00     0.101 C 
ATOM      8  C   UNL A   1      31.725  26.704  25.112  1.00  0.00     0.094 C 
ATOM      9  C   UNL A   1      31.450  26.738  23.599  1.00  0.00     0.026 C 
ATOM     10  C   UNL A   1      30.444  27.810  23.196  1.00  0.00     0.002 C 
ATOM     11  C   UNL A   1      31.147  29.288  25.086  1.00  0.00     0.015 C 
ATOM     12  C   UNL A   1      30.958  29.187  23.580  1.00  0.00     0.001 C 
BRANCH   8  13
ATOM     13  N   UNL A   1      30.683  26.001  25.858  1.00  0.00    -0.349 N 
ATOM     14  C   UNL A   1      30.349  24.709  26.138  1.00  0.00     0.251 C 
ATOM     15  O   UNL A   1      29.330  24.502  26.798  1.00  0.00    -0.269 OA
ATOM     16  H   UNL A   1      30.050  26.632  26.270  1.00  0.00     0.164 HD
BRANCH  14  17
ATOM     17  C   UNL A   1      31.141  23.547  25.709  1.00  0.00     0.045 A 
ATOM     18  C   UNL A   1      32.827  21.906  26.285  1.00  0.00     0.163 A 
ATOM     19  C   UNL A   1      31.988  22.960  26.652  1.00  0.00     0.064 A 
ATOM     20  C   UNL A   1      32.826  21.428  24.951  1.00  0.00     0.179 A 
ATOM     21  C   UNL A   1      31.992  22.054  24.007  1.00  0.00     0.087 A 
ATOM     22  C   UNL A   1      31.168  23.119  24.387  1.00  0.00     0.038 A 
ATOM     23  Cl  UNL A   1      31.929  21.669  22.322  1.00  0.00    -0.080 Cl
BRANCH  18  24
ATOM     24  O   UNL A   1      33.703  21.295  27.152  1.00  0.00    -0.493 OA
ATOM     25  C   UNL A   1      34.806  22.058  27.627  1.00  0.00     0.278 C 
ENDBRANCH  18  24
BRANCH  20  26
ATOM     26  O   UNL A   1      33.734  20.426  24.721  1.00  0.00    -0.491 OA
ATOM     27  C   UNL A   1      33.263  19.134  24.378  1.00  0.00     0.278 C 
ENDBRANCH  20  26
ENDBRANCH  14  17
ENDBRANCH   8  13
ENDBRANCH   4   7
ENDBRANCH   2   3
ENDBRANCH   1   2
BRANCH   1  28
ATOM     28  C   UNL A   1      33.265  31.647  27.702  1.00  0.00     0.023 C 
BRANCH  28  29
ATOM     29  C   UNL A   1      33.419  33.048  27.144  1.00  0.00     0.116 C 
BRANCH  29  30
ATOM     30  N   UNL A   1      32.809  34.082  27.971  1.00  0.00    -0.352 N 
ATOM     31  C   UNL A   1      33.271  34.619  29.155  1.00  0.00     0.251 C 
ATOM     32  H   UNL A   1      31.955  34.445  27.642  1.00  0.00     0.163 HD
ATOM     33  O   UNL A   1      32.615  35.424  29.785  1.00  0.00    -0.269 OA
BRANCH  31  34
ATOM     34  C   UNL A   1      34.578  34.149  29.658  1.00  0.00     0.039 A 
ATOM     35  C   UNL A   1      34.611  33.283  30.752  1.00  0.00     0.014 A 
ATOM     36  C   UNL A   1      35.744  34.472  28.962  1.00  0.00     0.014 A 
ATOM     37  C   UNL A   1      35.815  32.668  31.095  1.00  0.00     0.010 A 
ATOM     38  C   UNL A   1      36.907  33.772  29.232  1.00  0.00     0.010 A 
ATOM     39  C   UNL A   1      36.959  32.871  30.309  1.00  0.00    -0.014 A 
BRANCH  39  40
ATOM     40  C   UNL A   1      38.245  32.196  30.601  1.00  0.00     0.031 A 
ATOM     41  C   UNL A   1      39.228  32.867  31.518  1.00  0.00     0.074 A 
ATOM     42  C   UNL A   1      38.569  31.047  29.975  1.00  0.00     0.049 A 
ATOM     43  N   UNL A   1      40.466  32.544  31.786  1.00  0.00    -0.248 NA
ATOM     44  C   UNL A   1      38.773  34.100  32.183  1.00  0.00     0.031 C 
ATOM     45  C   UNL A   1      37.725  30.332  29.015  1.00  0.00     0.029 A 
ATOM     46  N   UNL A   1      39.708  30.288  30.044  1.00  0.00    -0.354 N 
ATOM     47  C   UNL A   1      40.946  33.556  32.608  1.00  0.00     0.074 A 
ATOM     48  C   UNL A   1      39.889  34.531  32.748  1.00  0.00     0.031 C 
ATOM     49  C   UNL A   1      38.365  29.222  28.608  1.00  0.00     0.029 A 
ATOM     50  C   UNL A   1      39.675  29.168  29.250  1.00  0.00     0.049 A 
ATOM     51  H   UNL A   1      40.478  30.523  30.612  1.00  0.00     0.167 HD
ATOM     52  C   UNL A   1      42.150  33.649  33.218  1.00  0.00     0.037 A 
ATOM     53  C   UNL A   1      40.602  28.210  29.062  1.00  0.00     0.037 A 
ATOM     54  C   UNL A   1      43.170  32.642  33.134  1.00  0.00     0.049 A 
ATOM     55  C   UNL A   1      41.909  28.303  29.800  1.00  0.00     0.074 A 
ATOM     56  C   UNL A   1      44.394  32.596  33.777  1.00  0.00     0.029 A 
ATOM     57  N   UNL A   1      43.071  31.488  32.369  1.00  0.00    -0.354 N 
ATOM     58  N   UNL A   1      42.331  29.238  30.616  1.00  0.00    -0.248 NA
ATOM     59  C   UNL A   1      42.864  27.207  29.594  1.00  0.00     0.031 C 
ATOM     60  C   UNL A   1      45.046  31.422  33.385  1.00  0.00     0.029 A 
ATOM     61  C   UNL A   1      44.214  30.723  32.522  1.00  0.00     0.049 A 
ATOM     62  H   UNL A   1      42.303  31.250  31.803  1.00  0.00     0.167 HD
ATOM     63  C   UNL A   1      43.588  28.831  31.042  1.00  0.00     0.074 A 
ATOM     64  C   UNL A   1      43.855  27.559  30.401  1.00  0.00     0.031 C 
ATOM     65  C   UNL A   1      44.446  29.453  31.887  1.00  0.00     0.037 A 
BRANCH  52  66
ATOM     66  C   UNL A   1      42.408  34.876  34.040  1.00  0.00     0.057 A 
ATOM     67  C   UNL A   1      42.923  36.051  33.474  1.00  0.00     0.134 A 
ATOM     68  C   UNL A   1      42.143  34.884  35.416  1.00  0.00     0.134 A 
ATOM     69  F   UNL A   1      43.217  36.101  32.166  1.00  0.00    -0.206 F 
ATOM     70  C   UNL A   1      43.196  37.177  34.251  1.00  0.00     0.040 A 
ATOM     71  C   UNL A   1      42.386  36.014  36.198  1.00  0.00     0.040 A 
ATOM     72  F   UNL A   1      41.649  33.794  36.021  1.00  0.00    -0.206 F 
ATOM     73  C   UNL A   1      42.922  37.162  35.617  1.00  0.00     0.006 A 
ENDBRANCH  52  66
BRANCH  53  74
ATOM     74  C   UNL A   1      40.312  27.059  28.172  1.00  0.00     0.057 A 
ATOM     75  C   UNL A   1      39.509  25.999  28.611  1.00  0.00     0.134 A 
ATOM     76  C   UNL A   1      40.827  26.984  26.873  1.00  0.00     0.134 A 
ATOM     77  F   UNL A   1      39.002  26.008  29.852  1.00  0.00    -0.206 F 
ATOM     78  C   UNL A   1      39.241  24.897  27.797  1.00  0.00     0.040 A 
ATOM     79  C   UNL A   1      40.551  25.897  26.041  1.00  0.00     0.040 A 
ATOM     80  F   UNL A   1      41.597  27.970  26.392  1.00  0.00    -0.206 F 
ATOM     81  C   UNL A   1      39.761  24.846  26.506  1.00  0.00     0.006 A 
ENDBRANCH  53  74
BRANCH  65  82
ATOM     82  C   UNL A   1      45.731  28.749  32.196  1.00  0.00     0.057 A 
ATOM     83  C   UNL A   1      45.837  27.841  33.255  1.00  0.00     0.134 A 
ATOM     84  C   UNL A   1      46.860  28.945  31.389  1.00  0.00     0.134 A 
ATOM     85  F   UNL A   1      44.793  27.622  34.069  1.00  0.00    -0.206 F 
ATOM     86  C   UNL A   1      47.028  27.162  33.513  1.00  0.00     0.040 A 
ATOM     87  C   UNL A   1      48.049  28.257  31.625  1.00  0.00     0.040 A 
ATOM     88  F   UNL A   1      46.818  29.797  30.355  1.00  0.00    -0.206 F 
ATOM     89  C   UNL A   1      48.136  27.363  32.691  1.00  0.00     0.006 A 
ENDBRANCH  65  82
ENDBRANCH  39  40
ENDBRANCH  31  34
ENDBRANCH  29  30
ENDBRANCH  28  29
ENDBRANCH   1  28
TORSDOF 15
ENDMDL
