MODEL 1
REMARK VINA RESULT:     -10.8      0.000      0.000
REMARK SMILES COc1ccc(C[N@@H+](CC(=O)NCCCCNC(=O)c2ccc(-c3c4nc(c(-c5c(F)cccc5F)c5ccc([nH]5)c(-c5c(F)cccc5F)c5nc(c(-c6c(F)cccc6F)c6ccc3[nH]6)C=C5)C=C4)cc2)C(C)(C)C)cc1C#N
REMARK SMILES IDX 13 1 12 2 10 3 11 4 9 6 8 7 7 9 6 10 3 11 4 12 79 13 5 14
REMARK SMILES IDX 78 15 2 16 1 17 80 18 81 19 74 20 75 21 76 22 77 23 14 24
REMARK SMILES IDX 15 25 16 26 17 27 18 28 19 30 20 31 21 32 73 33 22 34 72 35
REMARK SMILES IDX 23 36 24 37 25 38 66 39 26 40 71 41 65 42 67 43 27 44 70 45
REMARK SMILES IDX 64 46 63 47 28 49 54 50 37 51 53 52 38 53 41 54 52 55 68 56
REMARK SMILES IDX 39 57 40 58 51 60 69 61 42 62 29 63 30 64 35 65 31 66 32 67
REMARK SMILES IDX 34 68 36 69 33 70 55 71 56 72 61 73 57 74 58 75 60 76 62 77
REMARK SMILES IDX 59 78 43 79 44 80 49 81 45 82 46 83 48 84 50 85 47 86
REMARK H PARENT 12 5 8 8 17 29 67 48 41 59
REMARK Flexibility Score: inf
ROOT
ATOM      1  C   UNL A   1      35.745  22.318  24.555  1.00  0.00     0.116 C 
ENDROOT
BRANCH   1   2
ATOM      2  N   UNL A   1      35.068  22.641  23.316  1.00  0.00    -0.351 N 
ATOM      3  C   UNL A   1      33.982  23.425  23.048  1.00  0.00     0.275 C 
ATOM      4  O   UNL A   1      33.698  23.558  21.851  1.00  0.00    -0.269 OA
ATOM      5  H   UNL A   1      35.462  22.217  22.521  1.00  0.00     0.163 HD
BRANCH   3   6
ATOM      6  C   UNL A   1      33.177  24.179  24.125  1.00  0.00     0.364 C 
BRANCH   6   7
ATOM      7  N   UNL A   1      31.863  23.597  24.568  1.00  0.00    -0.319 N 
ATOM      8  H   UNL A   1      31.562  22.818  23.983  1.00  0.00     0.349 HD
BRANCH   7   9
ATOM      9  C   UNL A   1      30.807  24.580  24.334  1.00  0.00     0.299 C 
BRANCH   9  10
ATOM     10  C   UNL A   1      30.963  26.061  24.535  1.00  0.00     0.008 A 
ATOM     11  C   UNL A   1      31.139  28.853  24.895  1.00  0.00     0.136 A 
ATOM     12  C   UNL A   1      31.541  27.966  25.905  1.00  0.00     0.048 A 
ATOM     13  C   UNL A   1      30.641  28.346  23.694  1.00  0.00     0.094 A 
ATOM     14  C   UNL A   1      31.447  26.583  25.733  1.00  0.00     0.013 A 
ATOM     15  C   UNL A   1      30.541  26.959  23.536  1.00  0.00     0.033 A 
BRANCH  11  16
ATOM     16  O   UNL A   1      31.394  30.173  25.155  1.00  0.00    -0.495 OA
ATOM     17  C   UNL A   1      31.974  30.434  26.430  1.00  0.00     0.278 C 
ENDBRANCH  11  16
BRANCH  13  18
ATOM     18  C   UNL A   1      30.268  29.160  22.573  1.00  0.00     0.103 C 
ATOM     19  N   UNL A   1      29.931  29.773  21.649  1.00  0.00    -0.192 NA
ENDBRANCH  13  18
ENDBRANCH   9  10
ENDBRANCH   7   9
BRANCH   7  20
ATOM     20  C   UNL A   1      31.887  22.660  25.723  1.00  0.00     0.090 C 
ATOM     21  C   UNL A   1      32.187  21.189  25.370  1.00  0.00     0.078 C 
ATOM     22  C   UNL A   1      32.901  23.058  26.823  1.00  0.00     0.078 C 
ATOM     23  C   UNL A   1      30.509  22.714  26.438  1.00  0.00     0.078 C 
ENDBRANCH   7  20
ENDBRANCH   6   7
ENDBRANCH   3   6
ENDBRANCH   1   2
BRANCH   1  24
ATOM     24  C   UNL A   1      37.201  21.908  24.299  1.00  0.00     0.023 C 
BRANCH  24  25
ATOM     25  C   UNL A   1      37.688  20.619  24.917  1.00  0.00     0.023 C 
BRANCH  25  26
ATOM     26  C   UNL A   1      38.915  20.787  25.776  1.00  0.00     0.116 C 
BRANCH  26  27
ATOM     27  N   UNL A   1      39.836  19.656  25.716  1.00  0.00    -0.352 N 
ATOM     28  C   UNL A   1      41.179  19.646  26.017  1.00  0.00     0.251 C 
ATOM     29  H   UNL A   1      39.450  18.798  25.423  1.00  0.00     0.163 HD
ATOM     30  O   UNL A   1      41.868  18.654  25.812  1.00  0.00    -0.269 OA
BRANCH  28  31
ATOM     31  C   UNL A   1      41.773  20.885  26.554  1.00  0.00     0.039 A 
ATOM     32  C   UNL A   1      42.267  21.845  25.673  1.00  0.00     0.014 A 
ATOM     33  C   UNL A   1      41.688  21.144  27.923  1.00  0.00     0.014 A 
ATOM     34  C   UNL A   1      42.601  23.105  26.166  1.00  0.00     0.010 A 
ATOM     35  C   UNL A   1      41.868  22.438  28.378  1.00  0.00     0.010 A 
ATOM     36  C   UNL A   1      42.356  23.426  27.512  1.00  0.00    -0.014 A 
BRANCH  36  37
ATOM     37  C   UNL A   1      42.632  24.777  28.054  1.00  0.00     0.031 A 
ATOM     38  C   UNL A   1      44.038  25.147  28.438  1.00  0.00     0.074 A 
ATOM     39  C   UNL A   1      41.621  25.642  28.258  1.00  0.00     0.049 A 
ATOM     40  N   UNL A   1      44.490  26.259  28.960  1.00  0.00    -0.248 NA
ATOM     41  C   UNL A   1      45.071  24.114  28.248  1.00  0.00     0.031 C 
ATOM     42  C   UNL A   1      40.208  25.379  27.976  1.00  0.00     0.029 A 
ATOM     43  N   UNL A   1      41.628  26.923  28.747  1.00  0.00    -0.354 N 
ATOM     44  C   UNL A   1      45.846  26.048  29.174  1.00  0.00     0.074 A 
ATOM     45  C   UNL A   1      46.126  24.680  28.810  1.00  0.00     0.031 C 
ATOM     46  C   UNL A   1      39.495  26.485  28.242  1.00  0.00     0.029 A 
ATOM     47  C   UNL A   1      40.389  27.513  28.761  1.00  0.00     0.049 A 
ATOM     48  H   UNL A   1      42.446  27.375  29.058  1.00  0.00     0.167 HD
ATOM     49  C   UNL A   1      46.783  26.927  29.600  1.00  0.00     0.037 A 
ATOM     50  C   UNL A   1      40.019  28.748  29.147  1.00  0.00     0.037 A 
ATOM     51  C   UNL A   1      46.494  28.291  29.949  1.00  0.00     0.049 A 
ATOM     52  C   UNL A   1      41.069  29.699  29.654  1.00  0.00     0.074 A 
ATOM     53  C   UNL A   1      47.373  29.285  30.335  1.00  0.00     0.029 A 
ATOM     54  N   UNL A   1      45.222  28.848  29.969  1.00  0.00    -0.354 N 
ATOM     55  N   UNL A   1      42.363  29.519  29.771  1.00  0.00    -0.248 NA
ATOM     56  C   UNL A   1      40.606  31.026  30.080  1.00  0.00     0.031 C 
ATOM     57  C   UNL A   1      46.625  30.420  30.666  1.00  0.00     0.029 A 
ATOM     58  C   UNL A   1      45.289  30.160  30.405  1.00  0.00     0.049 A 
ATOM     59  H   UNL A   1      44.395  28.378  29.712  1.00  0.00     0.167 HD
ATOM     60  C   UNL A   1      42.873  30.719  30.251  1.00  0.00     0.074 A 
ATOM     61  C   UNL A   1      41.748  31.622  30.390  1.00  0.00     0.031 C 
ATOM     62  C   UNL A   1      44.158  31.045  30.542  1.00  0.00     0.037 A 
BRANCH  49  63
ATOM     63  C   UNL A   1      48.191  26.417  29.734  1.00  0.00     0.057 A 
ATOM     64  C   UNL A   1      49.121  26.500  28.686  1.00  0.00     0.134 A 
ATOM     65  C   UNL A   1      48.618  25.812  30.922  1.00  0.00     0.134 A 
ATOM     66  F   UNL A   1      48.778  27.055  27.513  1.00  0.00    -0.206 F 
ATOM     67  C   UNL A   1      50.401  25.954  28.797  1.00  0.00     0.040 A 
ATOM     68  C   UNL A   1      49.909  25.298  31.059  1.00  0.00     0.040 A 
ATOM     69  F   UNL A   1      47.787  25.701  31.969  1.00  0.00    -0.206 F 
ATOM     70  C   UNL A   1      50.799  25.354  29.989  1.00  0.00     0.006 A 
ENDBRANCH  49  63
BRANCH  50  71
ATOM     71  C   UNL A   1      38.601  29.170  29.022  1.00  0.00     0.057 A 
ATOM     72  C   UNL A   1      38.097  29.645  27.805  1.00  0.00     0.134 A 
ATOM     73  C   UNL A   1      37.712  29.097  30.101  1.00  0.00     0.134 A 
ATOM     74  F   UNL A   1      38.902  29.754  26.738  1.00  0.00    -0.206 F 
ATOM     75  C   UNL A   1      36.766  30.043  27.668  1.00  0.00     0.040 A 
ATOM     76  C   UNL A   1      36.372  29.464  29.972  1.00  0.00     0.040 A 
ATOM     77  F   UNL A   1      38.129  28.642  31.293  1.00  0.00    -0.206 F 
ATOM     78  C   UNL A   1      35.897  29.946  28.753  1.00  0.00     0.006 A 
ENDBRANCH  50  71
BRANCH  62  79
ATOM     79  C   UNL A   1      44.423  32.450  31.005  1.00  0.00     0.057 A 
ATOM     80  C   UNL A   1      44.660  33.500  30.110  1.00  0.00     0.134 A 
ATOM     81  C   UNL A   1      44.395  32.762  32.372  1.00  0.00     0.134 A 
ATOM     82  F   UNL A   1      44.710  33.270  28.789  1.00  0.00    -0.206 F 
ATOM     83  C   UNL A   1      44.892  34.802  30.557  1.00  0.00     0.040 A 
ATOM     84  C   UNL A   1      44.589  34.066  32.829  1.00  0.00     0.040 A 
ATOM     85  F   UNL A   1      44.161  31.808  33.285  1.00  0.00    -0.206 F 
ATOM     86  C   UNL A   1      44.847  35.089  31.920  1.00  0.00     0.006 A 
ENDBRANCH  62  79
ENDBRANCH  36  37
ENDBRANCH  28  31
ENDBRANCH  26  27
ENDBRANCH  25  26
ENDBRANCH  24  25
ENDBRANCH   1  24
TORSDOF 17
ENDMDL
MODEL 2
REMARK VINA RESULT:     -10.7      0.388      6.203
REMARK SMILES COc1ccc(C[N@@H+](CC(=O)NCCCCNC(=O)c2ccc(-c3c4nc(c(-c5c(F)cccc5F)c5ccc([nH]5)c(-c5c(F)cccc5F)c5nc(c(-c6c(F)cccc6F)c6ccc3[nH]6)C=C5)C=C4)cc2)C(C)(C)C)cc1C#N
REMARK SMILES IDX 13 1 12 2 10 3 11 4 9 6 8 7 7 9 6 10 3 11 4 12 79 13 5 14
REMARK SMILES IDX 78 15 2 16 1 17 80 18 81 19 74 20 75 21 76 22 77 23 14 24
REMARK SMILES IDX 15 25 16 26 17 27 18 28 19 30 20 31 21 32 73 33 22 34 72 35
REMARK SMILES IDX 23 36 24 37 25 38 66 39 26 40 71 41 65 42 67 43 27 44 70 45
REMARK SMILES IDX 64 46 63 47 28 49 54 50 37 51 53 52 38 53 41 54 52 55 68 56
REMARK SMILES IDX 39 57 40 58 51 60 69 61 42 62 29 63 30 64 35 65 31 66 32 67
REMARK SMILES IDX 34 68 36 69 33 70 55 71 56 72 61 73 57 74 58 75 60 76 62 77
REMARK SMILES IDX 59 78 43 79 44 80 49 81 45 82 46 83 48 84 50 85 47 86
REMARK H PARENT 12 5 8 8 17 29 67 48 41 59
REMARK Flexibility Score: inf
ROOT
ATOM      1  C   UNL A   1      35.804  22.774  24.489  1.00  0.00     0.116 C 
ENDROOT
BRANCH   1   2
ATOM      2  N   UNL A   1      35.058  22.954  23.260  1.00  0.00    -0.351 N 
ATOM      3  C   UNL A   1      33.910  23.639  22.983  1.00  0.00     0.275 C 
ATOM      4  O   UNL A   1      33.571  23.660  21.792  1.00  0.00    -0.269 OA
ATOM      5  H   UNL A   1      35.451  22.498  22.482  1.00  0.00     0.163 HD
BRANCH   3   6
ATOM      6  C   UNL A   1      33.095  24.417  24.035  1.00  0.00     0.364 C 
BRANCH   6   7
ATOM      7  N   UNL A   1      31.793  23.829  24.503  1.00  0.00    -0.319 N 
ATOM      8  H   UNL A   1      31.511  23.015  23.957  1.00  0.00     0.349 HD
BRANCH   7   9
ATOM      9  C   UNL A   1      30.716  24.775  24.216  1.00  0.00     0.299 C 
BRANCH   9  10
ATOM     10  C   UNL A   1      30.824  26.264  24.385  1.00  0.00     0.008 A 
ATOM     11  C   UNL A   1      30.909  29.068  24.689  1.00  0.00     0.136 A 
ATOM     12  C   UNL A   1      31.371  28.215  25.703  1.00  0.00     0.048 A 
ATOM     13  C   UNL A   1      30.397  28.520  23.512  1.00  0.00     0.094 A 
ATOM     14  C   UNL A   1      31.321  26.826  25.559  1.00  0.00     0.013 A 
ATOM     15  C   UNL A   1      30.343  27.128  23.382  1.00  0.00     0.033 A 
BRANCH  11  16
ATOM     16  O   UNL A   1      31.124  30.401  24.917  1.00  0.00    -0.495 OA
ATOM     17  C   UNL A   1      31.713  30.708  26.178  1.00  0.00     0.278 C 
ENDBRANCH  11  16
BRANCH  13  18
ATOM     18  C   UNL A   1      29.964  29.298  22.387  1.00  0.00     0.103 C 
ATOM     19  N   UNL A   1      29.641  29.974  21.503  1.00  0.00    -0.192 NA
ENDBRANCH  13  18
ENDBRANCH   9  10
ENDBRANCH   7   9
BRANCH   7  20
ATOM     20  C   UNL A   1      31.832  22.953  25.704  1.00  0.00     0.090 C 
ATOM     21  C   UNL A   1      32.943  23.281  26.722  1.00  0.00     0.078 C 
ATOM     22  C   UNL A   1      30.505  22.933  26.501  1.00  0.00     0.078 C 
ATOM     23  C   UNL A   1      32.020  21.482  25.242  1.00  0.00     0.078 C 
ENDBRANCH   7  20
ENDBRANCH   6   7
ENDBRANCH   3   6
ENDBRANCH   1   2
BRANCH   1  24
ATOM     24  C   UNL A   1      37.164  22.119  24.219  1.00  0.00     0.023 C 
BRANCH  24  25
ATOM     25  C   UNL A   1      37.540  20.911  25.044  1.00  0.00     0.023 C 
BRANCH  25  26
ATOM     26  C   UNL A   1      38.852  21.060  25.771  1.00  0.00     0.116 C 
BRANCH  26  27
ATOM     27  N   UNL A   1      39.674  19.854  25.755  1.00  0.00    -0.352 N 
ATOM     28  C   UNL A   1      41.010  19.741  26.067  1.00  0.00     0.251 C 
ATOM     29  H   UNL A   1      39.219  19.022  25.488  1.00  0.00     0.163 HD
ATOM     30  O   UNL A   1      41.613  18.689  25.901  1.00  0.00    -0.269 OA
BRANCH  28  31
ATOM     31  C   UNL A   1      41.704  20.943  26.567  1.00  0.00     0.039 A 
ATOM     32  C   UNL A   1      42.144  21.906  25.662  1.00  0.00     0.014 A 
ATOM     33  C   UNL A   1      41.769  21.170  27.943  1.00  0.00     0.014 A 
ATOM     34  C   UNL A   1      42.576  23.140  26.145  1.00  0.00     0.010 A 
ATOM     35  C   UNL A   1      42.045  22.444  28.405  1.00  0.00     0.010 A 
ATOM     36  C   UNL A   1      42.481  23.435  27.516  1.00  0.00    -0.014 A 
BRANCH  36  37
ATOM     37  C   UNL A   1      42.865  24.761  28.056  1.00  0.00     0.031 A 
ATOM     38  C   UNL A   1      41.804  25.800  28.288  1.00  0.00     0.074 A 
ATOM     39  C   UNL A   1      44.161  25.050  28.276  1.00  0.00     0.049 A 
ATOM     40  N   UNL A   1      41.928  27.029  28.721  1.00  0.00    -0.248 NA
ATOM     41  C   UNL A   1      40.420  25.423  27.952  1.00  0.00     0.031 C 
ATOM     42  C   UNL A   1      45.287  24.143  28.037  1.00  0.00     0.029 A 
ATOM     43  N   UNL A   1      44.751  26.190  28.757  1.00  0.00    -0.354 N 
ATOM     44  C   UNL A   1      40.649  27.568  28.689  1.00  0.00     0.074 A 
ATOM     45  C   UNL A   1      39.780  26.568  28.115  1.00  0.00     0.031 C 
ATOM     46  C   UNL A   1      46.422  24.743  28.427  1.00  0.00     0.029 A 
ATOM     47  C   UNL A   1      46.113  26.090  28.892  1.00  0.00     0.049 A 
ATOM     48  H   UNL A   1      44.244  27.004  28.982  1.00  0.00     0.167 HD
ATOM     49  C   UNL A   1      40.226  28.775  29.132  1.00  0.00     0.037 A 
ATOM     50  C   UNL A   1      47.010  26.986  29.345  1.00  0.00     0.037 A 
ATOM     51  C   UNL A   1      41.098  29.760  29.712  1.00  0.00     0.049 A 
ATOM     52  C   UNL A   1      46.527  28.336  29.798  1.00  0.00     0.074 A 
ATOM     53  C   UNL A   1      40.771  30.991  30.249  1.00  0.00     0.029 A 
ATOM     54  N   UNL A   1      42.477  29.629  29.815  1.00  0.00    -0.354 N 
ATOM     55  N   UNL A   1      45.303  28.806  29.845  1.00  0.00    -0.248 NA
ATOM     56  C   UNL A   1      47.551  29.280  30.264  1.00  0.00     0.031 C 
ATOM     57  C   UNL A   1      41.959  31.638  30.603  1.00  0.00     0.029 A 
ATOM     58  C   UNL A   1      43.019  30.777  30.366  1.00  0.00     0.049 A 
ATOM     59  H   UNL A   1      42.992  28.837  29.537  1.00  0.00     0.167 HD
ATOM     60  C   UNL A   1      45.405  30.085  30.377  1.00  0.00     0.074 A 
ATOM     61  C   UNL A   1      46.811  30.310  30.647  1.00  0.00     0.031 C 
ATOM     62  C   UNL A   1      44.423  30.988  30.625  1.00  0.00     0.037 A 
BRANCH  49  63
ATOM     63  C   UNL A   1      38.765  29.091  28.973  1.00  0.00     0.057 A 
ATOM     64  C   UNL A   1      38.221  29.540  27.760  1.00  0.00     0.134 A 
ATOM     65  C   UNL A   1      37.889  28.966  30.059  1.00  0.00     0.134 A 
ATOM     66  F   UNL A   1      39.003  29.698  26.680  1.00  0.00    -0.206 F 
ATOM     67  C   UNL A   1      36.878  29.903  27.648  1.00  0.00     0.040 A 
ATOM     68  C   UNL A   1      36.535  29.287  29.948  1.00  0.00     0.040 A 
ATOM     69  F   UNL A   1      38.335  28.537  31.249  1.00  0.00    -0.206 F 
ATOM     70  C   UNL A   1      36.030  29.773  28.745  1.00  0.00     0.006 A 
ENDBRANCH  49  63
BRANCH  50  71
ATOM     71  C   UNL A   1      48.445  26.615  29.438  1.00  0.00     0.057 A 
ATOM     72  C   UNL A   1      49.333  26.912  28.397  1.00  0.00     0.134 A 
ATOM     73  C   UNL A   1      48.969  25.972  30.566  1.00  0.00     0.134 A 
ATOM     74  F   UNL A   1      48.889  27.514  27.283  1.00  0.00    -0.206 F 
ATOM     75  C   UNL A   1      50.685  26.574  28.467  1.00  0.00     0.040 A 
ATOM     76  C   UNL A   1      50.324  25.653  30.663  1.00  0.00     0.040 A 
ATOM     77  F   UNL A   1      48.173  25.667  31.602  1.00  0.00    -0.206 F 
ATOM     78  C   UNL A   1      51.185  25.948  29.608  1.00  0.00     0.006 A 
ENDBRANCH  50  71
BRANCH  62  79
ATOM     79  C   UNL A   1      44.829  32.291  31.255  1.00  0.00     0.057 A 
ATOM     80  C   UNL A   1      44.914  32.455  32.643  1.00  0.00     0.134 A 
ATOM     81  C   UNL A   1      45.183  33.385  30.454  1.00  0.00     0.134 A 
ATOM     82  F   UNL A   1      44.581  31.451  33.469  1.00  0.00    -0.206 F 
ATOM     83  C   UNL A   1      45.306  33.668  33.212  1.00  0.00     0.040 A 
ATOM     84  C   UNL A   1      45.611  34.591  31.010  1.00  0.00     0.040 A 
ATOM     85  F   UNL A   1      45.137  33.294  29.116  1.00  0.00    -0.206 F 
ATOM     86  C   UNL A   1      45.665  34.738  32.393  1.00  0.00     0.006 A 
ENDBRANCH  62  79
ENDBRANCH  36  37
ENDBRANCH  28  31
ENDBRANCH  26  27
ENDBRANCH  25  26
ENDBRANCH  24  25
ENDBRANCH   1  24
TORSDOF 17
ENDMDL
MODEL 3
REMARK VINA RESULT:     -10.5      1.410      2.366
REMARK SMILES COc1ccc(C[N@@H+](CC(=O)NCCCCNC(=O)c2ccc(-c3c4nc(c(-c5c(F)cccc5F)c5ccc([nH]5)c(-c5c(F)cccc5F)c5nc(c(-c6c(F)cccc6F)c6ccc3[nH]6)C=C5)C=C4)cc2)C(C)(C)C)cc1C#N
REMARK SMILES IDX 13 1 12 2 10 3 11 4 9 6 8 7 7 9 6 10 3 11 4 12 79 13 5 14
REMARK SMILES IDX 78 15 2 16 1 17 80 18 81 19 74 20 75 21 76 22 77 23 14 24
REMARK SMILES IDX 15 25 16 26 17 27 18 28 19 30 20 31 21 32 73 33 22 34 72 35
REMARK SMILES IDX 23 36 24 37 25 38 66 39 26 40 71 41 65 42 67 43 27 44 70 45
REMARK SMILES IDX 64 46 63 47 28 49 54 50 37 51 53 52 38 53 41 54 52 55 68 56
REMARK SMILES IDX 39 57 40 58 51 60 69 61 42 62 29 63 30 64 35 65 31 66 32 67
REMARK SMILES IDX 34 68 36 69 33 70 55 71 56 72 61 73 57 74 58 75 60 76 62 77
REMARK SMILES IDX 59 78 43 79 44 80 49 81 45 82 46 83 48 84 50 85 47 86
REMARK H PARENT 12 5 8 8 17 29 67 48 41 59
REMARK Flexibility Score: inf
ROOT
ATOM      1  C   UNL A   1      35.677  21.402  25.164  1.00  0.00     0.116 C 
ENDROOT
BRANCH   1   2
ATOM      2  N   UNL A   1      35.163  21.676  26.490  1.00  0.00    -0.351 N 
ATOM      3  C   UNL A   1      34.083  22.392  26.919  1.00  0.00     0.275 C 
ATOM      4  O   UNL A   1      33.870  22.366  28.138  1.00  0.00    -0.269 OA
ATOM      5  H   UNL A   1      35.688  21.269  27.216  1.00  0.00     0.163 HD
BRANCH   3   6
ATOM      6  C   UNL A   1      33.115  23.139  25.979  1.00  0.00     0.364 C 
BRANCH   6   7
ATOM      7  N   UNL A   1      33.521  23.325  24.544  1.00  0.00    -0.319 N 
ATOM      8  H   UNL A   1      34.265  22.688  24.260  1.00  0.00     0.349 HD
BRANCH   7   9
ATOM      9  C   UNL A   1      34.165  24.629  24.399  1.00  0.00     0.299 C 
BRANCH   9  10
ATOM     10  C   UNL A   1      33.485  25.946  24.650  1.00  0.00     0.008 A 
ATOM     11  C   UNL A   1      32.105  28.361  25.120  1.00  0.00     0.136 A 
ATOM     12  C   UNL A   1      33.067  27.888  26.026  1.00  0.00     0.048 A 
ATOM     13  C   UNL A   1      31.824  27.623  23.969  1.00  0.00     0.094 A 
ATOM     14  C   UNL A   1      33.745  26.688  25.800  1.00  0.00     0.013 A 
ATOM     15  C   UNL A   1      32.503  26.417  23.757  1.00  0.00     0.033 A 
BRANCH  11  16
ATOM     16  O   UNL A   1      31.605  29.603  25.409  1.00  0.00    -0.495 OA
ATOM     17  C   UNL A   1      31.976  30.119  26.683  1.00  0.00     0.278 C 
ENDBRANCH  11  16
BRANCH  13  18
ATOM     18  C   UNL A   1      30.913  28.048  22.946  1.00  0.00     0.103 C 
ATOM     19  N   UNL A   1      30.135  28.394  22.160  1.00  0.00    -0.192 NA
ENDBRANCH  13  18
ENDBRANCH   9  10
ENDBRANCH   7   9
BRANCH   7  20
ATOM     20  C   UNL A   1      32.657  22.704  23.505  1.00  0.00     0.090 C 
ATOM     21  C   UNL A   1      32.569  21.165  23.557  1.00  0.00     0.078 C 
ATOM     22  C   UNL A   1      31.198  23.223  23.520  1.00  0.00     0.078 C 
ATOM     23  C   UNL A   1      33.191  23.109  22.104  1.00  0.00     0.078 C 
ENDBRANCH   7  20
ENDBRANCH   6   7
ENDBRANCH   3   6
ENDBRANCH   1   2
BRANCH   1  24
ATOM     24  C   UNL A   1      37.200  21.576  25.114  1.00  0.00     0.023 C 
BRANCH  24  25
ATOM     25  C   UNL A   1      38.053  20.330  25.139  1.00  0.00     0.023 C 
BRANCH  25  26
ATOM     26  C   UNL A   1      39.231  20.424  26.074  1.00  0.00     0.116 C 
BRANCH  26  27
ATOM     27  N   UNL A   1      40.162  19.305  25.962  1.00  0.00    -0.352 N 
ATOM     28  C   UNL A   1      41.532  19.332  26.096  1.00  0.00     0.251 C 
ATOM     29  H   UNL A   1      39.763  18.427  25.765  1.00  0.00     0.163 HD
ATOM     30  O   UNL A   1      42.212  18.341  25.861  1.00  0.00    -0.269 OA
BRANCH  28  31
ATOM     31  C   UNL A   1      42.160  20.608  26.488  1.00  0.00     0.039 A 
ATOM     32  C   UNL A   1      42.567  21.503  25.501  1.00  0.00     0.014 A 
ATOM     33  C   UNL A   1      42.192  20.965  27.837  1.00  0.00     0.014 A 
ATOM     34  C   UNL A   1      42.932  22.796  25.871  1.00  0.00     0.010 A 
ATOM     35  C   UNL A   1      42.401  22.289  28.180  1.00  0.00     0.010 A 
ATOM     36  C   UNL A   1      42.802  23.213  27.207  1.00  0.00    -0.014 A 
BRANCH  36  37
ATOM     37  C   UNL A   1      43.114  24.600  27.624  1.00  0.00     0.031 A 
ATOM     38  C   UNL A   1      44.547  25.049  27.692  1.00  0.00     0.074 A 
ATOM     39  C   UNL A   1      42.122  25.431  27.998  1.00  0.00     0.049 A 
ATOM     40  N   UNL A   1      45.038  26.204  28.062  1.00  0.00    -0.248 NA
ATOM     41  C   UNL A   1      45.571  24.053  27.334  1.00  0.00     0.031 C 
ATOM     42  C   UNL A   1      40.697  25.094  28.026  1.00  0.00     0.029 A 
ATOM     43  N   UNL A   1      42.163  26.734  28.421  1.00  0.00    -0.354 N 
ATOM     44  C   UNL A   1      46.417  26.062  27.998  1.00  0.00     0.074 A 
ATOM     45  C   UNL A   1      46.689  24.690  27.641  1.00  0.00     0.031 C 
ATOM     46  C   UNL A   1      39.997  26.180  28.389  1.00  0.00     0.029 A 
ATOM     47  C   UNL A   1      40.924  27.271  28.669  1.00  0.00     0.049 A 
ATOM     48  H   UNL A   1      43.002  27.236  28.537  1.00  0.00     0.167 HD
ATOM     49  C   UNL A   1      47.375  27.001  28.185  1.00  0.00     0.037 A 
ATOM     50  C   UNL A   1      40.577  28.508  29.072  1.00  0.00     0.037 A 
ATOM     51  C   UNL A   1      47.094  28.368  28.530  1.00  0.00     0.049 A 
ATOM     52  C   UNL A   1      41.658  29.526  29.311  1.00  0.00     0.074 A 
ATOM     53  C   UNL A   1      47.980  29.417  28.684  1.00  0.00     0.029 A 
ATOM     54  N   UNL A   1      45.826  28.870  28.791  1.00  0.00    -0.354 N 
ATOM     55  N   UNL A   1      42.956  29.408  29.164  1.00  0.00    -0.248 NA
ATOM     56  C   UNL A   1      41.224  30.853  29.769  1.00  0.00     0.031 C 
ATOM     57  C   UNL A   1      47.258  30.533  29.116  1.00  0.00     0.029 A 
ATOM     58  C   UNL A   1      45.912  30.204  29.150  1.00  0.00     0.049 A 
ATOM     59  H   UNL A   1      44.990  28.353  28.730  1.00  0.00     0.167 HD
ATOM     60  C   UNL A   1      43.490  30.651  29.478  1.00  0.00     0.074 A 
ATOM     61  C   UNL A   1      42.372  31.511  29.810  1.00  0.00     0.031 C 
ATOM     62  C   UNL A   1      44.789  31.046  29.482  1.00  0.00     0.037 A 
BRANCH  49  63
ATOM     63  C   UNL A   1      48.806  26.559  28.043  1.00  0.00     0.057 A 
ATOM     64  C   UNL A   1      49.573  26.138  29.141  1.00  0.00     0.134 A 
ATOM     65  C   UNL A   1      49.434  26.575  26.792  1.00  0.00     0.134 A 
ATOM     66  F   UNL A   1      49.042  26.111  30.373  1.00  0.00    -0.206 F 
ATOM     67  C   UNL A   1      50.921  25.804  29.007  1.00  0.00     0.040 A 
ATOM     68  C   UNL A   1      50.771  26.203  26.639  1.00  0.00     0.040 A 
ATOM     69  F   UNL A   1      48.762  26.959  25.696  1.00  0.00    -0.206 F 
ATOM     70  C   UNL A   1      51.523  25.832  27.751  1.00  0.00     0.006 A 
ENDBRANCH  49  63
BRANCH  50  71
ATOM     71  C   UNL A   1      39.144  28.861  29.227  1.00  0.00     0.057 A 
ATOM     72  C   UNL A   1      38.495  28.710  30.459  1.00  0.00     0.134 A 
ATOM     73  C   UNL A   1      38.391  29.370  28.162  1.00  0.00     0.134 A 
ATOM     74  F   UNL A   1      39.158  28.213  31.513  1.00  0.00    -0.206 F 
ATOM     75  C   UNL A   1      37.149  29.040  30.623  1.00  0.00     0.040 A 
ATOM     76  C   UNL A   1      37.052  29.731  28.319  1.00  0.00     0.040 A 
ATOM     77  F   UNL A   1      38.955  29.548  26.957  1.00  0.00    -0.206 F 
ATOM     78  C   UNL A   1      36.425  29.560  29.552  1.00  0.00     0.006 A 
ENDBRANCH  50  71
BRANCH  62  79
ATOM     79  C   UNL A   1      45.070  32.483  29.823  1.00  0.00     0.057 A 
ATOM     80  C   UNL A   1      45.373  32.897  31.125  1.00  0.00     0.134 A 
ATOM     81  C   UNL A   1      45.079  33.460  28.817  1.00  0.00     0.134 A 
ATOM     82  F   UNL A   1      45.373  32.016  32.137  1.00  0.00    -0.206 F 
ATOM     83  C   UNL A   1      45.645  34.234  31.421  1.00  0.00     0.040 A 
ATOM     84  C   UNL A   1      45.385  34.792  29.094  1.00  0.00     0.040 A 
ATOM     85  F   UNL A   1      44.809  33.131  27.544  1.00  0.00    -0.206 F 
ATOM     86  C   UNL A   1      45.660  35.184  30.402  1.00  0.00     0.006 A 
ENDBRANCH  62  79
ENDBRANCH  36  37
ENDBRANCH  28  31
ENDBRANCH  26  27
ENDBRANCH  25  26
ENDBRANCH  24  25
ENDBRANCH   1  24
TORSDOF 17
ENDMDL
