MODEL 1
REMARK VINA RESULT:     -11.7      0.000      0.000
REMARK SMILES O=C(NCCCCNC(=O)[C@@H]1C[C@H]1C(=O)N[C@@H]1CONC1=O)c1ccc(-c2c3nc(c(-c4c(F)cccc4F)c4ccc([nH]4)c(-c4c(F)cccc4F)c4nc(c(-c5c(F)cccc5F)c5ccc2[nH]5)C=C4)C=C3)cc1
REMARK SMILES IDX 5 1 4 2 3 3 1 4 2 5 23 7 24 8 76 9 25 10 75 11 26 12 27 13
REMARK SMILES IDX 28 14 69 15 29 16 74 17 68 18 70 19 30 20 73 21 67 22 66 23
REMARK SMILES IDX 31 25 57 26 40 27 56 28 41 29 44 30 55 31 71 32 42 33 43 34
REMARK SMILES IDX 54 36 72 37 45 38 32 39 33 40 38 41 34 42 35 43 37 44 39 45
REMARK SMILES IDX 36 46 58 47 59 48 64 49 60 50 61 51 63 52 65 53 62 54 46 55
REMARK SMILES IDX 47 56 52 57 48 58 49 59 51 60 53 61 50 62 6 63 7 64 8 65
REMARK SMILES IDX 9 66 10 68 11 69 12 70 13 71 14 72 15 73 16 74 17 76 18 77
REMARK SMILES IDX 21 78 19 79 20 80 22 81
REMARK H PARENT 3 6 70 24 44 35 8 67 16 75 20 82
REMARK Flexibility Score: inf
ROOT
ATOM      1  C   UNL A   1      31.095  31.929  26.446  1.00  0.00     0.023 C 
ENDROOT
BRANCH   1   2
ATOM      2  C   UNL A   1      32.423  32.507  26.913  1.00  0.00     0.116 C 
BRANCH   2   3
ATOM      3  N   UNL A   1      32.300  33.859  27.438  1.00  0.00    -0.352 N 
ATOM      4  O   UNL A   1      32.690  35.586  28.839  1.00  0.00    -0.269 OA
ATOM      5  C   UNL A   1      33.034  34.489  28.412  1.00  0.00     0.251 C 
ATOM      6  H   UNL A   1      31.584  34.402  27.034  1.00  0.00     0.163 HD
BRANCH   5   7
ATOM      7  C   UNL A   1      34.229  33.825  28.969  1.00  0.00     0.039 A 
ATOM      8  C   UNL A   1      34.103  32.731  29.829  1.00  0.00     0.014 A 
ATOM      9  C   UNL A   1      35.492  34.313  28.626  1.00  0.00     0.014 A 
ATOM     10  C   UNL A   1      35.227  32.221  30.467  1.00  0.00     0.010 A 
ATOM     11  C   UNL A   1      36.627  33.739  29.198  1.00  0.00     0.010 A 
ATOM     12  C   UNL A   1      36.502  32.711  30.147  1.00  0.00    -0.014 A 
BRANCH  12  13
ATOM     13  C   UNL A   1      37.709  32.111  30.764  1.00  0.00     0.031 A 
ATOM     14  C   UNL A   1      38.477  31.033  30.056  1.00  0.00     0.074 A 
ATOM     15  C   UNL A   1      38.082  32.514  31.992  1.00  0.00     0.049 A 
ATOM     16  N   UNL A   1      39.480  30.313  30.489  1.00  0.00    -0.248 NA
ATOM     17  C   UNL A   1      38.054  30.714  28.684  1.00  0.00     0.031 C 
ATOM     18  C   UNL A   1      37.415  33.557  32.774  1.00  0.00     0.029 A 
ATOM     19  N   UNL A   1      39.099  32.085  32.806  1.00  0.00    -0.354 N 
ATOM     20  C   UNL A   1      39.791  29.437  29.457  1.00  0.00     0.074 A 
ATOM     21  C   UNL A   1      38.853  29.700  28.386  1.00  0.00     0.031 C 
ATOM     22  C   UNL A   1      38.039  33.688  33.952  1.00  0.00     0.029 A 
ATOM     23  C   UNL A   1      39.101  32.693  34.037  1.00  0.00     0.049 A 
ATOM     24  H   UNL A   1      39.759  31.408  32.534  1.00  0.00     0.167 HD
ATOM     25  C   UNL A   1      40.770  28.501  29.412  1.00  0.00     0.037 A 
ATOM     26  C   UNL A   1      39.844  32.447  35.130  1.00  0.00     0.037 A 
ATOM     27  C   UNL A   1      41.693  28.249  30.490  1.00  0.00     0.049 A 
ATOM     28  C   UNL A   1      40.887  31.369  35.081  1.00  0.00     0.074 A 
ATOM     29  C   UNL A   1      42.745  27.351  30.532  1.00  0.00     0.029 A 
ATOM     30  N   UNL A   1      41.662  28.885  31.723  1.00  0.00    -0.354 N 
ATOM     31  N   UNL A   1      41.196  30.568  34.090  1.00  0.00    -0.248 NA
ATOM     32  C   UNL A   1      41.682  31.160  36.296  1.00  0.00     0.031 C 
ATOM     33  C   UNL A   1      43.307  27.396  31.812  1.00  0.00     0.029 A 
ATOM     34  C   UNL A   1      42.655  28.376  32.544  1.00  0.00     0.049 A 
ATOM     35  H   UNL A   1      41.028  29.595  31.977  1.00  0.00     0.167 HD
ATOM     36  C   UNL A   1      42.243  29.782  34.549  1.00  0.00     0.074 A 
ATOM     37  C   UNL A   1      42.514  30.201  35.910  1.00  0.00     0.031 C 
ATOM     38  C   UNL A   1      42.923  28.809  33.894  1.00  0.00     0.037 A 
BRANCH  25  39
ATOM     39  C   UNL A   1      40.858  27.651  28.175  1.00  0.00     0.057 A 
ATOM     40  C   UNL A   1      41.627  28.023  27.063  1.00  0.00     0.134 A 
ATOM     41  C   UNL A   1      40.165  26.436  28.097  1.00  0.00     0.134 A 
ATOM     42  F   UNL A   1      42.311  29.177  27.065  1.00  0.00    -0.206 F 
ATOM     43  C   UNL A   1      41.665  27.242  25.906  1.00  0.00     0.040 A 
ATOM     44  C   UNL A   1      40.223  25.630  26.958  1.00  0.00     0.040 A 
ATOM     45  F   UNL A   1      39.419  26.007  29.127  1.00  0.00    -0.206 F 
ATOM     46  C   UNL A   1      40.964  26.039  25.853  1.00  0.00     0.006 A 
ENDBRANCH  25  39
BRANCH  26  47
ATOM     47  C   UNL A   1      39.600  33.239  36.360  1.00  0.00     0.057 A 
ATOM     48  C   UNL A   1      38.739  32.778  37.361  1.00  0.00     0.134 A 
ATOM     49  C   UNL A   1      40.272  34.447  36.591  1.00  0.00     0.134 A 
ATOM     50  F   UNL A   1      38.061  31.634  37.192  1.00  0.00    -0.206 F 
ATOM     51  C   UNL A   1      38.551  33.490  38.546  1.00  0.00     0.040 A 
ATOM     52  C   UNL A   1      40.115  35.155  37.782  1.00  0.00     0.040 A 
ATOM     53  F   UNL A   1      41.123  34.934  35.675  1.00  0.00    -0.206 F 
ATOM     54  C   UNL A   1      39.248  34.678  38.763  1.00  0.00     0.006 A 
ENDBRANCH  26  47
BRANCH  38  55
ATOM     55  C   UNL A   1      44.070  28.160  34.613  1.00  0.00     0.057 A 
ATOM     56  C   UNL A   1      43.922  26.969  35.334  1.00  0.00     0.134 A 
ATOM     57  C   UNL A   1      45.360  28.698  34.510  1.00  0.00     0.134 A 
ATOM     58  F   UNL A   1      42.712  26.411  35.485  1.00  0.00    -0.206 F 
ATOM     59  C   UNL A   1      45.016  26.340  35.933  1.00  0.00     0.040 A 
ATOM     60  C   UNL A   1      46.465  28.065  35.079  1.00  0.00     0.040 A 
ATOM     61  F   UNL A   1      45.571  29.834  33.828  1.00  0.00    -0.206 F 
ATOM     62  C   UNL A   1      46.293  26.882  35.794  1.00  0.00     0.006 A 
ENDBRANCH  38  55
ENDBRANCH  12  13
ENDBRANCH   5   7
ENDBRANCH   2   3
ENDBRANCH   1   2
BRANCH   1  63
ATOM     63  C   UNL A   1      31.210  30.736  25.505  1.00  0.00     0.023 C 
BRANCH  63  64
ATOM     64  C   UNL A   1      32.401  29.823  25.754  1.00  0.00     0.116 C 
BRANCH  64  65
ATOM     65  N   UNL A   1      33.271  29.662  24.604  1.00  0.00    -0.356 N 
ATOM     66  C   UNL A   1      33.049  28.871  23.511  1.00  0.00     0.223 C 
ATOM     67  H   UNL A   1      34.111  30.175  24.613  1.00  0.00     0.163 HD
ATOM     68  O   UNL A   1      33.817  28.866  22.555  1.00  0.00    -0.275 OA
BRANCH  66  69
ATOM     69  C   UNL A   1      31.881  27.966  23.538  1.00  0.00     0.091 C 
ATOM     70  C   UNL A   1      31.612  26.971  22.431  1.00  0.00     0.028 C 
ATOM     71  C   UNL A   1      30.733  28.172  22.562  1.00  0.00     0.091 C 
BRANCH  71  72
ATOM     72  C   UNL A   1      29.356  28.302  23.105  1.00  0.00     0.224 C 
ATOM     73  O   UNL A   1      28.840  27.297  23.590  1.00  0.00    -0.275 OA
ATOM     74  N   UNL A   1      28.596  29.431  23.027  1.00  0.00    -0.342 N 
ATOM     75  H   UNL A   1      27.668  29.306  23.328  1.00  0.00     0.164 HD
BRANCH  74  76
ATOM     76  C   UNL A   1      28.892  30.780  22.584  1.00  0.00     0.202 C 
ATOM     77  C   UNL A   1      28.346  31.855  23.508  1.00  0.00     0.228 C 
ATOM     78  C   UNL A   1      28.193  31.181  21.306  1.00  0.00     0.268 C 
ATOM     79  O   UNL A   1      28.220  33.028  22.692  1.00  0.00    -0.271 OA
ATOM     80  N   UNL A   1      27.951  32.531  21.395  1.00  0.00    -0.233 N 
ATOM     81  O   UNL A   1      27.960  30.468  20.345  1.00  0.00    -0.270 OA
ATOM     82  H   UNL A   1      27.629  33.084  20.646  1.00  0.00     0.199 HD
ENDBRANCH  74  76
ENDBRANCH  71  72
ENDBRANCH  66  69
ENDBRANCH  64  65
ENDBRANCH  63  64
ENDBRANCH   1  63
TORSDOF 13
ENDMDL
MODEL 2
REMARK VINA RESULT:     -11.4      6.666     11.351
REMARK SMILES O=C(NCCCCNC(=O)[C@@H]1C[C@H]1C(=O)N[C@@H]1CONC1=O)c1ccc(-c2c3nc(c(-c4c(F)cccc4F)c4ccc([nH]4)c(-c4c(F)cccc4F)c4nc(c(-c5c(F)cccc5F)c5ccc2[nH]5)C=C4)C=C3)cc1
REMARK SMILES IDX 5 1 4 2 3 3 1 4 2 5 23 7 24 8 76 9 25 10 75 11 26 12 27 13
REMARK SMILES IDX 28 14 69 15 29 16 74 17 68 18 70 19 30 20 73 21 67 22 66 23
REMARK SMILES IDX 31 25 57 26 40 27 56 28 41 29 44 30 55 31 71 32 42 33 43 34
REMARK SMILES IDX 54 36 72 37 45 38 32 39 33 40 38 41 34 42 35 43 37 44 39 45
REMARK SMILES IDX 36 46 58 47 59 48 64 49 60 50 61 51 63 52 65 53 62 54 46 55
REMARK SMILES IDX 47 56 52 57 48 58 49 59 51 60 53 61 50 62 6 63 7 64 8 65
REMARK SMILES IDX 9 66 10 68 11 69 12 70 13 71 14 72 15 73 16 74 17 76 18 77
REMARK SMILES IDX 21 78 19 79 20 80 22 81
REMARK H PARENT 3 6 70 24 44 35 8 67 16 75 20 82
REMARK Flexibility Score: inf
ROOT
ATOM      1  C   UNL A   1      37.819  19.931  24.636  1.00  0.00     0.023 C 
ENDROOT
BRANCH   1   2
ATOM      2  C   UNL A   1      38.882  20.207  25.689  1.00  0.00     0.116 C 
BRANCH   2   3
ATOM      3  N   UNL A   1      39.900  19.169  25.753  1.00  0.00    -0.352 N 
ATOM      4  O   UNL A   1      41.985  18.309  25.857  1.00  0.00    -0.269 OA
ATOM      5  C   UNL A   1      41.247  19.279  25.994  1.00  0.00     0.251 C 
ATOM      6  H   UNL A   1      39.573  18.252  25.601  1.00  0.00     0.163 HD
BRANCH   5   7
ATOM      7  C   UNL A   1      41.813  20.583  26.392  1.00  0.00     0.039 A 
ATOM      8  C   UNL A   1      41.991  20.903  27.741  1.00  0.00     0.014 A 
ATOM      9  C   UNL A   1      42.164  21.497  25.396  1.00  0.00     0.014 A 
ATOM     10  C   UNL A   1      42.373  22.190  28.100  1.00  0.00     0.010 A 
ATOM     11  C   UNL A   1      42.635  22.759  25.759  1.00  0.00     0.010 A 
ATOM     12  C   UNL A   1      42.713  23.126  27.112  1.00  0.00    -0.014 A 
BRANCH  12  13
ATOM     13  C   UNL A   1      43.202  24.472  27.495  1.00  0.00     0.031 A 
ATOM     14  C   UNL A   1      42.244  25.534  27.951  1.00  0.00     0.074 A 
ATOM     15  C   UNL A   1      44.514  24.744  27.384  1.00  0.00     0.049 A 
ATOM     16  N   UNL A   1      42.473  26.796  28.211  1.00  0.00    -0.248 NA
ATOM     17  C   UNL A   1      40.842  25.127  28.127  1.00  0.00     0.031 C 
ATOM     18  C   UNL A   1      45.538  23.789  26.956  1.00  0.00     0.029 A 
ATOM     19  N   UNL A   1      45.210  25.906  27.603  1.00  0.00    -0.354 N 
ATOM     20  C   UNL A   1      41.242  27.342  28.553  1.00  0.00     0.074 A 
ATOM     21  C   UNL A   1      40.267  26.279  28.443  1.00  0.00     0.031 C 
ATOM     22  C   UNL A   1      46.730  24.402  26.945  1.00  0.00     0.029 A 
ATOM     23  C   UNL A   1      46.543  25.805  27.293  1.00  0.00     0.049 A 
ATOM     24  H   UNL A   1      44.794  26.728  27.946  1.00  0.00     0.167 HD
ATOM     25  C   UNL A   1      40.958  28.614  28.923  1.00  0.00     0.037 A 
ATOM     26  C   UNL A   1      47.503  26.746  27.249  1.00  0.00     0.037 A 
ATOM     27  C   UNL A   1      41.942  29.662  29.023  1.00  0.00     0.049 A 
ATOM     28  C   UNL A   1      47.159  28.161  27.609  1.00  0.00     0.074 A 
ATOM     29  C   UNL A   1      41.766  30.975  29.425  1.00  0.00     0.029 A 
ATOM     30  N   UNL A   1      43.285  29.522  28.699  1.00  0.00    -0.354 N 
ATOM     31  N   UNL A   1      46.000  28.661  27.964  1.00  0.00    -0.248 NA
ATOM     32  C   UNL A   1      48.250  29.141  27.564  1.00  0.00     0.031 C 
ATOM     33  C   UNL A   1      42.987  31.643  29.280  1.00  0.00     0.029 A 
ATOM     34  C   UNL A   1      43.941  30.731  28.861  1.00  0.00     0.049 A 
ATOM     35  H   UNL A   1      43.709  28.684  28.399  1.00  0.00     0.167 HD
ATOM     36  C   UNL A   1      46.227  30.006  28.216  1.00  0.00     0.074 A 
ATOM     37  C   UNL A   1      47.635  30.245  27.971  1.00  0.00     0.031 C 
ATOM     38  C   UNL A   1      45.347  30.953  28.624  1.00  0.00     0.037 A 
BRANCH  25  39
ATOM     39  C   UNL A   1      39.519  28.949  29.201  1.00  0.00     0.057 A 
ATOM     40  C   UNL A   1      38.945  28.793  30.469  1.00  0.00     0.134 A 
ATOM     41  C   UNL A   1      38.694  29.441  28.180  1.00  0.00     0.134 A 
ATOM     42  F   UNL A   1      39.673  28.320  31.492  1.00  0.00    -0.206 F 
ATOM     43  C   UNL A   1      37.595  29.070  30.701  1.00  0.00     0.040 A 
ATOM     44  C   UNL A   1      37.353  29.753  28.407  1.00  0.00     0.040 A 
ATOM     45  F   UNL A   1      39.178  29.628  26.942  1.00  0.00    -0.206 F 
ATOM     46  C   UNL A   1      36.796  29.555  29.668  1.00  0.00     0.006 A 
ENDBRANCH  25  39
BRANCH  26  47
ATOM     47  C   UNL A   1      48.872  26.360  26.830  1.00  0.00     0.057 A 
ATOM     48  C   UNL A   1      49.305  26.540  25.512  1.00  0.00     0.134 A 
ATOM     49  C   UNL A   1      49.801  25.860  27.753  1.00  0.00     0.134 A 
ATOM     50  F   UNL A   1      48.459  27.004  24.582  1.00  0.00    -0.206 F 
ATOM     51  C   UNL A   1      50.610  26.234  25.125  1.00  0.00     0.040 A 
ATOM     52  C   UNL A   1      51.115  25.575  27.387  1.00  0.00     0.040 A 
ATOM     53  F   UNL A   1      49.449  25.680  29.036  1.00  0.00    -0.206 F 
ATOM     54  C   UNL A   1      51.523  25.759  26.067  1.00  0.00     0.006 A 
ENDBRANCH  26  47
BRANCH  38  55
ATOM     55  C   UNL A   1      45.883  32.330  28.892  1.00  0.00     0.057 A 
ATOM     56  C   UNL A   1      45.851  33.344  27.928  1.00  0.00     0.134 A 
ATOM     57  C   UNL A   1      46.363  32.662  30.166  1.00  0.00     0.134 A 
ATOM     58  F   UNL A   1      45.418  33.088  26.685  1.00  0.00    -0.206 F 
ATOM     59  C   UNL A   1      46.285  34.639  28.220  1.00  0.00     0.040 A 
ATOM     60  C   UNL A   1      46.773  33.958  30.478  1.00  0.00     0.040 A 
ATOM     61  F   UNL A   1      46.415  31.738  31.137  1.00  0.00    -0.206 F 
ATOM     62  C   UNL A   1      46.734  34.951  29.503  1.00  0.00     0.006 A 
ENDBRANCH  38  55
ENDBRANCH  12  13
ENDBRANCH   5   7
ENDBRANCH   2   3
ENDBRANCH   1   2
BRANCH   1  63
ATOM     63  C   UNL A   1      36.403  20.332  25.032  1.00  0.00     0.023 C 
BRANCH  63  64
ATOM     64  C   UNL A   1      36.258  21.740  25.591  1.00  0.00     0.116 C 
BRANCH  64  65
ATOM     65  N   UNL A   1      35.425  21.821  26.777  1.00  0.00    -0.356 N 
ATOM     66  C   UNL A   1      34.058  21.807  26.823  1.00  0.00     0.223 C 
ATOM     67  H   UNL A   1      35.894  21.894  27.640  1.00  0.00     0.163 HD
ATOM     68  O   UNL A   1      33.451  21.804  27.888  1.00  0.00    -0.275 OA
BRANCH  66  69
ATOM     69  C   UNL A   1      33.323  21.863  25.542  1.00  0.00     0.091 C 
ATOM     70  C   UNL A   1      31.826  22.072  25.485  1.00  0.00     0.028 C 
ATOM     71  C   UNL A   1      32.387  20.729  25.149  1.00  0.00     0.091 C 
BRANCH  71  72
ATOM     72  C   UNL A   1      32.586  20.071  23.832  1.00  0.00     0.224 C 
ATOM     73  O   UNL A   1      32.150  20.647  22.839  1.00  0.00    -0.275 OA
ATOM     74  N   UNL A   1      33.139  18.837  23.659  1.00  0.00    -0.342 N 
ATOM     75  H   UNL A   1      33.083  18.503  22.735  1.00  0.00     0.164 HD
BRANCH  74  76
ATOM     76  C   UNL A   1      33.794  17.922  24.574  1.00  0.00     0.202 C 
ATOM     77  C   UNL A   1      34.777  16.985  23.894  1.00  0.00     0.228 C 
ATOM     78  C   UNL A   1      32.872  16.898  25.193  1.00  0.00     0.268 C 
ATOM     79  O   UNL A   1      34.885  15.850  24.766  1.00  0.00    -0.271 OA
ATOM     80  N   UNL A   1      33.618  15.761  25.390  1.00  0.00    -0.233 N 
ATOM     81  O   UNL A   1      31.712  17.066  25.529  1.00  0.00    -0.270 OA
ATOM     82  H   UNL A   1      33.309  14.980  25.905  1.00  0.00     0.199 HD
ENDBRANCH  74  76
ENDBRANCH  71  72
ENDBRANCH  66  69
ENDBRANCH  64  65
ENDBRANCH  63  64
ENDBRANCH   1  63
TORSDOF 13
ENDMDL
MODEL 3
REMARK VINA RESULT:     -11.4      0.486      6.475
REMARK SMILES O=C(NCCCCNC(=O)[C@@H]1C[C@H]1C(=O)N[C@@H]1CONC1=O)c1ccc(-c2c3nc(c(-c4c(F)cccc4F)c4ccc([nH]4)c(-c4c(F)cccc4F)c4nc(c(-c5c(F)cccc5F)c5ccc2[nH]5)C=C4)C=C3)cc1
REMARK SMILES IDX 5 1 4 2 3 3 1 4 2 5 23 7 24 8 76 9 25 10 75 11 26 12 27 13
REMARK SMILES IDX 28 14 69 15 29 16 74 17 68 18 70 19 30 20 73 21 67 22 66 23
REMARK SMILES IDX 31 25 57 26 40 27 56 28 41 29 44 30 55 31 71 32 42 33 43 34
REMARK SMILES IDX 54 36 72 37 45 38 32 39 33 40 38 41 34 42 35 43 37 44 39 45
REMARK SMILES IDX 36 46 58 47 59 48 64 49 60 50 61 51 63 52 65 53 62 54 46 55
REMARK SMILES IDX 47 56 52 57 48 58 49 59 51 60 53 61 50 62 6 63 7 64 8 65
REMARK SMILES IDX 9 66 10 68 11 69 12 70 13 71 14 72 15 73 16 74 17 76 18 77
REMARK SMILES IDX 21 78 19 79 20 80 22 81
REMARK H PARENT 3 6 70 24 44 35 8 67 16 75 20 82
REMARK Flexibility Score: inf
ROOT
ATOM      1  C   UNL A   1      31.187  32.006  26.523  1.00  0.00     0.023 C 
ENDROOT
BRANCH   1   2
ATOM      2  C   UNL A   1      32.522  32.479  27.083  1.00  0.00     0.116 C 
BRANCH   2   3
ATOM      3  N   UNL A   1      32.516  33.888  27.447  1.00  0.00    -0.352 N 
ATOM      4  O   UNL A   1      33.036  35.720  28.660  1.00  0.00    -0.269 OA
ATOM      5  C   UNL A   1      33.283  34.554  28.371  1.00  0.00     0.251 C 
ATOM      6  H   UNL A   1      31.867  34.445  26.959  1.00  0.00     0.163 HD
BRANCH   5   7
ATOM      7  C   UNL A   1      34.393  33.850  29.042  1.00  0.00     0.039 A 
ATOM      8  C   UNL A   1      35.722  34.161  28.742  1.00  0.00     0.014 A 
ATOM      9  C   UNL A   1      34.094  32.860  29.981  1.00  0.00     0.014 A 
ATOM     10  C   UNL A   1      36.748  33.382  29.263  1.00  0.00     0.010 A 
ATOM     11  C   UNL A   1      35.131  32.139  30.572  1.00  0.00     0.010 A 
ATOM     12  C   UNL A   1      36.464  32.373  30.194  1.00  0.00    -0.014 A 
BRANCH  12  13
ATOM     13  C   UNL A   1      37.564  31.597  30.814  1.00  0.00     0.031 A 
ATOM     14  C   UNL A   1      38.020  31.897  32.212  1.00  0.00     0.074 A 
ATOM     15  C   UNL A   1      38.181  30.648  30.087  1.00  0.00     0.049 A 
ATOM     16  N   UNL A   1      39.039  31.406  32.871  1.00  0.00    -0.248 NA
ATOM     17  C   UNL A   1      37.236  32.887  32.964  1.00  0.00     0.031 C 
ATOM     18  C   UNL A   1      37.821  30.267  28.720  1.00  0.00     0.029 A 
ATOM     19  N   UNL A   1      39.251  29.844  30.388  1.00  0.00    -0.354 N 
ATOM     20  C   UNL A   1      39.036  32.046  34.104  1.00  0.00     0.074 A 
ATOM     21  C   UNL A   1      37.929  32.979  34.090  1.00  0.00     0.031 C 
ATOM     22  C   UNL A   1      38.653  29.304  28.301  1.00  0.00     0.029 A 
ATOM     23  C   UNL A   1      39.646  29.052  29.338  1.00  0.00     0.049 A 
ATOM     24  H   UNL A   1      39.692  29.838  31.267  1.00  0.00     0.167 HD
ATOM     25  C   UNL A   1      39.882  31.869  35.148  1.00  0.00     0.037 A 
ATOM     26  C   UNL A   1      40.714  28.246  29.206  1.00  0.00     0.037 A 
ATOM     27  C   UNL A   1      40.983  30.939  35.143  1.00  0.00     0.049 A 
ATOM     28  C   UNL A   1      41.672  28.104  30.352  1.00  0.00     0.074 A 
ATOM     29  C   UNL A   1      41.876  30.655  36.161  1.00  0.00     0.029 A 
ATOM     30  N   UNL A   1      41.352  30.154  34.059  1.00  0.00    -0.354 N 
ATOM     31  N   UNL A   1      41.642  28.688  31.526  1.00  0.00    -0.248 NA
ATOM     32  C   UNL A   1      42.807  27.194  30.159  1.00  0.00     0.031 C 
ATOM     33  C   UNL A   1      42.824  29.750  35.671  1.00  0.00     0.029 A 
ATOM     34  C   UNL A   1      42.478  29.411  34.372  1.00  0.00     0.049 A 
ATOM     35  H   UNL A   1      40.881  30.129  33.193  1.00  0.00     0.167 HD
ATOM     36  C   UNL A   1      42.735  28.194  32.223  1.00  0.00     0.074 A 
ATOM     37  C   UNL A   1      43.408  27.263  31.340  1.00  0.00     0.031 C 
ATOM     38  C   UNL A   1      43.133  28.479  33.487  1.00  0.00     0.037 A 
BRANCH  25  39
ATOM     39  C   UNL A   1      39.675  32.733  36.360  1.00  0.00     0.057 A 
ATOM     40  C   UNL A   1      38.736  32.421  37.352  1.00  0.00     0.134 A 
ATOM     41  C   UNL A   1      40.433  33.898  36.540  1.00  0.00     0.134 A 
ATOM     42  F   UNL A   1      37.970  31.324  37.242  1.00  0.00    -0.206 F 
ATOM     43  C   UNL A   1      38.528  33.256  38.452  1.00  0.00     0.040 A 
ATOM     44  C   UNL A   1      40.257  34.723  37.653  1.00  0.00     0.040 A 
ATOM     45  F   UNL A   1      41.361  34.256  35.638  1.00  0.00    -0.206 F 
ATOM     46  C   UNL A   1      39.292  34.410  38.606  1.00  0.00     0.006 A 
ENDBRANCH  25  39
BRANCH  26  47
ATOM     47  C   UNL A   1      40.924  27.533  27.923  1.00  0.00     0.057 A 
ATOM     48  C   UNL A   1      41.662  28.109  26.884  1.00  0.00     0.134 A 
ATOM     49  C   UNL A   1      40.443  26.230  27.729  1.00  0.00     0.134 A 
ATOM     50  F   UNL A   1      42.138  29.356  27.007  1.00  0.00    -0.206 F 
ATOM     51  C   UNL A   1      41.912  27.418  25.697  1.00  0.00     0.040 A 
ATOM     52  C   UNL A   1      40.709  25.519  26.560  1.00  0.00     0.040 A 
ATOM     53  F   UNL A   1      39.741  25.617  28.695  1.00  0.00    -0.206 F 
ATOM     54  C   UNL A   1      41.443  26.115  25.537  1.00  0.00     0.006 A 
ENDBRANCH  26  47
BRANCH  38  55
ATOM     55  C   UNL A   1      44.325  27.739  34.024  1.00  0.00     0.057 A 
ATOM     56  C   UNL A   1      44.218  26.466  34.594  1.00  0.00     0.134 A 
ATOM     57  C   UNL A   1      45.610  28.283  33.889  1.00  0.00     0.134 A 
ATOM     58  F   UNL A   1      43.016  25.896  34.767  1.00  0.00    -0.206 F 
ATOM     59  C   UNL A   1      45.347  25.761  35.019  1.00  0.00     0.040 A 
ATOM     60  C   UNL A   1      46.747  27.578  34.283  1.00  0.00     0.040 A 
ATOM     61  F   UNL A   1      45.781  29.497  33.344  1.00  0.00    -0.206 F 
ATOM     62  C   UNL A   1      46.617  26.313  34.850  1.00  0.00     0.006 A 
ENDBRANCH  38  55
ENDBRANCH  12  13
ENDBRANCH   5   7
ENDBRANCH   2   3
ENDBRANCH   1   2
BRANCH   1  63
ATOM     63  C   UNL A   1      31.270  30.798  25.599  1.00  0.00     0.023 C 
BRANCH  63  64
ATOM     64  C   UNL A   1      32.467  29.886  25.826  1.00  0.00     0.116 C 
BRANCH  64  65
ATOM     65  N   UNL A   1      33.326  29.740  24.666  1.00  0.00    -0.356 N 
ATOM     66  C   UNL A   1      33.106  28.943  23.576  1.00  0.00     0.223 C 
ATOM     67  H   UNL A   1      34.156  30.270  24.663  1.00  0.00     0.163 HD
ATOM     68  O   UNL A   1      33.862  28.952  22.611  1.00  0.00    -0.275 OA
BRANCH  66  69
ATOM     69  C   UNL A   1      31.957  28.015  23.620  1.00  0.00     0.091 C 
ATOM     70  C   UNL A   1      31.719  26.982  22.541  1.00  0.00     0.028 C 
ATOM     71  C   UNL A   1      30.814  28.168  22.627  1.00  0.00     0.091 C 
BRANCH  71  72
ATOM     72  C   UNL A   1      29.429  28.285  23.153  1.00  0.00     0.224 C 
ATOM     73  O   UNL A   1      28.917  27.276  23.630  1.00  0.00    -0.275 OA
ATOM     74  N   UNL A   1      28.661  29.407  23.065  1.00  0.00    -0.342 N 
ATOM     75  H   UNL A   1      27.730  29.274  23.354  1.00  0.00     0.164 HD
BRANCH  74  76
ATOM     76  C   UNL A   1      28.950  30.759  22.627  1.00  0.00     0.202 C 
ATOM     77  C   UNL A   1      28.412  31.828  23.562  1.00  0.00     0.228 C 
ATOM     78  C   UNL A   1      28.239  31.166  21.358  1.00  0.00     0.268 C 
ATOM     79  O   UNL A   1      28.276  33.006  22.753  1.00  0.00    -0.271 OA
ATOM     80  N   UNL A   1      27.995  32.515  21.456  1.00  0.00    -0.233 N 
ATOM     81  O   UNL A   1      27.997  30.458  20.395  1.00  0.00    -0.270 OA
ATOM     82  H   UNL A   1      27.665  33.073  20.714  1.00  0.00     0.199 HD
ENDBRANCH  74  76
ENDBRANCH  71  72
ENDBRANCH  66  69
ENDBRANCH  64  65
ENDBRANCH  63  64
ENDBRANCH   1  63
TORSDOF 13
ENDMDL
