MODEL 1
REMARK VINA RESULT:     -12.0      0.000      0.000
REMARK SMILES O=C(NCCCCNC(=O)[C@@H]1CCC(=O)N1C(=O)/C=C/c1ccccc1)c1ccc(-c2c3nc(c(-c4c(F)cccc4F)c4ccc([nH]4)c(-c4c(F)cccc4F)c4nc(c(-c5c(F)cccc5F)c5ccc2[nH]5)C=C4)C=C3)cc1
REMARK SMILES IDX 6 1 5 2 4 3 3 4 1 5 2 6 27 8 28 9 80 10 29 11 79 12 30 13
REMARK SMILES IDX 31 14 32 15 73 16 33 17 78 18 72 19 74 20 34 21 77 22 71 23
REMARK SMILES IDX 70 24 35 26 61 27 44 28 60 29 45 30 48 31 59 32 75 33 46 34
REMARK SMILES IDX 47 35 58 37 76 38 49 39 36 40 37 41 42 42 38 43 39 44 41 45
REMARK SMILES IDX 43 46 40 47 62 48 63 49 68 50 64 51 65 52 67 53 69 54 66 55
REMARK SMILES IDX 50 56 51 57 56 58 52 59 53 60 55 61 57 62 54 63 7 64 8 65
REMARK SMILES IDX 9 66 10 68 11 69 12 70 16 71 13 72 14 73 15 74 17 75 18 76
REMARK SMILES IDX 19 77 20 78 21 79 22 80 26 81 23 82 25 83 24 84
REMARK H PARENT 3 7 74 25 48 36 8 67
REMARK Flexibility Score: inf
ROOT
ATOM      1  C   UNL A   1      36.439  20.597  25.003  1.00  0.00     0.023 C 
ENDROOT
BRANCH   1   2
ATOM      2  C   UNL A   1      37.812  20.003  24.696  1.00  0.00     0.023 C 
BRANCH   2   3
ATOM      3  C   UNL A   1      38.877  20.275  25.748  1.00  0.00     0.116 C 
BRANCH   3   4
ATOM      4  N   UNL A   1      39.900  19.242  25.814  1.00  0.00    -0.352 N 
ATOM      5  O   UNL A   1      42.004  18.434  26.031  1.00  0.00    -0.269 OA
ATOM      6  C   UNL A   1      41.233  19.382  26.124  1.00  0.00     0.251 C 
ATOM      7  H   UNL A   1      39.600  18.327  25.611  1.00  0.00     0.163 HD
BRANCH   6   8
ATOM      8  C   UNL A   1      41.728  20.710  26.538  1.00  0.00     0.039 A 
ATOM      9  C   UNL A   1      41.787  21.041  27.892  1.00  0.00     0.014 A 
ATOM     10  C   UNL A   1      42.081  21.643  25.560  1.00  0.00     0.014 A 
ATOM     11  C   UNL A   1      42.052  22.351  28.264  1.00  0.00     0.010 A 
ATOM     12  C   UNL A   1      42.440  22.936  25.943  1.00  0.00     0.010 A 
ATOM     13  C   UNL A   1      42.399  23.309  27.296  1.00  0.00    -0.014 A 
BRANCH  13  14
ATOM     14  C   UNL A   1      42.786  24.671  27.736  1.00  0.00     0.031 A 
ATOM     15  C   UNL A   1      41.754  25.710  28.068  1.00  0.00     0.074 A 
ATOM     16  C   UNL A   1      44.098  24.951  27.854  1.00  0.00     0.049 A 
ATOM     17  N   UNL A   1      41.931  26.944  28.468  1.00  0.00    -0.248 NA
ATOM     18  C   UNL A   1      40.343  25.322  27.927  1.00  0.00     0.031 C 
ATOM     19  C   UNL A   1      45.187  24.021  27.547  1.00  0.00     0.029 A 
ATOM     20  N   UNL A   1      44.740  26.086  28.275  1.00  0.00    -0.354 N 
ATOM     21  C   UNL A   1      40.660  27.486  28.608  1.00  0.00     0.074 A 
ATOM     22  C   UNL A   1      39.719  26.454  28.227  1.00  0.00     0.031 C 
ATOM     23  C   UNL A   1      46.359  24.606  27.831  1.00  0.00     0.029 A 
ATOM     24  C   UNL A   1      46.107  25.972  28.272  1.00  0.00     0.049 A 
ATOM     25  H   UNL A   1      44.266  26.904  28.553  1.00  0.00     0.167 HD
ATOM     26  C   UNL A   1      40.314  28.730  29.021  1.00  0.00     0.037 A 
ATOM     27  C   UNL A   1      47.060  26.875  28.565  1.00  0.00     0.037 A 
ATOM     28  C   UNL A   1      41.260  29.746  29.410  1.00  0.00     0.049 A 
ATOM     29  C   UNL A   1      46.648  28.250  28.994  1.00  0.00     0.074 A 
ATOM     30  C   UNL A   1      41.008  31.023  29.881  1.00  0.00     0.029 A 
ATOM     31  N   UNL A   1      42.639  29.603  29.367  1.00  0.00    -0.354 N 
ATOM     32  N   UNL A   1      45.442  28.737  29.154  1.00  0.00    -0.248 NA
ATOM     33  C   UNL A   1      47.727  29.204  29.277  1.00  0.00     0.031 C 
ATOM     34  C   UNL A   1      42.235  31.669  30.075  1.00  0.00     0.029 A 
ATOM     35  C   UNL A   1      43.251  30.778  29.776  1.00  0.00     0.049 A 
ATOM     36  H   UNL A   1      43.114  28.786  29.086  1.00  0.00     0.167 HD
ATOM     37  C   UNL A   1      45.615  30.048  29.573  1.00  0.00     0.074 A 
ATOM     38  C   UNL A   1      47.044  30.272  29.661  1.00  0.00     0.031 C 
ATOM     39  C   UNL A   1      44.675  30.984  29.855  1.00  0.00     0.037 A 
BRANCH  26  40
ATOM     40  C   UNL A   1      38.852  29.073  29.056  1.00  0.00     0.057 A 
ATOM     41  C   UNL A   1      38.090  28.966  30.227  1.00  0.00     0.134 A 
ATOM     42  C   UNL A   1      38.208  29.566  27.912  1.00  0.00     0.134 A 
ATOM     43  F   UNL A   1      38.641  28.493  31.356  1.00  0.00    -0.206 F 
ATOM     44  C   UNL A   1      36.738  29.316  30.254  1.00  0.00     0.040 A 
ATOM     45  C   UNL A   1      36.865  29.943  27.934  1.00  0.00     0.040 A 
ATOM     46  F   UNL A   1      38.880  29.702  26.759  1.00  0.00    -0.206 F 
ATOM     47  C   UNL A   1      36.124  29.813  29.106  1.00  0.00     0.006 A 
ENDBRANCH  26  40
BRANCH  27  48
ATOM     48  C   UNL A   1      48.490  26.497  28.448  1.00  0.00     0.057 A 
ATOM     49  C   UNL A   1      49.176  25.914  29.518  1.00  0.00     0.134 A 
ATOM     50  C   UNL A   1      49.197  26.693  27.256  1.00  0.00     0.134 A 
ATOM     51  F   UNL A   1      48.555  25.714  30.690  1.00  0.00    -0.206 F 
ATOM     52  C   UNL A   1      50.519  25.550  29.411  1.00  0.00     0.040 A 
ATOM     53  C   UNL A   1      50.530  26.307  27.125  1.00  0.00     0.040 A 
ATOM     54  F   UNL A   1      48.591  27.237  26.189  1.00  0.00    -0.206 F 
ATOM     55  C   UNL A   1      51.197  25.739  28.209  1.00  0.00     0.006 A 
ENDBRANCH  27  48
BRANCH  39  56
ATOM     56  C   UNL A   1      45.170  32.325  30.311  1.00  0.00     0.057 A 
ATOM     57  C   UNL A   1      45.426  32.599  31.660  1.00  0.00     0.134 A 
ATOM     58  C   UNL A   1      45.412  33.347  29.383  1.00  0.00     0.134 A 
ATOM     59  F   UNL A   1      45.199  31.668  32.598  1.00  0.00    -0.206 F 
ATOM     60  C   UNL A   1      45.881  33.852  32.075  1.00  0.00     0.040 A 
ATOM     61  C   UNL A   1      45.893  34.593  29.783  1.00  0.00     0.040 A 
ATOM     62  F   UNL A   1      45.193  33.146  28.075  1.00  0.00    -0.206 F 
ATOM     63  C   UNL A   1      46.122  34.851  31.133  1.00  0.00     0.006 A 
ENDBRANCH  39  56
ENDBRANCH  13  14
ENDBRANCH   6   8
ENDBRANCH   3   4
ENDBRANCH   2   3
ENDBRANCH   1   2
BRANCH   1  64
ATOM     64  C   UNL A   1      36.474  22.037  25.503  1.00  0.00     0.116 C 
BRANCH  64  65
ATOM     65  N   UNL A   1      35.677  22.235  26.699  1.00  0.00    -0.354 N 
ATOM     66  C   UNL A   1      34.485  22.876  26.891  1.00  0.00     0.243 C 
ATOM     67  H   UNL A   1      36.061  21.840  27.515  1.00  0.00     0.163 HD
ATOM     68  O   UNL A   1      33.904  22.652  27.958  1.00  0.00    -0.273 OA
BRANCH  66  69
ATOM     69  C   UNL A   1      33.770  23.654  25.766  1.00  0.00     0.183 C 
ATOM     70  C   UNL A   1      34.283  25.088  25.747  1.00  0.00     0.046 C 
ATOM     71  N   UNL A   1      32.332  23.742  25.946  1.00  0.00    -0.266 N 
ATOM     72  C   UNL A   1      33.056  25.938  25.499  1.00  0.00     0.103 C 
ATOM     73  C   UNL A   1      31.916  25.082  25.978  1.00  0.00     0.230 C 
ATOM     74  O   UNL A   1      30.850  25.542  26.355  1.00  0.00    -0.274 OA
BRANCH  71  75
ATOM     75  C   UNL A   1      31.601  22.558  25.879  1.00  0.00     0.253 C 
ATOM     76  O   UNL A   1      30.526  22.421  26.464  1.00  0.00    -0.269 OA
BRANCH  75  77
ATOM     77  C   UNL A   1      32.035  21.451  24.994  1.00  0.00     0.072 C 
ATOM     78  C   UNL A   1      32.471  20.250  25.398  1.00  0.00     0.014 C 
BRANCH  78  79
ATOM     79  C   UNL A   1      32.923  19.159  24.515  1.00  0.00    -0.025 A 
ATOM     80  C   UNL A   1      32.328  19.046  23.249  1.00  0.00     0.008 A 
ATOM     81  C   UNL A   1      33.887  18.207  24.878  1.00  0.00     0.008 A 
ATOM     82  C   UNL A   1      32.688  18.019  22.372  1.00  0.00     0.001 A 
ATOM     83  C   UNL A   1      34.249  17.179  24.000  1.00  0.00     0.001 A 
ATOM     84  C   UNL A   1      33.650  17.086  22.748  1.00  0.00     0.000 A 
ENDBRANCH  78  79
ENDBRANCH  75  77
ENDBRANCH  71  75
ENDBRANCH  66  69
ENDBRANCH  64  65
ENDBRANCH   1  64
TORSDOF 14
ENDMDL
MODEL 2
REMARK VINA RESULT:     -12.0      0.344      6.144
REMARK SMILES O=C(NCCCCNC(=O)[C@@H]1CCC(=O)N1C(=O)/C=C/c1ccccc1)c1ccc(-c2c3nc(c(-c4c(F)cccc4F)c4ccc([nH]4)c(-c4c(F)cccc4F)c4nc(c(-c5c(F)cccc5F)c5ccc2[nH]5)C=C4)C=C3)cc1
REMARK SMILES IDX 6 1 5 2 4 3 3 4 1 5 2 6 27 8 28 9 80 10 29 11 79 12 30 13
REMARK SMILES IDX 31 14 32 15 73 16 33 17 78 18 72 19 74 20 34 21 77 22 71 23
REMARK SMILES IDX 70 24 35 26 61 27 44 28 60 29 45 30 48 31 59 32 75 33 46 34
REMARK SMILES IDX 47 35 58 37 76 38 49 39 36 40 37 41 42 42 38 43 39 44 41 45
REMARK SMILES IDX 43 46 40 47 62 48 63 49 68 50 64 51 65 52 67 53 69 54 66 55
REMARK SMILES IDX 50 56 51 57 56 58 52 59 53 60 55 61 57 62 54 63 7 64 8 65
REMARK SMILES IDX 9 66 10 68 11 69 12 70 16 71 13 72 14 73 15 74 17 75 18 76
REMARK SMILES IDX 19 77 20 78 21 79 22 80 26 81 23 82 25 83 24 84
REMARK H PARENT 3 7 74 25 48 36 8 67
REMARK Flexibility Score: inf
ROOT
ATOM      1  C   UNL A   1      36.549  20.644  25.030  1.00  0.00     0.023 C 
ENDROOT
BRANCH   1   2
ATOM      2  C   UNL A   1      37.884  19.960  24.748  1.00  0.00     0.023 C 
BRANCH   2   3
ATOM      3  C   UNL A   1      38.971  20.225  25.779  1.00  0.00     0.116 C 
BRANCH   3   4
ATOM      4  N   UNL A   1      39.992  19.189  25.823  1.00  0.00    -0.352 N 
ATOM      5  O   UNL A   1      42.097  18.374  25.989  1.00  0.00    -0.269 OA
ATOM      6  C   UNL A   1      41.332  19.324  26.098  1.00  0.00     0.251 C 
ATOM      7  H   UNL A   1      39.683  18.274  25.630  1.00  0.00     0.163 HD
BRANCH   6   8
ATOM      8  C   UNL A   1      41.843  20.652  26.496  1.00  0.00     0.039 A 
ATOM      9  C   UNL A   1      41.946  20.983  27.847  1.00  0.00     0.014 A 
ATOM     10  C   UNL A   1      42.165  21.584  25.506  1.00  0.00     0.014 A 
ATOM     11  C   UNL A   1      42.226  22.293  28.210  1.00  0.00     0.010 A 
ATOM     12  C   UNL A   1      42.538  22.877  25.877  1.00  0.00     0.010 A 
ATOM     13  C   UNL A   1      42.542  23.250  27.230  1.00  0.00    -0.014 A 
BRANCH  13  14
ATOM     14  C   UNL A   1      42.945  24.611  27.657  1.00  0.00     0.031 A 
ATOM     15  C   UNL A   1      44.389  25.022  27.710  1.00  0.00     0.074 A 
ATOM     16  C   UNL A   1      41.975  25.488  27.980  1.00  0.00     0.049 A 
ATOM     17  N   UNL A   1      44.903  26.174  28.059  1.00  0.00    -0.248 NA
ATOM     18  C   UNL A   1      45.387  24.011  27.330  1.00  0.00     0.031 C 
ATOM     19  C   UNL A   1      40.540  25.194  27.975  1.00  0.00     0.029 A 
ATOM     20  N   UNL A   1      42.043  26.803  28.357  1.00  0.00    -0.354 N 
ATOM     21  C   UNL A   1      46.280  26.023  27.962  1.00  0.00     0.074 A 
ATOM     22  C   UNL A   1      46.524  24.660  27.543  1.00  0.00     0.031 C 
ATOM     23  C   UNL A   1      39.862  26.305  28.290  1.00  0.00     0.029 A 
ATOM     24  C   UNL A   1      40.813  27.369  28.586  1.00  0.00     0.049 A 
ATOM     25  H   UNL A   1      42.891  27.295  28.455  1.00  0.00     0.167 HD
ATOM     26  C   UNL A   1      47.247  26.943  28.197  1.00  0.00     0.037 A 
ATOM     27  C   UNL A   1      40.484  28.601  29.013  1.00  0.00     0.037 A 
ATOM     28  C   UNL A   1      46.991  28.302  28.603  1.00  0.00     0.049 A 
ATOM     29  C   UNL A   1      41.577  29.589  29.290  1.00  0.00     0.074 A 
ATOM     30  C   UNL A   1      47.901  29.322  28.827  1.00  0.00     0.029 A 
ATOM     31  N   UNL A   1      45.733  28.832  28.852  1.00  0.00    -0.354 N 
ATOM     32  N   UNL A   1      42.873  29.443  29.160  1.00  0.00    -0.248 NA
ATOM     33  C   UNL A   1      41.164  30.910  29.779  1.00  0.00     0.031 C 
ATOM     34  C   UNL A   1      47.197  30.451  29.259  1.00  0.00     0.029 A 
ATOM     35  C   UNL A   1      45.845  30.153  29.254  1.00  0.00     0.049 A 
ATOM     36  H   UNL A   1      44.884  28.339  28.757  1.00  0.00     0.167 HD
ATOM     37  C   UNL A   1      43.430  30.656  29.534  1.00  0.00     0.074 A 
ATOM     38  C   UNL A   1      42.329  31.533  29.876  1.00  0.00     0.031 C 
ATOM     39  C   UNL A   1      44.737  31.011  29.592  1.00  0.00     0.037 A 
BRANCH  26  40
ATOM     40  C   UNL A   1      48.677  26.508  28.042  1.00  0.00     0.057 A 
ATOM     41  C   UNL A   1      49.413  25.977  29.109  1.00  0.00     0.134 A 
ATOM     42  C   UNL A   1      49.310  26.574  26.793  1.00  0.00     0.134 A 
ATOM     43  F   UNL A   1      48.870  25.893  30.334  1.00  0.00    -0.206 F 
ATOM     44  C   UNL A   1      50.733  25.549  28.946  1.00  0.00     0.040 A 
ATOM     45  C   UNL A   1      50.619  26.126  26.611  1.00  0.00     0.040 A 
ATOM     46  F   UNL A   1      48.661  27.063  25.726  1.00  0.00    -0.206 F 
ATOM     47  C   UNL A   1      51.336  25.616  27.692  1.00  0.00     0.006 A 
ENDBRANCH  26  40
BRANCH  27  48
ATOM     48  C   UNL A   1      39.057  28.952  29.211  1.00  0.00     0.057 A 
ATOM     49  C   UNL A   1      38.427  28.759  30.445  1.00  0.00     0.134 A 
ATOM     50  C   UNL A   1      38.295  29.509  28.176  1.00  0.00     0.134 A 
ATOM     51  F   UNL A   1      39.102  28.216  31.470  1.00  0.00    -0.206 F 
ATOM     52  C   UNL A   1      37.086  29.094  30.640  1.00  0.00     0.040 A 
ATOM     53  C   UNL A   1      36.963  29.876  28.366  1.00  0.00     0.040 A 
ATOM     54  F   UNL A   1      38.845  29.731  26.973  1.00  0.00    -0.206 F 
ATOM     55  C   UNL A   1      36.354  29.662  29.600  1.00  0.00     0.006 A 
ENDBRANCH  27  48
BRANCH  39  56
ATOM     56  C   UNL A   1      45.039  32.418  30.019  1.00  0.00     0.057 A 
ATOM     57  C   UNL A   1      45.289  32.747  31.357  1.00  0.00     0.134 A 
ATOM     58  C   UNL A   1      45.098  33.450  29.075  1.00  0.00     0.134 A 
ATOM     59  F   UNL A   1      45.230  31.806  32.311  1.00  0.00    -0.206 F 
ATOM     60  C   UNL A   1      45.563  34.059  31.745  1.00  0.00     0.040 A 
ATOM     61  C   UNL A   1      45.398  34.761  29.447  1.00  0.00     0.040 A 
ATOM     62  F   UNL A   1      44.875  33.201  27.775  1.00  0.00    -0.206 F 
ATOM     63  C   UNL A   1      45.624  35.069  30.787  1.00  0.00     0.006 A 
ENDBRANCH  39  56
ENDBRANCH  13  14
ENDBRANCH   6   8
ENDBRANCH   3   4
ENDBRANCH   2   3
ENDBRANCH   1   2
BRANCH   1  64
ATOM     64  C   UNL A   1      36.672  22.058  25.589  1.00  0.00     0.116 C 
BRANCH  64  65
ATOM     65  N   UNL A   1      35.804  22.288  26.728  1.00  0.00    -0.354 N 
ATOM     66  C   UNL A   1      34.597  22.922  26.827  1.00  0.00     0.243 C 
ATOM     67  H   UNL A   1      36.143  21.926  27.579  1.00  0.00     0.163 HD
ATOM     68  O   UNL A   1      33.955  22.729  27.865  1.00  0.00    -0.273 OA
BRANCH  66  69
ATOM     69  C   UNL A   1      33.942  23.652  25.635  1.00  0.00     0.183 C 
ATOM     70  C   UNL A   1      34.465  25.082  25.579  1.00  0.00     0.046 C 
ATOM     71  N   UNL A   1      32.498  23.754  25.739  1.00  0.00    -0.266 N 
ATOM     72  C   UNL A   1      33.256  25.925  25.233  1.00  0.00     0.103 C 
ATOM     73  C   UNL A   1      32.089  25.096  25.692  1.00  0.00     0.230 C 
ATOM     74  O   UNL A   1      31.009  25.576  25.996  1.00  0.00    -0.274 OA
BRANCH  71  75
ATOM     75  C   UNL A   1      31.764  22.571  25.689  1.00  0.00     0.253 C 
ATOM     76  O   UNL A   1      30.673  22.456  26.247  1.00  0.00    -0.269 OA
BRANCH  75  77
ATOM     77  C   UNL A   1      32.218  21.435  24.851  1.00  0.00     0.072 C 
ATOM     78  C   UNL A   1      32.565  20.221  25.299  1.00  0.00     0.014 C 
BRANCH  78  79
ATOM     79  C   UNL A   1      33.038  19.100  24.465  1.00  0.00    -0.025 A 
ATOM     80  C   UNL A   1      32.362  18.843  23.263  1.00  0.00     0.008 A 
ATOM     81  C   UNL A   1      34.100  18.256  24.818  1.00  0.00     0.008 A 
ATOM     82  C   UNL A   1      32.738  17.780  22.436  1.00  0.00     0.001 A 
ATOM     83  C   UNL A   1      34.478  17.192  23.992  1.00  0.00     0.001 A 
ATOM     84  C   UNL A   1      33.797  16.955  22.801  1.00  0.00     0.000 A 
ENDBRANCH  78  79
ENDBRANCH  75  77
ENDBRANCH  71  75
ENDBRANCH  66  69
ENDBRANCH  64  65
ENDBRANCH   1  64
TORSDOF 14
ENDMDL
MODEL 3
REMARK VINA RESULT:     -11.8      1.814      7.139
REMARK SMILES O=C(NCCCCNC(=O)[C@@H]1CCC(=O)N1C(=O)/C=C/c1ccccc1)c1ccc(-c2c3nc(c(-c4c(F)cccc4F)c4ccc([nH]4)c(-c4c(F)cccc4F)c4nc(c(-c5c(F)cccc5F)c5ccc2[nH]5)C=C4)C=C3)cc1
REMARK SMILES IDX 6 1 5 2 4 3 3 4 1 5 2 6 27 8 28 9 80 10 29 11 79 12 30 13
REMARK SMILES IDX 31 14 32 15 73 16 33 17 78 18 72 19 74 20 34 21 77 22 71 23
REMARK SMILES IDX 70 24 35 26 61 27 44 28 60 29 45 30 48 31 59 32 75 33 46 34
REMARK SMILES IDX 47 35 58 37 76 38 49 39 36 40 37 41 42 42 38 43 39 44 41 45
REMARK SMILES IDX 43 46 40 47 62 48 63 49 68 50 64 51 65 52 67 53 69 54 66 55
REMARK SMILES IDX 50 56 51 57 56 58 52 59 53 60 55 61 57 62 54 63 7 64 8 65
REMARK SMILES IDX 9 66 10 68 11 69 12 70 16 71 13 72 14 73 15 74 17 75 18 76
REMARK SMILES IDX 19 77 20 78 21 79 22 80 26 81 23 82 25 83 24 84
REMARK H PARENT 3 7 74 25 48 36 8 67
REMARK Flexibility Score: inf
ROOT
ATOM      1  C   UNL A   1      38.778  22.595  26.307  1.00  0.00     0.023 C 
ENDROOT
BRANCH   1   2
ATOM      2  C   UNL A   1      39.050  21.294  25.556  1.00  0.00     0.023 C 
BRANCH   2   3
ATOM      3  C   UNL A   1      39.471  20.124  26.433  1.00  0.00     0.116 C 
BRANCH   3   4
ATOM      4  N   UNL A   1      40.602  19.380  25.901  1.00  0.00    -0.352 N 
ATOM      5  O   UNL A   1      42.746  19.080  25.238  1.00  0.00    -0.269 OA
ATOM      6  C   UNL A   1      41.918  19.773  25.816  1.00  0.00     0.251 C 
ATOM      7  H   UNL A   1      40.400  18.480  25.557  1.00  0.00     0.163 HD
BRANCH   6   8
ATOM      8  C   UNL A   1      42.308  21.069  26.405  1.00  0.00     0.039 A 
ATOM      9  C   UNL A   1      42.317  21.231  27.791  1.00  0.00     0.014 A 
ATOM     10  C   UNL A   1      42.612  22.139  25.560  1.00  0.00     0.014 A 
ATOM     11  C   UNL A   1      42.481  22.499  28.330  1.00  0.00     0.010 A 
ATOM     12  C   UNL A   1      42.871  23.396  26.111  1.00  0.00     0.010 A 
ATOM     13  C   UNL A   1      42.778  23.592  27.497  1.00  0.00    -0.014 A 
BRANCH  13  14
ATOM     14  C   UNL A   1      43.057  24.911  28.114  1.00  0.00     0.031 A 
ATOM     15  C   UNL A   1      44.449  25.310  28.514  1.00  0.00     0.074 A 
ATOM     16  C   UNL A   1      42.028  25.761  28.288  1.00  0.00     0.049 A 
ATOM     17  N   UNL A   1      44.857  26.427  29.063  1.00  0.00    -0.248 NA
ATOM     18  C   UNL A   1      45.520  24.331  28.279  1.00  0.00     0.031 C 
ATOM     19  C   UNL A   1      40.632  25.474  27.946  1.00  0.00     0.029 A 
ATOM     20  N   UNL A   1      41.992  27.039  28.780  1.00  0.00    -0.354 N 
ATOM     21  C   UNL A   1      46.224  26.280  29.256  1.00  0.00     0.074 A 
ATOM     22  C   UNL A   1      46.574  24.956  28.789  1.00  0.00     0.031 C 
ATOM     23  C   UNL A   1      39.886  26.557  28.196  1.00  0.00     0.029 A 
ATOM     24  C   UNL A   1      40.734  27.589  28.780  1.00  0.00     0.049 A 
ATOM     25  H   UNL A   1      42.791  27.518  29.101  1.00  0.00     0.167 HD
ATOM     26  C   UNL A   1      47.104  27.172  29.772  1.00  0.00     0.037 A 
ATOM     27  C   UNL A   1      40.302  28.782  29.225  1.00  0.00     0.037 A 
ATOM     28  C   UNL A   1      46.745  28.494  30.224  1.00  0.00     0.049 A 
ATOM     29  C   UNL A   1      41.293  29.738  29.816  1.00  0.00     0.074 A 
ATOM     30  C   UNL A   1      47.569  29.488  30.725  1.00  0.00     0.029 A 
ATOM     31  N   UNL A   1      45.455  29.005  30.235  1.00  0.00    -0.354 N 
ATOM     32  N   UNL A   1      42.588  29.599  29.961  1.00  0.00    -0.248 NA
ATOM     33  C   UNL A   1      40.763  31.015  30.311  1.00  0.00     0.031 C 
ATOM     34  C   UNL A   1      46.771  30.579  31.086  1.00  0.00     0.029 A 
ATOM     35  C   UNL A   1      45.457  30.288  30.760  1.00  0.00     0.049 A 
ATOM     36  H   UNL A   1      44.655  28.526  29.916  1.00  0.00     0.167 HD
ATOM     37  C   UNL A   1      43.032  30.775  30.547  1.00  0.00     0.074 A 
ATOM     38  C   UNL A   1      41.870  31.623  30.711  1.00  0.00     0.031 C 
ATOM     39  C   UNL A   1      44.290  31.118  30.919  1.00  0.00     0.037 A 
BRANCH  26  40
ATOM     40  C   UNL A   1      48.539  26.747  29.898  1.00  0.00     0.057 A 
ATOM     41  C   UNL A   1      49.002  26.008  30.995  1.00  0.00     0.134 A 
ATOM     42  C   UNL A   1      49.459  27.037  28.882  1.00  0.00     0.134 A 
ATOM     43  F   UNL A   1      48.176  25.703  32.007  1.00  0.00    -0.206 F 
ATOM     44  C   UNL A   1      50.333  25.593  31.086  1.00  0.00     0.040 A 
ATOM     45  C   UNL A   1      50.785  26.606  28.949  1.00  0.00     0.040 A 
ATOM     46  F   UNL A   1      49.081  27.733  27.799  1.00  0.00    -0.206 F 
ATOM     47  C   UNL A   1      51.227  25.885  30.057  1.00  0.00     0.006 A 
ENDBRANCH  26  40
BRANCH  27  48
ATOM     48  C   UNL A   1      38.860  29.120  29.135  1.00  0.00     0.057 A 
ATOM     49  C   UNL A   1      38.024  29.032  30.253  1.00  0.00     0.134 A 
ATOM     50  C   UNL A   1      38.290  29.559  27.934  1.00  0.00     0.134 A 
ATOM     51  F   UNL A   1      38.509  28.605  31.429  1.00  0.00    -0.206 F 
ATOM     52  C   UNL A   1      36.668  29.357  30.176  1.00  0.00     0.040 A 
ATOM     53  C   UNL A   1      36.945  29.915  27.850  1.00  0.00     0.040 A 
ATOM     54  F   UNL A   1      39.044  29.676  26.830  1.00  0.00    -0.206 F 
ATOM     55  C   UNL A   1      36.128  29.807  28.974  1.00  0.00     0.006 A 
ENDBRANCH  27  48
BRANCH  39  56
ATOM     56  C   UNL A   1      44.470  32.483  31.516  1.00  0.00     0.057 A 
ATOM     57  C   UNL A   1      44.720  33.610  30.723  1.00  0.00     0.134 A 
ATOM     58  C   UNL A   1      44.372  32.672  32.900  1.00  0.00     0.134 A 
ATOM     59  F   UNL A   1      44.842  33.491  29.392  1.00  0.00    -0.206 F 
ATOM     60  C   UNL A   1      44.891  34.874  31.288  1.00  0.00     0.040 A 
ATOM     61  C   UNL A   1      44.515  33.935  33.474  1.00  0.00     0.040 A 
ATOM     62  F   UNL A   1      44.128  31.634  33.716  1.00  0.00    -0.206 F 
ATOM     63  C   UNL A   1      44.782  35.040  32.668  1.00  0.00     0.006 A 
ENDBRANCH  39  56
ENDBRANCH  13  14
ENDBRANCH   6   8
ENDBRANCH   3   4
ENDBRANCH   2   3
ENDBRANCH   1   2
BRANCH   1  64
ATOM     64  C   UNL A   1      37.679  23.456  25.694  1.00  0.00     0.116 C 
BRANCH  64  65
ATOM     65  N   UNL A   1      37.460  23.171  24.289  1.00  0.00    -0.354 N 
ATOM     66  C   UNL A   1      36.316  22.896  23.593  1.00  0.00     0.243 C 
ATOM     67  H   UNL A   1      38.277  23.174  23.740  1.00  0.00     0.163 HD
ATOM     68  O   UNL A   1      36.389  22.966  22.362  1.00  0.00    -0.273 OA
BRANCH  66  69
ATOM     69  C   UNL A   1      34.943  22.737  24.281  1.00  0.00     0.183 C 
ATOM     70  C   UNL A   1      34.794  21.301  24.767  1.00  0.00     0.046 C 
ATOM     71  N   UNL A   1      33.819  22.984  23.397  1.00  0.00    -0.266 N 
ATOM     72  C   UNL A   1      33.357  20.934  24.462  1.00  0.00     0.103 C 
ATOM     73  C   UNL A   1      32.973  21.865  23.345  1.00  0.00     0.230 C 
ATOM     74  O   UNL A   1      32.091  21.611  22.539  1.00  0.00    -0.274 OA
BRANCH  71  75
ATOM     75  C   UNL A   1      33.658  24.277  22.906  1.00  0.00     0.253 C 
ATOM     76  O   UNL A   1      33.463  24.501  21.711  1.00  0.00    -0.269 OA
BRANCH  75  77
ATOM     77  C   UNL A   1      33.592  25.433  23.831  1.00  0.00     0.072 C 
ATOM     78  C   UNL A   1      32.691  25.605  24.808  1.00  0.00     0.014 C 
BRANCH  78  79
ATOM     79  C   UNL A   1      32.616  26.768  25.711  1.00  0.00    -0.025 A 
ATOM     80  C   UNL A   1      33.693  27.667  25.720  1.00  0.00     0.008 A 
ATOM     81  C   UNL A   1      31.547  27.011  26.586  1.00  0.00     0.008 A 
ATOM     82  C   UNL A   1      33.702  28.776  26.572  1.00  0.00     0.001 A 
ATOM     83  C   UNL A   1      31.554  28.121  27.439  1.00  0.00     0.001 A 
ATOM     84  C   UNL A   1      32.631  29.002  27.431  1.00  0.00     0.000 A 
ENDBRANCH  78  79
ENDBRANCH  75  77
ENDBRANCH  71  75
ENDBRANCH  66  69
ENDBRANCH  64  65
ENDBRANCH   1  64
TORSDOF 14
ENDMDL
