MODEL 1
REMARK VINA RESULT:     -12.4      0.000      0.000
REMARK SMILES O=C(NCCCCNC(=O)c1cccn1CC(=O)N1CC[C@H]2CCCC[C@H]2C1)c1ccc(-c2c3nc(c(-c4c(F)cccc4F)c4ccc([nH]4)c(-c4c(F)cccc4F)c4nc(c(-c5c(F)cccc5F)c5ccc2[nH]5)C=C4)C=C3)cc1
REMARK SMILES IDX 6 1 5 2 4 3 3 4 1 5 2 6 29 8 30 9 82 10 31 11 81 12 32 13
REMARK SMILES IDX 33 14 34 15 75 16 35 17 80 18 74 19 76 20 36 21 79 22 73 23
REMARK SMILES IDX 72 24 37 26 63 27 46 28 62 29 47 30 50 31 61 32 77 33 48 34
REMARK SMILES IDX 49 35 60 37 78 38 51 39 38 40 39 41 44 42 40 43 41 44 43 45
REMARK SMILES IDX 45 46 42 47 64 48 65 49 70 50 66 51 67 52 69 53 71 54 68 55
REMARK SMILES IDX 52 56 53 57 58 58 54 59 55 60 57 61 59 62 56 63 7 64 8 65
REMARK SMILES IDX 9 66 10 68 11 69 12 70 15 71 13 72 14 73 16 74 17 75 18 76
REMARK SMILES IDX 19 77 20 78 28 79 21 80 27 81 22 82 26 83 23 84 25 85 24 86
REMARK H PARENT 3 7 76 25 50 36 8 67
REMARK Flexibility Score: inf
ROOT
ATOM      1  C   UNL A   1      37.208  21.880  24.680  1.00  0.00     0.023 C 
ENDROOT
BRANCH   1   2
ATOM      2  C   UNL A   1      36.677  23.267  25.014  1.00  0.00     0.023 C 
BRANCH   2   3
ATOM      3  C   UNL A   1      37.478  24.034  26.057  1.00  0.00     0.116 C 
BRANCH   3   4
ATOM      4  N   UNL A   1      38.912  23.807  26.041  1.00  0.00    -0.352 N 
ATOM      5  O   UNL A   1      41.069  23.789  26.553  1.00  0.00    -0.269 OA
ATOM      6  C   UNL A   1      39.987  24.366  26.682  1.00  0.00     0.251 C 
ATOM      7  H   UNL A   1      39.173  23.084  25.427  1.00  0.00     0.163 HD
BRANCH   6   8
ATOM      8  C   UNL A   1      39.951  25.643  27.449  1.00  0.00     0.039 A 
ATOM      9  C   UNL A   1      39.509  25.769  28.763  1.00  0.00     0.014 A 
ATOM     10  C   UNL A   1      40.401  26.801  26.781  1.00  0.00     0.014 A 
ATOM     11  C   UNL A   1      39.402  27.021  29.360  1.00  0.00     0.010 A 
ATOM     12  C   UNL A   1      40.346  28.059  27.389  1.00  0.00     0.010 A 
ATOM     13  C   UNL A   1      39.830  28.169  28.681  1.00  0.00    -0.014 A 
BRANCH  13  14
ATOM     14  C   UNL A   1      39.952  29.405  29.490  1.00  0.00     0.031 A 
ATOM     15  C   UNL A   1      38.706  30.298  29.300  1.00  0.00     0.074 A 
ATOM     16  C   UNL A   1      41.130  29.629  30.153  1.00  0.00     0.049 A 
ATOM     17  N   UNL A   1      38.608  31.592  29.258  1.00  0.00    -0.248 NA
ATOM     18  C   UNL A   1      37.392  29.656  29.014  1.00  0.00     0.031 C 
ATOM     19  C   UNL A   1      42.222  28.640  30.289  1.00  0.00     0.029 A 
ATOM     20  N   UNL A   1      41.663  30.710  30.835  1.00  0.00    -0.354 N 
ATOM     21  C   UNL A   1      37.233  31.913  29.156  1.00  0.00     0.074 A 
ATOM     22  C   UNL A   1      36.554  30.687  28.873  1.00  0.00     0.031 C 
ATOM     23  C   UNL A   1      43.289  29.177  30.923  1.00  0.00     0.029 A 
ATOM     24  C   UNL A   1      43.015  30.561  31.265  1.00  0.00     0.049 A 
ATOM     25  H   UNL A   1      41.143  31.528  31.010  1.00  0.00     0.167 HD
ATOM     26  C   UNL A   1      36.731  33.148  29.461  1.00  0.00     0.037 A 
ATOM     27  C   UNL A   1      43.861  31.489  31.822  1.00  0.00     0.037 A 
ATOM     28  C   UNL A   1      37.793  34.012  29.842  1.00  0.00     0.049 A 
ATOM     29  C   UNL A   1      43.031  32.673  32.052  1.00  0.00     0.074 A 
ATOM     30  C   UNL A   1      38.806  34.598  29.133  1.00  0.00     0.029 A 
ATOM     31  N   UNL A   1      38.083  34.059  31.183  1.00  0.00    -0.354 N 
ATOM     32  N   UNL A   1      42.163  32.782  33.010  1.00  0.00    -0.248 NA
ATOM     33  C   UNL A   1      43.159  33.819  31.143  1.00  0.00     0.031 C 
ATOM     34  C   UNL A   1      39.891  34.546  30.028  1.00  0.00     0.029 A 
ATOM     35  C   UNL A   1      39.443  34.154  31.296  1.00  0.00     0.049 A 
ATOM     36  H   UNL A   1      37.435  34.030  31.923  1.00  0.00     0.167 HD
ATOM     37  C   UNL A   1      41.406  33.842  32.585  1.00  0.00     0.074 A 
ATOM     38  C   UNL A   1      42.233  34.610  31.680  1.00  0.00     0.031 C 
ATOM     39  C   UNL A   1      40.061  33.680  32.510  1.00  0.00     0.037 A 
BRANCH  26  40
ATOM     40  C   UNL A   1      35.339  33.655  29.728  1.00  0.00     0.057 A 
ATOM     41  C   UNL A   1      34.686  34.387  28.705  1.00  0.00     0.134 A 
ATOM     42  C   UNL A   1      34.788  33.780  31.007  1.00  0.00     0.134 A 
ATOM     43  F   UNL A   1      35.097  34.309  27.428  1.00  0.00    -0.206 F 
ATOM     44  C   UNL A   1      33.656  35.293  28.962  1.00  0.00     0.040 A 
ATOM     45  C   UNL A   1      33.719  34.650  31.267  1.00  0.00     0.040 A 
ATOM     46  F   UNL A   1      35.318  33.148  32.061  1.00  0.00    -0.206 F 
ATOM     47  C   UNL A   1      33.181  35.442  30.255  1.00  0.00     0.006 A 
ENDBRANCH  26  40
BRANCH  27  48
ATOM     48  C   UNL A   1      45.316  31.675  32.215  1.00  0.00     0.057 A 
ATOM     49  C   UNL A   1      45.815  31.832  33.508  1.00  0.00     0.134 A 
ATOM     50  C   UNL A   1      46.342  31.590  31.221  1.00  0.00     0.134 A 
ATOM     51  F   UNL A   1      44.998  32.025  34.550  1.00  0.00    -0.206 F 
ATOM     52  C   UNL A   1      47.200  31.801  33.794  1.00  0.00     0.040 A 
ATOM     53  C   UNL A   1      47.710  31.500  31.493  1.00  0.00     0.040 A 
ATOM     54  F   UNL A   1      46.065  31.581  29.908  1.00  0.00    -0.206 F 
ATOM     55  C   UNL A   1      48.147  31.590  32.796  1.00  0.00     0.006 A 
ENDBRANCH  27  48
BRANCH  39  56
ATOM     56  C   UNL A   1      39.513  32.641  33.478  1.00  0.00     0.057 A 
ATOM     57  C   UNL A   1      38.892  31.482  32.987  1.00  0.00     0.134 A 
ATOM     58  C   UNL A   1      39.439  32.814  34.868  1.00  0.00     0.134 A 
ATOM     59  F   UNL A   1      38.918  31.210  31.674  1.00  0.00    -0.206 F 
ATOM     60  C   UNL A   1      38.212  30.582  33.821  1.00  0.00     0.040 A 
ATOM     61  C   UNL A   1      38.771  31.921  35.718  1.00  0.00     0.040 A 
ATOM     62  F   UNL A   1      40.001  33.867  35.454  1.00  0.00    -0.206 F 
ATOM     63  C   UNL A   1      38.143  30.803  35.192  1.00  0.00     0.006 A 
ENDBRANCH  39  56
ENDBRANCH  13  14
ENDBRANCH   6   8
ENDBRANCH   3   4
ENDBRANCH   2   3
ENDBRANCH   1   2
BRANCH   1  64
ATOM     64  C   UNL A   1      36.231  20.713  24.835  1.00  0.00     0.116 C 
BRANCH  64  65
ATOM     65  N   UNL A   1      35.393  20.842  26.014  1.00  0.00    -0.351 N 
ATOM     66  C   UNL A   1      34.119  21.339  26.162  1.00  0.00     0.267 C 
ATOM     67  H   UNL A   1      35.806  20.520  26.847  1.00  0.00     0.163 HD
ATOM     68  O   UNL A   1      33.701  21.460  27.310  1.00  0.00    -0.268 OA
BRANCH  66  69
ATOM     69  C   UNL A   1      33.335  21.705  24.998  1.00  0.00     0.107 A 
ATOM     70  C   UNL A   1      32.817  20.879  24.007  1.00  0.00     0.033 A 
ATOM     71  N   UNL A   1      32.868  22.986  24.716  1.00  0.00    -0.334 N 
ATOM     72  C   UNL A   1      32.029  21.661  23.132  1.00  0.00     0.020 A 
ATOM     73  C   UNL A   1      32.050  22.950  23.609  1.00  0.00     0.087 A 
BRANCH  71  74
ATOM     74  C   UNL A   1      33.123  24.191  25.495  1.00  0.00     0.222 C 
BRANCH  74  75
ATOM     75  C   UNL A   1      31.977  24.838  26.270  1.00  0.00     0.242 C 
ATOM     76  O   UNL A   1      31.466  24.205  27.203  1.00  0.00    -0.273 OA
BRANCH  75  77
ATOM     77  N   UNL A   1      31.697  26.184  26.112  1.00  0.00    -0.341 N 
ATOM     78  C   UNL A   1      30.712  26.757  25.218  1.00  0.00     0.120 C 
ATOM     79  C   UNL A   1      32.431  27.185  26.885  1.00  0.00     0.123 C 
ATOM     80  C   UNL A   1      31.423  27.592  24.177  1.00  0.00     0.025 C 
ATOM     81  C   UNL A   1      33.185  28.128  25.916  1.00  0.00     0.012 C 
ATOM     82  C   UNL A   1      32.281  28.704  24.806  1.00  0.00    -0.005 C 
ATOM     83  C   UNL A   1      33.912  29.271  26.624  1.00  0.00     0.006 C 
ATOM     84  C   UNL A   1      31.387  29.879  25.232  1.00  0.00     0.004 C 
ATOM     85  C   UNL A   1      32.946  30.235  27.290  1.00  0.00     0.000 C 
ATOM     86  C   UNL A   1      31.884  30.790  26.350  1.00  0.00     0.000 C 
ENDBRANCH  75  77
ENDBRANCH  74  75
ENDBRANCH  71  74
ENDBRANCH  66  69
ENDBRANCH  64  65
ENDBRANCH   1  64
TORSDOF 14
ENDMDL
MODEL 2
REMARK VINA RESULT:     -12.4      3.793      6.023
REMARK SMILES O=C(NCCCCNC(=O)c1cccn1CC(=O)N1CC[C@H]2CCCC[C@H]2C1)c1ccc(-c2c3nc(c(-c4c(F)cccc4F)c4ccc([nH]4)c(-c4c(F)cccc4F)c4nc(c(-c5c(F)cccc5F)c5ccc2[nH]5)C=C4)C=C3)cc1
REMARK SMILES IDX 6 1 5 2 4 3 3 4 1 5 2 6 29 8 30 9 82 10 31 11 81 12 32 13
REMARK SMILES IDX 33 14 34 15 75 16 35 17 80 18 74 19 76 20 36 21 79 22 73 23
REMARK SMILES IDX 72 24 37 26 63 27 46 28 62 29 47 30 50 31 61 32 77 33 48 34
REMARK SMILES IDX 49 35 60 37 78 38 51 39 38 40 39 41 44 42 40 43 41 44 43 45
REMARK SMILES IDX 45 46 42 47 64 48 65 49 70 50 66 51 67 52 69 53 71 54 68 55
REMARK SMILES IDX 52 56 53 57 58 58 54 59 55 60 57 61 59 62 56 63 7 64 8 65
REMARK SMILES IDX 9 66 10 68 11 69 12 70 15 71 13 72 14 73 16 74 17 75 18 76
REMARK SMILES IDX 19 77 20 78 28 79 21 80 27 81 22 82 26 83 23 84 25 85 24 86
REMARK H PARENT 3 7 76 25 50 36 8 67
REMARK Flexibility Score: inf
ROOT
ATOM      1  C   UNL A   1      36.843  21.052  24.598  1.00  0.00     0.023 C 
ENDROOT
BRANCH   1   2
ATOM      2  C   UNL A   1      37.874  19.934  24.649  1.00  0.00     0.023 C 
BRANCH   2   3
ATOM      3  C   UNL A   1      38.773  19.936  25.878  1.00  0.00     0.116 C 
BRANCH   3   4
ATOM      4  N   UNL A   1      40.004  19.176  25.757  1.00  0.00    -0.352 N 
ATOM      5  O   UNL A   1      42.086  18.447  25.987  1.00  0.00    -0.269 OA
ATOM      6  C   UNL A   1      41.319  19.409  26.069  1.00  0.00     0.251 C 
ATOM      7  H   UNL A   1      39.863  18.288  25.358  1.00  0.00     0.163 HD
BRANCH   6   8
ATOM      8  C   UNL A   1      41.887  20.741  26.420  1.00  0.00     0.039 A 
ATOM      9  C   UNL A   1      42.293  21.701  25.498  1.00  0.00     0.014 A 
ATOM     10  C   UNL A   1      42.019  21.036  27.794  1.00  0.00     0.014 A 
ATOM     11  C   UNL A   1      42.920  22.870  25.918  1.00  0.00     0.010 A 
ATOM     12  C   UNL A   1      42.603  22.230  28.228  1.00  0.00     0.010 A 
ATOM     13  C   UNL A   1      43.067  23.144  27.283  1.00  0.00    -0.014 A 
BRANCH  13  14
ATOM     14  C   UNL A   1      43.475  24.525  27.636  1.00  0.00     0.031 A 
ATOM     15  C   UNL A   1      42.234  25.433  27.781  1.00  0.00     0.074 A 
ATOM     16  C   UNL A   1      44.814  24.816  27.660  1.00  0.00     0.049 A 
ATOM     17  N   UNL A   1      42.076  26.683  27.471  1.00  0.00    -0.248 NA
ATOM     18  C   UNL A   1      40.950  24.835  28.245  1.00  0.00     0.031 C 
ATOM     19  C   UNL A   1      45.897  23.814  27.556  1.00  0.00     0.029 A 
ATOM     20  N   UNL A   1      45.545  25.988  27.765  1.00  0.00    -0.354 N 
ATOM     21  C   UNL A   1      40.779  27.067  27.887  1.00  0.00     0.074 A 
ATOM     22  C   UNL A   1      40.093  25.859  28.227  1.00  0.00     0.031 C 
ATOM     23  C   UNL A   1      47.111  24.410  27.525  1.00  0.00     0.029 A 
ATOM     24  C   UNL A   1      46.955  25.851  27.603  1.00  0.00     0.049 A 
ATOM     25  H   UNL A   1      45.118  26.859  27.938  1.00  0.00     0.167 HD
ATOM     26  C   UNL A   1      40.407  28.371  28.065  1.00  0.00     0.037 A 
ATOM     27  C   UNL A   1      47.921  26.823  27.504  1.00  0.00     0.037 A 
ATOM     28  C   UNL A   1      41.495  29.224  27.736  1.00  0.00     0.049 A 
ATOM     29  C   UNL A   1      47.224  28.083  27.768  1.00  0.00     0.074 A 
ATOM     30  C   UNL A   1      42.084  29.553  26.545  1.00  0.00     0.029 A 
ATOM     31  N   UNL A   1      42.330  29.567  28.771  1.00  0.00    -0.354 N 
ATOM     32  N   UNL A   1      46.846  28.475  28.945  1.00  0.00    -0.248 NA
ATOM     33  C   UNL A   1      46.905  28.970  26.642  1.00  0.00     0.031 C 
ATOM     34  C   UNL A   1      43.448  29.639  26.878  1.00  0.00     0.029 A 
ATOM     35  C   UNL A   1      43.602  29.590  28.270  1.00  0.00     0.049 A 
ATOM     36  H   UNL A   1      42.062  29.759  29.699  1.00  0.00     0.167 HD
ATOM     37  C   UNL A   1      45.939  29.455  28.638  1.00  0.00     0.074 A 
ATOM     38  C   UNL A   1      46.267  29.928  27.310  1.00  0.00     0.031 C 
ATOM     39  C   UNL A   1      44.699  29.375  29.182  1.00  0.00     0.037 A 
BRANCH  26  40
ATOM     40  C   UNL A   1      39.245  29.023  28.765  1.00  0.00     0.057 A 
ATOM     41  C   UNL A   1      39.082  28.783  30.153  1.00  0.00     0.134 A 
ATOM     42  C   UNL A   1      38.126  29.536  28.104  1.00  0.00     0.134 A 
ATOM     43  F   UNL A   1      40.102  28.334  30.903  1.00  0.00    -0.206 F 
ATOM     44  C   UNL A   1      37.852  28.904  30.802  1.00  0.00     0.040 A 
ATOM     45  C   UNL A   1      36.898  29.709  28.759  1.00  0.00     0.040 A 
ATOM     46  F   UNL A   1      38.148  29.796  26.791  1.00  0.00    -0.206 F 
ATOM     47  C   UNL A   1      36.745  29.350  30.097  1.00  0.00     0.006 A 
ENDBRANCH  26  40
BRANCH  27  48
ATOM     48  C   UNL A   1      49.396  26.994  27.184  1.00  0.00     0.057 A 
ATOM     49  C   UNL A   1      50.379  27.494  28.037  1.00  0.00     0.134 A 
ATOM     50  C   UNL A   1      49.917  26.524  25.936  1.00  0.00     0.134 A 
ATOM     51  F   UNL A   1      50.063  28.062  29.206  1.00  0.00    -0.206 F 
ATOM     52  C   UNL A   1      51.757  27.432  27.722  1.00  0.00     0.040 A 
ATOM     53  C   UNL A   1      51.276  26.404  25.635  1.00  0.00     0.040 A 
ATOM     54  F   UNL A   1      49.119  26.141  24.928  1.00  0.00    -0.206 F 
ATOM     55  C   UNL A   1      52.211  26.848  26.544  1.00  0.00     0.006 A 
ENDBRANCH  27  48
BRANCH  39  56
ATOM     56  C   UNL A   1      44.659  28.636  30.512  1.00  0.00     0.057 A 
ATOM     57  C   UNL A   1      45.368  29.135  31.615  1.00  0.00     0.134 A 
ATOM     58  C   UNL A   1      44.074  27.375  30.701  1.00  0.00     0.134 A 
ATOM     59  F   UNL A   1      45.952  30.341  31.549  1.00  0.00    -0.206 F 
ATOM     60  C   UNL A   1      45.516  28.410  32.807  1.00  0.00     0.040 A 
ATOM     61  C   UNL A   1      44.204  26.638  31.887  1.00  0.00     0.040 A 
ATOM     62  F   UNL A   1      43.365  26.801  29.733  1.00  0.00    -0.206 F 
ATOM     63  C   UNL A   1      44.938  27.152  32.944  1.00  0.00     0.006 A 
ENDBRANCH  39  56
ENDBRANCH  13  14
ENDBRANCH   6   8
ENDBRANCH   3   4
ENDBRANCH   2   3
ENDBRANCH   1   2
BRANCH   1  64
ATOM     64  C   UNL A   1      35.437  20.716  25.097  1.00  0.00     0.116 C 
BRANCH  64  65
ATOM     65  N   UNL A   1      34.976  21.635  26.123  1.00  0.00    -0.351 N 
ATOM     66  C   UNL A   1      34.295  22.825  26.024  1.00  0.00     0.267 C 
ATOM     67  H   UNL A   1      35.187  21.360  27.044  1.00  0.00     0.163 HD
ATOM     68  O   UNL A   1      34.156  23.473  27.057  1.00  0.00    -0.268 OA
BRANCH  66  69
ATOM     69  C   UNL A   1      33.786  23.274  24.740  1.00  0.00     0.107 A 
ATOM     70  C   UNL A   1      34.499  23.699  23.626  1.00  0.00     0.033 A 
ATOM     71  N   UNL A   1      32.447  23.263  24.361  1.00  0.00    -0.334 N 
ATOM     72  C   UNL A   1      33.591  23.935  22.569  1.00  0.00     0.020 A 
ATOM     73  C   UNL A   1      32.336  23.628  23.038  1.00  0.00     0.087 A 
BRANCH  71  74
ATOM     74  C   UNL A   1      31.316  22.860  25.187  1.00  0.00     0.222 C 
BRANCH  74  75
ATOM     75  C   UNL A   1      30.778  23.826  26.240  1.00  0.00     0.242 C 
ATOM     76  O   UNL A   1      30.537  23.389  27.373  1.00  0.00    -0.273 OA
BRANCH  75  77
ATOM     77  N   UNL A   1      30.812  25.192  26.019  1.00  0.00    -0.341 N 
ATOM     78  C   UNL A   1      29.897  25.950  25.191  1.00  0.00     0.120 C 
ATOM     79  C   UNL A   1      31.847  26.014  26.644  1.00  0.00     0.123 C 
ATOM     80  C   UNL A   1      30.663  26.541  24.028  1.00  0.00     0.025 C 
ATOM     81  C   UNL A   1      32.689  26.702  25.541  1.00  0.00     0.012 C 
ATOM     82  C   UNL A   1      31.828  27.434  24.490  1.00  0.00    -0.005 C 
ATOM     83  C   UNL A   1      33.743  27.661  26.092  1.00  0.00     0.006 C 
ATOM     84  C   UNL A   1      31.295  28.810  24.922  1.00  0.00     0.004 C 
ATOM     85  C   UNL A   1      33.119  28.859  26.784  1.00  0.00     0.000 C 
ATOM     86  C   UNL A   1      32.120  29.618  25.919  1.00  0.00     0.000 C 
ENDBRANCH  75  77
ENDBRANCH  74  75
ENDBRANCH  71  74
ENDBRANCH  66  69
ENDBRANCH  64  65
ENDBRANCH   1  64
TORSDOF 14
ENDMDL
MODEL 3
REMARK VINA RESULT:     -12.3      3.363      7.368
REMARK SMILES O=C(NCCCCNC(=O)c1cccn1CC(=O)N1CC[C@H]2CCCC[C@H]2C1)c1ccc(-c2c3nc(c(-c4c(F)cccc4F)c4ccc([nH]4)c(-c4c(F)cccc4F)c4nc(c(-c5c(F)cccc5F)c5ccc2[nH]5)C=C4)C=C3)cc1
REMARK SMILES IDX 6 1 5 2 4 3 3 4 1 5 2 6 29 8 30 9 82 10 31 11 81 12 32 13
REMARK SMILES IDX 33 14 34 15 75 16 35 17 80 18 74 19 76 20 36 21 79 22 73 23
REMARK SMILES IDX 72 24 37 26 63 27 46 28 62 29 47 30 50 31 61 32 77 33 48 34
REMARK SMILES IDX 49 35 60 37 78 38 51 39 38 40 39 41 44 42 40 43 41 44 43 45
REMARK SMILES IDX 45 46 42 47 64 48 65 49 70 50 66 51 67 52 69 53 71 54 68 55
REMARK SMILES IDX 52 56 53 57 58 58 54 59 55 60 57 61 59 62 56 63 7 64 8 65
REMARK SMILES IDX 9 66 10 68 11 69 12 70 15 71 13 72 14 73 16 74 17 75 18 76
REMARK SMILES IDX 19 77 20 78 28 79 21 80 27 81 22 82 26 83 23 84 25 85 24 86
REMARK H PARENT 3 7 76 25 50 36 8 67
REMARK Flexibility Score: inf
ROOT
ATOM      1  C   UNL A   1      33.131  29.457  24.766  1.00  0.00     0.023 C 
ENDROOT
BRANCH   1   2
ATOM      2  C   UNL A   1      33.373  28.381  25.815  1.00  0.00     0.023 C 
BRANCH   2   3
ATOM      3  C   UNL A   1      32.879  28.718  27.215  1.00  0.00     0.116 C 
BRANCH   3   4
ATOM      4  N   UNL A   1      32.995  30.112  27.604  1.00  0.00    -0.352 N 
ATOM      5  O   UNL A   1      33.777  32.140  28.042  1.00  0.00    -0.269 OA
ATOM      6  C   UNL A   1      34.037  30.940  27.934  1.00  0.00     0.251 C 
ATOM      7  H   UNL A   1      32.125  30.569  27.639  1.00  0.00     0.163 HD
BRANCH   6   8
ATOM      8  C   UNL A   1      35.423  30.485  28.239  1.00  0.00     0.039 A 
ATOM      9  C   UNL A   1      36.448  30.374  27.303  1.00  0.00     0.014 A 
ATOM     10  C   UNL A   1      35.702  30.142  29.579  1.00  0.00     0.014 A 
ATOM     11  C   UNL A   1      37.678  29.830  27.657  1.00  0.00     0.010 A 
ATOM     12  C   UNL A   1      36.951  29.641  29.956  1.00  0.00     0.010 A 
ATOM     13  C   UNL A   1      37.939  29.472  28.985  1.00  0.00    -0.014 A 
BRANCH  13  14
ATOM     14  C   UNL A   1      39.353  29.179  29.322  1.00  0.00     0.031 A 
ATOM     15  C   UNL A   1      40.073  30.465  29.783  1.00  0.00     0.074 A 
ATOM     16  C   UNL A   1      39.827  27.917  29.076  1.00  0.00     0.049 A 
ATOM     17  N   UNL A   1      41.298  30.848  29.587  1.00  0.00    -0.248 NA
ATOM     18  C   UNL A   1      39.289  31.526  30.476  1.00  0.00     0.031 C 
ATOM     19  C   UNL A   1      38.988  26.763  28.684  1.00  0.00     0.029 A 
ATOM     20  N   UNL A   1      41.086  27.340  29.090  1.00  0.00    -0.354 N 
ATOM     21  C   UNL A   1      41.485  32.061  30.293  1.00  0.00     0.074 A 
ATOM     22  C   UNL A   1      40.184  32.492  30.701  1.00  0.00     0.031 C 
ATOM     23  C   UNL A   1      39.749  25.674  28.428  1.00  0.00     0.029 A 
ATOM     24  C   UNL A   1      41.152  25.995  28.621  1.00  0.00     0.049 A 
ATOM     25  H   UNL A   1      41.883  27.828  29.401  1.00  0.00     0.167 HD
ATOM     26  C   UNL A   1      42.719  32.551  30.622  1.00  0.00     0.037 A 
ATOM     27  C   UNL A   1      42.251  25.209  28.374  1.00  0.00     0.037 A 
ATOM     28  C   UNL A   1      43.724  31.682  30.118  1.00  0.00     0.049 A 
ATOM     29  C   UNL A   1      43.393  25.989  28.854  1.00  0.00     0.074 A 
ATOM     30  C   UNL A   1      44.166  31.418  28.849  1.00  0.00     0.029 A 
ATOM     31  N   UNL A   1      44.151  30.692  30.968  1.00  0.00    -0.354 N 
ATOM     32  N   UNL A   1      43.696  26.146  30.106  1.00  0.00    -0.248 NA
ATOM     33  C   UNL A   1      44.259  26.661  27.876  1.00  0.00     0.031 C 
ATOM     34  C   UNL A   1      44.432  30.037  28.887  1.00  0.00     0.029 A 
ATOM     35  C   UNL A   1      44.365  29.575  30.208  1.00  0.00     0.049 A 
ATOM     36  H   UNL A   1      44.278  30.771  31.941  1.00  0.00     0.167 HD
ATOM     37  C   UNL A   1      44.548  27.218  30.058  1.00  0.00     0.074 A 
ATOM     38  C   UNL A   1      45.099  27.254  28.720  1.00  0.00     0.031 C 
ATOM     39  C   UNL A   1      44.280  28.286  30.849  1.00  0.00     0.037 A 
BRANCH  26  40
ATOM     40  C   UNL A   1      43.182  33.604  31.592  1.00  0.00     0.057 A 
ATOM     41  C   UNL A   1      42.843  33.449  32.959  1.00  0.00     0.134 A 
ATOM     42  C   UNL A   1      43.593  34.885  31.213  1.00  0.00     0.134 A 
ATOM     43  F   UNL A   1      42.478  32.253  33.450  1.00  0.00    -0.206 F 
ATOM     44  C   UNL A   1      42.774  34.523  33.848  1.00  0.00     0.040 A 
ATOM     45  C   UNL A   1      43.576  35.962  32.112  1.00  0.00     0.040 A 
ATOM     46  F   UNL A   1      43.930  35.165  29.948  1.00  0.00    -0.206 F 
ATOM     47  C   UNL A   1      43.123  35.793  33.418  1.00  0.00     0.006 A 
ENDBRANCH  26  40
BRANCH  27  48
ATOM     48  C   UNL A   1      42.635  23.876  27.756  1.00  0.00     0.057 A 
ATOM     49  C   UNL A   1      42.813  22.668  28.429  1.00  0.00     0.134 A 
ATOM     50  C   UNL A   1      42.745  23.751  26.334  1.00  0.00     0.134 A 
ATOM     51  F   UNL A   1      42.839  22.613  29.765  1.00  0.00    -0.206 F 
ATOM     52  C   UNL A   1      42.977  21.439  27.749  1.00  0.00     0.040 A 
ATOM     53  C   UNL A   1      42.848  22.539  25.647  1.00  0.00     0.040 A 
ATOM     54  F   UNL A   1      42.748  24.819  25.522  1.00  0.00    -0.206 F 
ATOM     55  C   UNL A   1      42.950  21.365  26.359  1.00  0.00     0.006 A 
ENDBRANCH  27  48
BRANCH  39  56
ATOM     56  C   UNL A   1      43.505  27.936  32.112  1.00  0.00     0.057 A 
ATOM     57  C   UNL A   1      44.059  27.057  33.056  1.00  0.00     0.134 A 
ATOM     58  C   UNL A   1      42.176  28.311  32.356  1.00  0.00     0.134 A 
ATOM     59  F   UNL A   1      45.330  26.648  32.927  1.00  0.00    -0.206 F 
ATOM     60  C   UNL A   1      43.325  26.558  34.142  1.00  0.00     0.040 A 
ATOM     61  C   UNL A   1      41.428  27.830  33.440  1.00  0.00     0.040 A 
ATOM     62  F   UNL A   1      41.544  29.151  31.540  1.00  0.00    -0.206 F 
ATOM     63  C   UNL A   1      42.002  26.939  34.335  1.00  0.00     0.006 A 
ENDBRANCH  39  56
ENDBRANCH  13  14
ENDBRANCH   6   8
ENDBRANCH   3   4
ENDBRANCH   2   3
ENDBRANCH   1   2
BRANCH   1  64
ATOM     64  C   UNL A   1      33.207  29.022  23.302  1.00  0.00     0.116 C 
BRANCH  64  65
ATOM     65  N   UNL A   1      32.013  29.376  22.554  1.00  0.00    -0.351 N 
ATOM     66  C   UNL A   1      30.808  28.728  22.423  1.00  0.00     0.267 C 
ATOM     67  H   UNL A   1      32.078  30.224  22.058  1.00  0.00     0.163 HD
ATOM     68  O   UNL A   1      30.016  29.188  21.605  1.00  0.00    -0.268 OA
BRANCH  66  69
ATOM     69  C   UNL A   1      30.519  27.550  23.219  1.00  0.00     0.107 A 
ATOM     70  C   UNL A   1      29.820  27.463  24.418  1.00  0.00     0.033 A 
ATOM     71  N   UNL A   1      30.821  26.241  22.853  1.00  0.00    -0.334 N 
ATOM     72  C   UNL A   1      29.692  26.101  24.771  1.00  0.00     0.020 A 
ATOM     73  C   UNL A   1      30.289  25.366  23.774  1.00  0.00     0.087 A 
BRANCH  71  74
ATOM     74  C   UNL A   1      31.525  25.819  21.648  1.00  0.00     0.222 C 
BRANCH  74  75
ATOM     75  C   UNL A   1      33.022  25.527  21.722  1.00  0.00     0.242 C 
ATOM     76  O   UNL A   1      33.812  26.400  21.340  1.00  0.00    -0.273 OA
BRANCH  75  77
ATOM     77  N   UNL A   1      33.489  24.437  22.437  1.00  0.00    -0.341 N 
ATOM     78  C   UNL A   1      33.321  23.043  22.081  1.00  0.00     0.120 C 
ATOM     79  C   UNL A   1      34.224  24.634  23.685  1.00  0.00     0.123 C 
ATOM     80  C   UNL A   1      32.469  22.369  23.134  1.00  0.00     0.025 C 
ATOM     81  C   UNL A   1      33.456  23.954  24.845  1.00  0.00     0.012 C 
ATOM     82  C   UNL A   1      33.076  22.490  24.543  1.00  0.00    -0.005 C 
ATOM     83  C   UNL A   1      34.191  24.023  26.182  1.00  0.00     0.006 C 
ATOM     84  C   UNL A   1      34.211  21.469  24.715  1.00  0.00     0.004 C 
ATOM     85  C   UNL A   1      35.481  23.222  26.166  1.00  0.00     0.000 C 
ATOM     86  C   UNL A   1      35.298  21.771  25.741  1.00  0.00     0.000 C 
ENDBRANCH  75  77
ENDBRANCH  74  75
ENDBRANCH  71  74
ENDBRANCH  66  69
ENDBRANCH  64  65
ENDBRANCH   1  64
TORSDOF 14
ENDMDL
