MODEL 1
REMARK VINA RESULT:     -12.3      0.000      0.000
REMARK SMILES O=C(NCCCCNC(=O)c1c(C(=O)N2CCc3ccccc32)cccc1[N+](=O)[O-])c1ccc(-c2c3nc(c(-c4c(F)cccc4F)c4ccc([nH]4)c(-c4c(F)cccc4F)c4nc(c(-c5c(F)cccc5F)c5ccc2[nH]5)C=C4)C=C3)cc1
REMARK SMILES IDX 5 1 4 2 3 3 1 4 2 5 31 7 32 8 84 9 33 10 83 11 34 12 35 13
REMARK SMILES IDX 36 14 77 15 37 16 82 17 76 18 78 19 38 20 81 21 75 22 74 23
REMARK SMILES IDX 39 25 65 26 48 27 64 28 49 29 52 30 63 31 79 32 50 33 51 34
REMARK SMILES IDX 62 36 80 37 53 38 40 39 41 40 46 41 42 42 43 43 45 44 47 45
REMARK SMILES IDX 44 46 66 47 67 48 72 49 68 50 69 51 71 52 73 53 70 54 54 55
REMARK SMILES IDX 55 56 60 57 56 58 57 59 59 60 61 61 58 62 6 63 7 64 8 65
REMARK SMILES IDX 9 66 10 68 11 69 12 70 27 71 24 72 26 73 25 74 13 75 14 76
REMARK SMILES IDX 15 77 16 78 23 79 17 80 18 81 22 82 19 83 21 84 20 85 28 86
REMARK SMILES IDX 29 87 30 88
REMARK H PARENT 3 6 78 24 52 35 8 67
REMARK Flexibility Score: inf
ROOT
ATOM      1  C   UNL A   1      31.347  32.178  26.468  1.00  0.00     0.023 C 
ENDROOT
BRANCH   1   2
ATOM      2  C   UNL A   1      32.579  32.636  27.243  1.00  0.00     0.116 C 
BRANCH   2   3
ATOM      3  N   UNL A   1      32.491  34.016  27.695  1.00  0.00    -0.352 N 
ATOM      4  O   UNL A   1      32.913  35.828  28.964  1.00  0.00    -0.269 OA
ATOM      5  C   UNL A   1      33.245  34.695  28.623  1.00  0.00     0.251 C 
ATOM      6  H   UNL A   1      31.778  34.546  27.270  1.00  0.00     0.163 HD
BRANCH   5   7
ATOM      7  C   UNL A   1      34.434  34.067  29.243  1.00  0.00     0.039 A 
ATOM      8  C   UNL A   1      35.728  34.407  28.844  1.00  0.00     0.014 A 
ATOM      9  C   UNL A   1      34.246  33.134  30.269  1.00  0.00     0.014 A 
ATOM     10  C   UNL A   1      36.820  33.710  29.358  1.00  0.00     0.010 A 
ATOM     11  C   UNL A   1      35.349  32.487  30.837  1.00  0.00     0.010 A 
ATOM     12  C   UNL A   1      36.643  32.742  30.358  1.00  0.00    -0.014 A 
BRANCH  12  13
ATOM     13  C   UNL A   1      37.822  32.025  30.907  1.00  0.00     0.031 A 
ATOM     14  C   UNL A   1      38.336  32.323  32.290  1.00  0.00     0.074 A 
ATOM     15  C   UNL A   1      38.419  31.075  30.161  1.00  0.00     0.049 A 
ATOM     16  N   UNL A   1      39.344  31.784  32.930  1.00  0.00    -0.248 NA
ATOM     17  C   UNL A   1      37.632  33.366  33.052  1.00  0.00     0.031 C 
ATOM     18  C   UNL A   1      38.024  30.700  28.803  1.00  0.00     0.029 A 
ATOM     19  N   UNL A   1      39.475  30.246  30.443  1.00  0.00    -0.354 N 
ATOM     20  C   UNL A   1      39.408  32.433  34.156  1.00  0.00     0.074 A 
ATOM     21  C   UNL A   1      38.351  33.421  34.165  1.00  0.00     0.031 C 
ATOM     22  C   UNL A   1      38.801  29.689  28.385  1.00  0.00     0.029 A 
ATOM     23  C   UNL A   1      39.777  29.378  29.424  1.00  0.00     0.049 A 
ATOM     24  H   UNL A   1      39.968  30.271  31.295  1.00  0.00     0.167 HD
ATOM     25  C   UNL A   1      40.265  32.218  35.184  1.00  0.00     0.037 A 
ATOM     26  C   UNL A   1      40.737  28.440  29.330  1.00  0.00     0.037 A 
ATOM     27  C   UNL A   1      41.303  31.219  35.186  1.00  0.00     0.049 A 
ATOM     28  C   UNL A   1      41.676  28.227  30.479  1.00  0.00     0.074 A 
ATOM     29  C   UNL A   1      42.193  30.903  36.199  1.00  0.00     0.029 A 
ATOM     30  N   UNL A   1      41.589  30.375  34.126  1.00  0.00    -0.354 N 
ATOM     31  N   UNL A   1      41.708  28.832  31.641  1.00  0.00    -0.248 NA
ATOM     32  C   UNL A   1      42.718  27.206  30.302  1.00  0.00     0.031 C 
ATOM     33  C   UNL A   1      43.040  29.888  35.739  1.00  0.00     0.029 A 
ATOM     34  C   UNL A   1      42.654  29.549  34.452  1.00  0.00     0.049 A 
ATOM     35  H   UNL A   1      41.108  30.363  33.267  1.00  0.00     0.167 HD
ATOM     36  C   UNL A   1      42.762  28.260  32.338  1.00  0.00     0.074 A 
ATOM     37  C   UNL A   1      43.335  27.247  31.475  1.00  0.00     0.031 C 
ATOM     38  C   UNL A   1      43.216  28.551  33.581  1.00  0.00     0.037 A 
BRANCH  25  39
ATOM     39  C   UNL A   1      40.125  33.091  36.396  1.00  0.00     0.057 A 
ATOM     40  C   UNL A   1      40.889  34.253  36.558  1.00  0.00     0.134 A 
ATOM     41  C   UNL A   1      39.185  32.789  37.388  1.00  0.00     0.134 A 
ATOM     42  F   UNL A   1      41.815  34.592  35.649  1.00  0.00    -0.206 F 
ATOM     43  C   UNL A   1      40.733  35.077  37.676  1.00  0.00     0.040 A 
ATOM     44  C   UNL A   1      39.007  33.614  38.500  1.00  0.00     0.040 A 
ATOM     45  F   UNL A   1      38.419  31.693  37.289  1.00  0.00    -0.206 F 
ATOM     46  C   UNL A   1      39.785  34.761  38.647  1.00  0.00     0.006 A 
ENDBRANCH  25  39
BRANCH  26  47
ATOM     47  C   UNL A   1      40.848  27.630  28.093  1.00  0.00     0.057 A 
ATOM     48  C   UNL A   1      41.607  28.075  27.006  1.00  0.00     0.134 A 
ATOM     49  C   UNL A   1      40.220  26.385  27.982  1.00  0.00     0.134 A 
ATOM     50  F   UNL A   1      42.216  29.269  27.051  1.00  0.00    -0.206 F 
ATOM     51  C   UNL A   1      41.733  27.310  25.846  1.00  0.00     0.040 A 
ATOM     52  C   UNL A   1      40.355  25.600  26.836  1.00  0.00     0.040 A 
ATOM     53  F   UNL A   1      39.484  25.904  28.994  1.00  0.00    -0.206 F 
ATOM     54  C   UNL A   1      41.111  26.065  25.762  1.00  0.00     0.006 A 
ENDBRANCH  26  47
BRANCH  38  55
ATOM     55  C   UNL A   1      44.381  27.752  34.082  1.00  0.00     0.057 A 
ATOM     56  C   UNL A   1      45.697  28.207  33.937  1.00  0.00     0.134 A 
ATOM     57  C   UNL A   1      44.182  26.532  34.738  1.00  0.00     0.134 A 
ATOM     58  F   UNL A   1      45.952  29.362  33.304  1.00  0.00    -0.206 F 
ATOM     59  C   UNL A   1      46.779  27.464  34.411  1.00  0.00     0.040 A 
ATOM     60  C   UNL A   1      45.254  25.789  35.233  1.00  0.00     0.040 A 
ATOM     61  F   UNL A   1      42.944  26.046  34.912  1.00  0.00    -0.206 F 
ATOM     62  C   UNL A   1      46.558  26.253  35.066  1.00  0.00     0.006 A 
ENDBRANCH  38  55
ENDBRANCH  12  13
ENDBRANCH   5   7
ENDBRANCH   2   3
ENDBRANCH   1   2
BRANCH   1  63
ATOM     63  C   UNL A   1      31.332  30.712  26.031  1.00  0.00     0.023 C 
BRANCH  63  64
ATOM     64  C   UNL A   1      32.682  30.000  26.041  1.00  0.00     0.116 C 
BRANCH  64  65
ATOM     65  N   UNL A   1      33.180  29.661  24.715  1.00  0.00    -0.352 N 
ATOM     66  C   UNL A   1      32.842  28.622  23.881  1.00  0.00     0.259 C 
ATOM     67  H   UNL A   1      33.865  30.273  24.361  1.00  0.00     0.163 HD
ATOM     68  O   UNL A   1      33.404  28.506  22.797  1.00  0.00    -0.269 OA
BRANCH  66  69
ATOM     69  C   UNL A   1      31.850  27.621  24.310  1.00  0.00     0.130 A 
ATOM     70  C   UNL A   1      32.238  26.551  25.127  1.00  0.00     0.060 A 
ATOM     71  C   UNL A   1      30.503  27.708  23.939  1.00  0.00     0.282 A 
ATOM     72  C   UNL A   1      31.272  25.669  25.642  1.00  0.00     0.015 A 
ATOM     73  C   UNL A   1      29.529  26.853  24.481  1.00  0.00     0.086 A 
ATOM     74  C   UNL A   1      29.919  25.845  25.354  1.00  0.00     0.008 A 
BRANCH  70  75
ATOM     75  C   UNL A   1      33.656  26.246  25.426  1.00  0.00     0.259 C 
ATOM     76  O   UNL A   1      34.295  27.009  26.139  1.00  0.00    -0.269 OA
BRANCH  75  77
ATOM     77  N   UNL A   1      34.171  25.171  24.742  1.00  0.00    -0.308 N 
ATOM     78  C   UNL A   1      33.942  24.960  23.305  1.00  0.00     0.131 C 
ATOM     79  C   UNL A   1      34.305  23.888  25.314  1.00  0.00     0.047 A 
ATOM     80  C   UNL A   1      34.577  23.603  22.970  1.00  0.00     0.059 C 
ATOM     81  C   UNL A   1      34.584  22.952  24.319  1.00  0.00    -0.022 A 
ATOM     82  C   UNL A   1      34.178  23.510  26.639  1.00  0.00     0.026 A 
ATOM     83  C   UNL A   1      34.833  21.627  24.634  1.00  0.00     0.006 A 
ATOM     84  C   UNL A   1      34.407  22.172  26.968  1.00  0.00     0.002 A 
ATOM     85  C   UNL A   1      34.751  21.241  25.975  1.00  0.00     0.000 A 
ENDBRANCH  75  77
ENDBRANCH  70  75
BRANCH  71  86
ATOM     86  N   UNL A   1      30.066  28.660  22.933  1.00  0.00     0.063 N 
ATOM     87  O   UNL A   1      29.580  29.722  23.345  1.00  0.00    -0.258 OA
ATOM     88  O   UNL A   1      30.190  28.342  21.746  1.00  0.00    -0.258 OA
ENDBRANCH  71  86
ENDBRANCH  66  69
ENDBRANCH  64  65
ENDBRANCH  63  64
ENDBRANCH   1  63
TORSDOF 14
ENDMDL
MODEL 2
REMARK VINA RESULT:     -12.2      4.822      9.931
REMARK SMILES O=C(NCCCCNC(=O)c1c(C(=O)N2CCc3ccccc32)cccc1[N+](=O)[O-])c1ccc(-c2c3nc(c(-c4c(F)cccc4F)c4ccc([nH]4)c(-c4c(F)cccc4F)c4nc(c(-c5c(F)cccc5F)c5ccc2[nH]5)C=C4)C=C3)cc1
REMARK SMILES IDX 5 1 4 2 3 3 1 4 2 5 31 7 32 8 84 9 33 10 83 11 34 12 35 13
REMARK SMILES IDX 36 14 77 15 37 16 82 17 76 18 78 19 38 20 81 21 75 22 74 23
REMARK SMILES IDX 39 25 65 26 48 27 64 28 49 29 52 30 63 31 79 32 50 33 51 34
REMARK SMILES IDX 62 36 80 37 53 38 40 39 41 40 46 41 42 42 43 43 45 44 47 45
REMARK SMILES IDX 44 46 66 47 67 48 72 49 68 50 69 51 71 52 73 53 70 54 54 55
REMARK SMILES IDX 55 56 60 57 56 58 57 59 59 60 61 61 58 62 6 63 7 64 8 65
REMARK SMILES IDX 9 66 10 68 11 69 12 70 27 71 24 72 26 73 25 74 13 75 14 76
REMARK SMILES IDX 15 77 16 78 23 79 17 80 18 81 22 82 19 83 21 84 20 85 28 86
REMARK SMILES IDX 29 87 30 88
REMARK H PARENT 3 6 78 24 52 35 8 67
REMARK Flexibility Score: inf
ROOT
ATOM      1  C   UNL A   1      38.082  19.595  24.653  1.00  0.00     0.023 C 
ENDROOT
BRANCH   1   2
ATOM      2  C   UNL A   1      39.097  19.902  25.751  1.00  0.00     0.116 C 
BRANCH   2   3
ATOM      3  N   UNL A   1      40.205  18.962  25.785  1.00  0.00    -0.352 N 
ATOM      4  O   UNL A   1      42.344  18.256  25.848  1.00  0.00    -0.269 OA
ATOM      5  C   UNL A   1      41.546  19.178  26.001  1.00  0.00     0.251 C 
ATOM      6  H   UNL A   1      39.957  18.023  25.627  1.00  0.00     0.163 HD
BRANCH   5   7
ATOM      7  C   UNL A   1      42.047  20.518  26.385  1.00  0.00     0.039 A 
ATOM      8  C   UNL A   1      42.240  20.867  27.723  1.00  0.00     0.014 A 
ATOM      9  C   UNL A   1      42.358  21.437  25.376  1.00  0.00     0.014 A 
ATOM     10  C   UNL A   1      42.593  22.173  28.057  1.00  0.00     0.010 A 
ATOM     11  C   UNL A   1      42.784  22.726  25.710  1.00  0.00     0.010 A 
ATOM     12  C   UNL A   1      42.867  23.118  27.055  1.00  0.00    -0.014 A 
BRANCH  12  13
ATOM     13  C   UNL A   1      43.262  24.499  27.433  1.00  0.00     0.031 A 
ATOM     14  C   UNL A   1      44.697  24.946  27.345  1.00  0.00     0.074 A 
ATOM     15  C   UNL A   1      42.313  25.367  27.832  1.00  0.00     0.049 A 
ATOM     16  N   UNL A   1      45.214  26.116  27.623  1.00  0.00    -0.248 NA
ATOM     17  C   UNL A   1      45.679  23.948  26.895  1.00  0.00     0.031 C 
ATOM     18  C   UNL A   1      40.890  25.055  27.968  1.00  0.00     0.029 A 
ATOM     19  N   UNL A   1      42.400  26.690  28.183  1.00  0.00    -0.354 N 
ATOM     20  C   UNL A   1      46.579  25.992  27.402  1.00  0.00     0.074 A 
ATOM     21  C   UNL A   1      46.816  24.626  26.986  1.00  0.00     0.031 C 
ATOM     22  C   UNL A   1      40.231  26.164  28.336  1.00  0.00     0.029 A 
ATOM     23  C   UNL A   1      41.190  27.251  28.507  1.00  0.00     0.049 A 
ATOM     24  H   UNL A   1      43.248  27.190  28.200  1.00  0.00     0.167 HD
ATOM     25  C   UNL A   1      47.547  26.934  27.524  1.00  0.00     0.037 A 
ATOM     26  C   UNL A   1      40.883  28.500  28.905  1.00  0.00     0.037 A 
ATOM     27  C   UNL A   1      47.311  28.300  27.915  1.00  0.00     0.049 A 
ATOM     28  C   UNL A   1      41.973  29.520  29.040  1.00  0.00     0.074 A 
ATOM     29  C   UNL A   1      48.225  29.334  28.028  1.00  0.00     0.029 A 
ATOM     30  N   UNL A   1      46.074  28.822  28.255  1.00  0.00    -0.354 N 
ATOM     31  N   UNL A   1      43.255  29.393  28.802  1.00  0.00    -0.248 NA
ATOM     32  C   UNL A   1      41.575  30.857  29.504  1.00  0.00     0.031 C 
ATOM     33  C   UNL A   1      47.545  30.476  28.468  1.00  0.00     0.029 A 
ATOM     34  C   UNL A   1      46.202  30.160  28.595  1.00  0.00     0.049 A 
ATOM     35  H   UNL A   1      45.228  28.318  28.255  1.00  0.00     0.167 HD
ATOM     36  C   UNL A   1      43.817  30.632  29.077  1.00  0.00     0.074 A 
ATOM     37  C   UNL A   1      42.732  31.503  29.482  1.00  0.00     0.031 C 
ATOM     38  C   UNL A   1      45.115  31.012  29.002  1.00  0.00     0.037 A 
BRANCH  25  39
ATOM     39  C   UNL A   1      48.960  26.515  27.244  1.00  0.00     0.057 A 
ATOM     40  C   UNL A   1      49.786  25.994  28.247  1.00  0.00     0.134 A 
ATOM     41  C   UNL A   1      49.484  26.594  25.948  1.00  0.00     0.134 A 
ATOM     42  F   UNL A   1      49.348  25.902  29.512  1.00  0.00    -0.206 F 
ATOM     43  C   UNL A   1      51.092  25.578  27.973  1.00  0.00     0.040 A 
ATOM     44  C   UNL A   1      50.780  26.165  25.658  1.00  0.00     0.040 A 
ATOM     45  F   UNL A   1      48.742  27.080  24.942  1.00  0.00    -0.206 F 
ATOM     46  C   UNL A   1      51.589  25.659  26.673  1.00  0.00     0.006 A 
ENDBRANCH  25  39
BRANCH  26  47
ATOM     47  C   UNL A   1      39.472  28.846  29.200  1.00  0.00     0.057 A 
ATOM     48  C   UNL A   1      38.627  29.339  28.202  1.00  0.00     0.134 A 
ATOM     49  C   UNL A   1      38.933  28.668  30.479  1.00  0.00     0.134 A 
ATOM     50  F   UNL A   1      39.094  29.547  26.962  1.00  0.00    -0.206 F 
ATOM     51  C   UNL A   1      37.292  29.649  28.466  1.00  0.00     0.040 A 
ATOM     52  C   UNL A   1      37.595  28.953  30.752  1.00  0.00     0.040 A 
ATOM     53  F   UNL A   1      39.695  28.193  31.475  1.00  0.00    -0.206 F 
ATOM     54  C   UNL A   1      36.771  29.449  29.743  1.00  0.00     0.006 A 
ENDBRANCH  26  47
BRANCH  38  55
ATOM     55  C   UNL A   1      45.427  32.434  29.354  1.00  0.00     0.057 A 
ATOM     56  C   UNL A   1      45.365  33.455  28.399  1.00  0.00     0.134 A 
ATOM     57  C   UNL A   1      45.769  32.788  30.665  1.00  0.00     0.134 A 
ATOM     58  F   UNL A   1      45.058  33.176  27.123  1.00  0.00    -0.206 F 
ATOM     59  C   UNL A   1      45.649  34.781  28.731  1.00  0.00     0.040 A 
ATOM     60  C   UNL A   1      46.036  34.112  31.014  1.00  0.00     0.040 A 
ATOM     61  F   UNL A   1      45.841  31.855  31.625  1.00  0.00    -0.206 F 
ATOM     62  C   UNL A   1      45.982  35.112  30.044  1.00  0.00     0.006 A 
ENDBRANCH  38  55
ENDBRANCH  12  13
ENDBRANCH   5   7
ENDBRANCH   2   3
ENDBRANCH   1   2
BRANCH   1  63
ATOM     63  C   UNL A   1      36.684  20.187  24.842  1.00  0.00     0.023 C 
BRANCH  63  64
ATOM     64  C   UNL A   1      36.626  21.554  25.518  1.00  0.00     0.116 C 
BRANCH  64  65
ATOM     65  N   UNL A   1      35.559  21.681  26.501  1.00  0.00    -0.352 N 
ATOM     66  C   UNL A   1      34.237  22.019  26.336  1.00  0.00     0.259 C 
ATOM     67  H   UNL A   1      35.827  21.493  27.430  1.00  0.00     0.163 HD
ATOM     68  O   UNL A   1      33.501  22.088  27.315  1.00  0.00    -0.269 OA
BRANCH  66  69
ATOM     69  C   UNL A   1      33.720  22.353  24.998  1.00  0.00     0.130 A 
ATOM     70  C   UNL A   1      33.825  23.662  24.509  1.00  0.00     0.060 A 
ATOM     71  C   UNL A   1      33.131  21.389  24.170  1.00  0.00     0.282 A 
ATOM     72  C   UNL A   1      33.449  23.954  23.186  1.00  0.00     0.015 A 
ATOM     73  C   UNL A   1      32.790  21.666  22.837  1.00  0.00     0.086 A 
ATOM     74  C   UNL A   1      32.974  22.951  22.341  1.00  0.00     0.008 A 
BRANCH  70  75
ATOM     75  C   UNL A   1      34.250  24.800  25.356  1.00  0.00     0.259 C 
ATOM     76  O   UNL A   1      35.408  24.852  25.751  1.00  0.00    -0.269 OA
BRANCH  75  77
ATOM     77  N   UNL A   1      33.236  25.645  25.737  1.00  0.00    -0.308 N 
ATOM     78  C   UNL A   1      31.944  25.158  26.243  1.00  0.00     0.131 C 
ATOM     79  C   UNL A   1      32.971  26.870  25.090  1.00  0.00     0.047 A 
ATOM     80  C   UNL A   1      31.068  26.404  26.435  1.00  0.00     0.059 C 
ATOM     81  C   UNL A   1      31.734  27.366  25.502  1.00  0.00    -0.022 A 
ATOM     82  C   UNL A   1      33.741  27.546  24.161  1.00  0.00     0.026 A 
ATOM     83  C   UNL A   1      31.277  28.598  25.064  1.00  0.00     0.006 A 
ATOM     84  C   UNL A   1      33.282  28.781  23.696  1.00  0.00     0.002 A 
ATOM     85  C   UNL A   1      32.067  29.312  24.158  1.00  0.00     0.000 A 
ENDBRANCH  75  77
ENDBRANCH  70  75
BRANCH  71  86
ATOM     86  N   UNL A   1      32.799  20.070  24.680  1.00  0.00     0.063 N 
ATOM     87  O   UNL A   1      31.778  19.983  25.376  1.00  0.00    -0.258 OA
ATOM     88  O   UNL A   1      33.559  19.137  24.404  1.00  0.00    -0.258 OA
ENDBRANCH  71  86
ENDBRANCH  66  69
ENDBRANCH  64  65
ENDBRANCH  63  64
ENDBRANCH   1  63
TORSDOF 14
ENDMDL
MODEL 3
REMARK VINA RESULT:     -12.2      4.230      9.311
REMARK SMILES O=C(NCCCCNC(=O)c1c(C(=O)N2CCc3ccccc32)cccc1[N+](=O)[O-])c1ccc(-c2c3nc(c(-c4c(F)cccc4F)c4ccc([nH]4)c(-c4c(F)cccc4F)c4nc(c(-c5c(F)cccc5F)c5ccc2[nH]5)C=C4)C=C3)cc1
REMARK SMILES IDX 5 1 4 2 3 3 1 4 2 5 31 7 32 8 84 9 33 10 83 11 34 12 35 13
REMARK SMILES IDX 36 14 77 15 37 16 82 17 76 18 78 19 38 20 81 21 75 22 74 23
REMARK SMILES IDX 39 25 65 26 48 27 64 28 49 29 52 30 63 31 79 32 50 33 51 34
REMARK SMILES IDX 62 36 80 37 53 38 40 39 41 40 46 41 42 42 43 43 45 44 47 45
REMARK SMILES IDX 44 46 66 47 67 48 72 49 68 50 69 51 71 52 73 53 70 54 54 55
REMARK SMILES IDX 55 56 60 57 56 58 57 59 59 60 61 61 58 62 6 63 7 64 8 65
REMARK SMILES IDX 9 66 10 68 11 69 12 70 27 71 24 72 26 73 25 74 13 75 14 76
REMARK SMILES IDX 15 77 16 78 23 79 17 80 18 81 22 82 19 83 21 84 20 85 28 86
REMARK SMILES IDX 29 87 30 88
REMARK H PARENT 3 6 78 24 52 35 8 67
REMARK Flexibility Score: inf
ROOT
ATOM      1  C   UNL A   1      37.836  19.576  24.915  1.00  0.00     0.023 C 
ENDROOT
BRANCH   1   2
ATOM      2  C   UNL A   1      39.001  20.121  25.737  1.00  0.00     0.116 C 
BRANCH   2   3
ATOM      3  N   UNL A   1      40.158  19.240  25.743  1.00  0.00    -0.352 N 
ATOM      4  O   UNL A   1      42.325  18.641  25.874  1.00  0.00    -0.269 OA
ATOM      5  C   UNL A   1      41.468  19.499  26.072  1.00  0.00     0.251 C 
ATOM      6  H   UNL A   1      39.974  18.313  25.468  1.00  0.00     0.163 HD
BRANCH   5   7
ATOM      7  C   UNL A   1      41.865  20.811  26.632  1.00  0.00     0.039 A 
ATOM      8  C   UNL A   1      41.856  21.048  28.008  1.00  0.00     0.014 A 
ATOM      9  C   UNL A   1      42.285  21.819  25.756  1.00  0.00     0.014 A 
ATOM     10  C   UNL A   1      42.116  22.328  28.495  1.00  0.00     0.010 A 
ATOM     11  C   UNL A   1      42.618  23.083  26.253  1.00  0.00     0.010 A 
ATOM     12  C   UNL A   1      42.498  23.360  27.623  1.00  0.00    -0.014 A 
BRANCH  12  13
ATOM     13  C   UNL A   1      42.791  24.712  28.165  1.00  0.00     0.031 A 
ATOM     14  C   UNL A   1      44.198  25.122  28.506  1.00  0.00     0.074 A 
ATOM     15  C   UNL A   1      41.780  25.588  28.325  1.00  0.00     0.049 A 
ATOM     16  N   UNL A   1      44.633  26.264  28.976  1.00  0.00    -0.248 NA
ATOM     17  C   UNL A   1      45.253  24.118  28.300  1.00  0.00     0.031 C 
ATOM     18  C   UNL A   1      40.372  25.309  28.041  1.00  0.00     0.029 A 
ATOM     19  N   UNL A   1      41.783  26.891  28.753  1.00  0.00    -0.354 N 
ATOM     20  C   UNL A   1      46.003  26.112  29.140  1.00  0.00     0.074 A 
ATOM     21  C   UNL A   1      46.328  24.760  28.740  1.00  0.00     0.031 C 
ATOM     22  C   UNL A   1      39.652  26.419  28.265  1.00  0.00     0.029 A 
ATOM     23  C   UNL A   1      40.539  27.471  28.752  1.00  0.00     0.049 A 
ATOM     24  H   UNL A   1      42.599  27.365  29.032  1.00  0.00     0.167 HD
ATOM     25  C   UNL A   1      46.910  27.020  29.576  1.00  0.00     0.037 A 
ATOM     26  C   UNL A   1      40.150  28.709  29.110  1.00  0.00     0.037 A 
ATOM     27  C   UNL A   1      46.594  28.374  29.953  1.00  0.00     0.049 A 
ATOM     28  C   UNL A   1      41.173  29.691  29.596  1.00  0.00     0.074 A 
ATOM     29  C   UNL A   1      47.454  29.376  30.369  1.00  0.00     0.029 A 
ATOM     30  N   UNL A   1      45.318  28.914  29.958  1.00  0.00    -0.354 N 
ATOM     31  N   UNL A   1      42.468  29.539  29.721  1.00  0.00    -0.248 NA
ATOM     32  C   UNL A   1      40.680  31.016  29.996  1.00  0.00     0.031 C 
ATOM     33  C   UNL A   1      46.694  30.516  30.658  1.00  0.00     0.029 A 
ATOM     34  C   UNL A   1      45.365  30.232  30.388  1.00  0.00     0.049 A 
ATOM     35  H   UNL A   1      44.500  28.435  29.696  1.00  0.00     0.167 HD
ATOM     36  C   UNL A   1      42.948  30.748  30.204  1.00  0.00     0.074 A 
ATOM     37  C   UNL A   1      41.805  31.630  30.332  1.00  0.00     0.031 C 
ATOM     38  C   UNL A   1      44.220  31.095  30.516  1.00  0.00     0.037 A 
BRANCH  25  39
ATOM     39  C   UNL A   1      48.339  26.575  29.683  1.00  0.00     0.057 A 
ATOM     40  C   UNL A   1      48.823  25.917  30.820  1.00  0.00     0.134 A 
ATOM     41  C   UNL A   1      49.228  26.769  28.619  1.00  0.00     0.134 A 
ATOM     42  F   UNL A   1      48.024  25.710  31.878  1.00  0.00    -0.206 F 
ATOM     43  C   UNL A   1      50.147  25.479  30.900  1.00  0.00     0.040 A 
ATOM     44  C   UNL A   1      50.548  26.320  28.680  1.00  0.00     0.040 A 
ATOM     45  F   UNL A   1      48.826  27.389  27.499  1.00  0.00    -0.206 F 
ATOM     46  C   UNL A   1      51.012  25.675  29.825  1.00  0.00     0.006 A 
ENDBRANCH  25  39
BRANCH  26  47
ATOM     47  C   UNL A   1      38.719  29.080  29.015  1.00  0.00     0.057 A 
ATOM     48  C   UNL A   1      37.875  28.989  30.126  1.00  0.00     0.134 A 
ATOM     49  C   UNL A   1      38.170  29.559  27.820  1.00  0.00     0.134 A 
ATOM     50  F   UNL A   1      38.342  28.520  31.293  1.00  0.00    -0.206 F 
ATOM     51  C   UNL A   1      36.531  29.355  30.052  1.00  0.00     0.040 A 
ATOM     52  C   UNL A   1      36.834  29.949  27.737  1.00  0.00     0.040 A 
ATOM     53  F   UNL A   1      38.932  29.673  26.723  1.00  0.00    -0.206 F 
ATOM     54  C   UNL A   1      36.008  29.844  28.856  1.00  0.00     0.006 A 
ENDBRANCH  26  47
BRANCH  38  55
ATOM     55  C   UNL A   1      44.441  32.491  31.012  1.00  0.00     0.057 A 
ATOM     56  C   UNL A   1      44.420  32.794  32.378  1.00  0.00     0.134 A 
ATOM     57  C   UNL A   1      44.701  33.535  30.117  1.00  0.00     0.134 A 
ATOM     58  F   UNL A   1      44.161  31.838  33.284  1.00  0.00    -0.206 F 
ATOM     59  C   UNL A   1      44.633  34.094  32.838  1.00  0.00     0.040 A 
ATOM     60  C   UNL A   1      44.935  34.836  30.565  1.00  0.00     0.040 A 
ATOM     61  F   UNL A   1      44.738  33.307  28.796  1.00  0.00    -0.206 F 
ATOM     62  C   UNL A   1      44.896  35.119  31.930  1.00  0.00     0.006 A 
ENDBRANCH  38  55
ENDBRANCH  12  13
ENDBRANCH   5   7
ENDBRANCH   2   3
ENDBRANCH   1   2
BRANCH   1  63
ATOM     63  C   UNL A   1      36.647  20.519  24.722  1.00  0.00     0.023 C 
BRANCH  63  64
ATOM     64  C   UNL A   1      36.627  21.756  25.616  1.00  0.00     0.116 C 
BRANCH  64  65
ATOM     65  N   UNL A   1      35.514  21.786  26.555  1.00  0.00    -0.352 N 
ATOM     66  C   UNL A   1      34.184  22.062  26.346  1.00  0.00     0.259 C 
ATOM     67  H   UNL A   1      35.752  21.573  27.487  1.00  0.00     0.163 HD
ATOM     68  O   UNL A   1      33.405  22.051  27.292  1.00  0.00    -0.269 OA
BRANCH  66  69
ATOM     69  C   UNL A   1      33.707  22.424  25.000  1.00  0.00     0.130 A 
ATOM     70  C   UNL A   1      33.845  23.738  24.534  1.00  0.00     0.060 A 
ATOM     71  C   UNL A   1      33.125  21.482  24.142  1.00  0.00     0.282 A 
ATOM     72  C   UNL A   1      33.509  24.056  23.207  1.00  0.00     0.015 A 
ATOM     73  C   UNL A   1      32.823  21.785  22.805  1.00  0.00     0.086 A 
ATOM     74  C   UNL A   1      33.040  23.074  22.334  1.00  0.00     0.008 A 
BRANCH  70  75
ATOM     75  C   UNL A   1      34.266  24.857  25.409  1.00  0.00     0.259 C 
ATOM     76  O   UNL A   1      35.416  24.889  25.828  1.00  0.00    -0.269 OA
BRANCH  75  77
ATOM     77  N   UNL A   1      33.253  25.707  25.785  1.00  0.00    -0.308 N 
ATOM     78  C   UNL A   1      31.948  25.225  26.260  1.00  0.00     0.131 C 
ATOM     79  C   UNL A   1      33.013  26.944  25.152  1.00  0.00     0.047 A 
ATOM     80  C   UNL A   1      31.081  26.477  26.456  1.00  0.00     0.059 C 
ATOM     81  C   UNL A   1      31.774  27.447  25.550  1.00  0.00    -0.022 A 
ATOM     82  C   UNL A   1      33.807  27.626  24.248  1.00  0.00     0.026 A 
ATOM     83  C   UNL A   1      31.337  28.690  25.123  1.00  0.00     0.006 A 
ATOM     84  C   UNL A   1      33.368  28.873  23.794  1.00  0.00     0.002 A 
ATOM     85  C   UNL A   1      32.151  29.409  24.243  1.00  0.00     0.000 A 
ENDBRANCH  75  77
ENDBRANCH  70  75
BRANCH  71  86
ATOM     86  N   UNL A   1      32.759  20.161  24.623  1.00  0.00     0.063 N 
ATOM     87  O   UNL A   1      31.708  20.076  25.272  1.00  0.00    -0.258 OA
ATOM     88  O   UNL A   1      33.523  19.224  24.370  1.00  0.00    -0.258 OA
ENDBRANCH  71  86
ENDBRANCH  66  69
ENDBRANCH  64  65
ENDBRANCH  63  64
ENDBRANCH   1  63
TORSDOF 14
ENDMDL
