MODEL 1
REMARK VINA RESULT:     -12.7      0.000      0.000
REMARK SMILES O=C(NCCCCNC(=O)[C@H]1C[C@](O)(c2ccc(Cl)cc2)[C@@H](c2ccc(Cl)cc2)O1)c1ccc(-c2c3nc(c(-c4c(F)cccc4F)c4ccc([nH]4)c(-c4c(F)cccc4F)c4nc(c(-c5c(F)cccc5F)c5ccc2[nH]5)C=C4)C=C3)cc1
REMARK SMILES IDX 5 1 4 2 3 3 1 4 2 5 31 7 32 8 84 9 33 10 83 11 34 12 35 13
REMARK SMILES IDX 36 14 77 15 37 16 82 17 76 18 78 19 38 20 81 21 75 22 74 23
REMARK SMILES IDX 39 25 65 26 48 27 64 28 49 29 52 30 63 31 79 32 50 33 51 34
REMARK SMILES IDX 62 36 80 37 53 38 40 39 41 40 46 41 42 42 43 43 45 44 47 45
REMARK SMILES IDX 44 46 66 47 67 48 72 49 68 50 69 51 71 52 73 53 70 54 54 55
REMARK SMILES IDX 55 56 60 57 56 58 57 59 59 60 61 61 58 62 6 63 7 64 8 65
REMARK SMILES IDX 9 66 10 68 11 69 12 70 30 71 13 72 22 73 15 74 16 75 21 76
REMARK SMILES IDX 17 77 20 78 18 79 19 80 14 81 23 83 24 84 29 85 25 86 28 87
REMARK SMILES IDX 26 88 27 89
REMARK H PARENT 3 6 78 24 52 35 8 67 14 82
REMARK Flexibility Score: inf
ROOT
ATOM      1  C   UNL A   1      40.414  21.301  26.207  1.00  0.00     0.023 C 
ENDROOT
BRANCH   1   2
ATOM      2  C   UNL A   1      41.724  21.844  26.760  1.00  0.00     0.116 C 
BRANCH   2   3
ATOM      3  N   UNL A   1      42.563  22.441  25.735  1.00  0.00    -0.352 N 
ATOM      4  O   UNL A   1      43.534  24.108  24.568  1.00  0.00    -0.269 OA
ATOM      5  C   UNL A   1      42.948  23.754  25.582  1.00  0.00     0.251 C 
ATOM      6  H   UNL A   1      42.904  21.818  25.053  1.00  0.00     0.163 HD
BRANCH   5   7
ATOM      7  C   UNL A   1      42.631  24.745  26.638  1.00  0.00     0.039 A 
ATOM      8  C   UNL A   1      41.752  24.426  27.674  1.00  0.00     0.014 A 
ATOM      9  C   UNL A   1      43.234  26.007  26.598  1.00  0.00     0.014 A 
ATOM     10  C   UNL A   1      41.368  25.407  28.581  1.00  0.00     0.010 A 
ATOM     11  C   UNL A   1      42.913  26.967  27.564  1.00  0.00     0.010 A 
ATOM     12  C   UNL A   1      41.955  26.684  28.548  1.00  0.00    -0.014 A 
BRANCH  12  13
ATOM     13  C   UNL A   1      41.590  27.662  29.606  1.00  0.00     0.031 A 
ATOM     14  C   UNL A   1      40.417  28.589  29.454  1.00  0.00     0.074 A 
ATOM     15  C   UNL A   1      42.300  27.656  30.752  1.00  0.00     0.049 A 
ATOM     16  N   UNL A   1      39.917  29.432  30.325  1.00  0.00    -0.248 NA
ATOM     17  C   UNL A   1      39.714  28.579  28.162  1.00  0.00     0.031 C 
ATOM     18  C   UNL A   1      43.478  26.823  31.005  1.00  0.00     0.029 A 
ATOM     19  N   UNL A   1      42.119  28.339  31.927  1.00  0.00    -0.354 N 
ATOM     20  C   UNL A   1      38.850  30.055  29.689  1.00  0.00     0.074 A 
ATOM     21  C   UNL A   1      38.792  29.516  28.346  1.00  0.00     0.031 C 
ATOM     22  C   UNL A   1      43.875  26.996  32.273  1.00  0.00     0.029 A 
ATOM     23  C   UNL A   1      43.017  27.990  32.906  1.00  0.00     0.049 A 
ATOM     24  H   UNL A   1      41.413  29.013  32.057  1.00  0.00     0.167 HD
ATOM     25  C   UNL A   1      37.993  30.979  30.185  1.00  0.00     0.037 A 
ATOM     26  C   UNL A   1      43.143  28.423  34.174  1.00  0.00     0.037 A 
ATOM     27  C   UNL A   1      38.049  31.509  31.525  1.00  0.00     0.049 A 
ATOM     28  C   UNL A   1      42.174  29.441  34.695  1.00  0.00     0.074 A 
ATOM     29  C   UNL A   1      37.218  32.443  32.119  1.00  0.00     0.029 A 
ATOM     30  N   UNL A   1      38.989  31.148  32.479  1.00  0.00    -0.354 N 
ATOM     31  N   UNL A   1      41.157  30.000  34.085  1.00  0.00    -0.248 NA
ATOM     32  C   UNL A   1      42.370  29.890  36.079  1.00  0.00     0.031 C 
ATOM     33  C   UNL A   1      37.674  32.671  33.424  1.00  0.00     0.029 A 
ATOM     34  C   UNL A   1      38.764  31.848  33.654  1.00  0.00     0.049 A 
ATOM     35  H   UNL A   1      39.708  30.490  32.342  1.00  0.00     0.167 HD
ATOM     36  C   UNL A   1      40.592  30.866  35.011  1.00  0.00     0.074 A 
ATOM     37  C   UNL A   1      41.356  30.729  36.233  1.00  0.00     0.031 C 
ATOM     38  C   UNL A   1      39.542  31.709  34.857  1.00  0.00     0.037 A 
BRANCH  25  39
ATOM     39  C   UNL A   1      36.913  31.488  29.275  1.00  0.00     0.057 A 
ATOM     40  C   UNL A   1      35.775  30.725  28.986  1.00  0.00     0.134 A 
ATOM     41  C   UNL A   1      36.977  32.780  28.736  1.00  0.00     0.134 A 
ATOM     42  F   UNL A   1      35.656  29.476  29.463  1.00  0.00    -0.206 F 
ATOM     43  C   UNL A   1      34.744  31.224  28.188  1.00  0.00     0.040 A 
ATOM     44  C   UNL A   1      35.943  33.297  27.952  1.00  0.00     0.040 A 
ATOM     45  F   UNL A   1      38.036  33.567  28.978  1.00  0.00    -0.206 F 
ATOM     46  C   UNL A   1      34.823  32.517  27.675  1.00  0.00     0.006 A 
ENDBRANCH  25  39
BRANCH  26  47
ATOM     47  C   UNL A   1      44.234  27.896  35.029  1.00  0.00     0.057 A 
ATOM     48  C   UNL A   1      45.468  28.547  35.119  1.00  0.00     0.134 A 
ATOM     49  C   UNL A   1      44.064  26.726  35.781  1.00  0.00     0.134 A 
ATOM     50  F   UNL A   1      45.697  29.663  34.410  1.00  0.00    -0.206 F 
ATOM     51  C   UNL A   1      46.501  28.048  35.914  1.00  0.00     0.040 A 
ATOM     52  C   UNL A   1      45.076  26.230  36.601  1.00  0.00     0.040 A 
ATOM     53  F   UNL A   1      42.899  26.062  35.744  1.00  0.00    -0.206 F 
ATOM     54  C   UNL A   1      46.304  26.888  36.662  1.00  0.00     0.006 A 
ENDBRANCH  26  47
BRANCH  38  55
ATOM     55  C   UNL A   1      39.169  32.541  36.048  1.00  0.00     0.057 A 
ATOM     56  C   UNL A   1      39.673  33.835  36.226  1.00  0.00     0.134 A 
ATOM     57  C   UNL A   1      38.301  32.042  37.026  1.00  0.00     0.134 A 
ATOM     58  F   UNL A   1      40.523  34.362  35.330  1.00  0.00    -0.206 F 
ATOM     59  C   UNL A   1      39.353  34.594  37.352  1.00  0.00     0.040 A 
ATOM     60  C   UNL A   1      37.953  32.801  38.145  1.00  0.00     0.040 A 
ATOM     61  F   UNL A   1      37.778  30.812  36.912  1.00  0.00    -0.206 F 
ATOM     62  C   UNL A   1      38.488  34.077  38.314  1.00  0.00     0.006 A 
ENDBRANCH  38  55
ENDBRANCH  12  13
ENDBRANCH   5   7
ENDBRANCH   2   3
ENDBRANCH   1   2
BRANCH   1  63
ATOM     63  C   UNL A   1      39.226  22.271  26.260  1.00  0.00     0.023 C 
BRANCH  63  64
ATOM     64  C   UNL A   1      37.893  21.695  25.771  1.00  0.00     0.116 C 
BRANCH  64  65
ATOM     65  N   UNL A   1      37.669  22.039  24.382  1.00  0.00    -0.354 N 
ATOM     66  C   UNL A   1      36.669  22.771  23.820  1.00  0.00     0.249 C 
ATOM     67  H   UNL A   1      38.340  21.693  23.751  1.00  0.00     0.163 HD
ATOM     68  O   UNL A   1      36.458  22.571  22.623  1.00  0.00    -0.272 OA
BRANCH  66  69
ATOM     69  C   UNL A   1      35.888  23.816  24.651  1.00  0.00     0.211 C 
ATOM     70  C   UNL A   1      34.864  24.595  23.820  1.00  0.00     0.085 C 
ATOM     71  O   UNL A   1      35.163  23.159  25.708  1.00  0.00    -0.357 OA
ATOM     72  C   UNL A   1      33.510  24.344  24.481  1.00  0.00     0.123 C 
ATOM     73  C   UNL A   1      33.774  23.070  25.330  1.00  0.00     0.186 C 
BRANCH  72  74
ATOM     74  C   UNL A   1      33.061  25.586  25.280  1.00  0.00    -0.013 A 
ATOM     75  C   UNL A   1      33.945  26.682  25.386  1.00  0.00     0.008 A 
ATOM     76  C   UNL A   1      31.796  25.722  25.877  1.00  0.00     0.008 A 
ATOM     77  C   UNL A   1      33.564  27.877  26.004  1.00  0.00     0.021 A 
ATOM     78  C   UNL A   1      31.405  26.925  26.483  1.00  0.00     0.021 A 
ATOM     79  C   UNL A   1      32.286  27.999  26.535  1.00  0.00     0.041 A 
ATOM     80  Cl  UNL A   1      31.791  29.483  27.250  1.00  0.00    -0.084 Cl
ENDBRANCH  72  74
BRANCH  72  81
ATOM     81  O   UNL A   1      32.494  24.181  23.485  1.00  0.00    -0.382 OA
ATOM     82  H   UNL A   1      32.788  24.585  22.653  1.00  0.00     0.212 HD
ENDBRANCH  72  81
BRANCH  73  83
ATOM     83  C   UNL A   1      33.490  21.679  24.767  1.00  0.00    -0.016 A 
ATOM     84  C   UNL A   1      32.534  21.407  23.774  1.00  0.00     0.008 A 
ATOM     85  C   UNL A   1      34.273  20.603  25.230  1.00  0.00     0.008 A 
ATOM     86  C   UNL A   1      32.362  20.113  23.270  1.00  0.00     0.021 A 
ATOM     87  C   UNL A   1      34.097  19.308  24.735  1.00  0.00     0.021 A 
ATOM     88  C   UNL A   1      33.142  19.069  23.754  1.00  0.00     0.041 A 
ATOM     89  Cl  UNL A   1      32.931  17.481  23.129  1.00  0.00    -0.084 Cl
ENDBRANCH  73  83
ENDBRANCH  66  69
ENDBRANCH  64  65
ENDBRANCH  63  64
ENDBRANCH   1  63
TORSDOF 14
ENDMDL
MODEL 2
REMARK VINA RESULT:     -12.6      3.109      8.610
REMARK SMILES O=C(NCCCCNC(=O)[C@H]1C[C@](O)(c2ccc(Cl)cc2)[C@@H](c2ccc(Cl)cc2)O1)c1ccc(-c2c3nc(c(-c4c(F)cccc4F)c4ccc([nH]4)c(-c4c(F)cccc4F)c4nc(c(-c5c(F)cccc5F)c5ccc2[nH]5)C=C4)C=C3)cc1
REMARK SMILES IDX 5 1 4 2 3 3 1 4 2 5 31 7 32 8 84 9 33 10 83 11 34 12 35 13
REMARK SMILES IDX 36 14 77 15 37 16 82 17 76 18 78 19 38 20 81 21 75 22 74 23
REMARK SMILES IDX 39 25 65 26 48 27 64 28 49 29 52 30 63 31 79 32 50 33 51 34
REMARK SMILES IDX 62 36 80 37 53 38 40 39 41 40 46 41 42 42 43 43 45 44 47 45
REMARK SMILES IDX 44 46 66 47 67 48 72 49 68 50 69 51 71 52 73 53 70 54 54 55
REMARK SMILES IDX 55 56 60 57 56 58 57 59 59 60 61 61 58 62 6 63 7 64 8 65
REMARK SMILES IDX 9 66 10 68 11 69 12 70 30 71 13 72 22 73 15 74 16 75 21 76
REMARK SMILES IDX 17 77 20 78 18 79 19 80 14 81 23 83 24 84 29 85 25 86 28 87
REMARK SMILES IDX 26 88 27 89
REMARK H PARENT 3 6 78 24 52 35 8 67 14 82
REMARK Flexibility Score: inf
ROOT
ATOM      1  C   UNL A   1      31.302  32.378  26.480  1.00  0.00     0.023 C 
ENDROOT
BRANCH   1   2
ATOM      2  C   UNL A   1      32.516  32.925  27.221  1.00  0.00     0.116 C 
BRANCH   2   3
ATOM      3  N   UNL A   1      32.309  34.274  27.718  1.00  0.00    -0.352 N 
ATOM      4  O   UNL A   1      32.600  36.043  29.086  1.00  0.00    -0.269 OA
ATOM      5  C   UNL A   1      33.011  34.963  28.681  1.00  0.00     0.251 C 
ATOM      6  H   UNL A   1      31.561  34.765  27.307  1.00  0.00     0.163 HD
BRANCH   5   7
ATOM      7  C   UNL A   1      34.254  34.385  29.245  1.00  0.00     0.039 A 
ATOM      8  C   UNL A   1      35.487  34.606  28.628  1.00  0.00     0.014 A 
ATOM      9  C   UNL A   1      34.186  33.624  30.417  1.00  0.00     0.014 A 
ATOM     10  C   UNL A   1      36.621  33.953  29.098  1.00  0.00     0.010 A 
ATOM     11  C   UNL A   1      35.345  33.037  30.938  1.00  0.00     0.010 A 
ATOM     12  C   UNL A   1      36.568  33.174  30.266  1.00  0.00    -0.014 A 
BRANCH  12  13
ATOM     13  C   UNL A   1      37.830  32.585  30.785  1.00  0.00     0.031 A 
ATOM     14  C   UNL A   1      38.477  33.088  32.046  1.00  0.00     0.074 A 
ATOM     15  C   UNL A   1      38.357  31.530  30.133  1.00  0.00     0.049 A 
ATOM     16  N   UNL A   1      39.526  32.618  32.675  1.00  0.00    -0.248 NA
ATOM     17  C   UNL A   1      37.880  34.272  32.682  1.00  0.00     0.031 C 
ATOM     18  C   UNL A   1      37.836  30.971  28.882  1.00  0.00     0.029 A 
ATOM     19  N   UNL A   1      39.417  30.718  30.442  1.00  0.00    -0.354 N 
ATOM     20  C   UNL A   1      39.719  33.447  33.773  1.00  0.00     0.074 A 
ATOM     21  C   UNL A   1      38.696  34.469  33.710  1.00  0.00     0.031 C 
ATOM     22  C   UNL A   1      38.536  29.873  28.566  1.00  0.00     0.029 A 
ATOM     23  C   UNL A   1      39.588  29.681  29.557  1.00  0.00     0.049 A 
ATOM     24  H   UNL A   1      39.999  30.863  31.223  1.00  0.00     0.167 HD
ATOM     25  C   UNL A   1      40.655  33.353  34.749  1.00  0.00     0.037 A 
ATOM     26  C   UNL A   1      40.493  28.686  29.538  1.00  0.00     0.037 A 
ATOM     27  C   UNL A   1      41.668  32.329  34.813  1.00  0.00     0.049 A 
ATOM     28  C   UNL A   1      41.510  28.606  30.636  1.00  0.00     0.074 A 
ATOM     29  C   UNL A   1      42.654  32.149  35.768  1.00  0.00     0.029 A 
ATOM     30  N   UNL A   1      41.823  31.311  33.884  1.00  0.00    -0.354 N 
ATOM     31  N   UNL A   1      41.662  29.385  31.679  1.00  0.00    -0.248 NA
ATOM     32  C   UNL A   1      42.485  27.510  30.555  1.00  0.00     0.031 C 
ATOM     33  C   UNL A   1      43.426  31.040  35.402  1.00  0.00     0.029 A 
ATOM     34  C   UNL A   1      42.894  30.506  34.239  1.00  0.00     0.049 A 
ATOM     35  H   UNL A   1      41.255  31.179  33.091  1.00  0.00     0.167 HD
ATOM     36  C   UNL A   1      42.745  28.874  32.379  1.00  0.00     0.074 A 
ATOM     37  C   UNL A   1      43.189  27.697  31.661  1.00  0.00     0.031 C 
ATOM     38  C   UNL A   1      43.330  29.345  33.506  1.00  0.00     0.037 A 
BRANCH  25  39
ATOM     39  C   UNL A   1      40.634  34.389  35.835  1.00  0.00     0.057 A 
ATOM     40  C   UNL A   1      41.357  35.584  35.726  1.00  0.00     0.134 A 
ATOM     41  C   UNL A   1      39.831  34.222  36.972  1.00  0.00     0.134 A 
ATOM     42  F   UNL A   1      42.152  35.802  34.668  1.00  0.00    -0.206 F 
ATOM     43  C   UNL A   1      41.289  36.570  36.712  1.00  0.00     0.040 A 
ATOM     44  C   UNL A   1      39.741  35.210  37.954  1.00  0.00     0.040 A 
ATOM     45  F   UNL A   1      39.108  33.104  37.136  1.00  0.00    -0.206 F 
ATOM     46  C   UNL A   1      40.472  36.388  37.826  1.00  0.00     0.006 A 
ENDBRANCH  25  39
BRANCH  26  47
ATOM     47  C   UNL A   1      40.476  27.693  28.436  1.00  0.00     0.057 A 
ATOM     48  C   UNL A   1      41.190  27.907  27.252  1.00  0.00     0.134 A 
ATOM     49  C   UNL A   1      39.746  26.503  28.545  1.00  0.00     0.134 A 
ATOM     50  F   UNL A   1      41.896  29.035  27.083  1.00  0.00    -0.206 F 
ATOM     51  C   UNL A   1      41.167  26.980  26.208  1.00  0.00     0.040 A 
ATOM     52  C   UNL A   1      39.735  25.555  27.522  1.00  0.00     0.040 A 
ATOM     53  F   UNL A   1      39.049  26.236  29.659  1.00  0.00    -0.206 F 
ATOM     54  C   UNL A   1      40.442  25.798  26.345  1.00  0.00     0.006 A 
ENDBRANCH  26  47
BRANCH  38  55
ATOM     55  C   UNL A   1      44.509  28.577  34.024  1.00  0.00     0.057 A 
ATOM     56  C   UNL A   1      45.818  28.896  33.639  1.00  0.00     0.134 A 
ATOM     57  C   UNL A   1      44.335  27.508  34.909  1.00  0.00     0.134 A 
ATOM     58  F   UNL A   1      46.048  29.900  32.779  1.00  0.00    -0.206 F 
ATOM     59  C   UNL A   1      46.911  28.158  34.093  1.00  0.00     0.040 A 
ATOM     60  C   UNL A   1      45.423  26.777  35.391  1.00  0.00     0.040 A 
ATOM     61  F   UNL A   1      43.108  27.156  35.321  1.00  0.00    -0.206 F 
ATOM     62  C   UNL A   1      46.715  27.096  34.975  1.00  0.00     0.006 A 
ENDBRANCH  38  55
ENDBRANCH  12  13
ENDBRANCH   5   7
ENDBRANCH   2   3
ENDBRANCH   1   2
BRANCH   1  63
ATOM     63  C   UNL A   1      31.525  31.050  25.744  1.00  0.00     0.023 C 
BRANCH  63  64
ATOM     64  C   UNL A   1      32.433  30.051  26.466  1.00  0.00     0.116 C 
BRANCH  64  65
ATOM     65  N   UNL A   1      31.646  29.112  27.238  1.00  0.00    -0.354 N 
ATOM     66  C   UNL A   1      31.584  27.756  27.154  1.00  0.00     0.249 C 
ATOM     67  H   UNL A   1      31.072  29.516  27.928  1.00  0.00     0.163 HD
ATOM     68  O   UNL A   1      30.562  27.232  27.601  1.00  0.00    -0.272 OA
BRANCH  66  69
ATOM     69  C   UNL A   1      32.761  26.943  26.565  1.00  0.00     0.211 C 
ATOM     70  C   UNL A   1      32.386  25.492  26.252  1.00  0.00     0.085 C 
ATOM     71  O   UNL A   1      33.201  27.542  25.332  1.00  0.00    -0.357 OA
ATOM     72  C   UNL A   1      32.652  25.303  24.759  1.00  0.00     0.123 C 
ATOM     73  C   UNL A   1      32.690  26.764  24.231  1.00  0.00     0.186 C 
BRANCH  72  74
ATOM     74  C   UNL A   1      33.946  24.491  24.540  1.00  0.00    -0.013 A 
ATOM     75  C   UNL A   1      34.888  24.416  25.589  1.00  0.00     0.008 A 
ATOM     76  C   UNL A   1      34.232  23.769  23.368  1.00  0.00     0.008 A 
ATOM     77  C   UNL A   1      36.029  23.614  25.497  1.00  0.00     0.021 A 
ATOM     78  C   UNL A   1      35.368  22.951  23.279  1.00  0.00     0.021 A 
ATOM     79  C   UNL A   1      36.254  22.870  24.347  1.00  0.00     0.041 A 
ATOM     80  Cl  UNL A   1      37.628  21.839  24.246  1.00  0.00    -0.084 Cl
ENDBRANCH  72  74
BRANCH  72  81
ATOM     81  O   UNL A   1      31.626  24.497  24.170  1.00  0.00    -0.382 OA
ATOM     82  H   UNL A   1      31.544  24.713  23.228  1.00  0.00     0.212 HD
ENDBRANCH  72  81
BRANCH  73  83
ATOM     83  C   UNL A   1      31.430  27.432  23.680  1.00  0.00    -0.016 A 
ATOM     84  C   UNL A   1      30.127  26.948  23.878  1.00  0.00     0.008 A 
ATOM     85  C   UNL A   1      31.577  28.642  22.974  1.00  0.00     0.008 A 
ATOM     86  C   UNL A   1      29.015  27.640  23.385  1.00  0.00     0.021 A 
ATOM     87  C   UNL A   1      30.469  29.330  22.472  1.00  0.00     0.021 A 
ATOM     88  C   UNL A   1      29.191  28.826  22.681  1.00  0.00     0.041 A 
ATOM     89  Cl  UNL A   1      27.823  29.676  22.080  1.00  0.00    -0.084 Cl
ENDBRANCH  73  83
ENDBRANCH  66  69
ENDBRANCH  64  65
ENDBRANCH  63  64
ENDBRANCH   1  63
TORSDOF 14
ENDMDL
MODEL 3
REMARK VINA RESULT:     -12.5      3.930      8.112
REMARK SMILES O=C(NCCCCNC(=O)[C@H]1C[C@](O)(c2ccc(Cl)cc2)[C@@H](c2ccc(Cl)cc2)O1)c1ccc(-c2c3nc(c(-c4c(F)cccc4F)c4ccc([nH]4)c(-c4c(F)cccc4F)c4nc(c(-c5c(F)cccc5F)c5ccc2[nH]5)C=C4)C=C3)cc1
REMARK SMILES IDX 5 1 4 2 3 3 1 4 2 5 31 7 32 8 84 9 33 10 83 11 34 12 35 13
REMARK SMILES IDX 36 14 77 15 37 16 82 17 76 18 78 19 38 20 81 21 75 22 74 23
REMARK SMILES IDX 39 25 65 26 48 27 64 28 49 29 52 30 63 31 79 32 50 33 51 34
REMARK SMILES IDX 62 36 80 37 53 38 40 39 41 40 46 41 42 42 43 43 45 44 47 45
REMARK SMILES IDX 44 46 66 47 67 48 72 49 68 50 69 51 71 52 73 53 70 54 54 55
REMARK SMILES IDX 55 56 60 57 56 58 57 59 59 60 61 61 58 62 6 63 7 64 8 65
REMARK SMILES IDX 9 66 10 68 11 69 12 70 30 71 13 72 22 73 15 74 16 75 21 76
REMARK SMILES IDX 17 77 20 78 18 79 19 80 14 81 23 83 24 84 29 85 25 86 28 87
REMARK SMILES IDX 26 88 27 89
REMARK H PARENT 3 6 78 24 52 35 8 67 14 82
REMARK Flexibility Score: inf
ROOT
ATOM      1  C   UNL A   1      38.858  21.160  25.365  1.00  0.00     0.023 C 
ENDROOT
BRANCH   1   2
ATOM      2  C   UNL A   1      39.097  19.947  26.253  1.00  0.00     0.116 C 
BRANCH   2   3
ATOM      3  N   UNL A   1      40.300  19.215  25.894  1.00  0.00    -0.352 N 
ATOM      4  O   UNL A   1      42.489  18.930  25.434  1.00  0.00    -0.269 OA
ATOM      5  C   UNL A   1      41.612  19.632  25.921  1.00  0.00     0.251 C 
ATOM      6  H   UNL A   1      40.156  18.291  25.587  1.00  0.00     0.163 HD
BRANCH   5   7
ATOM      7  C   UNL A   1      41.959  20.943  26.519  1.00  0.00     0.039 A 
ATOM      8  C   UNL A   1      41.917  21.129  27.902  1.00  0.00     0.014 A 
ATOM      9  C   UNL A   1      42.347  21.997  25.684  1.00  0.00     0.014 A 
ATOM     10  C   UNL A   1      42.122  22.396  28.435  1.00  0.00     0.010 A 
ATOM     11  C   UNL A   1      42.638  23.252  26.231  1.00  0.00     0.010 A 
ATOM     12  C   UNL A   1      42.500  23.469  27.609  1.00  0.00    -0.014 A 
BRANCH  12  13
ATOM     13  C   UNL A   1      42.811  24.778  28.243  1.00  0.00     0.031 A 
ATOM     14  C   UNL A   1      44.219  25.169  28.596  1.00  0.00     0.074 A 
ATOM     15  C   UNL A   1      41.801  25.649  28.435  1.00  0.00     0.049 A 
ATOM     16  N   UNL A   1      44.661  26.310  29.066  1.00  0.00    -0.248 NA
ATOM     17  C   UNL A   1      45.267  24.156  28.405  1.00  0.00     0.031 C 
ATOM     18  C   UNL A   1      40.389  25.371  28.159  1.00  0.00     0.029 A 
ATOM     19  N   UNL A   1      41.804  26.949  28.869  1.00  0.00    -0.354 N 
ATOM     20  C   UNL A   1      46.030  26.152  29.234  1.00  0.00     0.074 A 
ATOM     21  C   UNL A   1      46.345  24.794  28.843  1.00  0.00     0.031 C 
ATOM     22  C   UNL A   1      39.672  26.483  28.370  1.00  0.00     0.029 A 
ATOM     23  C   UNL A   1      40.562  27.535  28.847  1.00  0.00     0.049 A 
ATOM     24  H   UNL A   1      42.617  27.417  29.168  1.00  0.00     0.167 HD
ATOM     25  C   UNL A   1      46.940  27.060  29.661  1.00  0.00     0.037 A 
ATOM     26  C   UNL A   1      40.176  28.781  29.177  1.00  0.00     0.037 A 
ATOM     27  C   UNL A   1      46.625  28.414  30.043  1.00  0.00     0.049 A 
ATOM     28  C   UNL A   1      41.208  29.765  29.639  1.00  0.00     0.074 A 
ATOM     29  C   UNL A   1      47.482  29.410  30.481  1.00  0.00     0.029 A 
ATOM     30  N   UNL A   1      45.351  28.964  30.030  1.00  0.00    -0.354 N 
ATOM     31  N   UNL A   1      42.502  29.604  29.768  1.00  0.00    -0.248 NA
ATOM     32  C   UNL A   1      40.727  31.104  30.004  1.00  0.00     0.031 C 
ATOM     33  C   UNL A   1      46.723  30.552  30.763  1.00  0.00     0.029 A 
ATOM     34  C   UNL A   1      45.399  30.280  30.461  1.00  0.00     0.049 A 
ATOM     35  H   UNL A   1      44.535  28.489  29.753  1.00  0.00     0.167 HD
ATOM     36  C   UNL A   1      42.990  30.819  30.227  1.00  0.00     0.074 A 
ATOM     37  C   UNL A   1      41.858  31.718  30.318  1.00  0.00     0.031 C 
ATOM     38  C   UNL A   1      44.260  31.156  30.557  1.00  0.00     0.037 A 
BRANCH  25  39
ATOM     39  C   UNL A   1      48.375  26.624  29.744  1.00  0.00     0.057 A 
ATOM     40  C   UNL A   1      49.284  26.889  28.713  1.00  0.00     0.134 A 
ATOM     41  C   UNL A   1      48.869  25.996  30.895  1.00  0.00     0.134 A 
ATOM     42  F   UNL A   1      48.874  27.479  27.580  1.00  0.00    -0.206 F 
ATOM     43  C   UNL A   1      50.631  26.535  28.818  1.00  0.00     0.040 A 
ATOM     44  C   UNL A   1      50.217  25.655  31.020  1.00  0.00     0.040 A 
ATOM     45  F   UNL A   1      48.053  25.720  31.923  1.00  0.00    -0.206 F 
ATOM     46  C   UNL A   1      51.103  25.924  29.978  1.00  0.00     0.006 A 
ENDBRANCH  25  39
BRANCH  26  47
ATOM     47  C   UNL A   1      38.744  29.159  29.087  1.00  0.00     0.057 A 
ATOM     48  C   UNL A   1      37.899  29.082  30.199  1.00  0.00     0.134 A 
ATOM     49  C   UNL A   1      38.189  29.610  27.883  1.00  0.00     0.134 A 
ATOM     50  F   UNL A   1      38.369  28.642  31.376  1.00  0.00    -0.206 F 
ATOM     51  C   UNL A   1      36.548  29.425  30.115  1.00  0.00     0.040 A 
ATOM     52  C   UNL A   1      36.849  29.983  27.790  1.00  0.00     0.040 A 
ATOM     53  F   UNL A   1      38.951  29.715  26.784  1.00  0.00    -0.206 F 
ATOM     54  C   UNL A   1      36.021  29.883  28.908  1.00  0.00     0.006 A 
ENDBRANCH  26  47
BRANCH  38  55
ATOM     55  C   UNL A   1      44.479  32.558  31.043  1.00  0.00     0.057 A 
ATOM     56  C   UNL A   1      44.751  33.608  30.156  1.00  0.00     0.134 A 
ATOM     57  C   UNL A   1      44.422  32.860  32.408  1.00  0.00     0.134 A 
ATOM     58  F   UNL A   1      44.835  33.377  28.837  1.00  0.00    -0.206 F 
ATOM     59  C   UNL A   1      44.989  34.904  30.613  1.00  0.00     0.040 A 
ATOM     60  C   UNL A   1      44.635  34.158  32.876  1.00  0.00     0.040 A 
ATOM     61  F   UNL A   1      44.160  31.901  33.309  1.00  0.00    -0.206 F 
ATOM     62  C   UNL A   1      44.929  35.182  31.977  1.00  0.00     0.006 A 
ENDBRANCH  38  55
ENDBRANCH  12  13
ENDBRANCH   5   7
ENDBRANCH   2   3
ENDBRANCH   1   2
BRANCH   1  63
ATOM     63  C   UNL A   1      38.519  22.461  26.105  1.00  0.00     0.023 C 
BRANCH  63  64
ATOM     64  C   UNL A   1      37.704  23.476  25.298  1.00  0.00     0.116 C 
BRANCH  64  65
ATOM     65  N   UNL A   1      36.504  23.851  26.016  1.00  0.00    -0.354 N 
ATOM     66  C   UNL A   1      35.292  23.234  26.063  1.00  0.00     0.249 C 
ATOM     67  H   UNL A   1      36.576  24.675  26.550  1.00  0.00     0.163 HD
ATOM     68  O   UNL A   1      34.335  23.943  26.378  1.00  0.00    -0.272 OA
BRANCH  66  69
ATOM     69  C   UNL A   1      35.162  21.720  25.775  1.00  0.00     0.211 C 
ATOM     70  C   UNL A   1      33.919  21.095  26.414  1.00  0.00     0.085 C 
ATOM     71  O   UNL A   1      35.065  21.498  24.356  1.00  0.00    -0.357 OA
ATOM     72  C   UNL A   1      33.112  20.495  25.263  1.00  0.00     0.123 C 
ATOM     73  C   UNL A   1      33.688  21.232  24.022  1.00  0.00     0.186 C 
BRANCH  72  74
ATOM     74  C   UNL A   1      33.261  18.959  25.244  1.00  0.00    -0.013 A 
ATOM     75  C   UNL A   1      32.552  18.195  26.197  1.00  0.00     0.008 A 
ATOM     76  C   UNL A   1      34.027  18.255  24.298  1.00  0.00     0.008 A 
ATOM     77  C   UNL A   1      32.558  16.797  26.171  1.00  0.00     0.021 A 
ATOM     78  C   UNL A   1      34.022  16.853  24.260  1.00  0.00     0.021 A 
ATOM     79  C   UNL A   1      33.280  16.132  25.189  1.00  0.00     0.041 A 
ATOM     80  Cl  UNL A   1      33.251  14.413  25.117  1.00  0.00    -0.084 Cl
ENDBRANCH  72  74
BRANCH  72  81
ATOM     81  O   UNL A   1      31.712  20.711  25.472  1.00  0.00    -0.382 OA
ATOM     82  H   UNL A   1      31.532  21.664  25.500  1.00  0.00     0.212 HD
ENDBRANCH  72  81
BRANCH  73  83
ATOM     83  C   UNL A   1      33.037  22.511  23.497  1.00  0.00    -0.016 A 
ATOM     84  C   UNL A   1      31.709  22.888  23.758  1.00  0.00     0.008 A 
ATOM     85  C   UNL A   1      33.833  23.401  22.748  1.00  0.00     0.008 A 
ATOM     86  C   UNL A   1      31.194  24.099  23.284  1.00  0.00     0.021 A 
ATOM     87  C   UNL A   1      33.318  24.607  22.267  1.00  0.00     0.021 A 
ATOM     88  C   UNL A   1      32.000  24.952  22.538  1.00  0.00     0.041 A 
ATOM     89  Cl  UNL A   1      31.365  26.443  21.961  1.00  0.00    -0.084 Cl
ENDBRANCH  73  83
ENDBRANCH  66  69
ENDBRANCH  64  65
ENDBRANCH  63  64
ENDBRANCH   1  63
TORSDOF 14
ENDMDL
