MODEL 1
REMARK VINA RESULT:     -11.1      0.000      0.000
REMARK SMILES CCC[NH2+][C@@]1(C(=O)NCCCCNC(=O)c2ccc(-c3c4nc(c(-c5c(F)cccc5F)c5ccc([nH]5)c(-c5c(F)cccc5F)c5nc(c(-c6c(F)cccc6F)c6ccc3[nH]6)C=C5)C=C4)cc2)CCC[C@@H]1CC[NH+]1CC[NH+](C)CC1
REMARK SMILES IDX 10 1 9 2 8 3 6 4 7 5 5 7 70 8 73 9 71 10 72 11 4 12 3 15
REMARK SMILES IDX 2 16 1 17 74 18 75 19 76 20 77 21 82 22 78 24 81 25 79 26
REMARK SMILES IDX 80 27 11 29 12 30 13 31 14 32 15 34 16 35 17 36 69 37 18 38
REMARK SMILES IDX 68 39 19 40 20 41 21 42 62 43 22 44 67 45 61 46 63 47 23 48
REMARK SMILES IDX 66 49 60 50 59 51 24 53 50 54 33 55 49 56 34 57 37 58 48 59
REMARK SMILES IDX 64 60 35 61 36 62 47 64 65 65 38 66 25 67 26 68 31 69 27 70
REMARK SMILES IDX 28 71 30 72 32 73 29 74 51 75 52 76 57 77 53 78 54 79 56 80
REMARK SMILES IDX 58 81 55 82 39 83 40 84 45 85 41 86 42 87 44 88 46 89 43 90
REMARK H PARENT 8 6 4 13 4 14 76 23 79 28 13 33 63 52 37 63
REMARK Flexibility Score: inf
ROOT
ATOM      1  C   UNL A   1      36.704  21.124  24.527  1.00  0.00     0.023 C 
ENDROOT
BRANCH   1   2
ATOM      2  C   UNL A   1      36.797  22.379  25.387  1.00  0.00     0.116 C 
BRANCH   2   3
ATOM      3  N   UNL A   1      35.894  22.351  26.516  1.00  0.00    -0.351 N 
ATOM      4  C   UNL A   1      34.589  22.673  26.693  1.00  0.00     0.281 C 
ATOM      5  O   UNL A   1      34.153  22.332  27.804  1.00  0.00    -0.268 OA
ATOM      6  H   UNL A   1      36.323  22.024  27.340  1.00  0.00     0.163 HD
BRANCH   4   7
ATOM      7  C   UNL A   1      33.638  23.357  25.624  1.00  0.00     0.178 C 
ATOM      8  C   UNL A   1      32.736  24.419  26.319  1.00  0.00     0.079 C 
ATOM      9  C   UNL A   1      32.630  22.495  24.803  1.00  0.00     0.066 C 
ATOM     10  C   UNL A   1      31.282  23.960  26.208  1.00  0.00     0.008 C 
ATOM     11  C   UNL A   1      31.290  22.591  25.542  1.00  0.00     0.011 C 
BRANCH   7  12
ATOM     12  N   UNL A   1      34.502  24.189  24.714  1.00  0.00    -0.333 N 
ATOM     13  H   UNL A   1      34.511  25.142  25.081  1.00  0.00     0.347 HD
ATOM     14  H   UNL A   1      35.410  23.724  24.709  1.00  0.00     0.347 HD
BRANCH  12  15
ATOM     15  C   UNL A   1      34.104  24.262  23.309  1.00  0.00     0.261 C 
BRANCH  15  16
ATOM     16  C   UNL A   1      33.393  25.581  22.979  1.00  0.00     0.058 C 
ATOM     17  C   UNL A   1      33.783  26.756  23.863  1.00  0.00     0.010 C 
ENDBRANCH  15  16
ENDBRANCH  12  15
ENDBRANCH   7  12
BRANCH   9  18
ATOM     18  C   UNL A   1      33.000  21.066  24.308  1.00  0.00     0.072 C 
BRANCH  18  19
ATOM     19  C   UNL A   1      32.511  19.908  25.174  1.00  0.00     0.263 C 
BRANCH  19  20
ATOM     20  N   UNL A   1      32.651  18.540  24.655  1.00  0.00    -0.326 N 
ATOM     21  C   UNL A   1      32.623  17.580  25.788  1.00  0.00     0.324 C 
ATOM     22  C   UNL A   1      33.884  18.328  23.880  1.00  0.00     0.324 C 
ATOM     23  H   UNL A   1      31.869  18.388  24.017  1.00  0.00     0.348 HD
ATOM     24  C   UNL A   1      32.796  16.108  25.356  1.00  0.00     0.324 C 
ATOM     25  C   UNL A   1      34.028  16.850  23.430  1.00  0.00     0.324 C 
ATOM     26  N   UNL A   1      33.976  15.845  24.512  1.00  0.00    -0.328 N 
ATOM     27  C   UNL A   1      35.209  15.823  25.293  1.00  0.00     0.333 C 
ATOM     28  H   UNL A   1      33.888  14.917  24.099  1.00  0.00     0.348 HD
ENDBRANCH  19  20
ENDBRANCH  18  19
ENDBRANCH   9  18
ENDBRANCH   4   7
ENDBRANCH   2   3
ENDBRANCH   1   2
BRANCH   1  29
ATOM     29  C   UNL A   1      37.638  19.996  24.931  1.00  0.00     0.023 C 
BRANCH  29  30
ATOM     30  C   UNL A   1      38.864  20.496  25.666  1.00  0.00     0.116 C 
BRANCH  30  31
ATOM     31  N   UNL A   1      39.887  19.460  25.781  1.00  0.00    -0.352 N 
ATOM     32  C   UNL A   1      41.228  19.589  26.061  1.00  0.00     0.251 C 
ATOM     33  H   UNL A   1      39.573  18.539  25.637  1.00  0.00     0.163 HD
ATOM     34  O   UNL A   1      41.998  18.663  25.888  1.00  0.00    -0.269 OA
BRANCH  32  35
ATOM     35  C   UNL A   1      41.707  20.889  26.568  1.00  0.00     0.039 A 
ATOM     36  C   UNL A   1      42.251  21.821  25.685  1.00  0.00     0.014 A 
ATOM     37  C   UNL A   1      41.540  21.194  27.919  1.00  0.00     0.014 A 
ATOM     38  C   UNL A   1      42.559  23.098  26.155  1.00  0.00     0.010 A 
ATOM     39  C   UNL A   1      41.711  22.496  28.347  1.00  0.00     0.010 A 
ATOM     40  C   UNL A   1      42.252  23.453  27.479  1.00  0.00    -0.014 A 
BRANCH  40  41
ATOM     41  C   UNL A   1      42.532  24.803  28.018  1.00  0.00     0.031 A 
ATOM     42  C   UNL A   1      43.939  25.148  28.426  1.00  0.00     0.074 A 
ATOM     43  C   UNL A   1      41.524  25.668  28.229  1.00  0.00     0.049 A 
ATOM     44  N   UNL A   1      44.388  26.213  29.038  1.00  0.00    -0.248 NA
ATOM     45  C   UNL A   1      44.972  24.131  28.161  1.00  0.00     0.031 C 
ATOM     46  C   UNL A   1      40.111  25.420  27.933  1.00  0.00     0.029 A 
ATOM     47  N   UNL A   1      41.535  26.935  28.749  1.00  0.00    -0.354 N 
ATOM     48  C   UNL A   1      45.737  25.971  29.264  1.00  0.00     0.074 A 
ATOM     49  C   UNL A   1      46.017  24.634  28.797  1.00  0.00     0.031 C 
ATOM     50  C   UNL A   1      39.399  26.520  28.232  1.00  0.00     0.029 A 
ATOM     51  C   UNL A   1      40.298  27.531  28.777  1.00  0.00     0.049 A 
ATOM     52  H   UNL A   1      42.354  27.377  29.074  1.00  0.00     0.167 HD
ATOM     53  C   UNL A   1      46.671  26.805  29.777  1.00  0.00     0.037 A 
ATOM     54  C   UNL A   1      39.939  28.759  29.191  1.00  0.00     0.037 A 
ATOM     55  C   UNL A   1      46.395  28.157  30.176  1.00  0.00     0.049 A 
ATOM     56  C   UNL A   1      40.997  29.681  29.730  1.00  0.00     0.074 A 
ATOM     57  C   UNL A   1      47.274  29.122  30.627  1.00  0.00     0.029 A 
ATOM     58  N   UNL A   1      45.134  28.736  30.158  1.00  0.00    -0.354 N 
ATOM     59  N   UNL A   1      42.283  29.470  29.874  1.00  0.00    -0.248 NA
ATOM     60  C   UNL A   1      40.553  31.014  30.161  1.00  0.00     0.031 C 
ATOM     61  C   UNL A   1      46.540  30.278  30.916  1.00  0.00     0.029 A 
ATOM     62  C   UNL A   1      45.209  30.043  30.605  1.00  0.00     0.049 A 
ATOM     63  H   UNL A   1      44.308  28.284  29.870  1.00  0.00     0.167 HD
ATOM     64  C   UNL A   1      42.808  30.651  30.382  1.00  0.00     0.074 A 
ATOM     65  C   UNL A   1      41.701  31.577  30.511  1.00  0.00     0.031 C 
ATOM     66  C   UNL A   1      44.090  30.945  30.712  1.00  0.00     0.037 A 
BRANCH  53  67
ATOM     67  C   UNL A   1      48.068  26.271  29.913  1.00  0.00     0.057 A 
ATOM     68  C   UNL A   1      48.534  25.711  31.111  1.00  0.00     0.134 A 
ATOM     69  C   UNL A   1      48.965  26.336  28.841  1.00  0.00     0.134 A 
ATOM     70  F   UNL A   1      47.731  25.636  32.185  1.00  0.00    -0.206 F 
ATOM     71  C   UNL A   1      49.852  25.275  31.251  1.00  0.00     0.040 A 
ATOM     72  C   UNL A   1      50.277  25.872  28.958  1.00  0.00     0.040 A 
ATOM     73  F   UNL A   1      48.586  26.857  27.665  1.00  0.00    -0.206 F 
ATOM     74  C   UNL A   1      50.727  25.351  30.170  1.00  0.00     0.006 A 
ENDBRANCH  53  67
BRANCH  54  75
ATOM     75  C   UNL A   1      38.532  29.209  29.054  1.00  0.00     0.057 A 
ATOM     76  C   UNL A   1      38.053  29.687  27.827  1.00  0.00     0.134 A 
ATOM     77  C   UNL A   1      37.633  29.169  30.126  1.00  0.00     0.134 A 
ATOM     78  F   UNL A   1      38.872  29.762  26.768  1.00  0.00    -0.206 F 
ATOM     79  C   UNL A   1      36.737  30.124  27.676  1.00  0.00     0.040 A 
ATOM     80  C   UNL A   1      36.307  29.583  29.982  1.00  0.00     0.040 A 
ATOM     81  F   UNL A   1      38.027  28.711  31.324  1.00  0.00    -0.206 F 
ATOM     82  C   UNL A   1      35.857  30.069  28.755  1.00  0.00     0.006 A 
ENDBRANCH  54  75
BRANCH  66  83
ATOM     83  C   UNL A   1      44.365  32.334  31.205  1.00  0.00     0.057 A 
ATOM     84  C   UNL A   1      44.648  33.386  30.327  1.00  0.00     0.134 A 
ATOM     85  C   UNL A   1      44.301  32.625  32.574  1.00  0.00     0.134 A 
ATOM     86  F   UNL A   1      44.737  33.164  29.007  1.00  0.00    -0.206 F 
ATOM     87  C   UNL A   1      44.879  34.679  30.795  1.00  0.00     0.040 A 
ATOM     88  C   UNL A   1      44.504  33.920  33.050  1.00  0.00     0.040 A 
ATOM     89  F   UNL A   1      44.024  31.662  33.465  1.00  0.00    -0.206 F 
ATOM     90  C   UNL A   1      44.799  34.950  32.160  1.00  0.00     0.006 A 
ENDBRANCH  66  83
ENDBRANCH  40  41
ENDBRANCH  32  35
ENDBRANCH  30  31
ENDBRANCH  29  30
ENDBRANCH   1  29
TORSDOF 17
ENDMDL
MODEL 2
REMARK VINA RESULT:     -11.0      1.526      3.870
REMARK SMILES CCC[NH2+][C@@]1(C(=O)NCCCCNC(=O)c2ccc(-c3c4nc(c(-c5c(F)cccc5F)c5ccc([nH]5)c(-c5c(F)cccc5F)c5nc(c(-c6c(F)cccc6F)c6ccc3[nH]6)C=C5)C=C4)cc2)CCC[C@@H]1CC[NH+]1CC[NH+](C)CC1
REMARK SMILES IDX 10 1 9 2 8 3 6 4 7 5 5 7 70 8 73 9 71 10 72 11 4 12 3 15
REMARK SMILES IDX 2 16 1 17 74 18 75 19 76 20 77 21 82 22 78 24 81 25 79 26
REMARK SMILES IDX 80 27 11 29 12 30 13 31 14 32 15 34 16 35 17 36 69 37 18 38
REMARK SMILES IDX 68 39 19 40 20 41 21 42 62 43 22 44 67 45 61 46 63 47 23 48
REMARK SMILES IDX 66 49 60 50 59 51 24 53 50 54 33 55 49 56 34 57 37 58 48 59
REMARK SMILES IDX 64 60 35 61 36 62 47 64 65 65 38 66 25 67 26 68 31 69 27 70
REMARK SMILES IDX 28 71 30 72 32 73 29 74 51 75 52 76 57 77 53 78 54 79 56 80
REMARK SMILES IDX 58 81 55 82 39 83 40 84 45 85 41 86 42 87 44 88 46 89 43 90
REMARK H PARENT 8 6 4 13 4 14 76 23 79 28 13 33 63 52 37 63
REMARK Flexibility Score: inf
ROOT
ATOM      1  C   UNL A   1      36.569  20.173  25.016  1.00  0.00     0.023 C 
ENDROOT
BRANCH   1   2
ATOM      2  C   UNL A   1      36.194  21.633  25.243  1.00  0.00     0.116 C 
BRANCH   2   3
ATOM      3  N   UNL A   1      35.476  21.839  26.481  1.00  0.00    -0.351 N 
ATOM      4  C   UNL A   1      34.192  22.141  26.793  1.00  0.00     0.281 C 
ATOM      5  O   UNL A   1      33.957  22.058  28.009  1.00  0.00    -0.268 OA
ATOM      6  H   UNL A   1      36.049  21.736  27.276  1.00  0.00     0.163 HD
BRANCH   4   7
ATOM      7  C   UNL A   1      33.040  22.511  25.768  1.00  0.00     0.178 C 
ATOM      8  C   UNL A   1      32.493  21.218  25.095  1.00  0.00     0.079 C 
ATOM      9  C   UNL A   1      33.333  23.460  24.565  1.00  0.00     0.066 C 
ATOM     10  C   UNL A   1      32.810  21.283  23.602  1.00  0.00     0.008 C 
ATOM     11  C   UNL A   1      33.626  22.547  23.368  1.00  0.00     0.011 C 
BRANCH   7  12
ATOM     12  N   UNL A   1      31.862  23.003  26.568  1.00  0.00    -0.333 N 
ATOM     13  H   UNL A   1      31.551  22.235  27.164  1.00  0.00     0.347 HD
ATOM     14  H   UNL A   1      32.204  23.822  27.070  1.00  0.00     0.347 HD
BRANCH  12  15
ATOM     15  C   UNL A   1      30.701  23.475  25.813  1.00  0.00     0.261 C 
BRANCH  15  16
ATOM     16  C   UNL A   1      30.313  24.910  26.192  1.00  0.00     0.058 C 
ATOM     17  C   UNL A   1      30.126  25.854  25.015  1.00  0.00     0.010 C 
ENDBRANCH  15  16
ENDBRANCH  12  15
ENDBRANCH   7  12
BRANCH   9  18
ATOM     18  C   UNL A   1      34.292  24.677  24.706  1.00  0.00     0.072 C 
BRANCH  18  19
ATOM     19  C   UNL A   1      33.904  25.722  25.749  1.00  0.00     0.263 C 
BRANCH  19  20
ATOM     20  N   UNL A   1      33.910  27.138  25.356  1.00  0.00    -0.326 N 
ATOM     21  C   UNL A   1      33.186  27.934  26.379  1.00  0.00     0.324 C 
ATOM     22  C   UNL A   1      33.302  27.386  24.039  1.00  0.00     0.324 C 
ATOM     23  H   UNL A   1      34.889  27.418  25.289  1.00  0.00     0.348 HD
ATOM     24  C   UNL A   1      33.104  29.439  26.047  1.00  0.00     0.324 C 
ATOM     25  C   UNL A   1      33.253  28.901  23.709  1.00  0.00     0.324 C 
ATOM     26  N   UNL A   1      32.571  29.750  24.708  1.00  0.00    -0.328 N 
ATOM     27  C   UNL A   1      31.121  29.598  24.651  1.00  0.00     0.333 C 
ATOM     28  H   UNL A   1      32.760  30.730  24.494  1.00  0.00     0.348 HD
ENDBRANCH  19  20
ENDBRANCH  18  19
ENDBRANCH   9  18
ENDBRANCH   4   7
ENDBRANCH   2   3
ENDBRANCH   1   2
BRANCH   1  29
ATOM     29  C   UNL A   1      38.020  19.934  24.635  1.00  0.00     0.023 C 
BRANCH  29  30
ATOM     30  C   UNL A   1      38.975  20.251  25.765  1.00  0.00     0.116 C 
BRANCH  30  31
ATOM     31  N   UNL A   1      40.018  19.237  25.896  1.00  0.00    -0.352 N 
ATOM     32  C   UNL A   1      41.363  19.397  26.136  1.00  0.00     0.251 C 
ATOM     33  H   UNL A   1      39.715  18.306  25.798  1.00  0.00     0.163 HD
ATOM     34  O   UNL A   1      42.143  18.475  25.981  1.00  0.00    -0.269 OA
BRANCH  32  35
ATOM     35  C   UNL A   1      41.834  20.723  26.577  1.00  0.00     0.039 A 
ATOM     36  C   UNL A   1      42.234  21.668  25.632  1.00  0.00     0.014 A 
ATOM     37  C   UNL A   1      41.803  21.038  27.936  1.00  0.00     0.014 A 
ATOM     38  C   UNL A   1      42.532  22.963  26.054  1.00  0.00     0.010 A 
ATOM     39  C   UNL A   1      41.959  22.352  28.331  1.00  0.00     0.010 A 
ATOM     40  C   UNL A   1      42.357  23.322  27.401  1.00  0.00    -0.014 A 
BRANCH  40  41
ATOM     41  C   UNL A   1      42.631  24.690  27.894  1.00  0.00     0.031 A 
ATOM     42  C   UNL A   1      44.046  25.070  28.240  1.00  0.00     0.074 A 
ATOM     43  C   UNL A   1      41.615  25.542  28.122  1.00  0.00     0.049 A 
ATOM     44  N   UNL A   1      44.498  26.158  28.807  1.00  0.00    -0.248 NA
ATOM     45  C   UNL A   1      45.088  24.065  27.961  1.00  0.00     0.031 C 
ATOM     46  C   UNL A   1      40.198  25.261  27.886  1.00  0.00     0.029 A 
ATOM     47  N   UNL A   1      41.623  26.822  28.610  1.00  0.00    -0.354 N 
ATOM     48  C   UNL A   1      45.859  25.946  28.988  1.00  0.00     0.074 A 
ATOM     49  C   UNL A   1      46.146  24.603  28.545  1.00  0.00     0.031 C 
ATOM     50  C   UNL A   1      39.477  26.355  28.184  1.00  0.00     0.029 A 
ATOM     51  C   UNL A   1      40.377  27.396  28.669  1.00  0.00     0.049 A 
ATOM     52  H   UNL A   1      42.444  27.287  28.891  1.00  0.00     0.167 HD
ATOM     53  C   UNL A   1      46.795  26.810  29.444  1.00  0.00     0.037 A 
ATOM     54  C   UNL A   1      40.010  28.628  29.065  1.00  0.00     0.037 A 
ATOM     55  C   UNL A   1      46.509  28.167  29.819  1.00  0.00     0.049 A 
ATOM     56  C   UNL A   1      41.071  29.582  29.540  1.00  0.00     0.074 A 
ATOM     57  C   UNL A   1      47.387  29.159  30.212  1.00  0.00     0.029 A 
ATOM     58  N   UNL A   1      45.237  28.722  29.835  1.00  0.00    -0.354 N 
ATOM     59  N   UNL A   1      42.365  29.398  29.641  1.00  0.00    -0.248 NA
ATOM     60  C   UNL A   1      40.618  30.918  29.954  1.00  0.00     0.031 C 
ATOM     61  C   UNL A   1      46.642  30.308  30.499  1.00  0.00     0.029 A 
ATOM     62  C   UNL A   1      45.305  30.041  30.246  1.00  0.00     0.049 A 
ATOM     63  H   UNL A   1      44.410  28.248  29.589  1.00  0.00     0.167 HD
ATOM     64  C   UNL A   1      42.887  30.601  30.099  1.00  0.00     0.074 A 
ATOM     65  C   UNL A   1      41.768  31.510  30.246  1.00  0.00     0.031 C 
ATOM     66  C   UNL A   1      44.174  30.925  30.372  1.00  0.00     0.037 A 
BRANCH  53  67
ATOM     67  C   UNL A   1      48.206  26.304  29.540  1.00  0.00     0.057 A 
ATOM     68  C   UNL A   1      48.713  25.740  30.720  1.00  0.00     0.134 A 
ATOM     69  C   UNL A   1      49.075  26.401  28.448  1.00  0.00     0.134 A 
ATOM     70  F   UNL A   1      47.938  25.635  31.811  1.00  0.00    -0.206 F 
ATOM     71  C   UNL A   1      50.043  25.331  30.823  1.00  0.00     0.040 A 
ATOM     72  C   UNL A   1      50.399  25.965  28.528  1.00  0.00     0.040 A 
ATOM     73  F   UNL A   1      48.658  26.929  27.288  1.00  0.00    -0.206 F 
ATOM     74  C   UNL A   1      50.889  25.439  29.723  1.00  0.00     0.006 A 
ENDBRANCH  53  67
BRANCH  54  75
ATOM     75  C   UNL A   1      38.591  29.049  28.971  1.00  0.00     0.057 A 
ATOM     76  C   UNL A   1      38.078  29.563  27.772  1.00  0.00     0.134 A 
ATOM     77  C   UNL A   1      37.714  28.946  30.056  1.00  0.00     0.134 A 
ATOM     78  F   UNL A   1      38.876  29.698  26.703  1.00  0.00    -0.206 F 
ATOM     79  C   UNL A   1      36.751  29.974  27.661  1.00  0.00     0.040 A 
ATOM     80  C   UNL A   1      36.375  29.334  29.952  1.00  0.00     0.040 A 
ATOM     81  F   UNL A   1      38.139  28.452  31.228  1.00  0.00    -0.206 F 
ATOM     82  C   UNL A   1      35.892  29.856  28.752  1.00  0.00     0.006 A 
ENDBRANCH  54  75
BRANCH  66  83
ATOM     83  C   UNL A   1      44.441  32.331  30.820  1.00  0.00     0.057 A 
ATOM     84  C   UNL A   1      44.480  32.679  32.175  1.00  0.00     0.134 A 
ATOM     85  C   UNL A   1      44.706  33.336  29.881  1.00  0.00     0.134 A 
ATOM     86  F   UNL A   1      44.222  31.762  33.119  1.00  0.00    -0.206 F 
ATOM     87  C   UNL A   1      44.753  33.984  32.581  1.00  0.00     0.040 A 
ATOM     88  C   UNL A   1      45.006  34.639  30.277  1.00  0.00     0.040 A 
ATOM     89  F   UNL A   1      44.693  33.064  28.568  1.00  0.00    -0.206 F 
ATOM     90  C   UNL A   1      45.025  34.967  31.631  1.00  0.00     0.006 A 
ENDBRANCH  66  83
ENDBRANCH  40  41
ENDBRANCH  32  35
ENDBRANCH  30  31
ENDBRANCH  29  30
ENDBRANCH   1  29
TORSDOF 17
ENDMDL
MODEL 3
REMARK VINA RESULT:     -11.0      1.646      2.308
REMARK SMILES CCC[NH2+][C@@]1(C(=O)NCCCCNC(=O)c2ccc(-c3c4nc(c(-c5c(F)cccc5F)c5ccc([nH]5)c(-c5c(F)cccc5F)c5nc(c(-c6c(F)cccc6F)c6ccc3[nH]6)C=C5)C=C4)cc2)CCC[C@@H]1CC[NH+]1CC[NH+](C)CC1
REMARK SMILES IDX 10 1 9 2 8 3 6 4 7 5 5 7 70 8 73 9 71 10 72 11 4 12 3 15
REMARK SMILES IDX 2 16 1 17 74 18 75 19 76 20 77 21 82 22 78 24 81 25 79 26
REMARK SMILES IDX 80 27 11 29 12 30 13 31 14 32 15 34 16 35 17 36 69 37 18 38
REMARK SMILES IDX 68 39 19 40 20 41 21 42 62 43 22 44 67 45 61 46 63 47 23 48
REMARK SMILES IDX 66 49 60 50 59 51 24 53 50 54 33 55 49 56 34 57 37 58 48 59
REMARK SMILES IDX 64 60 35 61 36 62 47 64 65 65 38 66 25 67 26 68 31 69 27 70
REMARK SMILES IDX 28 71 30 72 32 73 29 74 51 75 52 76 57 77 53 78 54 79 56 80
REMARK SMILES IDX 58 81 55 82 39 83 40 84 45 85 41 86 42 87 44 88 46 89 43 90
REMARK H PARENT 8 6 4 13 4 14 76 23 79 28 13 33 63 52 37 63
REMARK Flexibility Score: inf
ROOT
ATOM      1  C   UNL A   1      36.832  20.297  25.011  1.00  0.00     0.023 C 
ENDROOT
BRANCH   1   2
ATOM      2  C   UNL A   1      36.930  21.811  25.154  1.00  0.00     0.116 C 
BRANCH   2   3
ATOM      3  N   UNL A   1      36.351  22.517  24.033  1.00  0.00    -0.351 N 
ATOM      4  C   UNL A   1      35.174  23.156  23.821  1.00  0.00     0.281 C 
ATOM      5  O   UNL A   1      35.151  23.784  22.750  1.00  0.00    -0.268 OA
ATOM      6  H   UNL A   1      36.945  22.538  23.247  1.00  0.00     0.163 HD
BRANCH   4   7
ATOM      7  C   UNL A   1      33.937  23.198  24.812  1.00  0.00     0.178 C 
ATOM      8  C   UNL A   1      34.330  23.944  26.120  1.00  0.00     0.079 C 
ATOM      9  C   UNL A   1      33.292  21.871  25.321  1.00  0.00     0.066 C 
ATOM     10  C   UNL A   1      34.264  22.950  27.279  1.00  0.00     0.008 C 
ATOM     11  C   UNL A   1      33.931  21.587  26.686  1.00  0.00     0.011 C 
BRANCH   7  12
ATOM     12  N   UNL A   1      32.898  24.103  24.203  1.00  0.00    -0.333 N 
ATOM     13  H   UNL A   1      33.164  25.065  24.415  1.00  0.00     0.347 HD
ATOM     14  H   UNL A   1      32.891  23.870  23.210  1.00  0.00     0.347 HD
BRANCH  12  15
ATOM     15  C   UNL A   1      31.517  23.917  24.648  1.00  0.00     0.261 C 
BRANCH  15  16
ATOM     16  C   UNL A   1      30.547  24.856  23.919  1.00  0.00     0.058 C 
ATOM     17  C   UNL A   1      29.965  25.968  24.779  1.00  0.00     0.010 C 
ENDBRANCH  15  16
ENDBRANCH  12  15
ENDBRANCH   7  12
BRANCH   9  18
ATOM     18  C   UNL A   1      33.156  20.628  24.395  1.00  0.00     0.072 C 
BRANCH  18  19
ATOM     19  C   UNL A   1      32.194  19.541  24.866  1.00  0.00     0.263 C 
BRANCH  19  20
ATOM     20  N   UNL A   1      32.484  18.146  24.504  1.00  0.00    -0.326 N 
ATOM     21  C   UNL A   1      32.584  17.329  25.740  1.00  0.00     0.324 C 
ATOM     22  C   UNL A   1      33.721  17.986  23.723  1.00  0.00     0.324 C 
ATOM     23  H   UNL A   1      31.715  17.833  23.910  1.00  0.00     0.348 HD
ATOM     24  C   UNL A   1      32.920  15.846  25.475  1.00  0.00     0.324 C 
ATOM     25  C   UNL A   1      34.029  16.491  23.442  1.00  0.00     0.324 C 
ATOM     26  N   UNL A   1      34.110  15.621  24.634  1.00  0.00    -0.328 N 
ATOM     27  C   UNL A   1      35.349  15.831  25.376  1.00  0.00     0.333 C 
ATOM     28  H   UNL A   1      34.124  14.646  24.332  1.00  0.00     0.348 HD
ENDBRANCH  19  20
ENDBRANCH  18  19
ENDBRANCH   9  18
ENDBRANCH   4   7
ENDBRANCH   2   3
ENDBRANCH   1   2
BRANCH   1  29
ATOM     29  C   UNL A   1      38.155  19.586  24.782  1.00  0.00     0.023 C 
BRANCH  29  30
ATOM     30  C   UNL A   1      39.228  20.035  25.751  1.00  0.00     0.116 C 
BRANCH  30  31
ATOM     31  N   UNL A   1      40.243  19.005  25.953  1.00  0.00    -0.352 N 
ATOM     32  C   UNL A   1      41.601  19.143  26.128  1.00  0.00     0.251 C 
ATOM     33  H   UNL A   1      39.908  18.080  25.965  1.00  0.00     0.163 HD
ATOM     34  O   UNL A   1      42.346  18.184  26.045  1.00  0.00    -0.269 OA
BRANCH  32  35
ATOM     35  C   UNL A   1      42.129  20.491  26.407  1.00  0.00     0.039 A 
ATOM     36  C   UNL A   1      42.472  21.336  25.352  1.00  0.00     0.014 A 
ATOM     37  C   UNL A   1      42.208  20.928  27.730  1.00  0.00     0.014 A 
ATOM     38  C   UNL A   1      42.826  22.656  25.630  1.00  0.00     0.010 A 
ATOM     39  C   UNL A   1      42.418  22.269  27.990  1.00  0.00     0.010 A 
ATOM     40  C   UNL A   1      42.761  23.139  26.948  1.00  0.00    -0.014 A 
BRANCH  40  41
ATOM     41  C   UNL A   1      43.098  24.539  27.291  1.00  0.00     0.031 A 
ATOM     42  C   UNL A   1      44.537  24.978  27.233  1.00  0.00     0.074 A 
ATOM     43  C   UNL A   1      42.143  25.372  27.742  1.00  0.00     0.049 A 
ATOM     44  N   UNL A   1      45.076  26.107  27.613  1.00  0.00    -0.248 NA
ATOM     45  C   UNL A   1      45.509  23.990  26.732  1.00  0.00     0.031 C 
ATOM     46  C   UNL A   1      40.726  25.038  27.903  1.00  0.00     0.029 A 
ATOM     47  N   UNL A   1      42.225  26.676  28.155  1.00  0.00    -0.354 N 
ATOM     48  C   UNL A   1      46.444  25.945  27.436  1.00  0.00     0.074 A 
ATOM     49  C   UNL A   1      46.661  24.589  26.991  1.00  0.00     0.031 C 
ATOM     50  C   UNL A   1      40.064  26.125  28.333  1.00  0.00     0.029 A 
ATOM     51  C   UNL A   1      41.015  27.216  28.517  1.00  0.00     0.049 A 
ATOM     52  H   UNL A   1      43.071  27.179  28.188  1.00  0.00     0.167 HD
ATOM     53  C   UNL A   1      47.430  26.858  27.590  1.00  0.00     0.037 A 
ATOM     54  C   UNL A   1      40.714  28.456  28.942  1.00  0.00     0.037 A 
ATOM     55  C   UNL A   1      47.196  28.224  27.968  1.00  0.00     0.049 A 
ATOM     56  C   UNL A   1      41.821  29.464  29.078  1.00  0.00     0.074 A 
ATOM     57  C   UNL A   1      48.104  29.260  28.072  1.00  0.00     0.029 A 
ATOM     58  N   UNL A   1      45.951  28.742  28.296  1.00  0.00    -0.354 N 
ATOM     59  N   UNL A   1      43.103  29.323  28.840  1.00  0.00    -0.248 NA
ATOM     60  C   UNL A   1      41.438  30.806  29.538  1.00  0.00     0.031 C 
ATOM     61  C   UNL A   1      47.413  30.401  28.496  1.00  0.00     0.029 A 
ATOM     62  C   UNL A   1      46.069  30.083  28.617  1.00  0.00     0.049 A 
ATOM     63  H   UNL A   1      45.109  28.232  28.299  1.00  0.00     0.167 HD
ATOM     64  C   UNL A   1      43.676  30.563  29.091  1.00  0.00     0.074 A 
ATOM     65  C   UNL A   1      42.598  31.446  29.490  1.00  0.00     0.031 C 
ATOM     66  C   UNL A   1      44.975  30.939  28.999  1.00  0.00     0.037 A 
BRANCH  53  67
ATOM     67  C   UNL A   1      48.837  26.400  27.331  1.00  0.00     0.057 A 
ATOM     68  C   UNL A   1      49.667  25.936  28.362  1.00  0.00     0.134 A 
ATOM     69  C   UNL A   1      49.375  26.441  26.040  1.00  0.00     0.134 A 
ATOM     70  F   UNL A   1      49.219  25.890  29.627  1.00  0.00    -0.206 F 
ATOM     71  C   UNL A   1      50.993  25.572  28.125  1.00  0.00     0.040 A 
ATOM     72  C   UNL A   1      50.690  26.047  25.785  1.00  0.00     0.040 A 
ATOM     73  F   UNL A   1      48.637  26.871  25.006  1.00  0.00    -0.206 F 
ATOM     74  C   UNL A   1      51.507  25.623  26.832  1.00  0.00     0.006 A 
ENDBRANCH  53  67
BRANCH  54  75
ATOM     75  C   UNL A   1      39.304  28.830  29.209  1.00  0.00     0.057 A 
ATOM     76  C   UNL A   1      38.737  28.616  30.472  1.00  0.00     0.134 A 
ATOM     77  C   UNL A   1      38.493  29.412  28.229  1.00  0.00     0.134 A 
ATOM     78  F   UNL A   1      39.462  28.049  31.448  1.00  0.00    -0.206 F 
ATOM     79  C   UNL A   1      37.411  28.951  30.746  1.00  0.00     0.040 A 
ATOM     80  C   UNL A   1      37.170  29.772  28.496  1.00  0.00     0.040 A 
ATOM     81  F   UNL A   1      38.979  29.654  27.003  1.00  0.00    -0.206 F 
ATOM     82  C   UNL A   1      36.623  29.536  29.756  1.00  0.00     0.006 A 
ENDBRANCH  54  75
BRANCH  66  83
ATOM     83  C   UNL A   1      45.291  32.374  29.299  1.00  0.00     0.057 A 
ATOM     84  C   UNL A   1      45.689  32.790  30.575  1.00  0.00     0.134 A 
ATOM     85  C   UNL A   1      45.239  33.338  28.285  1.00  0.00     0.134 A 
ATOM     86  F   UNL A   1      45.744  31.914  31.589  1.00  0.00    -0.206 F 
ATOM     87  C   UNL A   1      46.004  34.123  30.837  1.00  0.00     0.040 A 
ATOM     88  C   UNL A   1      45.577  34.669  28.530  1.00  0.00     0.040 A 
ATOM     89  F   UNL A   1      44.875  33.000  27.039  1.00  0.00    -0.206 F 
ATOM     90  C   UNL A   1      45.956  35.065  29.811  1.00  0.00     0.006 A 
ENDBRANCH  66  83
ENDBRANCH  40  41
ENDBRANCH  32  35
ENDBRANCH  30  31
ENDBRANCH  29  30
ENDBRANCH   1  29
TORSDOF 17
ENDMDL
