MODEL 1
REMARK VINA RESULT:     -11.4      0.000      0.000
REMARK SMILES COC(=O)C[C@H](NC(=O)N1CC[N@H+]2CCC[C@@H]2C1)C(=O)NCCCCNC(=O)c1ccc(-c2c3nc(c(-c4c(F)cccc4F)c4ccc([nH]4)c(-c4c(F)cccc4F)c4nc(c(-c5c(F)cccc5F)c5ccc2[nH]5)C=C4)C=C3)cc1
REMARK SMILES IDX 23 1 22 2 21 3 19 4 20 5 6 7 5 8 3 9 4 10 2 11 1 12 7 13
REMARK SMILES IDX 8 14 9 16 10 17 11 18 18 19 12 20 17 21 13 22 16 23 14 24
REMARK SMILES IDX 15 26 24 27 25 28 26 29 27 30 28 32 29 33 30 34 82 35 31 36
REMARK SMILES IDX 81 37 32 38 33 39 34 40 75 41 35 42 80 43 74 44 76 45 36 46
REMARK SMILES IDX 79 47 73 48 72 49 37 51 63 52 46 53 62 54 47 55 50 56 61 57
REMARK SMILES IDX 77 58 48 59 49 60 60 62 78 63 51 64 38 65 39 66 44 67 40 68
REMARK SMILES IDX 41 69 43 70 45 71 42 72 64 73 65 74 70 75 66 76 67 77 69 78
REMARK SMILES IDX 71 79 68 80 52 81 53 82 58 83 54 84 55 85 57 86 59 87 56 88
REMARK H PARENT 21 6 7 15 13 25 26 31 76 50 50 61
REMARK Flexibility Score: inf
ROOT
ATOM      1  C   UNL A   1      31.423  29.315  24.569  1.00  0.00     0.023 C 
ENDROOT
BRANCH   1   2
ATOM      2  C   UNL A   1      31.134  28.046  25.347  1.00  0.00     0.116 C 
BRANCH   2   3
ATOM      3  N   UNL A   1      32.334  27.393  25.798  1.00  0.00    -0.354 N 
ATOM      4  C   UNL A   1      33.052  26.551  24.978  1.00  0.00     0.243 C 
ATOM      5  O   UNL A   1      34.185  26.808  24.590  1.00  0.00    -0.273 OA
ATOM      6  H   UNL A   1      32.651  27.552  26.717  1.00  0.00     0.163 HD
BRANCH   4   7
ATOM      7  C   UNL A   1      32.318  25.262  24.602  1.00  0.00     0.184 C 
BRANCH   7   8
ATOM      8  C   UNL A   1      32.101  24.375  25.874  1.00  0.00     0.157 C 
BRANCH   8   9
ATOM      9  C   UNL A   1      30.723  24.411  26.531  1.00  0.00     0.308 C 
ATOM     10  O   UNL A   1      29.883  25.282  26.339  1.00  0.00    -0.252 OA
BRANCH   9  11
ATOM     11  O   UNL A   1      30.557  23.364  27.391  1.00  0.00    -0.469 OA
ATOM     12  C   UNL A   1      29.334  22.613  27.266  1.00  0.00     0.282 C 
ENDBRANCH   9  11
ENDBRANCH   8   9
ENDBRANCH   7   8
BRANCH   7  13
ATOM     13  N   UNL A   1      33.048  24.503  23.542  1.00  0.00    -0.326 N 
ATOM     14  C   UNL A   1      34.095  23.673  23.391  1.00  0.00     0.318 C 
ATOM     15  H   UNL A   1      32.624  24.664  22.669  1.00  0.00     0.166 HD
ATOM     16  O   UNL A   1      34.330  23.415  22.204  1.00  0.00    -0.249 OA
BRANCH  14  17
ATOM     17  N   UNL A   1      34.750  23.022  24.397  1.00  0.00    -0.313 N 
ATOM     18  C   UNL A   1      34.680  21.626  24.899  1.00  0.00     0.183 C 
ATOM     19  C   UNL A   1      35.603  23.860  25.284  1.00  0.00     0.186 C 
ATOM     20  C   UNL A   1      36.101  20.991  25.136  1.00  0.00     0.284 C 
ATOM     21  C   UNL A   1      37.009  23.264  25.304  1.00  0.00     0.204 C 
ATOM     22  N   UNL A   1      37.018  21.896  25.836  1.00  0.00    -0.330 N 
ATOM     23  C   UNL A   1      38.052  23.894  26.207  1.00  0.00     0.073 C 
ATOM     24  C   UNL A   1      38.428  21.507  25.888  1.00  0.00     0.262 C 
ATOM     25  H   UNL A   1      36.631  21.837  26.777  1.00  0.00     0.348 HD
ATOM     26  C   UNL A   1      39.152  22.826  26.207  1.00  0.00     0.068 C 
ENDBRANCH  14  17
ENDBRANCH   7  13
ENDBRANCH   4   7
ENDBRANCH   2   3
ENDBRANCH   1   2
BRANCH   1  27
ATOM     27  C   UNL A   1      31.100  30.585  25.342  1.00  0.00     0.023 C 
BRANCH  27  28
ATOM     28  C   UNL A   1      31.988  30.822  26.552  1.00  0.00     0.116 C 
BRANCH  28  29
ATOM     29  N   UNL A   1      32.014  32.216  26.912  1.00  0.00    -0.352 N 
ATOM     30  C   UNL A   1      32.926  32.958  27.610  1.00  0.00     0.251 C 
ATOM     31  H   UNL A   1      31.233  32.728  26.599  1.00  0.00     0.163 HD
ATOM     32  O   UNL A   1      32.579  34.082  27.972  1.00  0.00    -0.269 OA
BRANCH  30  33
ATOM     33  C   UNL A   1      34.290  32.473  27.962  1.00  0.00     0.039 A 
ATOM     34  C   UNL A   1      34.392  31.137  28.368  1.00  0.00     0.014 A 
ATOM     35  C   UNL A   1      35.429  33.277  28.047  1.00  0.00     0.014 A 
ATOM     36  C   UNL A   1      35.584  30.641  28.900  1.00  0.00     0.010 A 
ATOM     37  C   UNL A   1      36.657  32.749  28.465  1.00  0.00     0.010 A 
ATOM     38  C   UNL A   1      36.730  31.447  28.967  1.00  0.00    -0.014 A 
BRANCH  38  39
ATOM     39  C   UNL A   1      37.948  30.960  29.674  1.00  0.00     0.031 A 
ATOM     40  C   UNL A   1      38.177  31.296  31.129  1.00  0.00     0.074 A 
ATOM     41  C   UNL A   1      38.828  30.169  29.029  1.00  0.00     0.049 A 
ATOM     42  N   UNL A   1      39.124  30.878  31.936  1.00  0.00    -0.248 NA
ATOM     43  C   UNL A   1      37.240  32.239  31.759  1.00  0.00     0.031 C 
ATOM     44  C   UNL A   1      38.755  29.798  27.616  1.00  0.00     0.029 A 
ATOM     45  N   UNL A   1      39.943  29.514  29.489  1.00  0.00    -0.354 N 
ATOM     46  C   UNL A   1      38.902  31.518  33.150  1.00  0.00     0.074 A 
ATOM     47  C   UNL A   1      37.773  32.399  32.960  1.00  0.00     0.031 C 
ATOM     48  C   UNL A   1      39.746  28.935  27.338  1.00  0.00     0.029 A 
ATOM     49  C   UNL A   1      40.540  28.715  28.543  1.00  0.00     0.049 A 
ATOM     50  H   UNL A   1      40.283  29.606  30.408  1.00  0.00     0.167 HD
ATOM     51  C   UNL A   1      39.551  31.367  34.329  1.00  0.00     0.037 A 
ATOM     52  C   UNL A   1      41.596  27.886  28.640  1.00  0.00     0.037 A 
ATOM     53  C   UNL A   1      40.650  30.460  34.540  1.00  0.00     0.049 A 
ATOM     54  C   UNL A   1      42.289  27.718  29.964  1.00  0.00     0.074 A 
ATOM     55  C   UNL A   1      41.333  30.192  35.713  1.00  0.00     0.029 A 
ATOM     56  N   UNL A   1      41.221  29.671  33.554  1.00  0.00    -0.354 N 
ATOM     57  N   UNL A   1      42.016  28.272  31.120  1.00  0.00    -0.248 NA
ATOM     58  C   UNL A   1      43.431  26.792  29.997  1.00  0.00     0.031 C 
ATOM     59  C   UNL A   1      42.347  29.271  35.428  1.00  0.00     0.029 A 
ATOM     60  C   UNL A   1      42.260  28.928  34.089  1.00  0.00     0.049 A 
ATOM     61  H   UNL A   1      40.930  29.643  32.614  1.00  0.00     0.167 HD
ATOM     62  C   UNL A   1      42.926  27.735  32.024  1.00  0.00     0.074 A 
ATOM     63  C   UNL A   1      43.749  26.802  31.284  1.00  0.00     0.031 C 
ATOM     64  C   UNL A   1      43.062  27.988  33.349  1.00  0.00     0.037 A 
BRANCH  51  65
ATOM     65  C   UNL A   1      39.087  32.200  35.490  1.00  0.00     0.057 A 
ATOM     66  C   UNL A   1      39.478  33.537  35.647  1.00  0.00     0.134 A 
ATOM     67  C   UNL A   1      38.215  31.668  36.449  1.00  0.00     0.134 A 
ATOM     68  F   UNL A   1      40.320  34.106  34.771  1.00  0.00    -0.206 F 
ATOM     69  C   UNL A   1      39.045  34.304  36.731  1.00  0.00     0.040 A 
ATOM     70  C   UNL A   1      37.752  32.433  37.520  1.00  0.00     0.040 A 
ATOM     71  F   UNL A   1      37.794  30.398  36.356  1.00  0.00    -0.206 F 
ATOM     72  C   UNL A   1      38.174  33.753  37.668  1.00  0.00     0.006 A 
ENDBRANCH  51  65
BRANCH  52  73
ATOM     73  C   UNL A   1      42.039  27.107  27.457  1.00  0.00     0.057 A 
ATOM     74  C   UNL A   1      42.964  27.637  26.547  1.00  0.00     0.134 A 
ATOM     75  C   UNL A   1      41.535  25.829  27.193  1.00  0.00     0.134 A 
ATOM     76  F   UNL A   1      43.469  28.864  26.735  1.00  0.00    -0.206 F 
ATOM     77  C   UNL A   1      43.349  26.933  25.405  1.00  0.00     0.040 A 
ATOM     78  C   UNL A   1      41.933  25.103  26.069  1.00  0.00     0.040 A 
ATOM     79  F   UNL A   1      40.654  25.263  28.031  1.00  0.00    -0.206 F 
ATOM     80  C   UNL A   1      42.836  25.661  25.166  1.00  0.00     0.006 A 
ENDBRANCH  52  73
BRANCH  64  81
ATOM     81  C   UNL A   1      44.105  27.209  34.095  1.00  0.00     0.057 A 
ATOM     82  C   UNL A   1      45.426  27.657  34.219  1.00  0.00     0.134 A 
ATOM     83  C   UNL A   1      43.772  26.001  34.724  1.00  0.00     0.134 A 
ATOM     84  F   UNL A   1      45.813  28.801  33.633  1.00  0.00    -0.206 F 
ATOM     85  C   UNL A   1      46.386  26.917  34.912  1.00  0.00     0.040 A 
ATOM     86  C   UNL A   1      44.716  25.267  35.443  1.00  0.00     0.040 A 
ATOM     87  F   UNL A   1      42.522  25.519  34.654  1.00  0.00    -0.206 F 
ATOM     88  C   UNL A   1      46.030  25.720  35.531  1.00  0.00     0.006 A 
ENDBRANCH  64  81
ENDBRANCH  38  39
ENDBRANCH  30  33
ENDBRANCH  28  29
ENDBRANCH  27  28
ENDBRANCH   1  27
TORSDOF 16
ENDMDL
MODEL 2
REMARK VINA RESULT:     -11.4      1.540      2.581
REMARK SMILES COC(=O)C[C@H](NC(=O)N1CC[N@H+]2CCC[C@@H]2C1)C(=O)NCCCCNC(=O)c1ccc(-c2c3nc(c(-c4c(F)cccc4F)c4ccc([nH]4)c(-c4c(F)cccc4F)c4nc(c(-c5c(F)cccc5F)c5ccc2[nH]5)C=C4)C=C3)cc1
REMARK SMILES IDX 23 1 22 2 21 3 19 4 20 5 6 7 5 8 3 9 4 10 2 11 1 12 7 13
REMARK SMILES IDX 8 14 9 16 10 17 11 18 18 19 12 20 17 21 13 22 16 23 14 24
REMARK SMILES IDX 15 26 24 27 25 28 26 29 27 30 28 32 29 33 30 34 82 35 31 36
REMARK SMILES IDX 81 37 32 38 33 39 34 40 75 41 35 42 80 43 74 44 76 45 36 46
REMARK SMILES IDX 79 47 73 48 72 49 37 51 63 52 46 53 62 54 47 55 50 56 61 57
REMARK SMILES IDX 77 58 48 59 49 60 60 62 78 63 51 64 38 65 39 66 44 67 40 68
REMARK SMILES IDX 41 69 43 70 45 71 42 72 64 73 65 74 70 75 66 76 67 77 69 78
REMARK SMILES IDX 71 79 68 80 52 81 53 82 58 83 54 84 55 85 57 86 59 87 56 88
REMARK H PARENT 21 6 7 15 13 25 26 31 76 50 50 61
REMARK Flexibility Score: inf
ROOT
ATOM      1  C   UNL A   1      32.085  27.862  27.216  1.00  0.00     0.023 C 
ENDROOT
BRANCH   1   2
ATOM      2  C   UNL A   1      31.924  27.078  25.928  1.00  0.00     0.116 C 
BRANCH   2   3
ATOM      3  N   UNL A   1      30.691  27.381  25.251  1.00  0.00    -0.354 N 
ATOM      4  C   UNL A   1      30.510  27.100  23.916  1.00  0.00     0.243 C 
ATOM      5  O   UNL A   1      29.701  26.271  23.515  1.00  0.00    -0.273 OA
ATOM      6  H   UNL A   1      29.957  27.801  25.756  1.00  0.00     0.163 HD
BRANCH   4   7
ATOM      7  C   UNL A   1      31.396  27.917  22.973  1.00  0.00     0.184 C 
BRANCH   7   8
ATOM      8  C   UNL A   1      30.542  29.002  22.237  1.00  0.00     0.157 C 
BRANCH   8   9
ATOM      9  C   UNL A   1      29.579  29.834  23.081  1.00  0.00     0.308 C 
ATOM     10  O   UNL A   1      29.893  30.450  24.092  1.00  0.00    -0.252 OA
BRANCH   9  11
ATOM     11  O   UNL A   1      28.308  29.775  22.584  1.00  0.00    -0.469 OA
ATOM     12  C   UNL A   1      28.043  30.544  21.395  1.00  0.00     0.282 C 
ENDBRANCH   9  11
ENDBRANCH   8   9
ENDBRANCH   7   8
BRANCH   7  13
ATOM     13  N   UNL A   1      32.109  27.044  21.993  1.00  0.00    -0.326 N 
ATOM     14  C   UNL A   1      32.841  25.918  21.943  1.00  0.00     0.318 C 
ATOM     15  H   UNL A   1      32.012  27.417  21.087  1.00  0.00     0.166 HD
ATOM     16  O   UNL A   1      33.296  25.695  20.814  1.00  0.00    -0.249 OA
BRANCH  14  17
ATOM     17  N   UNL A   1      32.957  24.996  22.944  1.00  0.00    -0.313 N 
ATOM     18  C   UNL A   1      32.107  23.848  23.353  1.00  0.00     0.183 C 
ATOM     19  C   UNL A   1      34.048  25.223  23.931  1.00  0.00     0.186 C 
ATOM     20  C   UNL A   1      32.939  22.542  23.635  1.00  0.00     0.284 C 
ATOM     21  C   UNL A   1      34.907  23.962  23.998  1.00  0.00     0.204 C 
ATOM     22  N   UNL A   1      34.137  22.795  24.444  1.00  0.00    -0.330 N 
ATOM     23  C   UNL A   1      36.045  23.913  25.000  1.00  0.00     0.073 C 
ATOM     24  C   UNL A   1      35.108  21.706  24.556  1.00  0.00     0.262 C 
ATOM     25  H   UNL A   1      33.701  22.936  25.354  1.00  0.00     0.348 HD
ATOM     26  C   UNL A   1      36.396  22.420  24.999  1.00  0.00     0.068 C 
ENDBRANCH  14  17
ENDBRANCH   7  13
ENDBRANCH   4   7
ENDBRANCH   2   3
ENDBRANCH   1   2
BRANCH   1  27
ATOM     27  C   UNL A   1      31.626  29.309  27.104  1.00  0.00     0.023 C 
BRANCH  27  28
ATOM     28  C   UNL A   1      32.542  30.192  26.274  1.00  0.00     0.116 C 
BRANCH  28  29
ATOM     29  N   UNL A   1      32.477  31.563  26.712  1.00  0.00    -0.352 N 
ATOM     30  C   UNL A   1      33.322  32.312  27.484  1.00  0.00     0.251 C 
ATOM     31  H   UNL A   1      31.680  32.049  26.399  1.00  0.00     0.163 HD
ATOM     32  O   UNL A   1      32.899  33.393  27.894  1.00  0.00    -0.269 OA
BRANCH  30  33
ATOM     33  C   UNL A   1      34.697  31.882  27.860  1.00  0.00     0.039 A 
ATOM     34  C   UNL A   1      34.858  30.534  28.202  1.00  0.00     0.014 A 
ATOM     35  C   UNL A   1      35.788  32.739  28.025  1.00  0.00     0.014 A 
ATOM     36  C   UNL A   1      36.057  30.074  28.752  1.00  0.00     0.010 A 
ATOM     37  C   UNL A   1      37.028  32.256  28.460  1.00  0.00     0.010 A 
ATOM     38  C   UNL A   1      37.155  30.935  28.899  1.00  0.00    -0.014 A 
BRANCH  38  39
ATOM     39  C   UNL A   1      38.373  30.477  29.624  1.00  0.00     0.031 A 
ATOM     40  C   UNL A   1      38.601  30.866  31.067  1.00  0.00     0.074 A 
ATOM     41  C   UNL A   1      39.256  29.666  29.009  1.00  0.00     0.049 A 
ATOM     42  N   UNL A   1      39.548  30.481  31.889  1.00  0.00    -0.248 NA
ATOM     43  C   UNL A   1      37.661  31.829  31.661  1.00  0.00     0.031 C 
ATOM     44  C   UNL A   1      39.185  29.244  27.610  1.00  0.00     0.029 A 
ATOM     45  N   UNL A   1      40.373  29.031  29.493  1.00  0.00    -0.354 N 
ATOM     46  C   UNL A   1      39.323  31.163  33.079  1.00  0.00     0.074 A 
ATOM     47  C   UNL A   1      38.192  32.034  32.857  1.00  0.00     0.031 C 
ATOM     48  C   UNL A   1      40.179  28.374  27.364  1.00  0.00     0.029 A 
ATOM     49  C   UNL A   1      40.973  28.201  28.577  1.00  0.00     0.049 A 
ATOM     50  H   UNL A   1      40.711  29.157  30.409  1.00  0.00     0.167 HD
ATOM     51  C   UNL A   1      39.972  31.056  34.263  1.00  0.00     0.037 A 
ATOM     52  C   UNL A   1      42.031  27.378  28.705  1.00  0.00     0.037 A 
ATOM     53  C   UNL A   1      41.072  30.161  34.507  1.00  0.00     0.049 A 
ATOM     54  C   UNL A   1      42.723  27.260  30.034  1.00  0.00     0.074 A 
ATOM     55  C   UNL A   1      41.755  29.937  35.690  1.00  0.00     0.029 A 
ATOM     56  N   UNL A   1      41.646  29.338  33.551  1.00  0.00    -0.354 N 
ATOM     57  N   UNL A   1      42.448  27.854  31.169  1.00  0.00    -0.248 NA
ATOM     58  C   UNL A   1      43.868  26.339  30.102  1.00  0.00     0.031 C 
ATOM     59  C   UNL A   1      42.773  29.009  35.439  1.00  0.00     0.029 A 
ATOM     60  C   UNL A   1      42.687  28.618  34.113  1.00  0.00     0.049 A 
ATOM     61  H   UNL A   1      41.357  29.276  32.612  1.00  0.00     0.167 HD
ATOM     62  C   UNL A   1      43.358  27.352  32.093  1.00  0.00     0.074 A 
ATOM     63  C   UNL A   1      44.184  26.396  31.388  1.00  0.00     0.031 C 
ATOM     64  C   UNL A   1      43.492  27.654  33.408  1.00  0.00     0.037 A 
BRANCH  51  65
ATOM     65  C   UNL A   1      39.504  31.930  35.392  1.00  0.00     0.057 A 
ATOM     66  C   UNL A   1      38.534  31.501  36.310  1.00  0.00     0.134 A 
ATOM     67  C   UNL A   1      40.050  33.206  35.583  1.00  0.00     0.134 A 
ATOM     68  F   UNL A   1      37.963  30.295  36.179  1.00  0.00    -0.206 F 
ATOM     69  C   UNL A   1      38.103  32.320  37.355  1.00  0.00     0.040 A 
ATOM     70  C   UNL A   1      39.648  34.022  36.641  1.00  0.00     0.040 A 
ATOM     71  F   UNL A   1      40.988  33.677  34.748  1.00  0.00    -0.206 F 
ATOM     72  C   UNL A   1      38.665  33.584  37.526  1.00  0.00     0.006 A 
ENDBRANCH  51  65
BRANCH  52  73
ATOM     73  C   UNL A   1      42.477  26.558  27.551  1.00  0.00     0.057 A 
ATOM     74  C   UNL A   1      43.379  27.067  26.608  1.00  0.00     0.134 A 
ATOM     75  C   UNL A   1      41.998  25.259  27.349  1.00  0.00     0.134 A 
ATOM     76  F   UNL A   1      43.859  28.312  26.736  1.00  0.00    -0.206 F 
ATOM     77  C   UNL A   1      43.766  26.324  25.492  1.00  0.00     0.040 A 
ATOM     78  C   UNL A   1      42.399  24.494  26.253  1.00  0.00     0.040 A 
ATOM     79  F   UNL A   1      41.140  24.711  28.222  1.00  0.00    -0.206 F 
ATOM     80  C   UNL A   1      43.278  25.031  25.314  1.00  0.00     0.006 A 
ENDBRANCH  52  73
BRANCH  64  81
ATOM     81  C   UNL A   1      44.537  26.905  34.183  1.00  0.00     0.057 A 
ATOM     82  C   UNL A   1      45.840  27.393  34.345  1.00  0.00     0.134 A 
ATOM     83  C   UNL A   1      44.223  25.686  34.800  1.00  0.00     0.134 A 
ATOM     84  F   UNL A   1      46.208  28.549  33.772  1.00  0.00    -0.206 F 
ATOM     85  C   UNL A   1      46.801  26.681  35.064  1.00  0.00     0.040 A 
ATOM     86  C   UNL A   1      45.168  24.979  35.544  1.00  0.00     0.040 A 
ATOM     87  F   UNL A   1      42.991  25.166  34.694  1.00  0.00    -0.206 F 
ATOM     88  C   UNL A   1      46.465  25.472  35.671  1.00  0.00     0.006 A 
ENDBRANCH  64  81
ENDBRANCH  38  39
ENDBRANCH  30  33
ENDBRANCH  28  29
ENDBRANCH  27  28
ENDBRANCH   1  27
TORSDOF 16
ENDMDL
MODEL 3
REMARK VINA RESULT:     -11.2      2.268      3.154
REMARK SMILES COC(=O)C[C@H](NC(=O)N1CC[N@H+]2CCC[C@@H]2C1)C(=O)NCCCCNC(=O)c1ccc(-c2c3nc(c(-c4c(F)cccc4F)c4ccc([nH]4)c(-c4c(F)cccc4F)c4nc(c(-c5c(F)cccc5F)c5ccc2[nH]5)C=C4)C=C3)cc1
REMARK SMILES IDX 23 1 22 2 21 3 19 4 20 5 6 7 5 8 3 9 4 10 2 11 1 12 7 13
REMARK SMILES IDX 8 14 9 16 10 17 11 18 18 19 12 20 17 21 13 22 16 23 14 24
REMARK SMILES IDX 15 26 24 27 25 28 26 29 27 30 28 32 29 33 30 34 82 35 31 36
REMARK SMILES IDX 81 37 32 38 33 39 34 40 75 41 35 42 80 43 74 44 76 45 36 46
REMARK SMILES IDX 79 47 73 48 72 49 37 51 63 52 46 53 62 54 47 55 50 56 61 57
REMARK SMILES IDX 77 58 48 59 49 60 60 62 78 63 51 64 38 65 39 66 44 67 40 68
REMARK SMILES IDX 41 69 43 70 45 71 42 72 64 73 65 74 70 75 66 76 67 77 69 78
REMARK SMILES IDX 71 79 68 80 52 81 53 82 58 83 54 84 55 85 57 86 59 87 56 88
REMARK H PARENT 21 6 7 15 13 25 26 31 76 50 50 61
REMARK Flexibility Score: inf
ROOT
ATOM      1  C   UNL A   1      34.373  30.408  27.527  1.00  0.00     0.023 C 
ENDROOT
BRANCH   1   2
ATOM      2  C   UNL A   1      34.028  29.112  26.818  1.00  0.00     0.116 C 
BRANCH   2   3
ATOM      3  N   UNL A   1      32.615  28.971  26.588  1.00  0.00    -0.354 N 
ATOM      4  C   UNL A   1      31.918  27.862  27.012  1.00  0.00     0.243 C 
ATOM      5  O   UNL A   1      31.052  27.912  27.878  1.00  0.00    -0.273 OA
ATOM      6  H   UNL A   1      32.132  29.688  26.115  1.00  0.00     0.163 HD
BRANCH   4   7
ATOM      7  C   UNL A   1      32.310  26.564  26.304  1.00  0.00     0.184 C 
BRANCH   7   8
ATOM      8  C   UNL A   1      32.119  26.715  24.758  1.00  0.00     0.157 C 
BRANCH   8   9
ATOM      9  C   UNL A   1      30.700  26.938  24.241  1.00  0.00     0.308 C 
ATOM     10  O   UNL A   1      29.696  26.419  24.717  1.00  0.00    -0.252 OA
BRANCH   9  11
ATOM     11  O   UNL A   1      30.692  27.763  23.153  1.00  0.00    -0.469 OA
ATOM     12  C   UNL A   1      31.766  28.718  23.060  1.00  0.00     0.282 C 
ENDBRANCH   9  11
ENDBRANCH   8   9
ENDBRANCH   7   8
BRANCH   7  13
ATOM     13  N   UNL A   1      31.534  25.398  26.824  1.00  0.00    -0.326 N 
ATOM     14  C   UNL A   1      31.435  24.065  26.677  1.00  0.00     0.318 C 
ATOM     15  H   UNL A   1      30.881  25.707  27.492  1.00  0.00     0.166 HD
ATOM     16  O   UNL A   1      30.493  23.584  27.318  1.00  0.00    -0.249 OA
BRANCH  14  17
ATOM     17  N   UNL A   1      32.343  23.262  26.048  1.00  0.00    -0.313 N 
ATOM     18  C   UNL A   1      32.224  22.310  24.914  1.00  0.00     0.183 C 
ATOM     19  C   UNL A   1      33.695  23.178  26.667  1.00  0.00     0.186 C 
ATOM     20  C   UNL A   1      33.377  22.472  23.856  1.00  0.00     0.284 C 
ATOM     21  C   UNL A   1      34.734  23.530  25.605  1.00  0.00     0.204 C 
ATOM     22  N   UNL A   1      34.702  22.596  24.473  1.00  0.00    -0.330 N 
ATOM     23  C   UNL A   1      36.204  23.437  25.969  1.00  0.00     0.073 C 
ATOM     24  C   UNL A   1      35.808  22.998  23.604  1.00  0.00     0.262 C 
ATOM     25  H   UNL A   1      34.848  21.628  24.758  1.00  0.00     0.348 HD
ATOM     26  C   UNL A   1      36.872  23.509  24.590  1.00  0.00     0.068 C 
ENDBRANCH  14  17
ENDBRANCH   7  13
ENDBRANCH   4   7
ENDBRANCH   2   3
ENDBRANCH   1   2
BRANCH   1  27
ATOM     27  C   UNL A   1      33.163  31.291  27.794  1.00  0.00     0.023 C 
BRANCH  27  28
ATOM     28  C   UNL A   1      33.128  32.567  26.970  1.00  0.00     0.116 C 
BRANCH  28  29
ATOM     29  N   UNL A   1      32.742  33.696  27.778  1.00  0.00    -0.352 N 
ATOM     30  C   UNL A   1      33.270  34.213  28.928  1.00  0.00     0.251 C 
ATOM     31  H   UNL A   1      31.955  34.183  27.440  1.00  0.00     0.163 HD
ATOM     32  O   UNL A   1      32.594  35.047  29.532  1.00  0.00    -0.269 OA
BRANCH  30  33
ATOM     33  C   UNL A   1      34.591  33.811  29.485  1.00  0.00     0.039 A 
ATOM     34  C   UNL A   1      35.723  34.243  28.782  1.00  0.00     0.014 A 
ATOM     35  C   UNL A   1      34.775  32.938  30.560  1.00  0.00     0.014 A 
ATOM     36  C   UNL A   1      36.993  33.762  29.109  1.00  0.00     0.010 A 
ATOM     37  C   UNL A   1      36.058  32.552  30.966  1.00  0.00     0.010 A 
ATOM     38  C   UNL A   1      37.175  32.899  30.200  1.00  0.00    -0.014 A 
BRANCH  38  39
ATOM     39  C   UNL A   1      38.504  32.274  30.446  1.00  0.00     0.031 A 
ATOM     40  C   UNL A   1      39.462  32.875  31.448  1.00  0.00     0.074 A 
ATOM     41  C   UNL A   1      38.839  31.134  29.811  1.00  0.00     0.049 A 
ATOM     42  N   UNL A   1      40.617  32.416  31.868  1.00  0.00    -0.248 NA
ATOM     43  C   UNL A   1      39.092  34.169  32.042  1.00  0.00     0.031 C 
ATOM     44  C   UNL A   1      38.032  30.465  28.790  1.00  0.00     0.029 A 
ATOM     45  N   UNL A   1      39.937  30.321  29.952  1.00  0.00    -0.354 N 
ATOM     46  C   UNL A   1      41.109  33.369  32.754  1.00  0.00     0.074 A 
ATOM     47  C   UNL A   1      40.162  34.460  32.764  1.00  0.00     0.031 C 
ATOM     48  C   UNL A   1      38.632  29.316  28.440  1.00  0.00     0.029 A 
ATOM     49  C   UNL A   1      39.879  29.181  29.188  1.00  0.00     0.049 A 
ATOM     50  H   UNL A   1      40.693  30.535  30.545  1.00  0.00     0.167 HD
ATOM     51  C   UNL A   1      42.227  33.332  33.517  1.00  0.00     0.037 A 
ATOM     52  C   UNL A   1      40.724  28.136  29.113  1.00  0.00     0.037 A 
ATOM     53  C   UNL A   1      43.154  32.231  33.546  1.00  0.00     0.049 A 
ATOM     54  C   UNL A   1      41.948  28.106  29.985  1.00  0.00     0.074 A 
ATOM     55  C   UNL A   1      44.282  32.074  34.331  1.00  0.00     0.029 A 
ATOM     56  N   UNL A   1      43.055  31.096  32.756  1.00  0.00    -0.354 N 
ATOM     57  N   UNL A   1      42.356  28.979  30.873  1.00  0.00    -0.248 NA
ATOM     58  C   UNL A   1      42.823  26.932  29.853  1.00  0.00     0.031 C 
ATOM     59  C   UNL A   1      44.892  30.863  33.985  1.00  0.00     0.029 A 
ATOM     60  C   UNL A   1      44.113  30.243  33.023  1.00  0.00     0.049 A 
ATOM     61  H   UNL A   1      42.339  30.924  32.102  1.00  0.00     0.167 HD
ATOM     62  C   UNL A   1      43.510  28.443  31.432  1.00  0.00     0.074 A 
ATOM     63  C   UNL A   1      43.730  27.164  30.791  1.00  0.00     0.031 C 
ATOM     64  C   UNL A   1      44.313  28.963  32.393  1.00  0.00     0.037 A 
BRANCH  51  65
ATOM     65  C   UNL A   1      42.509  34.520  34.393  1.00  0.00     0.057 A 
ATOM     66  C   UNL A   1      43.232  35.628  33.930  1.00  0.00     0.134 A 
ATOM     67  C   UNL A   1      42.030  34.568  35.708  1.00  0.00     0.134 A 
ATOM     68  F   UNL A   1      43.728  35.642  32.684  1.00  0.00    -0.206 F 
ATOM     69  C   UNL A   1      43.493  36.727  34.751  1.00  0.00     0.040 A 
ATOM     70  C   UNL A   1      42.261  35.673  36.530  1.00  0.00     0.040 A 
ATOM     71  F   UNL A   1      41.325  33.546  36.215  1.00  0.00    -0.206 F 
ATOM     72  C   UNL A   1      43.001  36.753  36.054  1.00  0.00     0.006 A 
ENDBRANCH  51  65
BRANCH  52  73
ATOM     73  C   UNL A   1      40.419  26.999  28.208  1.00  0.00     0.057 A 
ATOM     74  C   UNL A   1      40.980  26.924  26.927  1.00  0.00     0.134 A 
ATOM     75  C   UNL A   1      39.546  25.975  28.591  1.00  0.00     0.134 A 
ATOM     76  F   UNL A   1      41.810  27.884  26.495  1.00  0.00    -0.206 F 
ATOM     77  C   UNL A   1      40.661  25.886  26.049  1.00  0.00     0.040 A 
ATOM     78  C   UNL A   1      39.240  24.916  27.734  1.00  0.00     0.040 A 
ATOM     79  F   UNL A   1      38.984  25.984  29.808  1.00  0.00    -0.206 F 
ATOM     80  C   UNL A   1      39.791  24.876  26.454  1.00  0.00     0.006 A 
ENDBRANCH  52  73
BRANCH  64  81
ATOM     81  C   UNL A   1      45.473  28.127  32.849  1.00  0.00     0.057 A 
ATOM     82  C   UNL A   1      46.743  28.231  32.267  1.00  0.00     0.134 A 
ATOM     83  C   UNL A   1      45.320  27.220  33.906  1.00  0.00     0.134 A 
ATOM     84  F   UNL A   1      46.954  29.073  31.244  1.00  0.00    -0.206 F 
ATOM     85  C   UNL A   1      47.810  27.441  32.698  1.00  0.00     0.040 A 
ATOM     86  C   UNL A   1      46.386  26.445  34.365  1.00  0.00     0.040 A 
ATOM     87  F   UNL A   1      44.134  27.077  34.516  1.00  0.00    -0.206 F 
ATOM     88  C   UNL A   1      47.634  26.548  33.754  1.00  0.00     0.006 A 
ENDBRANCH  64  81
ENDBRANCH  38  39
ENDBRANCH  30  33
ENDBRANCH  28  29
ENDBRANCH  27  28
ENDBRANCH   1  27
TORSDOF 16
ENDMDL
