MODEL 1
REMARK VINA RESULT:     -13.9      0.000      0.000
REMARK SMILES Cc1ccccc1-c1c(Cl)ccc2c1C=C(C(=O)NCCCCNC(=O)c1ccc(-c3c4nc(c(-c5c(F)cccc5F)c5ccc([nH]5)c(-c5c(F)cccc5F)c5nc(c(-c6c(F)cccc6F)c6ccc3[nH]6)C=C5)C=C4)cc1)[C@@H](C(F)(F)F)O2
REMARK SMILES IDX 22 1 21 2 20 3 19 4 17 5 18 6 16 8 8 9 9 10 14 11 10 12
REMARK SMILES IDX 11 13 13 14 15 15 12 16 86 17 81 18 7 19 1 20 2 21 3 22 4 23
REMARK SMILES IDX 6 24 5 25 82 26 83 27 84 28 85 29 23 30 24 31 25 32 26 34
REMARK SMILES IDX 27 35 28 36 80 37 29 38 79 39 30 40 31 41 32 42 73 43 33 44
REMARK SMILES IDX 78 45 72 46 74 47 34 48 77 49 71 50 70 51 35 53 61 54 44 55
REMARK SMILES IDX 60 56 45 57 48 58 59 59 75 60 46 61 47 62 58 64 76 65 49 66
REMARK SMILES IDX 36 67 37 68 42 69 38 70 39 71 41 72 43 73 40 74 62 75 63 76
REMARK SMILES IDX 68 77 64 78 65 79 67 80 69 81 66 82 50 83 51 84 56 85 52 86
REMARK SMILES IDX 53 87 55 88 57 89 54 90
REMARK H PARENT 19 7 24 33 74 52 48 63
REMARK Flexibility Score: inf
ROOT
ATOM      1  C   UNL A   1      34.062  31.673  27.973  1.00  0.00     0.023 C 
ENDROOT
BRANCH   1   2
ATOM      2  C   UNL A   1      35.115  30.611  27.638  1.00  0.00     0.023 C 
BRANCH   2   3
ATOM      3  C   UNL A   1      34.591  29.327  26.984  1.00  0.00     0.116 C 
BRANCH   3   4
ATOM      4  N   UNL A   1      33.433  28.789  27.669  1.00  0.00    -0.352 N 
ATOM      5  C   UNL A   1      32.412  28.002  27.254  1.00  0.00     0.251 C 
ATOM      6  O   UNL A   1      31.503  27.797  28.061  1.00  0.00    -0.270 OA
ATOM      7  H   UNL A   1      33.378  29.045  28.618  1.00  0.00     0.163 HD
BRANCH   5   8
ATOM      8  C   UNL A   1      32.357  27.403  25.872  1.00  0.00     0.067 C 
ATOM      9  C   UNL A   1      33.160  23.755  25.866  1.00  0.00     0.012 A 
ATOM     10  C   UNL A   1      32.456  22.598  26.287  1.00  0.00     0.049 A 
ATOM     11  C   UNL A   1      32.446  24.981  25.842  1.00  0.00     0.027 A 
ATOM     12  Cl  UNL A   1      33.240  21.063  26.488  1.00  0.00    -0.084 Cl
ATOM     13  C   UNL A   1      31.087  22.637  26.576  1.00  0.00     0.025 A 
ATOM     14  C   UNL A   1      31.052  24.982  26.056  1.00  0.00     0.128 A 
ATOM     15  C   UNL A   1      33.106  26.294  25.723  1.00  0.00     0.026 C 
ATOM     16  C   UNL A   1      30.379  23.822  26.426  1.00  0.00     0.049 A 
ATOM     17  O   UNL A   1      30.262  26.099  25.939  1.00  0.00    -0.475 OA
ATOM     18  C   UNL A   1      30.908  27.284  25.419  1.00  0.00     0.314 C 
BRANCH   9  19
ATOM     19  C   UNL A   1      34.550  23.640  25.351  1.00  0.00    -0.013 A 
ATOM     20  C   UNL A   1      33.892  23.280  22.899  1.00  0.00     0.045 C 
ATOM     21  C   UNL A   1      34.899  23.434  24.001  1.00  0.00    -0.043 A 
ATOM     22  C   UNL A   1      36.260  23.322  23.647  1.00  0.00     0.004 A 
ATOM     23  C   UNL A   1      37.270  23.444  24.599  1.00  0.00     0.000 A 
ATOM     24  C   UNL A   1      35.597  23.749  26.296  1.00  0.00     0.009 A 
ATOM     25  C   UNL A   1      36.937  23.664  25.926  1.00  0.00     0.001 A 
ENDBRANCH   9  19
BRANCH  18  26
ATOM     26  C   UNL A   1      30.800  27.371  23.886  1.00  0.00     0.429 C 
ATOM     27  F   UNL A   1      29.592  27.845  23.500  1.00  0.00    -0.167 F 
ATOM     28  F   UNL A   1      31.733  28.222  23.384  1.00  0.00    -0.167 F 
ATOM     29  F   UNL A   1      30.982  26.180  23.271  1.00  0.00    -0.167 F 
ENDBRANCH  18  26
ENDBRANCH   5   8
ENDBRANCH   3   4
ENDBRANCH   2   3
ENDBRANCH   1   2
BRANCH   1  30
ATOM     30  C   UNL A   1      34.585  33.098  28.111  1.00  0.00     0.116 C 
BRANCH  30  31
ATOM     31  N   UNL A   1      33.770  33.973  28.941  1.00  0.00    -0.352 N 
ATOM     32  C   UNL A   1      33.800  34.198  30.309  1.00  0.00     0.251 C 
ATOM     33  H   UNL A   1      33.089  34.488  28.452  1.00  0.00     0.163 HD
ATOM     34  O   UNL A   1      32.957  34.925  30.812  1.00  0.00    -0.269 OA
BRANCH  32  35
ATOM     35  C   UNL A   1      34.925  33.692  31.145  1.00  0.00     0.039 A 
ATOM     36  C   UNL A   1      36.087  34.477  31.221  1.00  0.00     0.014 A 
ATOM     37  C   UNL A   1      34.937  32.408  31.677  1.00  0.00     0.014 A 
ATOM     38  C   UNL A   1      37.303  33.884  31.559  1.00  0.00     0.010 A 
ATOM     39  C   UNL A   1      36.147  31.789  31.908  1.00  0.00     0.010 A 
ATOM     40  C   UNL A   1      37.335  32.510  31.768  1.00  0.00    -0.014 A 
BRANCH  40  41
ATOM     41  C   UNL A   1      38.544  31.702  31.674  1.00  0.00     0.031 A 
ATOM     42  C   UNL A   1      38.566  30.448  30.900  1.00  0.00     0.074 A 
ATOM     43  C   UNL A   1      39.694  32.237  32.139  1.00  0.00     0.049 A 
ATOM     44  N   UNL A   1      39.502  29.564  30.970  1.00  0.00    -0.248 NA
ATOM     45  C   UNL A   1      37.480  30.060  30.012  1.00  0.00     0.031 C 
ATOM     46  C   UNL A   1      41.060  31.841  31.812  1.00  0.00     0.029 A 
ATOM     47  N   UNL A   1      39.838  33.160  33.181  1.00  0.00    -0.354 N 
ATOM     48  C   UNL A   1      39.319  28.674  29.936  1.00  0.00     0.074 A 
ATOM     49  C   UNL A   1      37.988  28.957  29.457  1.00  0.00     0.031 C 
ATOM     50  C   UNL A   1      41.882  32.283  32.777  1.00  0.00     0.029 A 
ATOM     51  C   UNL A   1      41.045  32.829  33.832  1.00  0.00     0.049 A 
ATOM     52  H   UNL A   1      39.221  33.892  33.414  1.00  0.00     0.167 HD
ATOM     53  C   UNL A   1      40.383  27.921  29.526  1.00  0.00     0.037 A 
ATOM     54  C   UNL A   1      41.050  32.397  35.125  1.00  0.00     0.037 A 
ATOM     55  C   UNL A   1      41.507  28.066  30.461  1.00  0.00     0.049 A 
ATOM     56  C   UNL A   1      41.620  31.008  35.294  1.00  0.00     0.074 A 
ATOM     57  C   UNL A   1      42.692  28.783  30.410  1.00  0.00     0.029 A 
ATOM     58  N   UNL A   1      41.363  27.645  31.781  1.00  0.00    -0.354 N 
ATOM     59  N   UNL A   1      41.729  30.144  34.323  1.00  0.00    -0.248 NA
ATOM     60  C   UNL A   1      42.092  30.474  36.569  1.00  0.00     0.031 C 
ATOM     61  C   UNL A   1      43.223  28.852  31.724  1.00  0.00     0.029 A 
ATOM     62  C   UNL A   1      42.375  28.156  32.570  1.00  0.00     0.049 A 
ATOM     63  H   UNL A   1      40.639  27.064  32.108  1.00  0.00     0.167 HD
ATOM     64  C   UNL A   1      42.245  28.970  34.806  1.00  0.00     0.074 A 
ATOM     65  C   UNL A   1      42.472  29.233  36.215  1.00  0.00     0.031 C 
ATOM     66  C   UNL A   1      42.426  27.882  34.001  1.00  0.00     0.037 A 
BRANCH  53  67
ATOM     67  C   UNL A   1      40.534  27.292  28.144  1.00  0.00     0.057 A 
ATOM     68  C   UNL A   1      40.019  26.001  27.887  1.00  0.00     0.134 A 
ATOM     69  C   UNL A   1      41.239  27.834  27.053  1.00  0.00     0.134 A 
ATOM     70  F   UNL A   1      39.233  25.366  28.765  1.00  0.00    -0.206 F 
ATOM     71  C   UNL A   1      40.282  25.282  26.709  1.00  0.00     0.040 A 
ATOM     72  C   UNL A   1      41.530  27.121  25.879  1.00  0.00     0.040 A 
ATOM     73  F   UNL A   1      41.652  29.101  27.024  1.00  0.00    -0.206 F 
ATOM     74  C   UNL A   1      41.067  25.830  25.708  1.00  0.00     0.006 A 
ENDBRANCH  53  67
BRANCH  54  75
ATOM     75  C   UNL A   1      39.944  32.973  35.936  1.00  0.00     0.057 A 
ATOM     76  C   UNL A   1      38.792  32.194  36.148  1.00  0.00     0.134 A 
ATOM     77  C   UNL A   1      40.152  34.051  36.802  1.00  0.00     0.134 A 
ATOM     78  F   UNL A   1      38.536  31.140  35.356  1.00  0.00    -0.206 F 
ATOM     79  C   UNL A   1      37.949  32.403  37.242  1.00  0.00     0.040 A 
ATOM     80  C   UNL A   1      39.304  34.278  37.894  1.00  0.00     0.040 A 
ATOM     81  F   UNL A   1      41.239  34.825  36.681  1.00  0.00    -0.206 F 
ATOM     82  C   UNL A   1      38.225  33.430  38.139  1.00  0.00     0.006 A 
ENDBRANCH  54  75
BRANCH  66  83
ATOM     83  C   UNL A   1      42.746  26.481  34.466  1.00  0.00     0.057 A 
ATOM     84  C   UNL A   1      41.857  25.662  35.180  1.00  0.00     0.134 A 
ATOM     85  C   UNL A   1      43.944  25.850  34.063  1.00  0.00     0.134 A 
ATOM     86  F   UNL A   1      40.636  26.088  35.529  1.00  0.00    -0.206 F 
ATOM     87  C   UNL A   1      42.161  24.336  35.517  1.00  0.00     0.040 A 
ATOM     88  C   UNL A   1      44.234  24.511  34.347  1.00  0.00     0.040 A 
ATOM     89  F   UNL A   1      44.878  26.497  33.351  1.00  0.00    -0.206 F 
ATOM     90  C   UNL A   1      43.346  23.752  35.091  1.00  0.00     0.006 A 
ENDBRANCH  66  83
ENDBRANCH  40  41
ENDBRANCH  32  35
ENDBRANCH  30  31
ENDBRANCH   1  30
TORSDOF 13
ENDMDL
MODEL 2
REMARK VINA RESULT:     -13.9      4.542      9.222
REMARK SMILES Cc1ccccc1-c1c(Cl)ccc2c1C=C(C(=O)NCCCCNC(=O)c1ccc(-c3c4nc(c(-c5c(F)cccc5F)c5ccc([nH]5)c(-c5c(F)cccc5F)c5nc(c(-c6c(F)cccc6F)c6ccc3[nH]6)C=C5)C=C4)cc1)[C@@H](C(F)(F)F)O2
REMARK SMILES IDX 22 1 21 2 20 3 19 4 17 5 18 6 16 8 8 9 9 10 14 11 10 12
REMARK SMILES IDX 11 13 13 14 15 15 12 16 86 17 81 18 7 19 1 20 2 21 3 22 4 23
REMARK SMILES IDX 6 24 5 25 82 26 83 27 84 28 85 29 23 30 24 31 25 32 26 34
REMARK SMILES IDX 27 35 28 36 80 37 29 38 79 39 30 40 31 41 32 42 73 43 33 44
REMARK SMILES IDX 78 45 72 46 74 47 34 48 77 49 71 50 70 51 35 53 61 54 44 55
REMARK SMILES IDX 60 56 45 57 48 58 59 59 75 60 46 61 47 62 58 64 76 65 49 66
REMARK SMILES IDX 36 67 37 68 42 69 38 70 39 71 41 72 43 73 40 74 62 75 63 76
REMARK SMILES IDX 68 77 64 78 65 79 67 80 69 81 66 82 50 83 51 84 56 85 52 86
REMARK SMILES IDX 53 87 55 88 57 89 54 90
REMARK H PARENT 19 7 24 33 74 52 48 63
REMARK Flexibility Score: inf
ROOT
ATOM      1  C   UNL A   1      39.883  22.096  26.202  1.00  0.00     0.023 C 
ENDROOT
BRANCH   1   2
ATOM      2  C   UNL A   1      38.370  22.285  26.048  1.00  0.00     0.023 C 
BRANCH   2   3
ATOM      3  C   UNL A   1      37.901  23.703  25.700  1.00  0.00     0.116 C 
BRANCH   3   4
ATOM      4  N   UNL A   1      37.066  23.735  24.517  1.00  0.00    -0.352 N 
ATOM      5  C   UNL A   1      35.722  23.745  24.349  1.00  0.00     0.251 C 
ATOM      6  O   UNL A   1      35.304  23.665  23.192  1.00  0.00    -0.270 OA
ATOM      7  H   UNL A   1      37.573  23.755  23.673  1.00  0.00     0.163 HD
BRANCH   5   8
ATOM      8  C   UNL A   1      34.759  23.832  25.506  1.00  0.00     0.067 C 
ATOM      9  C   UNL A   1      31.863  26.078  24.782  1.00  0.00     0.012 A 
ATOM     10  C   UNL A   1      30.712  25.955  23.963  1.00  0.00     0.049 A 
ATOM     11  C   UNL A   1      32.661  24.918  24.963  1.00  0.00     0.027 A 
ATOM     12  Cl  UNL A   1      29.723  27.321  23.553  1.00  0.00    -0.084 Cl
ATOM     13  C   UNL A   1      30.320  24.723  23.428  1.00  0.00     0.025 A 
ATOM     14  C   UNL A   1      32.204  23.673  24.485  1.00  0.00     0.128 A 
ATOM     15  C   UNL A   1      34.024  24.960  25.525  1.00  0.00     0.026 C 
ATOM     16  C   UNL A   1      31.047  23.577  23.719  1.00  0.00     0.049 A 
ATOM     17  O   UNL A   1      32.850  22.483  24.712  1.00  0.00    -0.475 OA
ATOM     18  C   UNL A   1      33.974  22.533  25.622  1.00  0.00     0.314 C 
BRANCH   9  19
ATOM     19  C   UNL A   1      32.128  27.342  25.517  1.00  0.00    -0.013 A 
ATOM     20  C   UNL A   1      33.640  28.377  23.722  1.00  0.00     0.045 C 
ATOM     21  C   UNL A   1      32.927  28.402  25.044  1.00  0.00    -0.043 A 
ATOM     22  C   UNL A   1      33.116  29.543  25.851  1.00  0.00     0.004 A 
ATOM     23  C   UNL A   1      32.502  29.659  27.097  1.00  0.00     0.000 A 
ATOM     24  C   UNL A   1      31.527  27.485  26.789  1.00  0.00     0.009 A 
ATOM     25  C   UNL A   1      31.700  28.630  27.564  1.00  0.00     0.001 A 
ENDBRANCH   9  19
BRANCH  18  26
ATOM     26  C   UNL A   1      33.546  22.274  27.077  1.00  0.00     0.429 C 
ATOM     27  F   UNL A   1      33.593  20.956  27.381  1.00  0.00    -0.167 F 
ATOM     28  F   UNL A   1      34.380  22.905  27.945  1.00  0.00    -0.167 F 
ATOM     29  F   UNL A   1      32.294  22.707  27.350  1.00  0.00    -0.167 F 
ENDBRANCH  18  26
ENDBRANCH   5   8
ENDBRANCH   3   4
ENDBRANCH   2   3
ENDBRANCH   1   2
BRANCH   1  30
ATOM     30  C   UNL A   1      40.331  20.709  26.647  1.00  0.00     0.116 C 
BRANCH  30  31
ATOM     31  N   UNL A   1      41.430  20.143  25.879  1.00  0.00    -0.352 N 
ATOM     32  C   UNL A   1      42.756  20.540  25.781  1.00  0.00     0.251 C 
ATOM     33  H   UNL A   1      41.195  19.352  25.344  1.00  0.00     0.163 HD
ATOM     34  O   UNL A   1      43.495  19.959  25.002  1.00  0.00    -0.269 OA
BRANCH  32  35
ATOM     35  C   UNL A   1      43.324  21.555  26.713  1.00  0.00     0.039 A 
ATOM     36  C   UNL A   1      42.852  21.563  28.035  1.00  0.00     0.014 A 
ATOM     37  C   UNL A   1      44.136  22.594  26.274  1.00  0.00     0.014 A 
ATOM     38  C   UNL A   1      42.956  22.724  28.800  1.00  0.00     0.010 A 
ATOM     39  C   UNL A   1      44.150  23.778  26.980  1.00  0.00     0.010 A 
ATOM     40  C   UNL A   1      43.489  23.864  28.208  1.00  0.00    -0.014 A 
BRANCH  40  41
ATOM     41  C   UNL A   1      43.252  25.217  28.692  1.00  0.00     0.031 A 
ATOM     42  C   UNL A   1      42.091  26.000  28.231  1.00  0.00     0.074 A 
ATOM     43  C   UNL A   1      44.002  25.656  29.725  1.00  0.00     0.049 A 
ATOM     44  N   UNL A   1      41.948  27.269  28.413  1.00  0.00    -0.248 NA
ATOM     45  C   UNL A   1      41.006  25.408  27.462  1.00  0.00     0.031 C 
ATOM     46  C   UNL A   1      43.713  26.757  30.636  1.00  0.00     0.029 A 
ATOM     47  N   UNL A   1      45.313  25.278  30.039  1.00  0.00    -0.354 N 
ATOM     48  C   UNL A   1      40.652  27.598  28.086  1.00  0.00     0.074 A 
ATOM     49  C   UNL A   1      40.157  26.436  27.387  1.00  0.00     0.031 C 
ATOM     50  C   UNL A   1      44.858  27.156  31.213  1.00  0.00     0.029 A 
ATOM     51  C   UNL A   1      45.936  26.431  30.563  1.00  0.00     0.049 A 
ATOM     52  H   UNL A   1      45.719  24.389  29.918  1.00  0.00     0.167 HD
ATOM     53  C   UNL A   1      40.125  28.754  28.590  1.00  0.00     0.037 A 
ATOM     54  C   UNL A   1      46.984  27.018  29.916  1.00  0.00     0.037 A 
ATOM     55  C   UNL A   1      41.171  29.559  29.234  1.00  0.00     0.049 A 
ATOM     56  C   UNL A   1      46.713  28.445  29.501  1.00  0.00     0.074 A 
ATOM     57  C   UNL A   1      41.512  29.779  30.560  1.00  0.00     0.029 A 
ATOM     58  N   UNL A   1      42.231  30.047  28.473  1.00  0.00    -0.354 N 
ATOM     59  N   UNL A   1      45.518  28.955  29.391  1.00  0.00    -0.248 NA
ATOM     60  C   UNL A   1      47.760  29.403  29.156  1.00  0.00     0.031 C 
ATOM     61  C   UNL A   1      42.816  30.337  30.593  1.00  0.00     0.029 A 
ATOM     62  C   UNL A   1      43.258  30.480  29.288  1.00  0.00     0.049 A 
ATOM     63  H   UNL A   1      42.246  30.079  27.490  1.00  0.00     0.167 HD
ATOM     64  C   UNL A   1      45.607  30.252  28.960  1.00  0.00     0.074 A 
ATOM     65  C   UNL A   1      47.034  30.491  28.844  1.00  0.00     0.031 C 
ATOM     66  C   UNL A   1      44.495  31.008  28.724  1.00  0.00     0.037 A 
BRANCH  53  67
ATOM     67  C   UNL A   1      38.636  29.033  28.774  1.00  0.00     0.057 A 
ATOM     68  C   UNL A   1      37.883  29.613  27.728  1.00  0.00     0.134 A 
ATOM     69  C   UNL A   1      37.893  28.853  29.956  1.00  0.00     0.134 A 
ATOM     70  F   UNL A   1      38.386  29.766  26.497  1.00  0.00    -0.206 F 
ATOM     71  C   UNL A   1      36.564  30.073  27.884  1.00  0.00     0.040 A 
ATOM     72  C   UNL A   1      36.584  29.327  30.136  1.00  0.00     0.040 A 
ATOM     73  F   UNL A   1      38.360  28.167  30.999  1.00  0.00    -0.206 F 
ATOM     74  C   UNL A   1      35.917  29.958  29.103  1.00  0.00     0.006 A 
ENDBRANCH  53  67
BRANCH  54  75
ATOM     75  C   UNL A   1      47.816  26.048  29.155  1.00  0.00     0.057 A 
ATOM     76  C   UNL A   1      47.587  25.908  27.774  1.00  0.00     0.134 A 
ATOM     77  C   UNL A   1      49.038  25.581  29.648  1.00  0.00     0.134 A 
ATOM     78  F   UNL A   1      46.437  26.341  27.234  1.00  0.00    -0.206 F 
ATOM     79  C   UNL A   1      48.575  25.437  26.905  1.00  0.00     0.040 A 
ATOM     80  C   UNL A   1      50.029  25.093  28.788  1.00  0.00     0.040 A 
ATOM     81  F   UNL A   1      49.341  25.701  30.948  1.00  0.00    -0.206 F 
ATOM     82  C   UNL A   1      49.815  25.058  27.410  1.00  0.00     0.006 A 
ENDBRANCH  54  75
BRANCH  66  83
ATOM     83  C   UNL A   1      44.466  32.344  28.020  1.00  0.00     0.057 A 
ATOM     84  C   UNL A   1      44.830  32.539  26.679  1.00  0.00     0.134 A 
ATOM     85  C   UNL A   1      43.910  33.476  28.657  1.00  0.00     0.134 A 
ATOM     86  F   UNL A   1      45.264  31.528  25.914  1.00  0.00    -0.206 F 
ATOM     87  C   UNL A   1      44.706  33.780  26.038  1.00  0.00     0.040 A 
ATOM     88  C   UNL A   1      43.731  34.704  28.011  1.00  0.00     0.040 A 
ATOM     89  F   UNL A   1      43.491  33.435  29.930  1.00  0.00    -0.206 F 
ATOM     90  C   UNL A   1      44.144  34.864  26.699  1.00  0.00     0.006 A 
ENDBRANCH  66  83
ENDBRANCH  40  41
ENDBRANCH  32  35
ENDBRANCH  30  31
ENDBRANCH   1  30
TORSDOF 13
ENDMDL
MODEL 3
REMARK VINA RESULT:     -13.9      1.035      1.286
REMARK SMILES Cc1ccccc1-c1c(Cl)ccc2c1C=C(C(=O)NCCCCNC(=O)c1ccc(-c3c4nc(c(-c5c(F)cccc5F)c5ccc([nH]5)c(-c5c(F)cccc5F)c5nc(c(-c6c(F)cccc6F)c6ccc3[nH]6)C=C5)C=C4)cc1)[C@@H](C(F)(F)F)O2
REMARK SMILES IDX 22 1 21 2 20 3 19 4 17 5 18 6 16 8 8 9 9 10 14 11 10 12
REMARK SMILES IDX 11 13 13 14 15 15 12 16 86 17 81 18 7 19 1 20 2 21 3 22 4 23
REMARK SMILES IDX 6 24 5 25 82 26 83 27 84 28 85 29 23 30 24 31 25 32 26 34
REMARK SMILES IDX 27 35 28 36 80 37 29 38 79 39 30 40 31 41 32 42 73 43 33 44
REMARK SMILES IDX 78 45 72 46 74 47 34 48 77 49 71 50 70 51 35 53 61 54 44 55
REMARK SMILES IDX 60 56 45 57 48 58 59 59 75 60 46 61 47 62 58 64 76 65 49 66
REMARK SMILES IDX 36 67 37 68 42 69 38 70 39 71 41 72 43 73 40 74 62 75 63 76
REMARK SMILES IDX 68 77 64 78 65 79 67 80 69 81 66 82 50 83 51 84 56 85 52 86
REMARK SMILES IDX 53 87 55 88 57 89 54 90
REMARK H PARENT 19 7 24 33 74 52 48 63
REMARK Flexibility Score: inf
ROOT
ATOM      1  C   UNL A   1      34.476  31.697  28.534  1.00  0.00     0.023 C 
ENDROOT
BRANCH   1   2
ATOM      2  C   UNL A   1      34.211  30.810  27.312  1.00  0.00     0.023 C 
BRANCH   2   3
ATOM      3  C   UNL A   1      34.607  29.336  27.452  1.00  0.00     0.116 C 
BRANCH   3   4
ATOM      4  N   UNL A   1      33.458  28.461  27.558  1.00  0.00    -0.352 N 
ATOM      5  C   UNL A   1      32.866  27.621  26.675  1.00  0.00     0.251 C 
ATOM      6  O   UNL A   1      31.818  27.081  27.036  1.00  0.00    -0.270 OA
ATOM      7  H   UNL A   1      33.023  28.481  28.441  1.00  0.00     0.163 HD
BRANCH   5   8
ATOM      8  C   UNL A   1      33.433  27.352  25.304  1.00  0.00     0.067 C 
ATOM      9  C   UNL A   1      33.214  23.746  24.354  1.00  0.00     0.012 A 
ATOM     10  C   UNL A   1      32.144  22.900  23.968  1.00  0.00     0.049 A 
ATOM     11  C   UNL A   1      32.944  25.136  24.453  1.00  0.00     0.027 A 
ATOM     12  Cl  UNL A   1      32.300  21.172  23.936  1.00  0.00    -0.084 Cl
ATOM     13  C   UNL A   1      30.895  23.416  23.605  1.00  0.00     0.025 A 
ATOM     14  C   UNL A   1      31.707  25.642  24.003  1.00  0.00     0.128 A 
ATOM     15  C   UNL A   1      33.853  26.086  25.122  1.00  0.00     0.026 C 
ATOM     16  C   UNL A   1      30.689  24.789  23.588  1.00  0.00     0.049 A 
ATOM     17  O   UNL A   1      31.402  26.979  23.952  1.00  0.00    -0.475 OA
ATOM     18  C   UNL A   1      32.486  27.891  24.241  1.00  0.00     0.314 C 
BRANCH   9  19
ATOM     19  C   UNL A   1      34.585  23.194  24.515  1.00  0.00    -0.013 A 
ATOM     20  C   UNL A   1      34.365  22.667  27.015  1.00  0.00     0.045 C 
ATOM     21  C   UNL A   1      35.120  22.690  25.718  1.00  0.00    -0.043 A 
ATOM     22  C   UNL A   1      36.447  22.213  25.740  1.00  0.00     0.004 A 
ATOM     23  C   UNL A   1      37.232  22.198  24.589  1.00  0.00     0.000 A 
ATOM     24  C   UNL A   1      35.409  23.175  23.366  1.00  0.00     0.009 A 
ATOM     25  C   UNL A   1      36.709  22.674  23.397  1.00  0.00     0.001 A 
ENDBRANCH   9  19
BRANCH  18  26
ATOM     26  C   UNL A   1      33.255  28.290  22.968  1.00  0.00     0.429 C 
ATOM     27  F   UNL A   1      32.680  29.350  22.353  1.00  0.00    -0.167 F 
ATOM     28  F   UNL A   1      34.528  28.656  23.268  1.00  0.00    -0.167 F 
ATOM     29  F   UNL A   1      33.336  27.290  22.060  1.00  0.00    -0.167 F 
ENDBRANCH  18  26
ENDBRANCH   5   8
ENDBRANCH   3   4
ENDBRANCH   2   3
ENDBRANCH   1   2
BRANCH   1  30
ATOM     30  C   UNL A   1      34.562  33.193  28.256  1.00  0.00     0.116 C 
BRANCH  30  31
ATOM     31  N   UNL A   1      33.734  34.026  29.115  1.00  0.00    -0.352 N 
ATOM     32  C   UNL A   1      33.818  34.273  30.478  1.00  0.00     0.251 C 
ATOM     33  H   UNL A   1      32.996  34.488  28.656  1.00  0.00     0.163 HD
ATOM     34  O   UNL A   1      32.955  34.951  31.014  1.00  0.00    -0.269 OA
BRANCH  32  35
ATOM     35  C   UNL A   1      35.015  33.854  31.261  1.00  0.00     0.039 A 
ATOM     36  C   UNL A   1      36.192  34.603  31.104  1.00  0.00     0.014 A 
ATOM     37  C   UNL A   1      35.058  32.660  31.970  1.00  0.00     0.014 A 
ATOM     38  C   UNL A   1      37.425  34.024  31.400  1.00  0.00     0.010 A 
ATOM     39  C   UNL A   1      36.274  32.040  32.165  1.00  0.00     0.010 A 
ATOM     40  C   UNL A   1      37.454  32.694  31.803  1.00  0.00    -0.014 A 
BRANCH  40  41
ATOM     41  C   UNL A   1      38.632  31.841  31.707  1.00  0.00     0.031 A 
ATOM     42  C   UNL A   1      38.602  30.583  30.939  1.00  0.00     0.074 A 
ATOM     43  C   UNL A   1      39.804  32.335  32.162  1.00  0.00     0.049 A 
ATOM     44  N   UNL A   1      39.505  29.665  31.009  1.00  0.00    -0.248 NA
ATOM     45  C   UNL A   1      37.497  30.232  30.059  1.00  0.00     0.031 C 
ATOM     46  C   UNL A   1      41.151  31.887  31.829  1.00  0.00     0.029 A 
ATOM     47  N   UNL A   1      39.988  33.257  33.198  1.00  0.00    -0.354 N 
ATOM     48  C   UNL A   1      39.283  28.777  29.980  1.00  0.00     0.074 A 
ATOM     49  C   UNL A   1      37.960  29.107  29.508  1.00  0.00     0.031 C 
ATOM     50  C   UNL A   1      41.995  32.303  32.787  1.00  0.00     0.029 A 
ATOM     51  C   UNL A   1      41.186  32.885  33.844  1.00  0.00     0.049 A 
ATOM     52  H   UNL A   1      39.400  34.013  33.430  1.00  0.00     0.167 HD
ATOM     53  C   UNL A   1      40.316  27.983  29.569  1.00  0.00     0.037 A 
ATOM     54  C   UNL A   1      41.182  32.460  35.140  1.00  0.00     0.037 A 
ATOM     55  C   UNL A   1      41.449  28.090  30.497  1.00  0.00     0.049 A 
ATOM     56  C   UNL A   1      41.701  31.051  35.313  1.00  0.00     0.074 A 
ATOM     57  C   UNL A   1      42.660  28.763  30.435  1.00  0.00     0.029 A 
ATOM     58  N   UNL A   1      41.297  27.683  31.820  1.00  0.00    -0.354 N 
ATOM     59  N   UNL A   1      41.772  30.179  34.346  1.00  0.00    -0.248 NA
ATOM     60  C   UNL A   1      42.160  30.506  36.588  1.00  0.00     0.031 C 
ATOM     61  C   UNL A   1      43.201  28.819  31.746  1.00  0.00     0.029 A 
ATOM     62  C   UNL A   1      42.333  28.159  32.600  1.00  0.00     0.049 A 
ATOM     63  H   UNL A   1      40.555  27.130  32.153  1.00  0.00     0.167 HD
ATOM     64  C   UNL A   1      42.247  28.989  34.832  1.00  0.00     0.074 A 
ATOM     65  C   UNL A   1      42.491  29.251  36.238  1.00  0.00     0.031 C 
ATOM     66  C   UNL A   1      42.382  27.890  34.032  1.00  0.00     0.037 A 
BRANCH  53  67
ATOM     67  C   UNL A   1      40.434  27.341  28.189  1.00  0.00     0.057 A 
ATOM     68  C   UNL A   1      39.927  26.043  27.959  1.00  0.00     0.134 A 
ATOM     69  C   UNL A   1      41.103  27.880  27.074  1.00  0.00     0.134 A 
ATOM     70  F   UNL A   1      39.172  25.409  28.865  1.00  0.00    -0.206 F 
ATOM     71  C   UNL A   1      40.165  25.315  26.781  1.00  0.00     0.040 A 
ATOM     72  C   UNL A   1      41.368  27.159  25.899  1.00  0.00     0.040 A 
ATOM     73  F   UNL A   1      41.501  29.151  27.020  1.00  0.00    -0.206 F 
ATOM     74  C   UNL A   1      40.915  25.861  25.754  1.00  0.00     0.006 A 
ENDBRANCH  53  67
BRANCH  54  75
ATOM     75  C   UNL A   1      40.103  33.080  35.954  1.00  0.00     0.057 A 
ATOM     76  C   UNL A   1      38.919  32.351  36.165  1.00  0.00     0.134 A 
ATOM     77  C   UNL A   1      40.358  34.146  36.822  1.00  0.00     0.134 A 
ATOM     78  F   UNL A   1      38.617  31.311  35.371  1.00  0.00    -0.206 F 
ATOM     79  C   UNL A   1      38.088  32.594  37.262  1.00  0.00     0.040 A 
ATOM     80  C   UNL A   1      39.523  34.408  37.915  1.00  0.00     0.040 A 
ATOM     81  F   UNL A   1      41.477  34.874  36.701  1.00  0.00    -0.206 F 
ATOM     82  C   UNL A   1      38.409  33.606  38.160  1.00  0.00     0.006 A 
ENDBRANCH  54  75
BRANCH  66  83
ATOM     83  C   UNL A   1      42.652  26.481  34.503  1.00  0.00     0.057 A 
ATOM     84  C   UNL A   1      41.718  25.681  35.178  1.00  0.00     0.134 A 
ATOM     85  C   UNL A   1      43.850  25.824  34.143  1.00  0.00     0.134 A 
ATOM     86  F   UNL A   1      40.494  26.132  35.483  1.00  0.00    -0.206 F 
ATOM     87  C   UNL A   1      41.979  24.346  35.521  1.00  0.00     0.040 A 
ATOM     88  C   UNL A   1      44.098  24.478  34.431  1.00  0.00     0.040 A 
ATOM     89  F   UNL A   1      44.825  26.453  33.470  1.00  0.00    -0.206 F 
ATOM     90  C   UNL A   1      43.166  23.737  35.138  1.00  0.00     0.006 A 
ENDBRANCH  66  83
ENDBRANCH  40  41
ENDBRANCH  32  35
ENDBRANCH  30  31
ENDBRANCH   1  30
TORSDOF 13
ENDMDL
