MODEL 1
REMARK VINA RESULT:     -11.5      0.000      0.000
REMARK SMILES C[C@H]1CCCN(C(=O)c2cn(C)nc2C(=O)NCCCCNC(=O)c2ccc(-c3c4nc(c(-c5c(F)cccc5F)c5ccc([nH]5)c(-c5c(F)cccc5F)c5nc(c(-c6c(F)cccc6F)c6ccc3[nH]6)C=C5)C=C4)cc2)C1
REMARK SMILES IDX 19 1 18 2 17 3 15 4 16 5 14 7 9 8 10 9 11 10 13 11 12 12
REMARK SMILES IDX 7 13 8 14 6 15 1 16 2 17 3 18 79 19 4 20 5 21 20 22 21 23
REMARK SMILES IDX 22 24 23 25 24 27 25 28 26 29 78 30 27 31 77 32 28 33 29 34
REMARK SMILES IDX 30 35 71 36 31 37 76 38 70 39 72 40 32 41 75 42 69 43 68 44
REMARK SMILES IDX 33 46 59 47 42 48 58 49 43 50 46 51 57 52 73 53 44 54 45 55
REMARK SMILES IDX 56 57 74 58 47 59 34 60 35 61 40 62 36 63 37 64 39 65 41 66
REMARK SMILES IDX 38 67 60 68 61 69 66 70 62 71 63 72 65 73 67 74 64 75 48 76
REMARK SMILES IDX 49 77 54 78 50 79 51 80 53 81 55 82 52 83
REMARK H PARENT 17 6 22 26 72 45 46 56
REMARK Flexibility Score: inf
ROOT
ATOM      1  C   UNL A   1      37.038  22.350  24.442  1.00  0.00     0.023 C 
ENDROOT
BRANCH   1   2
ATOM      2  C   UNL A   1      36.218  23.181  25.418  1.00  0.00     0.116 C 
BRANCH   2   3
ATOM      3  N   UNL A   1      35.600  22.474  26.504  1.00  0.00    -0.351 N 
ATOM      4  C   UNL A   1      34.310  21.991  26.625  1.00  0.00     0.272 C 
ATOM      5  O   UNL A   1      34.073  21.411  27.690  1.00  0.00    -0.267 OA
ATOM      6  H   UNL A   1      36.183  22.307  27.280  1.00  0.00     0.163 HD
BRANCH   4   7
ATOM      7  C   UNL A   1      33.252  22.191  25.595  1.00  0.00     0.162 A 
ATOM      8  C   UNL A   1      32.146  23.104  25.491  1.00  0.00     0.091 A 
ATOM      9  C   UNL A   1      31.585  22.863  24.248  1.00  0.00     0.123 A 
ATOM     10  N   UNL A   1      32.299  21.848  23.704  1.00  0.00    -0.274 N 
ATOM     11  N   UNL A   1      33.285  21.406  24.492  1.00  0.00    -0.167 NA
ATOM     12  C   UNL A   1      32.093  21.237  22.413  1.00  0.00     0.173 C 
BRANCH   8  13
ATOM     13  C   UNL A   1      31.707  24.142  26.395  1.00  0.00     0.257 C 
ATOM     14  O   UNL A   1      31.038  23.851  27.388  1.00  0.00    -0.269 OA
BRANCH  13  15
ATOM     15  N   UNL A   1      31.985  25.466  26.038  1.00  0.00    -0.338 N 
ATOM     16  C   UNL A   1      33.803  25.594  23.521  1.00  0.00     0.009 C 
ATOM     17  C   UNL A   1      33.691  26.614  24.652  1.00  0.00     0.005 C 
ATOM     18  C   UNL A   1      32.649  27.705  24.349  1.00  0.00     0.007 C 
ATOM     19  C   UNL A   1      33.377  25.908  25.974  1.00  0.00     0.123 C 
ATOM     20  C   UNL A   1      31.209  27.212  24.503  1.00  0.00     0.022 C 
ATOM     21  C   UNL A   1      31.001  26.537  25.855  1.00  0.00     0.120 C 
ENDBRANCH  13  15
ENDBRANCH   8  13
ENDBRANCH   4   7
ENDBRANCH   2   3
ENDBRANCH   1   2
BRANCH   1  22
ATOM     22  C   UNL A   1      37.636  21.051  24.967  1.00  0.00     0.023 C 
BRANCH  22  23
ATOM     23  C   UNL A   1      38.929  21.159  25.770  1.00  0.00     0.116 C 
BRANCH  23  24
ATOM     24  N   UNL A   1      39.792  19.985  25.693  1.00  0.00    -0.352 N 
ATOM     25  C   UNL A   1      41.118  19.813  26.020  1.00  0.00     0.251 C 
ATOM     26  H   UNL A   1      39.349  19.177  25.346  1.00  0.00     0.163 HD
ATOM     27  O   UNL A   1      41.667  18.735  25.807  1.00  0.00    -0.269 OA
BRANCH  25  28
ATOM     28  C   UNL A   1      41.905  20.938  26.572  1.00  0.00     0.039 A 
ATOM     29  C   UNL A   1      42.517  21.832  25.688  1.00  0.00     0.014 A 
ATOM     30  C   UNL A   1      41.997  21.146  27.948  1.00  0.00     0.014 A 
ATOM     31  C   UNL A   1      43.087  23.010  26.179  1.00  0.00     0.010 A 
ATOM     32  C   UNL A   1      42.481  22.358  28.428  1.00  0.00     0.010 A 
ATOM     33  C   UNL A   1      43.000  23.318  27.545  1.00  0.00    -0.014 A 
BRANCH  33  34
ATOM     34  C   UNL A   1      43.368  24.658  28.072  1.00  0.00     0.031 A 
ATOM     35  C   UNL A   1      42.308  25.684  28.351  1.00  0.00     0.074 A 
ATOM     36  C   UNL A   1      44.671  24.995  28.171  1.00  0.00     0.049 A 
ATOM     37  N   UNL A   1      42.441  26.951  28.651  1.00  0.00    -0.248 NA
ATOM     38  C   UNL A   1      40.911  25.236  28.241  1.00  0.00     0.031 C 
ATOM     39  C   UNL A   1      45.802  24.115  27.866  1.00  0.00     0.029 A 
ATOM     40  N   UNL A   1      45.264  26.182  28.529  1.00  0.00    -0.354 N 
ATOM     41  C   UNL A   1      41.152  27.458  28.730  1.00  0.00     0.074 A 
ATOM     42  C   UNL A   1      40.250  26.371  28.410  1.00  0.00     0.031 C 
ATOM     43  C   UNL A   1      46.948  24.786  28.060  1.00  0.00     0.029 A 
ATOM     44  C   UNL A   1      46.637  26.153  28.459  1.00  0.00     0.049 A 
ATOM     45  H   UNL A   1      44.755  26.976  28.808  1.00  0.00     0.167 HD
ATOM     46  C   UNL A   1      40.754  28.711  29.055  1.00  0.00     0.037 A 
ATOM     47  C   UNL A   1      47.545  27.125  28.671  1.00  0.00     0.037 A 
ATOM     48  C   UNL A   1      41.648  29.777  29.420  1.00  0.00     0.049 A 
ATOM     49  C   UNL A   1      47.079  28.502  29.045  1.00  0.00     0.074 A 
ATOM     50  C   UNL A   1      41.336  31.045  29.878  1.00  0.00     0.029 A 
ATOM     51  N   UNL A   1      43.031  29.701  29.364  1.00  0.00    -0.354 N 
ATOM     52  N   UNL A   1      45.856  28.945  29.197  1.00  0.00    -0.248 NA
ATOM     53  C   UNL A   1      48.119  29.516  29.271  1.00  0.00     0.031 C 
ATOM     54  C   UNL A   1      42.530  31.750  30.063  1.00  0.00     0.029 A 
ATOM     55  C   UNL A   1      43.587  30.910  29.750  1.00  0.00     0.049 A 
ATOM     56  H   UNL A   1      43.543  28.905  29.090  1.00  0.00     0.167 HD
ATOM     57  C   UNL A   1      45.976  30.284  29.541  1.00  0.00     0.074 A 
ATOM     58  C   UNL A   1      47.394  30.577  29.597  1.00  0.00     0.031 C 
ATOM     59  C   UNL A   1      44.998  31.189  29.788  1.00  0.00     0.037 A 
BRANCH  46  60
ATOM     60  C   UNL A   1      39.281  28.992  29.038  1.00  0.00     0.057 A 
ATOM     61  C   UNL A   1      38.491  28.867  30.187  1.00  0.00     0.134 A 
ATOM     62  C   UNL A   1      38.651  29.416  27.862  1.00  0.00     0.134 A 
ATOM     63  F   UNL A   1      39.033  28.453  31.343  1.00  0.00    -0.206 F 
ATOM     64  C   UNL A   1      37.120  29.123  30.162  1.00  0.00     0.040 A 
ATOM     65  C   UNL A   1      37.283  29.700  27.829  1.00  0.00     0.040 A 
ATOM     66  F   UNL A   1      39.350  29.563  26.726  1.00  0.00    -0.206 F 
ATOM     67  C   UNL A   1      36.514  29.547  28.981  1.00  0.00     0.006 A 
ENDBRANCH  46  60
BRANCH  47  68
ATOM     68  C   UNL A   1      48.992  26.826  28.533  1.00  0.00     0.057 A 
ATOM     69  C   UNL A   1      49.646  26.988  27.308  1.00  0.00     0.134 A 
ATOM     70  C   UNL A   1      49.754  26.380  29.619  1.00  0.00     0.134 A 
ATOM     71  F   UNL A   1      48.961  27.393  26.227  1.00  0.00    -0.206 F 
ATOM     72  C   UNL A   1      51.005  26.709  27.162  1.00  0.00     0.040 A 
ATOM     73  C   UNL A   1      51.119  26.117  29.494  1.00  0.00     0.040 A 
ATOM     74  F   UNL A   1      49.185  26.212  30.823  1.00  0.00    -0.206 F 
ATOM     75  C   UNL A   1      51.747  26.277  28.260  1.00  0.00     0.006 A 
ENDBRANCH  47  68
BRANCH  59  76
ATOM     76  C   UNL A   1      45.429  32.582  30.136  1.00  0.00     0.057 A 
ATOM     77  C   UNL A   1      45.571  33.569  29.154  1.00  0.00     0.134 A 
ATOM     78  C   UNL A   1      45.655  32.951  31.467  1.00  0.00     0.134 A 
ATOM     79  F   UNL A   1      45.383  33.273  27.859  1.00  0.00    -0.206 F 
ATOM     80  C   UNL A   1      45.935  34.876  29.483  1.00  0.00     0.040 A 
ATOM     81  C   UNL A   1      46.000  34.259  31.810  1.00  0.00     0.040 A 
ATOM     82  F   UNL A   1      45.530  32.052  32.454  1.00  0.00    -0.206 F 
ATOM     83  C   UNL A   1      46.143  35.224  30.817  1.00  0.00     0.006 A 
ENDBRANCH  59  76
ENDBRANCH  33  34
ENDBRANCH  25  28
ENDBRANCH  23  24
ENDBRANCH  22  23
ENDBRANCH   1  22
TORSDOF 13
ENDMDL
MODEL 2
REMARK VINA RESULT:     -11.5      0.946      6.351
REMARK SMILES C[C@H]1CCCN(C(=O)c2cn(C)nc2C(=O)NCCCCNC(=O)c2ccc(-c3c4nc(c(-c5c(F)cccc5F)c5ccc([nH]5)c(-c5c(F)cccc5F)c5nc(c(-c6c(F)cccc6F)c6ccc3[nH]6)C=C5)C=C4)cc2)C1
REMARK SMILES IDX 19 1 18 2 17 3 15 4 16 5 14 7 9 8 10 9 11 10 13 11 12 12
REMARK SMILES IDX 7 13 8 14 6 15 1 16 2 17 3 18 79 19 4 20 5 21 20 22 21 23
REMARK SMILES IDX 22 24 23 25 24 27 25 28 26 29 78 30 27 31 77 32 28 33 29 34
REMARK SMILES IDX 30 35 71 36 31 37 76 38 70 39 72 40 32 41 75 42 69 43 68 44
REMARK SMILES IDX 33 46 59 47 42 48 58 49 43 50 46 51 57 52 73 53 44 54 45 55
REMARK SMILES IDX 56 57 74 58 47 59 34 60 35 61 40 62 36 63 37 64 39 65 41 66
REMARK SMILES IDX 38 67 60 68 61 69 66 70 62 71 63 72 65 73 67 74 64 75 48 76
REMARK SMILES IDX 49 77 54 78 50 79 51 80 53 81 55 82 52 83
REMARK H PARENT 17 6 22 26 72 45 46 56
REMARK Flexibility Score: inf
ROOT
ATOM      1  C   UNL A   1      36.810  22.092  24.337  1.00  0.00     0.023 C 
ENDROOT
BRANCH   1   2
ATOM      2  C   UNL A   1      36.185  23.018  25.369  1.00  0.00     0.116 C 
BRANCH   2   3
ATOM      3  N   UNL A   1      35.541  22.391  26.490  1.00  0.00    -0.351 N 
ATOM      4  C   UNL A   1      34.231  21.976  26.638  1.00  0.00     0.272 C 
ATOM      5  O   UNL A   1      33.972  21.458  27.729  1.00  0.00    -0.267 OA
ATOM      6  H   UNL A   1      36.120  22.234  27.270  1.00  0.00     0.163 HD
BRANCH   4   7
ATOM      7  C   UNL A   1      33.177  22.178  25.603  1.00  0.00     0.162 A 
ATOM      8  C   UNL A   1      32.075  23.094  25.493  1.00  0.00     0.091 A 
ATOM      9  C   UNL A   1      31.517  22.851  24.249  1.00  0.00     0.123 A 
ATOM     10  N   UNL A   1      32.230  21.832  23.709  1.00  0.00    -0.274 N 
ATOM     11  N   UNL A   1      33.212  21.390  24.502  1.00  0.00    -0.167 NA
ATOM     12  C   UNL A   1      32.027  21.219  22.419  1.00  0.00     0.173 C 
BRANCH   8  13
ATOM     13  C   UNL A   1      31.636  24.135  26.394  1.00  0.00     0.257 C 
ATOM     14  O   UNL A   1      30.992  23.845  27.403  1.00  0.00    -0.269 OA
BRANCH  13  15
ATOM     15  N   UNL A   1      31.882  25.459  26.014  1.00  0.00    -0.338 N 
ATOM     16  C   UNL A   1      33.828  25.592  23.594  1.00  0.00     0.009 C 
ATOM     17  C   UNL A   1      33.616  26.637  24.689  1.00  0.00     0.005 C 
ATOM     18  C   UNL A   1      32.552  27.677  24.300  1.00  0.00     0.007 C 
ATOM     19  C   UNL A   1      33.258  25.954  26.012  1.00  0.00     0.123 C 
ATOM     20  C   UNL A   1      31.125  27.133  24.391  1.00  0.00     0.022 C 
ATOM     21  C   UNL A   1      30.869  26.486  25.749  1.00  0.00     0.120 C 
ENDBRANCH  13  15
ENDBRANCH   8  13
ENDBRANCH   4   7
ENDBRANCH   2   3
ENDBRANCH   1   2
BRANCH   1  22
ATOM     22  C   UNL A   1      37.497  20.835  24.856  1.00  0.00     0.023 C 
BRANCH  22  23
ATOM     23  C   UNL A   1      38.749  21.032  25.707  1.00  0.00     0.116 C 
BRANCH  23  24
ATOM     24  N   UNL A   1      39.682  19.910  25.683  1.00  0.00    -0.352 N 
ATOM     25  C   UNL A   1      41.008  19.827  26.044  1.00  0.00     0.251 C 
ATOM     26  H   UNL A   1      39.296  19.067  25.351  1.00  0.00     0.163 HD
ATOM     27  O   UNL A   1      41.625  18.778  25.875  1.00  0.00    -0.269 OA
BRANCH  25  28
ATOM     28  C   UNL A   1      41.713  21.013  26.579  1.00  0.00     0.039 A 
ATOM     29  C   UNL A   1      42.333  21.891  25.685  1.00  0.00     0.014 A 
ATOM     30  C   UNL A   1      41.720  21.291  27.945  1.00  0.00     0.014 A 
ATOM     31  C   UNL A   1      42.823  23.117  26.144  1.00  0.00     0.010 A 
ATOM     32  C   UNL A   1      42.123  22.546  28.388  1.00  0.00     0.010 A 
ATOM     33  C   UNL A   1      42.648  23.485  27.487  1.00  0.00    -0.014 A 
BRANCH  33  34
ATOM     34  C   UNL A   1      42.928  24.865  27.964  1.00  0.00     0.031 A 
ATOM     35  C   UNL A   1      44.307  25.247  28.420  1.00  0.00     0.074 A 
ATOM     36  C   UNL A   1      41.907  25.735  28.112  1.00  0.00     0.049 A 
ATOM     37  N   UNL A   1      44.707  26.339  29.021  1.00  0.00    -0.248 NA
ATOM     38  C   UNL A   1      45.371  24.253  28.209  1.00  0.00     0.031 C 
ATOM     39  C   UNL A   1      40.507  25.469  27.771  1.00  0.00     0.029 A 
ATOM     40  N   UNL A   1      41.886  27.013  28.617  1.00  0.00    -0.354 N 
ATOM     41  C   UNL A   1      46.055  26.149  29.290  1.00  0.00     0.074 A 
ATOM     42  C   UNL A   1      46.397  24.823  28.821  1.00  0.00     0.031 C 
ATOM     43  C   UNL A   1      39.768  26.549  28.064  1.00  0.00     0.029 A 
ATOM     44  C   UNL A   1      40.628  27.568  28.655  1.00  0.00     0.049 A 
ATOM     45  H   UNL A   1      42.693  27.484  28.924  1.00  0.00     0.167 HD
ATOM     46  C   UNL A   1      46.933  27.009  29.861  1.00  0.00     0.037 A 
ATOM     47  C   UNL A   1      40.209  28.756  29.131  1.00  0.00     0.037 A 
ATOM     48  C   UNL A   1      46.603  28.343  30.284  1.00  0.00     0.049 A 
ATOM     49  C   UNL A   1      41.204  29.697  29.746  1.00  0.00     0.074 A 
ATOM     50  C   UNL A   1      47.447  29.329  30.764  1.00  0.00     0.029 A 
ATOM     51  N   UNL A   1      45.324  28.879  30.279  1.00  0.00    -0.354 N 
ATOM     52  N   UNL A   1      42.493  29.537  29.918  1.00  0.00    -0.248 NA
ATOM     53  C   UNL A   1      40.686  30.981  30.240  1.00  0.00     0.031 C 
ATOM     54  C   UNL A   1      46.674  30.449  31.087  1.00  0.00     0.029 A 
ATOM     55  C   UNL A   1      45.352  30.171  30.777  1.00  0.00     0.049 A 
ATOM     56  H   UNL A   1      44.516  28.410  29.968  1.00  0.00     0.167 HD
ATOM     57  C   UNL A   1      42.942  30.698  30.532  1.00  0.00     0.074 A 
ATOM     58  C   UNL A   1      41.791  31.564  30.684  1.00  0.00     0.031 C 
ATOM     59  C   UNL A   1      44.196  31.015  30.935  1.00  0.00     0.037 A 
BRANCH  46  60
ATOM     60  C   UNL A   1      48.339  26.528  30.055  1.00  0.00     0.057 A 
ATOM     61  C   UNL A   1      49.332  26.739  29.090  1.00  0.00     0.134 A 
ATOM     62  C   UNL A   1      48.711  25.866  31.232  1.00  0.00     0.134 A 
ATOM     63  F   UNL A   1      49.037  27.356  27.935  1.00  0.00    -0.206 F 
ATOM     64  C   UNL A   1      50.638  26.283  29.274  1.00  0.00     0.040 A 
ATOM     65  C   UNL A   1      50.021  25.427  31.439  1.00  0.00     0.040 A 
ATOM     66  F   UNL A   1      47.810  25.637  32.199  1.00  0.00    -0.206 F 
ATOM     67  C   UNL A   1      50.986  25.630  30.454  1.00  0.00     0.006 A 
ENDBRANCH  46  60
BRANCH  47  68
ATOM     68  C   UNL A   1      38.775  29.121  29.043  1.00  0.00     0.057 A 
ATOM     69  C   UNL A   1      38.218  29.566  27.839  1.00  0.00     0.134 A 
ATOM     70  C   UNL A   1      37.926  29.030  30.153  1.00  0.00     0.134 A 
ATOM     71  F   UNL A   1      38.988  29.692  26.747  1.00  0.00    -0.206 F 
ATOM     72  C   UNL A   1      36.871  29.915  27.741  1.00  0.00     0.040 A 
ATOM     73  C   UNL A   1      36.572  29.357  30.065  1.00  0.00     0.040 A 
ATOM     74  F   UNL A   1      38.399  28.605  31.334  1.00  0.00    -0.206 F 
ATOM     75  C   UNL A   1      36.042  29.805  28.857  1.00  0.00     0.006 A 
ENDBRANCH  47  68
BRANCH  59  76
ATOM     76  C   UNL A   1      44.387  32.353  31.582  1.00  0.00     0.057 A 
ATOM     77  C   UNL A   1      44.314  32.510  32.970  1.00  0.00     0.134 A 
ATOM     78  C   UNL A   1      44.695  33.483  30.814  1.00  0.00     0.134 A 
ATOM     79  F   UNL A   1      44.009  31.467  33.757  1.00  0.00    -0.206 F 
ATOM     80  C   UNL A   1      44.530  33.749  33.576  1.00  0.00     0.040 A 
ATOM     81  C   UNL A   1      44.932  34.723  31.409  1.00  0.00     0.040 A 
ATOM     82  F   UNL A   1      44.784  33.397  29.479  1.00  0.00    -0.206 F 
ATOM     83  C   UNL A   1      44.847  34.858  32.793  1.00  0.00     0.006 A 
ENDBRANCH  59  76
ENDBRANCH  33  34
ENDBRANCH  25  28
ENDBRANCH  23  24
ENDBRANCH  22  23
ENDBRANCH   1  22
TORSDOF 13
ENDMDL
MODEL 3
REMARK VINA RESULT:     -11.4      4.240      9.026
REMARK SMILES C[C@H]1CCCN(C(=O)c2cn(C)nc2C(=O)NCCCCNC(=O)c2ccc(-c3c4nc(c(-c5c(F)cccc5F)c5ccc([nH]5)c(-c5c(F)cccc5F)c5nc(c(-c6c(F)cccc6F)c6ccc3[nH]6)C=C5)C=C4)cc2)C1
REMARK SMILES IDX 19 1 18 2 17 3 15 4 16 5 14 7 9 8 10 9 11 10 13 11 12 12
REMARK SMILES IDX 7 13 8 14 6 15 1 16 2 17 3 18 79 19 4 20 5 21 20 22 21 23
REMARK SMILES IDX 22 24 23 25 24 27 25 28 26 29 78 30 27 31 77 32 28 33 29 34
REMARK SMILES IDX 30 35 71 36 31 37 76 38 70 39 72 40 32 41 75 42 69 43 68 44
REMARK SMILES IDX 33 46 59 47 42 48 58 49 43 50 46 51 57 52 73 53 44 54 45 55
REMARK SMILES IDX 56 57 74 58 47 59 34 60 35 61 40 62 36 63 37 64 39 65 41 66
REMARK SMILES IDX 38 67 60 68 61 69 66 70 62 71 63 72 65 73 67 74 64 75 48 76
REMARK SMILES IDX 49 77 54 78 50 79 51 80 53 81 55 82 52 83
REMARK H PARENT 17 6 22 26 72 45 46 56
REMARK Flexibility Score: inf
ROOT
ATOM      1  C   UNL A   1      32.335  29.072  27.075  1.00  0.00     0.023 C 
ENDROOT
BRANCH   1   2
ATOM      2  C   UNL A   1      33.492  28.440  26.316  1.00  0.00     0.116 C 
BRANCH   2   3
ATOM      3  N   UNL A   1      33.758  28.955  25.002  1.00  0.00    -0.351 N 
ATOM      4  C   UNL A   1      33.201  28.603  23.786  1.00  0.00     0.272 C 
ATOM      5  O   UNL A   1      33.633  29.237  22.817  1.00  0.00    -0.267 OA
ATOM      6  H   UNL A   1      34.438  29.664  24.960  1.00  0.00     0.163 HD
BRANCH   4   7
ATOM      7  C   UNL A   1      32.201  27.510  23.618  1.00  0.00     0.162 A 
ATOM      8  C   UNL A   1      32.319  26.119  23.278  1.00  0.00     0.091 A 
ATOM      9  C   UNL A   1      31.037  25.605  23.378  1.00  0.00     0.123 A 
ATOM     10  N   UNL A   1      30.238  26.650  23.709  1.00  0.00    -0.274 N 
ATOM     11  N   UNL A   1      30.897  27.806  23.835  1.00  0.00    -0.167 NA
ATOM     12  C   UNL A   1      28.812  26.618  23.925  1.00  0.00     0.173 C 
BRANCH   8  13
ATOM     13  C   UNL A   1      33.492  25.329  22.980  1.00  0.00     0.257 C 
ATOM     14  O   UNL A   1      34.007  25.390  21.862  1.00  0.00    -0.269 OA
BRANCH  13  15
ATOM     15  N   UNL A   1      33.935  24.438  23.963  1.00  0.00    -0.338 N 
ATOM     16  C   UNL A   1      36.519  22.965  23.063  1.00  0.00     0.009 C 
ATOM     17  C   UNL A   1      35.446  22.473  24.034  1.00  0.00     0.005 C 
ATOM     18  C   UNL A   1      35.775  22.832  25.493  1.00  0.00     0.007 C 
ATOM     19  C   UNL A   1      34.074  23.022  23.630  1.00  0.00     0.123 C 
ATOM     20  C   UNL A   1      35.540  24.310  25.811  1.00  0.00     0.022 C 
ATOM     21  C   UNL A   1      34.145  24.750  25.381  1.00  0.00     0.120 C 
ENDBRANCH  13  15
ENDBRANCH   8  13
ENDBRANCH   4   7
ENDBRANCH   2   3
ENDBRANCH   1   2
BRANCH   1  22
ATOM     22  C   UNL A   1      32.055  30.547  26.812  1.00  0.00     0.023 C 
BRANCH  22  23
ATOM     23  C   UNL A   1      33.134  31.542  27.232  1.00  0.00     0.116 C 
BRANCH  23  24
ATOM     24  N   UNL A   1      32.645  32.890  27.500  1.00  0.00    -0.352 N 
ATOM     25  C   UNL A   1      33.164  33.904  28.272  1.00  0.00     0.251 C 
ATOM     26  H   UNL A   1      31.798  33.113  27.050  1.00  0.00     0.163 HD
ATOM     27  O   UNL A   1      32.538  34.953  28.408  1.00  0.00    -0.269 OA
BRANCH  25  28
ATOM     28  C   UNL A   1      34.443  33.718  28.991  1.00  0.00     0.039 A 
ATOM     29  C   UNL A   1      34.452  32.970  30.172  1.00  0.00     0.014 A 
ATOM     30  C   UNL A   1      35.637  34.228  28.481  1.00  0.00     0.014 A 
ATOM     31  C   UNL A   1      35.671  32.607  30.754  1.00  0.00     0.010 A 
ATOM     32  C   UNL A   1      36.850  33.792  29.005  1.00  0.00     0.010 A 
ATOM     33  C   UNL A   1      36.879  32.949  30.127  1.00  0.00    -0.014 A 
BRANCH  33  34
ATOM     34  C   UNL A   1      38.180  32.381  30.570  1.00  0.00     0.031 A 
ATOM     35  C   UNL A   1      38.707  31.117  29.954  1.00  0.00     0.074 A 
ATOM     36  C   UNL A   1      38.819  32.934  31.621  1.00  0.00     0.049 A 
ATOM     37  N   UNL A   1      39.728  30.384  30.319  1.00  0.00    -0.248 NA
ATOM     38  C   UNL A   1      37.966  30.586  28.800  1.00  0.00     0.031 C 
ATOM     39  C   UNL A   1      38.379  34.124  32.355  1.00  0.00     0.029 A 
ATOM     40  N   UNL A   1      39.964  32.549  32.277  1.00  0.00    -0.354 N 
ATOM     41  C   UNL A   1      39.730  29.290  29.464  1.00  0.00     0.074 A 
ATOM     42  C   UNL A   1      38.588  29.437  28.587  1.00  0.00     0.031 C 
ATOM     43  C   UNL A   1      39.246  34.377  33.347  1.00  0.00     0.029 A 
ATOM     44  C   UNL A   1      40.277  33.346  33.352  1.00  0.00     0.049 A 
ATOM     45  H   UNL A   1      40.506  31.775  32.003  1.00  0.00     0.167 HD
ATOM     46  C   UNL A   1      40.614  28.265  29.404  1.00  0.00     0.037 A 
ATOM     47  C   UNL A   1      41.271  33.248  34.255  1.00  0.00     0.037 A 
ATOM     48  C   UNL A   1      41.775  28.145  30.245  1.00  0.00     0.049 A 
ATOM     49  C   UNL A   1      42.247  32.111  34.158  1.00  0.00     0.074 A 
ATOM     50  C   UNL A   1      42.791  27.208  30.182  1.00  0.00     0.029 A 
ATOM     51  N   UNL A   1      42.074  28.989  31.304  1.00  0.00    -0.354 N 
ATOM     52  N   UNL A   1      42.284  31.129  33.292  1.00  0.00    -0.248 NA
ATOM     53  C   UNL A   1      43.313  32.063  35.169  1.00  0.00     0.031 C 
ATOM     54  C   UNL A   1      43.685  27.460  31.228  1.00  0.00     0.029 A 
ATOM     55  C   UNL A   1      43.242  28.576  31.922  1.00  0.00     0.049 A 
ATOM     56  H   UNL A   1      41.535  29.767  31.575  1.00  0.00     0.167 HD
ATOM     57  C   UNL A   1      43.378  30.351  33.646  1.00  0.00     0.074 A 
ATOM     58  C   UNL A   1      43.991  30.987  34.795  1.00  0.00     0.031 C 
ATOM     59  C   UNL A   1      43.832  29.211  33.071  1.00  0.00     0.037 A 
BRANCH  46  60
ATOM     60  C   UNL A   1      40.358  27.194  28.387  1.00  0.00     0.057 A 
ATOM     61  C   UNL A   1      40.955  27.219  27.121  1.00  0.00     0.134 A 
ATOM     62  C   UNL A   1      39.521  26.112  28.687  1.00  0.00     0.134 A 
ATOM     63  F   UNL A   1      41.758  28.235  26.768  1.00  0.00    -0.206 F 
ATOM     64  C   UNL A   1      40.707  26.222  26.177  1.00  0.00     0.040 A 
ATOM     65  C   UNL A   1      39.284  25.095  27.760  1.00  0.00     0.040 A 
ATOM     66  F   UNL A   1      38.922  26.023  29.884  1.00  0.00    -0.206 F 
ATOM     67  C   UNL A   1      39.873  25.153  26.498  1.00  0.00     0.006 A 
ENDBRANCH  46  60
BRANCH  47  68
ATOM     68  C   UNL A   1      41.393  34.261  35.332  1.00  0.00     0.057 A 
ATOM     69  C   UNL A   1      42.135  35.430  35.139  1.00  0.00     0.134 A 
ATOM     70  C   UNL A   1      40.767  34.089  36.572  1.00  0.00     0.134 A 
ATOM     71  F   UNL A   1      42.774  35.639  33.977  1.00  0.00    -0.206 F 
ATOM     72  C   UNL A   1      42.260  36.391  36.143  1.00  0.00     0.040 A 
ATOM     73  C   UNL A   1      40.866  35.051  37.579  1.00  0.00     0.040 A 
ATOM     74  F   UNL A   1      40.035  32.992  36.816  1.00  0.00    -0.206 F 
ATOM     75  C   UNL A   1      41.619  36.204  37.366  1.00  0.00     0.006 A 
ENDBRANCH  47  68
BRANCH  59  76
ATOM     76  C   UNL A   1      45.047  28.577  33.677  1.00  0.00     0.057 A 
ATOM     77  C   UNL A   1      44.940  27.563  34.636  1.00  0.00     0.134 A 
ATOM     78  C   UNL A   1      46.332  28.949  33.264  1.00  0.00     0.134 A 
ATOM     79  F   UNL A   1      43.736  27.173  35.082  1.00  0.00    -0.206 F 
ATOM     80  C   UNL A   1      46.071  26.946  35.172  1.00  0.00     0.040 A 
ATOM     81  C   UNL A   1      47.470  28.326  33.779  1.00  0.00     0.040 A 
ATOM     82  F   UNL A   1      46.500  29.911  32.346  1.00  0.00    -0.206 F 
ATOM     83  C   UNL A   1      47.341  27.324  34.737  1.00  0.00     0.006 A 
ENDBRANCH  59  76
ENDBRANCH  33  34
ENDBRANCH  25  28
ENDBRANCH  23  24
ENDBRANCH  22  23
ENDBRANCH   1  22
TORSDOF 13
ENDMDL
