MODEL 1
REMARK VINA RESULT:     -10.5      0.000      0.000
REMARK SMILES COc1ccc(Cl)cc1C[NH2+]CCC(=O)NCCCCNC(=O)c1ccc(-c2c3nc(c(-c4c(F)cccc4F)c4ccc([nH]4)c(-c4c(F)cccc4F)c4nc(c(-c5c(F)cccc5F)c5ccc2[nH]5)C=C4)C=C3)cc1
REMARK SMILES IDX 17 1 16 2 14 3 15 4 13 6 12 7 11 8 10 11 9 12 3 13 4 14 5 15
REMARK SMILES IDX 8 16 6 17 7 18 2 19 1 20 18 21 19 22 20 23 21 24 22 25 23 27
REMARK SMILES IDX 24 28 25 29 77 30 26 31 76 32 27 33 28 34 29 35 70 36 30 37
REMARK SMILES IDX 75 38 69 39 71 40 31 41 74 42 68 43 67 44 32 46 58 47 41 48
REMARK SMILES IDX 57 49 42 50 45 51 56 52 72 53 43 54 44 55 55 57 73 58 46 59
REMARK SMILES IDX 33 60 34 61 39 62 35 63 36 64 38 65 40 66 37 67 59 68 60 69
REMARK SMILES IDX 65 70 61 71 62 72 64 73 66 74 63 75 47 76 48 77 53 78 49 79
REMARK SMILES IDX 50 80 52 81 54 82 51 83
REMARK H PARENT 16 5 11 9 11 10 21 26 71 45 45 56
REMARK Flexibility Score: inf
ROOT
ATOM      1  C   UNL A   1      35.440  20.953  24.991  1.00  0.00     0.116 C 
ENDROOT
BRANCH   1   2
ATOM      2  N   UNL A   1      34.411  19.938  25.091  1.00  0.00    -0.356 N 
ATOM      3  C   UNL A   1      33.060  20.060  24.956  1.00  0.00     0.225 C 
ATOM      4  O   UNL A   1      32.359  19.069  25.170  1.00  0.00    -0.275 OA
ATOM      5  H   UNL A   1      34.734  19.028  25.283  1.00  0.00     0.163 HD
BRANCH   3   6
ATOM      6  C   UNL A   1      32.441  21.375  24.530  1.00  0.00     0.161 C 
BRANCH   6   7
ATOM      7  C   UNL A   1      32.196  21.483  23.020  1.00  0.00     0.270 C 
BRANCH   7   8
ATOM      8  N   UNL A   1      32.499  22.775  22.397  1.00  0.00    -0.342 N 
ATOM      9  H   UNL A   1      32.536  22.641  21.386  1.00  0.00     0.346 HD
ATOM     10  H   UNL A   1      31.762  23.419  22.684  1.00  0.00     0.346 HD
BRANCH   8  11
ATOM     11  C   UNL A   1      33.769  23.368  22.829  1.00  0.00     0.301 C 
BRANCH  11  12
ATOM     12  C   UNL A   1      33.635  24.866  23.044  1.00  0.00     0.050 A 
ATOM     13  C   UNL A   1      33.410  25.763  21.978  1.00  0.00     0.127 A 
ATOM     14  C   UNL A   1      33.275  27.131  22.238  1.00  0.00     0.048 A 
ATOM     15  C   UNL A   1      33.402  27.622  23.539  1.00  0.00     0.024 A 
ATOM     16  C   UNL A   1      33.763  25.380  24.350  1.00  0.00     0.034 A 
ATOM     17  C   UNL A   1      33.657  26.748  24.589  1.00  0.00     0.041 A 
ATOM     18  Cl  UNL A   1      33.858  27.360  26.183  1.00  0.00    -0.084 Cl
BRANCH  13  19
ATOM     19  O   UNL A   1      33.322  25.219  20.722  1.00  0.00    -0.496 OA
ATOM     20  C   UNL A   1      32.191  25.598  19.942  1.00  0.00     0.278 C 
ENDBRANCH  13  19
ENDBRANCH  11  12
ENDBRANCH   8  11
ENDBRANCH   7   8
ENDBRANCH   6   7
ENDBRANCH   3   6
ENDBRANCH   1   2
BRANCH   1  21
ATOM     21  C   UNL A   1      36.834  20.319  24.998  1.00  0.00     0.023 C 
BRANCH  21  22
ATOM     22  C   UNL A   1      37.987  21.319  24.990  1.00  0.00     0.023 C 
BRANCH  22  23
ATOM     23  C   UNL A   1      39.026  21.082  26.080  1.00  0.00     0.116 C 
BRANCH  23  24
ATOM     24  N   UNL A   1      39.874  19.917  25.858  1.00  0.00    -0.352 N 
ATOM     25  C   UNL A   1      41.232  19.816  26.080  1.00  0.00     0.251 C 
ATOM     26  H   UNL A   1      39.427  19.112  25.510  1.00  0.00     0.163 HD
ATOM     27  O   UNL A   1      41.855  18.796  25.832  1.00  0.00    -0.269 OA
BRANCH  25  28
ATOM     28  C   UNL A   1      41.936  21.009  26.583  1.00  0.00     0.039 A 
ATOM     29  C   UNL A   1      42.446  21.922  25.657  1.00  0.00     0.014 A 
ATOM     30  C   UNL A   1      41.955  21.281  27.951  1.00  0.00     0.014 A 
ATOM     31  C   UNL A   1      42.875  23.171  26.100  1.00  0.00     0.010 A 
ATOM     32  C   UNL A   1      42.319  22.549  28.382  1.00  0.00     0.010 A 
ATOM     33  C   UNL A   1      42.753  23.511  27.456  1.00  0.00    -0.014 A 
BRANCH  33  34
ATOM     34  C   UNL A   1      43.012  24.890  27.934  1.00  0.00     0.031 A 
ATOM     35  C   UNL A   1      44.386  25.276  28.386  1.00  0.00     0.074 A 
ATOM     36  C   UNL A   1      41.976  25.740  28.079  1.00  0.00     0.049 A 
ATOM     37  N   UNL A   1      44.781  26.369  28.983  1.00  0.00    -0.248 NA
ATOM     38  C   UNL A   1      45.450  24.283  28.172  1.00  0.00     0.031 C 
ATOM     39  C   UNL A   1      40.584  25.448  27.731  1.00  0.00     0.029 A 
ATOM     40  N   UNL A   1      41.933  27.014  28.583  1.00  0.00    -0.354 N 
ATOM     41  C   UNL A   1      46.131  26.184  29.247  1.00  0.00     0.074 A 
ATOM     42  C   UNL A   1      46.480  24.861  28.773  1.00  0.00     0.031 C 
ATOM     43  C   UNL A   1      39.824  26.516  28.027  1.00  0.00     0.029 A 
ATOM     44  C   UNL A   1      40.667  27.549  28.616  1.00  0.00     0.049 A 
ATOM     45  H   UNL A   1      42.732  27.499  28.893  1.00  0.00     0.167 HD
ATOM     46  C   UNL A   1      47.000  27.046  29.822  1.00  0.00     0.037 A 
ATOM     47  C   UNL A   1      40.236  28.735  29.084  1.00  0.00     0.037 A 
ATOM     48  C   UNL A   1      46.654  28.373  30.252  1.00  0.00     0.049 A 
ATOM     49  C   UNL A   1      41.230  29.694  29.674  1.00  0.00     0.074 A 
ATOM     50  C   UNL A   1      47.480  29.355  30.772  1.00  0.00     0.029 A 
ATOM     51  N   UNL A   1      45.374  28.906  30.207  1.00  0.00    -0.354 N 
ATOM     52  N   UNL A   1      42.519  29.533  29.857  1.00  0.00    -0.248 NA
ATOM     53  C   UNL A   1      40.716  30.996  30.118  1.00  0.00     0.031 C 
ATOM     54  C   UNL A   1      46.692  30.474  31.066  1.00  0.00     0.029 A 
ATOM     55  C   UNL A   1      45.384  30.199  30.700  1.00  0.00     0.049 A 
ATOM     56  H   UNL A   1      44.577  28.435  29.873  1.00  0.00     0.167 HD
ATOM     57  C   UNL A   1      42.972  30.719  30.418  1.00  0.00     0.074 A 
ATOM     58  C   UNL A   1      41.823  31.593  30.538  1.00  0.00     0.031 C 
ATOM     59  C   UNL A   1      44.229  31.053  30.799  1.00  0.00     0.037 A 
BRANCH  46  60
ATOM     60  C   UNL A   1      48.408  26.571  30.016  1.00  0.00     0.057 A 
ATOM     61  C   UNL A   1      48.792  25.842  31.149  1.00  0.00     0.134 A 
ATOM     62  C   UNL A   1      49.390  26.840  29.055  1.00  0.00     0.134 A 
ATOM     63  F   UNL A   1      47.901  25.569  32.115  1.00  0.00    -0.206 F 
ATOM     64  C   UNL A   1      50.109  25.421  31.332  1.00  0.00     0.040 A 
ATOM     65  C   UNL A   1      50.706  26.403  29.215  1.00  0.00     0.040 A 
ATOM     66  F   UNL A   1      49.088  27.533  27.946  1.00  0.00    -0.206 F 
ATOM     67  C   UNL A   1      51.070  25.697  30.360  1.00  0.00     0.006 A 
ENDBRANCH  46  60
BRANCH  47  68
ATOM     68  C   UNL A   1      38.799  29.086  28.990  1.00  0.00     0.057 A 
ATOM     69  C   UNL A   1      37.965  29.010  30.111  1.00  0.00     0.134 A 
ATOM     70  C   UNL A   1      38.230  29.523  27.789  1.00  0.00     0.134 A 
ATOM     71  F   UNL A   1      38.453  28.583  31.285  1.00  0.00    -0.206 F 
ATOM     72  C   UNL A   1      36.613  29.344  30.039  1.00  0.00     0.040 A 
ATOM     73  C   UNL A   1      36.882  29.878  27.707  1.00  0.00     0.040 A 
ATOM     74  F   UNL A   1      38.980  29.628  26.681  1.00  0.00    -0.206 F 
ATOM     75  C   UNL A   1      36.069  29.785  28.834  1.00  0.00     0.006 A 
ENDBRANCH  47  68
BRANCH  59  76
ATOM     76  C   UNL A   1      44.431  32.430  31.351  1.00  0.00     0.057 A 
ATOM     77  C   UNL A   1      44.705  33.521  30.519  1.00  0.00     0.134 A 
ATOM     78  C   UNL A   1      44.292  32.673  32.723  1.00  0.00     0.134 A 
ATOM     79  F   UNL A   1      44.861  33.347  29.198  1.00  0.00    -0.206 F 
ATOM     80  C   UNL A   1      44.841  34.810  31.035  1.00  0.00     0.040 A 
ATOM     81  C   UNL A   1      44.409  33.960  33.248  1.00  0.00     0.040 A 
ATOM     82  F   UNL A   1      44.025  31.667  33.570  1.00  0.00    -0.206 F 
ATOM     83  C   UNL A   1      44.685  35.033  32.403  1.00  0.00     0.006 A 
ENDBRANCH  59  76
ENDBRANCH  33  34
ENDBRANCH  25  28
ENDBRANCH  23  24
ENDBRANCH  22  23
ENDBRANCH  21  22
ENDBRANCH   1  21
TORSDOF 16
ENDMDL
MODEL 2
REMARK VINA RESULT:     -10.4      0.688      6.351
REMARK SMILES COc1ccc(Cl)cc1C[NH2+]CCC(=O)NCCCCNC(=O)c1ccc(-c2c3nc(c(-c4c(F)cccc4F)c4ccc([nH]4)c(-c4c(F)cccc4F)c4nc(c(-c5c(F)cccc5F)c5ccc2[nH]5)C=C4)C=C3)cc1
REMARK SMILES IDX 17 1 16 2 14 3 15 4 13 6 12 7 11 8 10 11 9 12 3 13 4 14 5 15
REMARK SMILES IDX 8 16 6 17 7 18 2 19 1 20 18 21 19 22 20 23 21 24 22 25 23 27
REMARK SMILES IDX 24 28 25 29 77 30 26 31 76 32 27 33 28 34 29 35 70 36 30 37
REMARK SMILES IDX 75 38 69 39 71 40 31 41 74 42 68 43 67 44 32 46 58 47 41 48
REMARK SMILES IDX 57 49 42 50 45 51 56 52 72 53 43 54 44 55 55 57 73 58 46 59
REMARK SMILES IDX 33 60 34 61 39 62 35 63 36 64 38 65 40 66 37 67 59 68 60 69
REMARK SMILES IDX 65 70 61 71 62 72 64 73 66 74 63 75 47 76 48 77 53 78 49 79
REMARK SMILES IDX 50 80 52 81 54 82 51 83
REMARK H PARENT 16 5 11 9 11 10 21 26 71 45 45 56
REMARK Flexibility Score: inf
ROOT
ATOM      1  C   UNL A   1      35.139  20.936  25.582  1.00  0.00     0.116 C 
ENDROOT
BRANCH   1   2
ATOM      2  N   UNL A   1      34.188  19.867  25.349  1.00  0.00    -0.356 N 
ATOM      3  C   UNL A   1      32.827  19.918  25.289  1.00  0.00     0.225 C 
ATOM      4  O   UNL A   1      32.208  18.860  25.164  1.00  0.00    -0.275 OA
ATOM      5  H   UNL A   1      34.582  18.976  25.214  1.00  0.00     0.163 HD
BRANCH   3   6
ATOM      6  C   UNL A   1      32.100  21.246  25.347  1.00  0.00     0.161 C 
BRANCH   6   7
ATOM      7  C   UNL A   1      32.223  22.076  24.064  1.00  0.00     0.270 C 
BRANCH   7   8
ATOM      8  N   UNL A   1      32.394  23.522  24.233  1.00  0.00    -0.342 N 
ATOM      9  H   UNL A   1      31.591  23.990  23.812  1.00  0.00     0.346 HD
ATOM     10  H   UNL A   1      32.472  23.693  25.235  1.00  0.00     0.346 HD
BRANCH   8  11
ATOM     11  C   UNL A   1      33.612  24.061  23.618  1.00  0.00     0.301 C 
BRANCH  11  12
ATOM     12  C   UNL A   1      33.621  25.579  23.645  1.00  0.00     0.050 A 
ATOM     13  C   UNL A   1      33.587  26.353  22.466  1.00  0.00     0.127 A 
ATOM     14  C   UNL A   1      33.577  27.750  22.551  1.00  0.00     0.048 A 
ATOM     15  C   UNL A   1      33.642  28.385  23.794  1.00  0.00     0.024 A 
ATOM     16  C   UNL A   1      33.690  26.238  24.889  1.00  0.00     0.034 A 
ATOM     17  C   UNL A   1      33.711  27.628  24.957  1.00  0.00     0.041 A 
ATOM     18  Cl  UNL A   1      33.836  28.413  26.482  1.00  0.00    -0.084 Cl
BRANCH  13  19
ATOM     19  O   UNL A   1      33.551  25.669  21.278  1.00  0.00    -0.496 OA
ATOM     20  C   UNL A   1      32.342  25.757  20.529  1.00  0.00     0.278 C 
ENDBRANCH  13  19
ENDBRANCH  11  12
ENDBRANCH   8  11
ENDBRANCH   7   8
ENDBRANCH   6   7
ENDBRANCH   3   6
ENDBRANCH   1   2
BRANCH   1  21
ATOM     21  C   UNL A   1      36.481  20.628  24.914  1.00  0.00     0.023 C 
BRANCH  21  22
ATOM     22  C   UNL A   1      37.482  21.779  24.937  1.00  0.00     0.023 C 
BRANCH  22  23
ATOM     23  C   UNL A   1      38.655  21.568  25.887  1.00  0.00     0.116 C 
BRANCH  23  24
ATOM     24  N   UNL A   1      39.368  20.312  25.691  1.00  0.00    -0.352 N 
ATOM     25  C   UNL A   1      40.682  20.036  26.010  1.00  0.00     0.251 C 
ATOM     26  H   UNL A   1      38.854  19.577  25.285  1.00  0.00     0.163 HD
ATOM     27  O   UNL A   1      41.192  18.953  25.776  1.00  0.00    -0.269 OA
BRANCH  25  28
ATOM     28  C   UNL A   1      41.486  21.120  26.601  1.00  0.00     0.039 A 
ATOM     29  C   UNL A   1      42.055  22.069  25.749  1.00  0.00     0.014 A 
ATOM     30  C   UNL A   1      41.545  21.267  27.988  1.00  0.00     0.014 A 
ATOM     31  C   UNL A   1      42.590  23.236  26.292  1.00  0.00     0.010 A 
ATOM     32  C   UNL A   1      42.016  22.457  28.522  1.00  0.00     0.010 A 
ATOM     33  C   UNL A   1      42.514  23.462  27.675  1.00  0.00    -0.014 A 
BRANCH  33  34
ATOM     34  C   UNL A   1      42.889  24.767  28.268  1.00  0.00     0.031 A 
ATOM     35  C   UNL A   1      41.837  25.804  28.510  1.00  0.00     0.074 A 
ATOM     36  C   UNL A   1      44.192  25.052  28.459  1.00  0.00     0.049 A 
ATOM     37  N   UNL A   1      41.977  27.054  28.866  1.00  0.00    -0.248 NA
ATOM     38  C   UNL A   1      40.443  25.390  28.286  1.00  0.00     0.031 C 
ATOM     39  C   UNL A   1      45.307  24.140  28.195  1.00  0.00     0.029 A 
ATOM     40  N   UNL A   1      44.799  26.202  28.893  1.00  0.00    -0.354 N 
ATOM     41  C   UNL A   1      40.696  27.586  28.876  1.00  0.00     0.074 A 
ATOM     42  C   UNL A   1      39.793  26.533  28.460  1.00  0.00     0.031 C 
ATOM     43  C   UNL A   1      46.463  24.764  28.480  1.00  0.00     0.029 A 
ATOM     44  C   UNL A   1      46.171  26.127  28.910  1.00  0.00     0.049 A 
ATOM     45  H   UNL A   1      44.299  27.006  29.167  1.00  0.00     0.167 HD
ATOM     46  C   UNL A   1      40.308  28.838  29.212  1.00  0.00     0.037 A 
ATOM     47  C   UNL A   1      47.090  27.059  29.223  1.00  0.00     0.037 A 
ATOM     48  C   UNL A   1      41.206  29.866  29.664  1.00  0.00     0.049 A 
ATOM     49  C   UNL A   1      46.631  28.427  29.640  1.00  0.00     0.074 A 
ATOM     50  C   UNL A   1      40.905  31.142  30.107  1.00  0.00     0.029 A 
ATOM     51  N   UNL A   1      42.585  29.731  29.732  1.00  0.00    -0.354 N 
ATOM     52  N   UNL A   1      45.409  28.899  29.710  1.00  0.00    -0.248 NA
ATOM     53  C   UNL A   1      47.672  29.389  30.025  1.00  0.00     0.031 C 
ATOM     54  C   UNL A   1      42.106  31.788  30.420  1.00  0.00     0.029 A 
ATOM     55  C   UNL A   1      43.150  30.904  30.200  1.00  0.00     0.049 A 
ATOM     56  H   UNL A   1      43.087  28.921  29.486  1.00  0.00     0.167 HD
ATOM     57  C   UNL A   1      45.532  30.204  30.165  1.00  0.00     0.074 A 
ATOM     58  C   UNL A   1      46.948  30.447  30.363  1.00  0.00     0.031 C 
ATOM     59  C   UNL A   1      44.561  31.118  30.399  1.00  0.00     0.037 A 
BRANCH  46  60
ATOM     60  C   UNL A   1      38.848  29.156  29.102  1.00  0.00     0.057 A 
ATOM     61  C   UNL A   1      37.987  29.062  30.203  1.00  0.00     0.134 A 
ATOM     62  C   UNL A   1      38.298  29.568  27.882  1.00  0.00     0.134 A 
ATOM     63  F   UNL A   1      38.450  28.654  31.395  1.00  0.00    -0.206 F 
ATOM     64  C   UNL A   1      36.625  29.340  30.089  1.00  0.00     0.040 A 
ATOM     65  C   UNL A   1      36.941  29.873  27.761  1.00  0.00     0.040 A 
ATOM     66  F   UNL A   1      39.069  29.680  26.790  1.00  0.00    -0.206 F 
ATOM     67  C   UNL A   1      36.100  29.752  28.865  1.00  0.00     0.006 A 
ENDBRANCH  46  60
BRANCH  47  68
ATOM     68  C   UNL A   1      48.532  26.719  29.174  1.00  0.00     0.057 A 
ATOM     69  C   UNL A   1      49.165  26.115  30.265  1.00  0.00     0.134 A 
ATOM     70  C   UNL A   1      49.305  26.971  28.035  1.00  0.00     0.134 A 
ATOM     71  F   UNL A   1      48.478  25.864  31.389  1.00  0.00    -0.206 F 
ATOM     72  C   UNL A   1      50.520  25.784  30.231  1.00  0.00     0.040 A 
ATOM     73  C   UNL A   1      50.657  26.628  27.980  1.00  0.00     0.040 A 
ATOM     74  F   UNL A   1      48.752  27.539  26.952  1.00  0.00    -0.206 F 
ATOM     75  C   UNL A   1      51.269  26.036  29.083  1.00  0.00     0.006 A 
ENDBRANCH  47  68
BRANCH  59  76
ATOM     76  C   UNL A   1      44.991  32.453  30.923  1.00  0.00     0.057 A 
ATOM     77  C   UNL A   1      45.141  32.690  32.294  1.00  0.00     0.134 A 
ATOM     78  C   UNL A   1      45.313  33.493  30.042  1.00  0.00     0.134 A 
ATOM     79  F   UNL A   1      44.836  31.735  33.186  1.00  0.00    -0.206 F 
ATOM     80  C   UNL A   1      45.592  33.920  32.772  1.00  0.00     0.040 A 
ATOM     81  C   UNL A   1      45.781  34.721  30.508  1.00  0.00     0.040 A 
ATOM     82  F   UNL A   1      45.194  33.324  28.716  1.00  0.00    -0.206 F 
ATOM     83  C   UNL A   1      45.921  34.937  31.877  1.00  0.00     0.006 A 
ENDBRANCH  59  76
ENDBRANCH  33  34
ENDBRANCH  25  28
ENDBRANCH  23  24
ENDBRANCH  22  23
ENDBRANCH  21  22
ENDBRANCH   1  21
TORSDOF 16
ENDMDL
MODEL 3
REMARK VINA RESULT:     -10.2      1.563      2.144
REMARK SMILES COc1ccc(Cl)cc1C[NH2+]CCC(=O)NCCCCNC(=O)c1ccc(-c2c3nc(c(-c4c(F)cccc4F)c4ccc([nH]4)c(-c4c(F)cccc4F)c4nc(c(-c5c(F)cccc5F)c5ccc2[nH]5)C=C4)C=C3)cc1
REMARK SMILES IDX 17 1 16 2 14 3 15 4 13 6 12 7 11 8 10 11 9 12 3 13 4 14 5 15
REMARK SMILES IDX 8 16 6 17 7 18 2 19 1 20 18 21 19 22 20 23 21 24 22 25 23 27
REMARK SMILES IDX 24 28 25 29 77 30 26 31 76 32 27 33 28 34 29 35 70 36 30 37
REMARK SMILES IDX 75 38 69 39 71 40 31 41 74 42 68 43 67 44 32 46 58 47 41 48
REMARK SMILES IDX 57 49 42 50 45 51 56 52 72 53 43 54 44 55 55 57 73 58 46 59
REMARK SMILES IDX 33 60 34 61 39 62 35 63 36 64 38 65 40 66 37 67 59 68 60 69
REMARK SMILES IDX 65 70 61 71 62 72 64 73 66 74 63 75 47 76 48 77 53 78 49 79
REMARK SMILES IDX 50 80 52 81 54 82 51 83
REMARK H PARENT 16 5 11 9 11 10 21 26 71 45 45 56
REMARK Flexibility Score: inf
ROOT
ATOM      1  C   UNL A   1      35.208  21.126  25.868  1.00  0.00     0.116 C 
ENDROOT
BRANCH   1   2
ATOM      2  N   UNL A   1      34.527  21.494  27.092  1.00  0.00    -0.356 N 
ATOM      3  C   UNL A   1      33.283  22.025  27.264  1.00  0.00     0.225 C 
ATOM      4  O   UNL A   1      32.936  22.344  28.402  1.00  0.00    -0.275 OA
ATOM      5  H   UNL A   1      35.036  21.340  27.920  1.00  0.00     0.163 HD
BRANCH   3   6
ATOM      6  C   UNL A   1      32.344  22.189  26.086  1.00  0.00     0.161 C 
BRANCH   6   7
ATOM      7  C   UNL A   1      31.088  23.009  26.406  1.00  0.00     0.270 C 
BRANCH   7   8
ATOM      8  N   UNL A   1      31.302  24.367  26.913  1.00  0.00    -0.342 N 
ATOM      9  H   UNL A   1      30.895  24.428  27.846  1.00  0.00     0.346 HD
ATOM     10  H   UNL A   1      32.310  24.526  26.909  1.00  0.00     0.346 HD
BRANCH   8  11
ATOM     11  C   UNL A   1      30.709  25.420  26.082  1.00  0.00     0.301 C 
BRANCH  11  12
ATOM     12  C   UNL A   1      31.753  26.089  25.206  1.00  0.00     0.050 A 
ATOM     13  C   UNL A   1      32.640  27.068  25.705  1.00  0.00     0.127 A 
ATOM     14  C   UNL A   1      33.596  27.636  24.856  1.00  0.00     0.048 A 
ATOM     15  C   UNL A   1      33.653  27.273  23.508  1.00  0.00     0.024 A 
ATOM     16  C   UNL A   1      31.824  25.739  23.843  1.00  0.00     0.034 A 
ATOM     17  C   UNL A   1      32.760  26.336  23.003  1.00  0.00     0.041 A 
ATOM     18  Cl  UNL A   1      32.804  25.925  21.334  1.00  0.00    -0.084 Cl
BRANCH  13  19
ATOM     19  O   UNL A   1      32.514  27.398  27.030  1.00  0.00    -0.496 OA
ATOM     20  C   UNL A   1      31.940  28.670  27.316  1.00  0.00     0.278 C 
ENDBRANCH  13  19
ENDBRANCH  11  12
ENDBRANCH   8  11
ENDBRANCH   7   8
ENDBRANCH   6   7
ENDBRANCH   3   6
ENDBRANCH   1   2
BRANCH   1  21
ATOM     21  C   UNL A   1      36.480  21.958  25.680  1.00  0.00     0.023 C 
BRANCH  21  22
ATOM     22  C   UNL A   1      37.644  21.205  25.044  1.00  0.00     0.023 C 
BRANCH  22  23
ATOM     23  C   UNL A   1      38.923  21.216  25.873  1.00  0.00     0.116 C 
BRANCH  23  24
ATOM     24  N   UNL A   1      39.739  20.016  25.736  1.00  0.00    -0.352 N 
ATOM     25  C   UNL A   1      41.074  19.870  26.050  1.00  0.00     0.251 C 
ATOM     26  H   UNL A   1      39.285  19.218  25.378  1.00  0.00     0.163 HD
ATOM     27  O   UNL A   1      41.673  18.823  25.869  1.00  0.00    -0.269 OA
BRANCH  25  28
ATOM     28  C   UNL A   1      41.789  21.050  26.569  1.00  0.00     0.039 A 
ATOM     29  C   UNL A   1      42.336  21.954  25.656  1.00  0.00     0.014 A 
ATOM     30  C   UNL A   1      41.783  21.321  27.939  1.00  0.00     0.014 A 
ATOM     31  C   UNL A   1      42.778  23.195  26.110  1.00  0.00     0.010 A 
ATOM     32  C   UNL A   1      42.162  22.581  28.379  1.00  0.00     0.010 A 
ATOM     33  C   UNL A   1      42.634  23.536  27.463  1.00  0.00    -0.014 A 
BRANCH  33  34
ATOM     34  C   UNL A   1      42.907  24.908  27.949  1.00  0.00     0.031 A 
ATOM     35  C   UNL A   1      44.284  25.276  28.406  1.00  0.00     0.074 A 
ATOM     36  C   UNL A   1      41.882  25.770  28.095  1.00  0.00     0.049 A 
ATOM     37  N   UNL A   1      44.692  26.361  29.010  1.00  0.00    -0.248 NA
ATOM     38  C   UNL A   1      45.338  24.271  28.190  1.00  0.00     0.031 C 
ATOM     39  C   UNL A   1      40.487  25.497  27.743  1.00  0.00     0.029 A 
ATOM     40  N   UNL A   1      41.852  27.042  28.606  1.00  0.00    -0.354 N 
ATOM     41  C   UNL A   1      46.038  26.159  29.276  1.00  0.00     0.074 A 
ATOM     42  C   UNL A   1      46.373  24.835  28.797  1.00  0.00     0.031 C 
ATOM     43  C   UNL A   1      39.739  26.572  28.042  1.00  0.00     0.029 A 
ATOM     44  C   UNL A   1      40.593  27.592  28.638  1.00  0.00     0.049 A 
ATOM     45  H   UNL A   1      42.656  27.517  28.920  1.00  0.00     0.167 HD
ATOM     46  C   UNL A   1      46.916  27.008  29.858  1.00  0.00     0.037 A 
ATOM     47  C   UNL A   1      40.175  28.781  29.111  1.00  0.00     0.037 A 
ATOM     48  C   UNL A   1      46.585  28.337  30.293  1.00  0.00     0.049 A 
ATOM     49  C   UNL A   1      41.179  29.725  29.708  1.00  0.00     0.074 A 
ATOM     50  C   UNL A   1      47.421  29.307  30.820  1.00  0.00     0.029 A 
ATOM     51  N   UNL A   1      45.312  28.885  30.248  1.00  0.00    -0.354 N 
ATOM     52  N   UNL A   1      42.464  29.548  29.893  1.00  0.00    -0.248 NA
ATOM     53  C   UNL A   1      40.678  31.031  30.157  1.00  0.00     0.031 C 
ATOM     54  C   UNL A   1      46.646  30.434  31.117  1.00  0.00     0.029 A 
ATOM     55  C   UNL A   1      45.336  30.176  30.747  1.00  0.00     0.049 A 
ATOM     56  H   UNL A   1      44.509  28.425  29.909  1.00  0.00     0.167 HD
ATOM     57  C   UNL A   1      42.931  30.725  30.461  1.00  0.00     0.074 A 
ATOM     58  C   UNL A   1      41.791  31.613  30.582  1.00  0.00     0.031 C 
ATOM     59  C   UNL A   1      44.190  31.043  30.846  1.00  0.00     0.037 A 
BRANCH  46  60
ATOM     60  C   UNL A   1      48.318  26.516  30.053  1.00  0.00     0.057 A 
ATOM     61  C   UNL A   1      49.311  26.711  29.084  1.00  0.00     0.134 A 
ATOM     62  C   UNL A   1      48.681  25.844  31.227  1.00  0.00     0.134 A 
ATOM     63  F   UNL A   1      49.020  27.331  27.930  1.00  0.00    -0.206 F 
ATOM     64  C   UNL A   1      50.609  26.232  29.263  1.00  0.00     0.040 A 
ATOM     65  C   UNL A   1      49.983  25.382  31.428  1.00  0.00     0.040 A 
ATOM     66  F   UNL A   1      47.778  25.626  32.194  1.00  0.00    -0.206 F 
ATOM     67  C   UNL A   1      50.949  25.570  30.442  1.00  0.00     0.006 A 
ENDBRANCH  46  60
BRANCH  47  68
ATOM     68  C   UNL A   1      38.742  29.150  29.015  1.00  0.00     0.057 A 
ATOM     69  C   UNL A   1      37.907  29.087  30.136  1.00  0.00     0.134 A 
ATOM     70  C   UNL A   1      38.179  29.590  27.812  1.00  0.00     0.134 A 
ATOM     71  F   UNL A   1      38.388  28.658  31.311  1.00  0.00    -0.206 F 
ATOM     72  C   UNL A   1      36.559  29.438  30.062  1.00  0.00     0.040 A 
ATOM     73  C   UNL A   1      36.835  29.962  27.728  1.00  0.00     0.040 A 
ATOM     74  F   UNL A   1      38.931  29.682  26.704  1.00  0.00    -0.206 F 
ATOM     75  C   UNL A   1      36.021  29.882  28.855  1.00  0.00     0.006 A 
ENDBRANCH  47  68
BRANCH  59  76
ATOM     76  C   UNL A   1      44.408  32.415  31.406  1.00  0.00     0.057 A 
ATOM     77  C   UNL A   1      44.701  33.506  30.581  1.00  0.00     0.134 A 
ATOM     78  C   UNL A   1      44.264  32.654  32.778  1.00  0.00     0.134 A 
ATOM     79  F   UNL A   1      44.862  33.335  29.260  1.00  0.00    -0.206 F 
ATOM     80  C   UNL A   1      44.851  34.790  31.103  1.00  0.00     0.040 A 
ATOM     81  C   UNL A   1      44.395  33.937  33.310  1.00  0.00     0.040 A 
ATOM     82  F   UNL A   1      43.978  31.648  33.619  1.00  0.00    -0.206 F 
ATOM     83  C   UNL A   1      44.690  35.009  32.471  1.00  0.00     0.006 A 
ENDBRANCH  59  76
ENDBRANCH  33  34
ENDBRANCH  25  28
ENDBRANCH  23  24
ENDBRANCH  22  23
ENDBRANCH  21  22
ENDBRANCH   1  21
TORSDOF 16
ENDMDL
