MODEL 1
REMARK VINA RESULT:     -11.5      0.000      0.000
REMARK SMILES C/C(=C/C[N@H+]1C[C@H]2CCC[N@@H+]2C[C@@H]1C)C(=O)NCCCCNC(=O)c1ccc(-c2c3nc(c(-c4c(F)cccc4F)c4ccc([nH]4)c(-c4c(F)cccc4F)c4nc(c(-c5c(F)cccc5F)c5ccc2[nH]5)C=C4)C=C3)cc1
REMARK SMILES IDX 19 1 18 2 17 3 15 4 16 5 2 7 1 8 3 9 4 10 5 11 6 12 13 13
REMARK SMILES IDX 7 15 12 16 14 17 8 18 11 19 9 20 10 21 20 23 21 24 22 25
REMARK SMILES IDX 23 26 24 28 25 29 26 30 78 31 27 32 77 33 28 34 29 35 30 36
REMARK SMILES IDX 71 37 31 38 76 39 70 40 72 41 32 42 75 43 69 44 68 45 33 47
REMARK SMILES IDX 59 48 42 49 58 50 43 51 46 52 57 53 73 54 44 55 45 56 56 58
REMARK SMILES IDX 74 59 47 60 34 61 35 62 40 63 36 64 37 65 39 66 41 67 38 68
REMARK SMILES IDX 60 69 61 70 66 71 62 72 63 73 65 74 67 75 64 76 48 77 49 78
REMARK SMILES IDX 54 79 50 80 51 81 53 82 55 83 52 84
REMARK H PARENT 17 6 5 14 11 22 22 27 72 46 46 57
REMARK Flexibility Score: inf
ROOT
ATOM      1  C   UNL A   1      31.768  30.219  26.593  1.00  0.00     0.023 C 
ENDROOT
BRANCH   1   2
ATOM      2  C   UNL A   1      33.129  29.790  26.025  1.00  0.00     0.116 C 
BRANCH   2   3
ATOM      3  N   UNL A   1      33.063  29.566  24.603  1.00  0.00    -0.352 N 
ATOM      4  C   UNL A   1      32.267  28.891  23.755  1.00  0.00     0.246 C 
ATOM      5  O   UNL A   1      32.569  29.060  22.563  1.00  0.00    -0.270 OA
ATOM      6  H   UNL A   1      33.792  30.027  24.128  1.00  0.00     0.163 HD
BRANCH   4   7
ATOM      7  C   UNL A   1      31.084  27.997  24.069  1.00  0.00     0.015 C 
ATOM      8  C   UNL A   1      29.944  28.347  23.109  1.00  0.00     0.050 C 
ATOM      9  C   UNL A   1      30.798  27.012  24.949  1.00  0.00     0.042 C 
BRANCH   9  10
ATOM     10  C   UNL A   1      31.521  26.319  26.051  1.00  0.00     0.292 C 
BRANCH  10  11
ATOM     11  N   UNL A   1      32.142  25.007  25.780  1.00  0.00    -0.320 N 
ATOM     12  C   UNL A   1      33.589  25.211  25.483  1.00  0.00     0.328 C 
ATOM     13  C   UNL A   1      31.897  23.917  26.771  1.00  0.00     0.237 C 
ATOM     14  H   UNL A   1      31.655  24.635  24.964  1.00  0.00     0.348 HD
ATOM     15  C   UNL A   1      34.381  23.911  25.327  1.00  0.00     0.240 C 
ATOM     16  C   UNL A   1      32.881  22.694  26.696  1.00  0.00     0.328 C 
ATOM     17  C   UNL A   1      30.490  23.315  26.576  1.00  0.00     0.081 C 
ATOM     18  C   UNL A   1      35.890  24.052  25.242  1.00  0.00     0.077 C 
ATOM     19  N   UNL A   1      34.269  23.109  26.552  1.00  0.00    -0.323 N 
ATOM     20  C   UNL A   1      36.380  22.653  25.620  1.00  0.00     0.068 C 
ATOM     21  C   UNL A   1      35.226  22.017  26.399  1.00  0.00     0.263 C 
ATOM     22  H   UNL A   1      34.498  23.609  27.412  1.00  0.00     0.348 HD
ENDBRANCH  10  11
ENDBRANCH   9  10
ENDBRANCH   4   7
ENDBRANCH   2   3
ENDBRANCH   1   2
BRANCH   1  23
ATOM     23  C   UNL A   1      31.538  31.729  26.616  1.00  0.00     0.023 C 
BRANCH  23  24
ATOM     24  C   UNL A   1      32.737  32.538  27.095  1.00  0.00     0.116 C 
BRANCH  24  25
ATOM     25  N   UNL A   1      32.407  33.873  27.571  1.00  0.00    -0.352 N 
ATOM     26  C   UNL A   1      33.071  34.618  28.519  1.00  0.00     0.251 C 
ATOM     27  H   UNL A   1      31.614  34.293  27.167  1.00  0.00     0.163 HD
ATOM     28  O   UNL A   1      32.644  35.718  28.859  1.00  0.00    -0.269 OA
BRANCH  26  29
ATOM     29  C   UNL A   1      34.274  34.053  29.167  1.00  0.00     0.039 A 
ATOM     30  C   UNL A   1      34.112  33.093  30.168  1.00  0.00     0.014 A 
ATOM     31  C   UNL A   1      35.555  34.424  28.749  1.00  0.00     0.014 A 
ATOM     32  C   UNL A   1      35.234  32.455  30.701  1.00  0.00     0.010 A 
ATOM     33  C   UNL A   1      36.665  33.729  29.220  1.00  0.00     0.010 A 
ATOM     34  C   UNL A   1      36.518  32.744  30.207  1.00  0.00    -0.014 A 
BRANCH  34  35
ATOM     35  C   UNL A   1      37.714  32.042  30.738  1.00  0.00     0.031 A 
ATOM     36  C   UNL A   1      38.259  32.402  32.094  1.00  0.00     0.074 A 
ATOM     37  C   UNL A   1      38.338  31.114  29.987  1.00  0.00     0.049 A 
ATOM     38  N   UNL A   1      39.289  31.906  32.729  1.00  0.00    -0.248 NA
ATOM     39  C   UNL A   1      37.573  33.484  32.819  1.00  0.00     0.031 C 
ATOM     40  C   UNL A   1      37.957  30.725  28.627  1.00  0.00     0.029 A 
ATOM     41  N   UNL A   1      39.427  30.326  30.264  1.00  0.00    -0.354 N 
ATOM     42  C   UNL A   1      39.384  32.623  33.915  1.00  0.00     0.074 A 
ATOM     43  C   UNL A   1      38.345  33.629  33.885  1.00  0.00     0.031 C 
ATOM     44  C   UNL A   1      38.778  29.751  28.203  1.00  0.00     0.029 A 
ATOM     45  C   UNL A   1      39.752  29.458  29.250  1.00  0.00     0.049 A 
ATOM     46  H   UNL A   1      39.929  30.379  31.109  1.00  0.00     0.167 HD
ATOM     47  C   UNL A   1      40.235  32.443  34.951  1.00  0.00     0.037 A 
ATOM     48  C   UNL A   1      40.716  28.520  29.182  1.00  0.00     0.037 A 
ATOM     49  C   UNL A   1      41.244  31.418  35.001  1.00  0.00     0.049 A 
ATOM     50  C   UNL A   1      41.615  28.302  30.367  1.00  0.00     0.074 A 
ATOM     51  C   UNL A   1      42.117  31.115  36.031  1.00  0.00     0.029 A 
ATOM     52  N   UNL A   1      41.506  30.524  33.975  1.00  0.00    -0.354 N 
ATOM     53  N   UNL A   1      41.639  28.934  31.516  1.00  0.00    -0.248 NA
ATOM     54  C   UNL A   1      42.608  27.225  30.255  1.00  0.00     0.031 C 
ATOM     55  C   UNL A   1      42.926  30.050  35.617  1.00  0.00     0.029 A 
ATOM     56  C   UNL A   1      42.531  29.670  34.346  1.00  0.00     0.049 A 
ATOM     57  H   UNL A   1      41.034  30.499  33.112  1.00  0.00     0.167 HD
ATOM     58  C   UNL A   1      42.625  28.314  32.272  1.00  0.00     0.074 A 
ATOM     59  C   UNL A   1      43.165  27.245  31.458  1.00  0.00     0.031 C 
ATOM     60  C   UNL A   1      43.045  28.601  33.528  1.00  0.00     0.037 A 
BRANCH  47  61
ATOM     61  C   UNL A   1      40.094  33.367  36.125  1.00  0.00     0.057 A 
ATOM     62  C   UNL A   1      39.209  33.090  37.176  1.00  0.00     0.134 A 
ATOM     63  C   UNL A   1      40.857  34.537  36.213  1.00  0.00     0.134 A 
ATOM     64  F   UNL A   1      38.437  31.994  37.144  1.00  0.00    -0.206 F 
ATOM     65  C   UNL A   1      39.068  33.959  38.259  1.00  0.00     0.040 A 
ATOM     66  C   UNL A   1      40.744  35.400  37.305  1.00  0.00     0.040 A 
ATOM     67  F   UNL A   1      41.726  34.859  35.244  1.00  0.00    -0.206 F 
ATOM     68  C   UNL A   1      39.841  35.116  38.328  1.00  0.00     0.006 A 
ENDBRANCH  47  61
BRANCH  48  69
ATOM     69  C   UNL A   1      40.850  27.674  27.970  1.00  0.00     0.057 A 
ATOM     70  C   UNL A   1      40.198  26.438  27.881  1.00  0.00     0.134 A 
ATOM     71  C   UNL A   1      41.643  28.064  26.887  1.00  0.00     0.134 A 
ATOM     72  F   UNL A   1      39.437  26.001  28.896  1.00  0.00    -0.206 F 
ATOM     73  C   UNL A   1      40.350  25.609  26.769  1.00  0.00     0.040 A 
ATOM     74  C   UNL A   1      41.788  27.255  25.758  1.00  0.00     0.040 A 
ATOM     75  F   UNL A   1      42.287  29.241  26.909  1.00  0.00    -0.206 F 
ATOM     76  C   UNL A   1      41.146  26.019  25.702  1.00  0.00     0.006 A 
ENDBRANCH  48  69
BRANCH  60  77
ATOM     77  C   UNL A   1      44.112  27.722  34.108  1.00  0.00     0.057 A 
ATOM     78  C   UNL A   1      45.471  28.044  34.011  1.00  0.00     0.134 A 
ATOM     79  C   UNL A   1      43.770  26.550  34.794  1.00  0.00     0.134 A 
ATOM     80  F   UNL A   1      45.863  29.148  33.356  1.00  0.00    -0.206 F 
ATOM     81  C   UNL A   1      46.456  27.215  34.551  1.00  0.00     0.040 A 
ATOM     82  C   UNL A   1      44.743  25.726  35.359  1.00  0.00     0.040 A 
ATOM     83  F   UNL A   1      42.484  26.189  34.930  1.00  0.00    -0.206 F 
ATOM     84  C   UNL A   1      46.091  26.054  35.232  1.00  0.00     0.006 A 
ENDBRANCH  60  77
ENDBRANCH  34  35
ENDBRANCH  26  29
ENDBRANCH  24  25
ENDBRANCH  23  24
ENDBRANCH   1  23
TORSDOF 13
ENDMDL
MODEL 2
REMARK VINA RESULT:     -11.5      4.913     10.049
REMARK SMILES C/C(=C/C[N@H+]1C[C@H]2CCC[N@@H+]2C[C@@H]1C)C(=O)NCCCCNC(=O)c1ccc(-c2c3nc(c(-c4c(F)cccc4F)c4ccc([nH]4)c(-c4c(F)cccc4F)c4nc(c(-c5c(F)cccc5F)c5ccc2[nH]5)C=C4)C=C3)cc1
REMARK SMILES IDX 19 1 18 2 17 3 15 4 16 5 2 7 1 8 3 9 4 10 5 11 6 12 13 13
REMARK SMILES IDX 7 15 12 16 14 17 8 18 11 19 9 20 10 21 20 23 21 24 22 25
REMARK SMILES IDX 23 26 24 28 25 29 26 30 78 31 27 32 77 33 28 34 29 35 30 36
REMARK SMILES IDX 71 37 31 38 76 39 70 40 72 41 32 42 75 43 69 44 68 45 33 47
REMARK SMILES IDX 59 48 42 49 58 50 43 51 46 52 57 53 73 54 44 55 45 56 56 58
REMARK SMILES IDX 74 59 47 60 34 61 35 62 40 63 36 64 37 65 39 66 41 67 38 68
REMARK SMILES IDX 60 69 61 70 66 71 62 72 63 73 65 74 67 75 64 76 48 77 49 78
REMARK SMILES IDX 54 79 50 80 51 81 53 82 55 83 52 84
REMARK H PARENT 17 6 5 14 11 22 22 27 72 46 46 57
REMARK Flexibility Score: inf
ROOT
ATOM      1  C   UNL A   1      37.390  21.311  24.313  1.00  0.00     0.023 C 
ENDROOT
BRANCH   1   2
ATOM      2  C   UNL A   1      36.884  22.390  25.283  1.00  0.00     0.116 C 
BRANCH   2   3
ATOM      3  N   UNL A   1      35.810  21.898  26.109  1.00  0.00    -0.352 N 
ATOM      4  C   UNL A   1      34.533  21.514  25.927  1.00  0.00     0.246 C 
ATOM      5  O   UNL A   1      34.004  21.077  26.960  1.00  0.00    -0.270 OA
ATOM      6  H   UNL A   1      36.080  21.825  27.052  1.00  0.00     0.163 HD
BRANCH   4   7
ATOM      7  C   UNL A   1      33.705  21.536  24.658  1.00  0.00     0.015 C 
ATOM      8  C   UNL A   1      32.818  20.289  24.636  1.00  0.00     0.050 C 
ATOM      9  C   UNL A   1      33.563  22.349  23.587  1.00  0.00     0.042 C 
BRANCH   9  10
ATOM     10  C   UNL A   1      34.161  23.635  23.132  1.00  0.00     0.292 C 
BRANCH  10  11
ATOM     11  N   UNL A   1      33.417  24.888  23.369  1.00  0.00    -0.320 N 
ATOM     12  C   UNL A   1      33.767  25.407  24.723  1.00  0.00     0.328 C 
ATOM     13  C   UNL A   1      33.487  25.935  22.307  1.00  0.00     0.237 C 
ATOM     14  H   UNL A   1      32.430  24.636  23.323  1.00  0.00     0.348 HD
ATOM     15  C   UNL A   1      33.173  26.783  25.034  1.00  0.00     0.240 C 
ATOM     16  C   UNL A   1      33.059  27.382  22.746  1.00  0.00     0.328 C 
ATOM     17  C   UNL A   1      32.552  25.577  21.133  1.00  0.00     0.081 C 
ATOM     18  C   UNL A   1      33.669  27.456  26.301  1.00  0.00     0.077 C 
ATOM     19  N   UNL A   1      33.625  27.758  24.034  1.00  0.00    -0.323 N 
ATOM     20  C   UNL A   1      33.330  28.928  26.053  1.00  0.00     0.068 C 
ATOM     21  C   UNL A   1      33.202  29.063  24.534  1.00  0.00     0.263 C 
ATOM     22  H   UNL A   1      34.635  27.789  23.893  1.00  0.00     0.348 HD
ENDBRANCH  10  11
ENDBRANCH   9  10
ENDBRANCH   4   7
ENDBRANCH   2   3
ENDBRANCH   1   2
BRANCH   1  23
ATOM     23  C   UNL A   1      37.825  20.009  24.983  1.00  0.00     0.023 C 
BRANCH  23  24
ATOM     24  C   UNL A   1      39.007  20.158  25.933  1.00  0.00     0.116 C 
BRANCH  24  25
ATOM     25  N   UNL A   1      40.029  19.133  25.781  1.00  0.00    -0.352 N 
ATOM     26  C   UNL A   1      41.387  19.261  25.965  1.00  0.00     0.251 C 
ATOM     27  H   UNL A   1      39.710  18.239  25.517  1.00  0.00     0.163 HD
ATOM     28  O   UNL A   1      42.138  18.315  25.751  1.00  0.00    -0.269 OA
BRANCH  26  29
ATOM     29  C   UNL A   1      41.938  20.573  26.369  1.00  0.00     0.039 A 
ATOM     30  C   UNL A   1      42.220  21.518  25.380  1.00  0.00     0.014 A 
ATOM     31  C   UNL A   1      42.120  20.891  27.718  1.00  0.00     0.014 A 
ATOM     32  C   UNL A   1      42.619  22.804  25.748  1.00  0.00     0.010 A 
ATOM     33  C   UNL A   1      42.435  22.195  28.084  1.00  0.00     0.010 A 
ATOM     34  C   UNL A   1      42.697  23.164  27.104  1.00  0.00    -0.014 A 
BRANCH  34  35
ATOM     35  C   UNL A   1      43.081  24.541  27.507  1.00  0.00     0.031 A 
ATOM     36  C   UNL A   1      44.522  24.969  27.448  1.00  0.00     0.074 A 
ATOM     37  C   UNL A   1      42.144  25.393  27.967  1.00  0.00     0.049 A 
ATOM     38  N   UNL A   1      45.055  26.124  27.756  1.00  0.00    -0.248 NA
ATOM     39  C   UNL A   1      45.498  23.957  27.015  1.00  0.00     0.031 C 
ATOM     40  C   UNL A   1      40.724  25.080  28.145  1.00  0.00     0.029 A 
ATOM     41  N   UNL A   1      42.247  26.701  28.369  1.00  0.00    -0.354 N 
ATOM     42  C   UNL A   1      46.423  25.971  27.570  1.00  0.00     0.074 A 
ATOM     43  C   UNL A   1      46.646  24.596  27.182  1.00  0.00     0.031 C 
ATOM     44  C   UNL A   1      40.085  26.174  28.588  1.00  0.00     0.029 A 
ATOM     45  C   UNL A   1      41.048  27.259  28.742  1.00  0.00     0.049 A 
ATOM     46  H   UNL A   1      43.100  27.193  28.390  1.00  0.00     0.167 HD
ATOM     47  C   UNL A   1      47.404  26.897  27.679  1.00  0.00     0.037 A 
ATOM     48  C   UNL A   1      40.759  28.511  29.146  1.00  0.00     0.037 A 
ATOM     49  C   UNL A   1      47.181  28.275  28.027  1.00  0.00     0.049 A 
ATOM     50  C   UNL A   1      41.858  29.536  29.208  1.00  0.00     0.074 A 
ATOM     51  C   UNL A   1      48.100  29.305  28.107  1.00  0.00     0.029 A 
ATOM     52  N   UNL A   1      45.944  28.814  28.346  1.00  0.00    -0.354 N 
ATOM     53  N   UNL A   1      43.135  29.397  28.949  1.00  0.00    -0.248 NA
ATOM     54  C   UNL A   1      41.470  30.899  29.598  1.00  0.00     0.031 C 
ATOM     55  C   UNL A   1      47.422  30.466  28.499  1.00  0.00     0.029 A 
ATOM     56  C   UNL A   1      46.077  30.163  28.627  1.00  0.00     0.049 A 
ATOM     57  H   UNL A   1      45.098  28.313  28.369  1.00  0.00     0.167 HD
ATOM     58  C   UNL A   1      43.696  30.657  29.114  1.00  0.00     0.074 A 
ATOM     59  C   UNL A   1      42.618  31.551  29.481  1.00  0.00     0.031 C 
ATOM     60  C   UNL A   1      44.989  31.040  28.975  1.00  0.00     0.037 A 
BRANCH  47  61
ATOM     61  C   UNL A   1      48.807  26.446  27.399  1.00  0.00     0.057 A 
ATOM     62  C   UNL A   1      49.344  26.479  26.105  1.00  0.00     0.134 A 
ATOM     63  C   UNL A   1      49.634  25.989  28.431  1.00  0.00     0.134 A 
ATOM     64  F   UNL A   1      48.598  26.892  25.069  1.00  0.00    -0.206 F 
ATOM     65  C   UNL A   1      50.645  26.046  25.843  1.00  0.00     0.040 A 
ATOM     66  C   UNL A   1      50.946  25.577  28.185  1.00  0.00     0.040 A 
ATOM     67  F   UNL A   1      49.184  25.936  29.693  1.00  0.00    -0.206 F 
ATOM     68  C   UNL A   1      51.452  25.598  26.887  1.00  0.00     0.006 A 
ENDBRANCH  47  61
BRANCH  48  69
ATOM     69  C   UNL A   1      39.361  28.886  29.470  1.00  0.00     0.057 A 
ATOM     70  C   UNL A   1      38.848  28.704  30.761  1.00  0.00     0.134 A 
ATOM     71  C   UNL A   1      38.499  29.412  28.502  1.00  0.00     0.134 A 
ATOM     72  F   UNL A   1      39.621  28.187  31.728  1.00  0.00    -0.206 F 
ATOM     73  C   UNL A   1      37.522  29.008  31.071  1.00  0.00     0.040 A 
ATOM     74  C   UNL A   1      37.176  29.741  28.803  1.00  0.00     0.040 A 
ATOM     75  F   UNL A   1      38.933  29.617  27.249  1.00  0.00    -0.206 F 
ATOM     76  C   UNL A   1      36.682  29.530  30.089  1.00  0.00     0.006 A 
ENDBRANCH  48  69
BRANCH  60  77
ATOM     77  C   UNL A   1      45.295  32.494  29.180  1.00  0.00     0.057 A 
ATOM     78  C   UNL A   1      45.690  32.998  30.425  1.00  0.00     0.134 A 
ATOM     79  C   UNL A   1      45.216  33.394  28.110  1.00  0.00     0.134 A 
ATOM     80  F   UNL A   1      45.772  32.189  31.492  1.00  0.00    -0.206 F 
ATOM     81  C   UNL A   1      45.967  34.355  30.605  1.00  0.00     0.040 A 
ATOM     82  C   UNL A   1      45.515  34.747  28.272  1.00  0.00     0.040 A 
ATOM     83  F   UNL A   1      44.853  32.972  26.889  1.00  0.00    -0.206 F 
ATOM     84  C   UNL A   1      45.884  35.232  29.525  1.00  0.00     0.006 A 
ENDBRANCH  60  77
ENDBRANCH  34  35
ENDBRANCH  26  29
ENDBRANCH  24  25
ENDBRANCH  23  24
ENDBRANCH   1  23
TORSDOF 13
ENDMDL
MODEL 3
REMARK VINA RESULT:     -11.4      1.017      2.092
REMARK SMILES C/C(=C/C[N@H+]1C[C@H]2CCC[N@@H+]2C[C@@H]1C)C(=O)NCCCCNC(=O)c1ccc(-c2c3nc(c(-c4c(F)cccc4F)c4ccc([nH]4)c(-c4c(F)cccc4F)c4nc(c(-c5c(F)cccc5F)c5ccc2[nH]5)C=C4)C=C3)cc1
REMARK SMILES IDX 19 1 18 2 17 3 15 4 16 5 2 7 1 8 3 9 4 10 5 11 6 12 13 13
REMARK SMILES IDX 7 15 12 16 14 17 8 18 11 19 9 20 10 21 20 23 21 24 22 25
REMARK SMILES IDX 23 26 24 28 25 29 26 30 78 31 27 32 77 33 28 34 29 35 30 36
REMARK SMILES IDX 71 37 31 38 76 39 70 40 72 41 32 42 75 43 69 44 68 45 33 47
REMARK SMILES IDX 59 48 42 49 58 50 43 51 46 52 57 53 73 54 44 55 45 56 56 58
REMARK SMILES IDX 74 59 47 60 34 61 35 62 40 63 36 64 37 65 39 66 41 67 38 68
REMARK SMILES IDX 60 69 61 70 66 71 62 72 63 73 65 74 67 75 64 76 48 77 49 78
REMARK SMILES IDX 54 79 50 80 51 81 53 82 55 83 52 84
REMARK H PARENT 17 6 5 14 11 22 22 27 72 46 46 57
REMARK Flexibility Score: inf
ROOT
ATOM      1  C   UNL A   1      31.605  30.578  26.471  1.00  0.00     0.023 C 
ENDROOT
BRANCH   1   2
ATOM      2  C   UNL A   1      33.038  30.083  26.224  1.00  0.00     0.116 C 
BRANCH   2   3
ATOM      3  N   UNL A   1      33.238  29.706  24.847  1.00  0.00    -0.352 N 
ATOM      4  C   UNL A   1      33.026  28.613  24.092  1.00  0.00     0.246 C 
ATOM      5  O   UNL A   1      33.294  28.788  22.894  1.00  0.00    -0.270 OA
ATOM      6  H   UNL A   1      33.634  30.438  24.323  1.00  0.00     0.163 HD
BRANCH   4   7
ATOM      7  C   UNL A   1      32.504  27.253  24.512  1.00  0.00     0.015 C 
ATOM      8  C   UNL A   1      30.975  27.285  24.464  1.00  0.00     0.050 C 
ATOM      9  C   UNL A   1      33.032  26.072  24.903  1.00  0.00     0.042 C 
BRANCH   9  10
ATOM     10  C   UNL A   1      34.403  25.529  25.111  1.00  0.00     0.292 C 
BRANCH  10  11
ATOM     11  N   UNL A   1      34.556  24.111  25.494  1.00  0.00    -0.320 N 
ATOM     12  C   UNL A   1      33.270  23.401  25.237  1.00  0.00     0.328 C 
ATOM     13  C   UNL A   1      35.743  23.382  24.957  1.00  0.00     0.237 C 
ATOM     14  H   UNL A   1      34.772  24.116  26.491  1.00  0.00     0.348 HD
ATOM     15  C   UNL A   1      33.341  21.888  25.455  1.00  0.00     0.240 C 
ATOM     16  C   UNL A   1      35.667  21.814  25.019  1.00  0.00     0.328 C 
ATOM     17  C   UNL A   1      37.012  23.756  25.751  1.00  0.00     0.081 C 
ATOM     18  C   UNL A   1      32.133  21.088  25.001  1.00  0.00     0.077 C 
ATOM     19  N   UNL A   1      34.372  21.306  24.587  1.00  0.00    -0.323 N 
ATOM     20  C   UNL A   1      32.700  19.674  24.860  1.00  0.00     0.068 C 
ATOM     21  C   UNL A   1      34.211  19.859  24.696  1.00  0.00     0.263 C 
ATOM     22  H   UNL A   1      34.293  21.558  23.602  1.00  0.00     0.348 HD
ENDBRANCH  10  11
ENDBRANCH   9  10
ENDBRANCH   4   7
ENDBRANCH   2   3
ENDBRANCH   1   2
BRANCH   1  23
ATOM     23  C   UNL A   1      31.455  32.098  26.503  1.00  0.00     0.023 C 
BRANCH  23  24
ATOM     24  C   UNL A   1      32.588  32.824  27.219  1.00  0.00     0.116 C 
BRANCH  24  25
ATOM     25  N   UNL A   1      32.260  34.178  27.637  1.00  0.00    -0.352 N 
ATOM     26  C   UNL A   1      32.938  34.971  28.536  1.00  0.00     0.251 C 
ATOM     27  H   UNL A   1      31.458  34.576  27.227  1.00  0.00     0.163 HD
ATOM     28  O   UNL A   1      32.513  36.084  28.831  1.00  0.00    -0.269 OA
BRANCH  26  29
ATOM     29  C   UNL A   1      34.156  34.442  29.187  1.00  0.00     0.039 A 
ATOM     30  C   UNL A   1      34.026  33.740  30.388  1.00  0.00     0.014 A 
ATOM     31  C   UNL A   1      35.410  34.586  28.588  1.00  0.00     0.014 A 
ATOM     32  C   UNL A   1      35.145  33.124  30.951  1.00  0.00     0.010 A 
ATOM     33  C   UNL A   1      36.506  33.901  29.105  1.00  0.00     0.010 A 
ATOM     34  C   UNL A   1      36.388  33.171  30.297  1.00  0.00    -0.014 A 
BRANCH  34  35
ATOM     35  C   UNL A   1      37.576  32.485  30.866  1.00  0.00     0.031 A 
ATOM     36  C   UNL A   1      38.180  32.971  32.156  1.00  0.00     0.074 A 
ATOM     37  C   UNL A   1      38.139  31.455  30.205  1.00  0.00     0.049 A 
ATOM     38  N   UNL A   1      39.214  32.507  32.811  1.00  0.00    -0.248 NA
ATOM     39  C   UNL A   1      37.561  34.153  32.775  1.00  0.00     0.031 C 
ATOM     40  C   UNL A   1      37.697  30.934  28.910  1.00  0.00     0.029 A 
ATOM     41  N   UNL A   1      39.208  30.659  30.534  1.00  0.00    -0.354 N 
ATOM     42  C   UNL A   1      39.376  33.347  33.905  1.00  0.00     0.074 A 
ATOM     43  C   UNL A   1      38.374  34.384  33.794  1.00  0.00     0.031 C 
ATOM     44  C   UNL A   1      38.466  29.886  28.572  1.00  0.00     0.029 A 
ATOM     45  C   UNL A   1      39.465  29.672  29.615  1.00  0.00     0.049 A 
ATOM     46  H   UNL A   1      39.741  30.786  31.353  1.00  0.00     0.167 HD
ATOM     47  C   UNL A   1      40.256  33.248  34.929  1.00  0.00     0.037 A 
ATOM     48  C   UNL A   1      40.391  28.695  29.622  1.00  0.00     0.037 A 
ATOM     49  C   UNL A   1      41.227  32.196  35.062  1.00  0.00     0.049 A 
ATOM     50  C   UNL A   1      41.322  28.573  30.797  1.00  0.00     0.074 A 
ATOM     51  C   UNL A   1      42.124  31.973  36.092  1.00  0.00     0.029 A 
ATOM     52  N   UNL A   1      41.421  31.183  34.135  1.00  0.00    -0.354 N 
ATOM     53  N   UNL A   1      41.409  29.327  31.866  1.00  0.00    -0.248 NA
ATOM     54  C   UNL A   1      42.271  27.452  30.776  1.00  0.00     0.031 C 
ATOM     55  C   UNL A   1      42.879  30.837  35.775  1.00  0.00     0.029 A 
ATOM     56  C   UNL A   1      42.426  30.335  34.567  1.00  0.00     0.049 A 
ATOM     57  H   UNL A   1      40.918  31.082  33.295  1.00  0.00     0.167 HD
ATOM     58  C   UNL A   1      42.397  28.755  32.656  1.00  0.00     0.074 A 
ATOM     59  C   UNL A   1      42.870  27.582  31.951  1.00  0.00     0.031 C 
ATOM     60  C   UNL A   1      42.872  29.163  33.858  1.00  0.00     0.037 A 
BRANCH  47  61
ATOM     61  C   UNL A   1      40.189  34.302  35.995  1.00  0.00     0.057 A 
ATOM     62  C   UNL A   1      40.940  35.482  35.909  1.00  0.00     0.134 A 
ATOM     63  C   UNL A   1      39.358  34.143  37.110  1.00  0.00     0.134 A 
ATOM     64  F   UNL A   1      41.768  35.688  34.874  1.00  0.00    -0.206 F 
ATOM     65  C   UNL A   1      40.888  36.454  36.910  1.00  0.00     0.040 A 
ATOM     66  C   UNL A   1      39.278  35.121  38.104  1.00  0.00     0.040 A 
ATOM     67  F   UNL A   1      38.610  33.039  37.251  1.00  0.00    -0.206 F 
ATOM     68  C   UNL A   1      40.050  36.277  38.009  1.00  0.00     0.006 A 
ENDBRANCH  47  61
BRANCH  48  69
ATOM     69  C   UNL A   1      40.451  27.715  28.510  1.00  0.00     0.057 A 
ATOM     70  C   UNL A   1      39.727  26.517  28.566  1.00  0.00     0.134 A 
ATOM     71  C   UNL A   1      41.244  27.937  27.379  1.00  0.00     0.134 A 
ATOM     72  F   UNL A   1      38.963  26.240  29.633  1.00  0.00    -0.206 F 
ATOM     73  C   UNL A   1      39.810  25.564  27.550  1.00  0.00     0.040 A 
ATOM     74  C   UNL A   1      41.319  27.002  26.345  1.00  0.00     0.040 A 
ATOM     75  F   UNL A   1      41.955  29.068  27.263  1.00  0.00    -0.206 F 
ATOM     76  C   UNL A   1      40.606  25.808  26.433  1.00  0.00     0.006 A 
ENDBRANCH  48  69
BRANCH  60  77
ATOM     77  C   UNL A   1      43.925  28.311  34.501  1.00  0.00     0.057 A 
ATOM     78  C   UNL A   1      43.599  27.236  35.337  1.00  0.00     0.134 A 
ATOM     79  C   UNL A   1      45.282  28.557  34.259  1.00  0.00     0.134 A 
ATOM     80  F   UNL A   1      42.317  26.957  35.617  1.00  0.00    -0.206 F 
ATOM     81  C   UNL A   1      44.589  26.453  35.935  1.00  0.00     0.040 A 
ATOM     82  C   UNL A   1      46.279  27.766  34.831  1.00  0.00     0.040 A 
ATOM     83  F   UNL A   1      45.661  29.566  33.459  1.00  0.00    -0.206 F 
ATOM     84  C   UNL A   1      45.934  26.715  35.677  1.00  0.00     0.006 A 
ENDBRANCH  60  77
ENDBRANCH  34  35
ENDBRANCH  26  29
ENDBRANCH  24  25
ENDBRANCH  23  24
ENDBRANCH   1  23
TORSDOF 13
ENDMDL
