MODEL 1
REMARK VINA RESULT:     -12.1      0.000      0.000
REMARK SMILES O=C(NCCCCNC(=O)[C@@H]1CCCC[C@H]1C(=O)Nc1ncccn1)c1ccc(-c2c3nc(c(-c4c(F)cccc4F)c4ccc([nH]4)c(-c4c(F)cccc4F)c4nc(c(-c5c(F)cccc5F)c5ccc2[nH]5)C=C4)C=C3)cc1
REMARK SMILES IDX 5 1 4 2 3 3 1 4 2 5 26 7 27 8 79 9 28 10 78 11 29 12 30 13
REMARK SMILES IDX 31 14 72 15 32 16 77 17 71 18 73 19 33 20 76 21 70 22 69 23
REMARK SMILES IDX 34 25 60 26 43 27 59 28 44 29 47 30 58 31 74 32 45 33 46 34
REMARK SMILES IDX 57 36 75 37 48 38 35 39 36 40 41 41 37 42 38 43 40 44 42 45
REMARK SMILES IDX 39 46 61 47 62 48 67 49 63 50 64 51 66 52 68 53 65 54 49 55
REMARK SMILES IDX 50 56 55 57 51 58 52 59 54 60 56 61 53 62 6 63 7 64 8 65
REMARK SMILES IDX 9 66 10 68 11 69 12 70 16 71 13 72 15 73 14 74 17 75 18 76
REMARK SMILES IDX 19 77 20 79 21 80 25 81 22 82 24 83 23 84
REMARK H PARENT 3 6 73 24 47 35 8 67 19 78
REMARK Flexibility Score: inf
ROOT
ATOM      1  C   UNL A   1      31.216  32.219  26.615  1.00  0.00     0.023 C 
ENDROOT
BRANCH   1   2
ATOM      2  C   UNL A   1      32.509  32.986  26.844  1.00  0.00     0.116 C 
BRANCH   2   3
ATOM      3  N   UNL A   1      32.331  34.202  27.626  1.00  0.00    -0.352 N 
ATOM      4  O   UNL A   1      32.793  35.642  29.312  1.00  0.00    -0.269 OA
ATOM      5  C   UNL A   1      33.100  34.646  28.678  1.00  0.00     0.251 C 
ATOM      6  H   UNL A   1      31.571  34.773  27.374  1.00  0.00     0.163 HD
BRANCH   5   7
ATOM      7  C   UNL A   1      34.286  33.851  29.046  1.00  0.00     0.039 A 
ATOM      8  C   UNL A   1      34.128  32.661  29.759  1.00  0.00     0.014 A 
ATOM      9  C   UNL A   1      35.556  34.358  28.764  1.00  0.00     0.014 A 
ATOM     10  C   UNL A   1      35.241  32.059  30.328  1.00  0.00     0.010 A 
ATOM     11  C   UNL A   1      36.679  33.703  29.269  1.00  0.00     0.010 A 
ATOM     12  C   UNL A   1      36.526  32.575  30.092  1.00  0.00    -0.014 A 
BRANCH  12  13
ATOM     13  C   UNL A   1      37.694  31.903  30.705  1.00  0.00     0.031 A 
ATOM     14  C   UNL A   1      38.103  32.195  32.122  1.00  0.00     0.074 A 
ATOM     15  C   UNL A   1      38.359  30.983  29.982  1.00  0.00     0.049 A 
ATOM     16  N   UNL A   1      39.081  31.676  32.820  1.00  0.00    -0.248 NA
ATOM     17  C   UNL A   1      37.321  33.207  32.848  1.00  0.00     0.031 C 
ATOM     18  C   UNL A   1      38.050  30.620  28.596  1.00  0.00     0.029 A 
ATOM     19  N   UNL A   1      39.408  30.167  30.313  1.00  0.00    -0.354 N 
ATOM     20  C   UNL A   1      39.054  32.318  34.052  1.00  0.00     0.074 A 
ATOM     21  C   UNL A   1      37.970  33.277  34.003  1.00  0.00     0.031 C 
ATOM     22  C   UNL A   1      38.851  29.613  28.217  1.00  0.00     0.029 A 
ATOM     23  C   UNL A   1      39.766  29.303  29.309  1.00  0.00     0.049 A 
ATOM     24  H   UNL A   1      39.861  30.198  31.188  1.00  0.00     0.167 HD
ATOM     25  C   UNL A   1      39.859  32.122  35.124  1.00  0.00     0.037 A 
ATOM     26  C   UNL A   1      40.730  28.367  29.270  1.00  0.00     0.037 A 
ATOM     27  C   UNL A   1      40.913  31.141  35.177  1.00  0.00     0.049 A 
ATOM     28  C   UNL A   1      41.600  28.165  30.474  1.00  0.00     0.074 A 
ATOM     29  C   UNL A   1      41.759  30.838  36.230  1.00  0.00     0.029 A 
ATOM     30  N   UNL A   1      41.261  30.299  34.130  1.00  0.00    -0.354 N 
ATOM     31  N   UNL A   1      41.551  28.769  31.636  1.00  0.00    -0.248 NA
ATOM     32  C   UNL A   1      42.660  27.157  30.358  1.00  0.00     0.031 C 
ATOM     33  C   UNL A   1      42.642  29.838  35.809  1.00  0.00     0.029 A 
ATOM     34  C   UNL A   1      42.320  29.488  34.507  1.00  0.00     0.049 A 
ATOM     35  H   UNL A   1      40.822  30.282  33.249  1.00  0.00     0.167 HD
ATOM     36  C   UNL A   1      42.561  28.202  32.399  1.00  0.00     0.074 A 
ATOM     37  C   UNL A   1      43.195  27.195  31.571  1.00  0.00     0.031 C 
ATOM     38  C   UNL A   1      42.932  28.489  33.671  1.00  0.00     0.037 A 
BRANCH  25  39
ATOM     39  C   UNL A   1      39.649  33.003  36.321  1.00  0.00     0.057 A 
ATOM     40  C   UNL A   1      40.348  34.204  36.494  1.00  0.00     0.134 A 
ATOM     41  C   UNL A   1      38.703  32.660  37.296  1.00  0.00     0.134 A 
ATOM     42  F   UNL A   1      41.277  34.584  35.603  1.00  0.00    -0.206 F 
ATOM     43  C   UNL A   1      40.129  35.022  37.604  1.00  0.00     0.040 A 
ATOM     44  C   UNL A   1      38.460  33.481  38.399  1.00  0.00     0.040 A 
ATOM     45  F   UNL A   1      37.994  31.526  37.189  1.00  0.00    -0.206 F 
ATOM     46  C   UNL A   1      39.178  34.664  38.557  1.00  0.00     0.006 A 
ENDBRANCH  25  39
BRANCH  26  47
ATOM     47  C   UNL A   1      40.902  27.543  28.049  1.00  0.00     0.057 A 
ATOM     48  C   UNL A   1      41.723  27.973  27.001  1.00  0.00     0.134 A 
ATOM     49  C   UNL A   1      40.278  26.298  27.915  1.00  0.00     0.134 A 
ATOM     50  F   UNL A   1      42.337  29.164  27.068  1.00  0.00    -0.206 F 
ATOM     51  C   UNL A   1      41.908  27.198  25.856  1.00  0.00     0.040 A 
ATOM     52  C   UNL A   1      40.474  25.501  26.787  1.00  0.00     0.040 A 
ATOM     53  F   UNL A   1      39.489  25.827  28.892  1.00  0.00    -0.206 F 
ATOM     54  C   UNL A   1      41.288  25.954  25.751  1.00  0.00     0.006 A 
ENDBRANCH  26  47
BRANCH  38  55
ATOM     55  C   UNL A   1      44.052  27.676  34.247  1.00  0.00     0.057 A 
ATOM     56  C   UNL A   1      45.382  28.112  34.197  1.00  0.00     0.134 A 
ATOM     57  C   UNL A   1      43.791  26.449  34.868  1.00  0.00     0.134 A 
ATOM     58  F   UNL A   1      45.696  29.271  33.600  1.00  0.00    -0.206 F 
ATOM     59  C   UNL A   1      46.419  27.340  34.723  1.00  0.00     0.040 A 
ATOM     60  C   UNL A   1      44.817  25.680  35.419  1.00  0.00     0.040 A 
ATOM     61  F   UNL A   1      42.537  25.980  34.952  1.00  0.00    -0.206 F 
ATOM     62  C   UNL A   1      46.136  26.122  35.340  1.00  0.00     0.006 A 
ENDBRANCH  38  55
ENDBRANCH  12  13
ENDBRANCH   5   7
ENDBRANCH   2   3
ENDBRANCH   1   2
BRANCH   1  63
ATOM     63  C   UNL A   1      31.403  30.830  26.000  1.00  0.00     0.023 C 
BRANCH  63  64
ATOM     64  C   UNL A   1      32.389  29.942  26.764  1.00  0.00     0.116 C 
BRANCH  64  65
ATOM     65  N   UNL A   1      31.767  28.682  27.099  1.00  0.00    -0.356 N 
ATOM     66  C   UNL A   1      31.402  27.616  26.342  1.00  0.00     0.223 C 
ATOM     67  H   UNL A   1      31.572  28.577  28.058  1.00  0.00     0.163 HD
ATOM     68  O   UNL A   1      30.666  26.811  26.919  1.00  0.00    -0.275 OA
BRANCH  66  69
ATOM     69  C   UNL A   1      31.966  27.338  24.925  1.00  0.00     0.091 C 
ATOM     70  C   UNL A   1      33.487  27.549  24.793  1.00  0.00     0.014 C 
ATOM     71  C   UNL A   1      31.158  28.188  23.896  1.00  0.00     0.091 C 
ATOM     72  C   UNL A   1      34.027  27.792  23.393  1.00  0.00     0.001 C 
ATOM     73  C   UNL A   1      31.849  28.593  22.578  1.00  0.00     0.014 C 
ATOM     74  C   UNL A   1      33.309  28.953  22.748  1.00  0.00     0.001 C 
BRANCH  71  75
ATOM     75  C   UNL A   1      29.764  27.642  23.550  1.00  0.00     0.230 C 
ATOM     76  O   UNL A   1      29.489  26.462  23.808  1.00  0.00    -0.274 OA
ATOM     77  N   UNL A   1      28.736  28.415  23.125  1.00  0.00    -0.294 N 
ATOM     78  H   UNL A   1      27.866  27.955  23.138  1.00  0.00     0.173 HD
BRANCH  77  79
ATOM     79  C   UNL A   1      28.660  29.719  22.677  1.00  0.00     0.229 A 
ATOM     80  N   UNL A   1      28.701  30.647  23.642  1.00  0.00    -0.221 NA
ATOM     81  N   UNL A   1      28.528  30.003  21.379  1.00  0.00    -0.221 NA
ATOM     82  C   UNL A   1      28.644  31.935  23.250  1.00  0.00     0.117 A 
ATOM     83  C   UNL A   1      28.402  31.299  21.039  1.00  0.00     0.117 A 
ATOM     84  C   UNL A   1      28.474  32.324  21.945  1.00  0.00     0.040 A 
ENDBRANCH  77  79
ENDBRANCH  71  75
ENDBRANCH  66  69
ENDBRANCH  64  65
ENDBRANCH  63  64
ENDBRANCH   1  63
TORSDOF 13
ENDMDL
MODEL 2
REMARK VINA RESULT:     -11.9      6.383     11.037
REMARK SMILES O=C(NCCCCNC(=O)[C@@H]1CCCC[C@H]1C(=O)Nc1ncccn1)c1ccc(-c2c3nc(c(-c4c(F)cccc4F)c4ccc([nH]4)c(-c4c(F)cccc4F)c4nc(c(-c5c(F)cccc5F)c5ccc2[nH]5)C=C4)C=C3)cc1
REMARK SMILES IDX 5 1 4 2 3 3 1 4 2 5 26 7 27 8 79 9 28 10 78 11 29 12 30 13
REMARK SMILES IDX 31 14 72 15 32 16 77 17 71 18 73 19 33 20 76 21 70 22 69 23
REMARK SMILES IDX 34 25 60 26 43 27 59 28 44 29 47 30 58 31 74 32 45 33 46 34
REMARK SMILES IDX 57 36 75 37 48 38 35 39 36 40 41 41 37 42 38 43 40 44 42 45
REMARK SMILES IDX 39 46 61 47 62 48 67 49 63 50 64 51 66 52 68 53 65 54 49 55
REMARK SMILES IDX 50 56 55 57 51 58 52 59 54 60 56 61 53 62 6 63 7 64 8 65
REMARK SMILES IDX 9 66 10 68 11 69 12 70 16 71 13 72 15 73 14 74 17 75 18 76
REMARK SMILES IDX 19 77 20 79 21 80 25 81 22 82 24 83 23 84
REMARK H PARENT 3 6 73 24 47 35 8 67 19 78
REMARK Flexibility Score: inf
ROOT
ATOM      1  C   UNL A   1      38.237  20.047  24.802  1.00  0.00     0.023 C 
ENDROOT
BRANCH   1   2
ATOM      2  C   UNL A   1      39.409  20.219  25.756  1.00  0.00     0.116 C 
BRANCH   2   3
ATOM      3  N   UNL A   1      40.291  19.062  25.806  1.00  0.00    -0.352 N 
ATOM      4  O   UNL A   1      42.286  18.012  26.019  1.00  0.00    -0.269 OA
ATOM      5  C   UNL A   1      41.636  19.040  26.098  1.00  0.00     0.251 C 
ATOM      6  H   UNL A   1      39.878  18.192  25.605  1.00  0.00     0.163 HD
BRANCH   5   7
ATOM      7  C   UNL A   1      42.279  20.315  26.466  1.00  0.00     0.039 A 
ATOM      8  C   UNL A   1      42.277  20.733  27.798  1.00  0.00     0.014 A 
ATOM      9  C   UNL A   1      42.787  21.134  25.455  1.00  0.00     0.014 A 
ATOM     10  C   UNL A   1      42.641  22.037  28.100  1.00  0.00     0.010 A 
ATOM     11  C   UNL A   1      43.231  22.417  25.777  1.00  0.00     0.010 A 
ATOM     12  C   UNL A   1      43.118  22.892  27.093  1.00  0.00    -0.014 A 
BRANCH  12  13
ATOM     13  C   UNL A   1      43.508  24.276  27.451  1.00  0.00     0.031 A 
ATOM     14  C   UNL A   1      44.931  24.741  27.313  1.00  0.00     0.074 A 
ATOM     15  C   UNL A   1      42.549  25.129  27.858  1.00  0.00     0.049 A 
ATOM     16  N   UNL A   1      45.437  25.924  27.556  1.00  0.00    -0.248 NA
ATOM     17  C   UNL A   1      45.917  23.751  26.855  1.00  0.00     0.031 C 
ATOM     18  C   UNL A   1      41.135  24.785  28.028  1.00  0.00     0.029 A 
ATOM     19  N   UNL A   1      42.609  26.460  28.174  1.00  0.00    -0.354 N 
ATOM     20  C   UNL A   1      46.800  25.813  27.313  1.00  0.00     0.074 A 
ATOM     21  C   UNL A   1      47.047  24.444  26.915  1.00  0.00     0.031 C 
ATOM     22  C   UNL A   1      40.452  25.890  28.359  1.00  0.00     0.029 A 
ATOM     23  C   UNL A   1      41.386  27.002  28.482  1.00  0.00     0.049 A 
ATOM     24  H   UNL A   1      43.447  26.977  28.179  1.00  0.00     0.167 HD
ATOM     25  C   UNL A   1      47.755  26.770  27.409  1.00  0.00     0.037 A 
ATOM     26  C   UNL A   1      41.055  28.257  28.832  1.00  0.00     0.037 A 
ATOM     27  C   UNL A   1      47.496  28.140  27.770  1.00  0.00     0.049 A 
ATOM     28  C   UNL A   1      42.131  29.297  28.922  1.00  0.00     0.074 A 
ATOM     29  C   UNL A   1      48.388  29.194  27.859  1.00  0.00     0.029 A 
ATOM     30  N   UNL A   1      46.246  28.647  28.099  1.00  0.00    -0.354 N 
ATOM     31  N   UNL A   1      43.412  29.181  28.673  1.00  0.00    -0.248 NA
ATOM     32  C   UNL A   1      41.715  30.639  29.347  1.00  0.00     0.031 C 
ATOM     33  C   UNL A   1      47.686  30.330  28.275  1.00  0.00     0.029 A 
ATOM     34  C   UNL A   1      46.348  29.994  28.406  1.00  0.00     0.049 A 
ATOM     35  H   UNL A   1      45.411  28.126  28.113  1.00  0.00     0.167 HD
ATOM     36  C   UNL A   1      43.955  30.439  28.891  1.00  0.00     0.074 A 
ATOM     37  C   UNL A   1      42.859  31.305  29.278  1.00  0.00     0.031 C 
ATOM     38  C   UNL A   1      45.245  30.840  28.783  1.00  0.00     0.037 A 
BRANCH  25  39
ATOM     39  C   UNL A   1      49.175  26.363  27.144  1.00  0.00     0.057 A 
ATOM     40  C   UNL A   1      50.033  25.944  28.169  1.00  0.00     0.134 A 
ATOM     41  C   UNL A   1      49.678  26.354  25.836  1.00  0.00     0.134 A 
ATOM     42  F   UNL A   1      49.617  25.941  29.444  1.00  0.00    -0.206 F 
ATOM     43  C   UNL A   1      51.347  25.551  27.905  1.00  0.00     0.040 A 
ATOM     44  C   UNL A   1      50.983  25.943  25.558  1.00  0.00     0.040 A 
ATOM     45  F   UNL A   1      48.907  26.738  24.807  1.00  0.00    -0.206 F 
ATOM     46  C   UNL A   1      51.823  25.544  26.595  1.00  0.00     0.006 A 
ENDBRANCH  25  39
BRANCH  26  47
ATOM     47  C   UNL A   1      39.636  28.592  29.103  1.00  0.00     0.057 A 
ATOM     48  C   UNL A   1      39.081  28.401  30.373  1.00  0.00     0.134 A 
ATOM     49  C   UNL A   1      38.813  29.137  28.111  1.00  0.00     0.134 A 
ATOM     50  F   UNL A   1      39.819  27.870  31.359  1.00  0.00    -0.206 F 
ATOM     51  C   UNL A   1      37.753  28.731  30.645  1.00  0.00     0.040 A 
ATOM     52  C   UNL A   1      37.491  29.495  28.375  1.00  0.00     0.040 A 
ATOM     53  F   UNL A   1      39.291  29.355  26.877  1.00  0.00    -0.206 F 
ATOM     54  C   UNL A   1      36.957  29.286  29.645  1.00  0.00     0.006 A 
ENDBRANCH  26  47
BRANCH  38  55
ATOM     55  C   UNL A   1      45.526  32.287  29.054  1.00  0.00     0.057 A 
ATOM     56  C   UNL A   1      45.880  32.744  30.330  1.00  0.00     0.134 A 
ATOM     57  C   UNL A   1      45.452  33.230  28.021  1.00  0.00     0.134 A 
ATOM     58  F   UNL A   1      45.951  31.891  31.363  1.00  0.00    -0.206 F 
ATOM     59  C   UNL A   1      46.125  34.096  30.575  1.00  0.00     0.040 A 
ATOM     60  C   UNL A   1      45.718  34.581  28.250  1.00  0.00     0.040 A 
ATOM     61  F   UNL A   1      45.123  32.854  26.777  1.00  0.00    -0.206 F 
ATOM     62  C   UNL A   1      46.048  35.018  29.531  1.00  0.00     0.006 A 
ENDBRANCH  38  55
ENDBRANCH  12  13
ENDBRANCH   5   7
ENDBRANCH   2   3
ENDBRANCH   1   2
BRANCH   1  63
ATOM     63  C   UNL A   1      37.015  20.907  25.136  1.00  0.00     0.023 C 
BRANCH  63  64
ATOM     64  C   UNL A   1      37.239  22.407  24.926  1.00  0.00     0.116 C 
BRANCH  64  65
ATOM     65  N   UNL A   1      36.464  22.873  23.800  1.00  0.00    -0.356 N 
ATOM     66  C   UNL A   1      35.126  22.945  23.582  1.00  0.00     0.223 C 
ATOM     67  H   UNL A   1      37.010  23.200  23.050  1.00  0.00     0.163 HD
ATOM     68  O   UNL A   1      34.813  23.162  22.408  1.00  0.00    -0.275 OA
BRANCH  66  69
ATOM     69  C   UNL A   1      34.070  22.910  24.716  1.00  0.00     0.091 C 
ATOM     70  C   UNL A   1      34.522  23.580  26.028  1.00  0.00     0.014 C 
ATOM     71  C   UNL A   1      33.622  21.431  24.929  1.00  0.00     0.091 C 
ATOM     72  C   UNL A   1      33.795  23.164  27.297  1.00  0.00     0.001 C 
ATOM     73  C   UNL A   1      33.099  21.017  26.319  1.00  0.00     0.014 C 
ATOM     74  C   UNL A   1      33.848  21.664  27.463  1.00  0.00     0.001 C 
BRANCH  71  75
ATOM     75  C   UNL A   1      32.646  20.886  23.875  1.00  0.00     0.230 C 
ATOM     76  O   UNL A   1      32.028  21.676  23.148  1.00  0.00    -0.274 OA
ATOM     77  N   UNL A   1      32.532  19.573  23.561  1.00  0.00    -0.294 N 
ATOM     78  H   UNL A   1      32.016  19.408  22.739  1.00  0.00     0.173 HD
BRANCH  77  79
ATOM     79  C   UNL A   1      32.991  18.418  24.161  1.00  0.00     0.229 A 
ATOM     80  N   UNL A   1      32.116  17.828  24.987  1.00  0.00    -0.221 NA
ATOM     81  N   UNL A   1      34.227  17.961  23.941  1.00  0.00    -0.221 NA
ATOM     82  C   UNL A   1      32.517  16.689  25.585  1.00  0.00     0.117 A 
ATOM     83  C   UNL A   1      34.609  16.861  24.614  1.00  0.00     0.117 A 
ATOM     84  C   UNL A   1      33.776  16.161  25.447  1.00  0.00     0.040 A 
ENDBRANCH  77  79
ENDBRANCH  71  75
ENDBRANCH  66  69
ENDBRANCH  64  65
ENDBRANCH  63  64
ENDBRANCH   1  63
TORSDOF 13
ENDMDL
MODEL 3
REMARK VINA RESULT:     -11.9      5.872     10.297
REMARK SMILES O=C(NCCCCNC(=O)[C@@H]1CCCC[C@H]1C(=O)Nc1ncccn1)c1ccc(-c2c3nc(c(-c4c(F)cccc4F)c4ccc([nH]4)c(-c4c(F)cccc4F)c4nc(c(-c5c(F)cccc5F)c5ccc2[nH]5)C=C4)C=C3)cc1
REMARK SMILES IDX 5 1 4 2 3 3 1 4 2 5 26 7 27 8 79 9 28 10 78 11 29 12 30 13
REMARK SMILES IDX 31 14 72 15 32 16 77 17 71 18 73 19 33 20 76 21 70 22 69 23
REMARK SMILES IDX 34 25 60 26 43 27 59 28 44 29 47 30 58 31 74 32 45 33 46 34
REMARK SMILES IDX 57 36 75 37 48 38 35 39 36 40 41 41 37 42 38 43 40 44 42 45
REMARK SMILES IDX 39 46 61 47 62 48 67 49 63 50 64 51 66 52 68 53 65 54 49 55
REMARK SMILES IDX 50 56 55 57 51 58 52 59 54 60 56 61 53 62 6 63 7 64 8 65
REMARK SMILES IDX 9 66 10 68 11 69 12 70 16 71 13 72 15 73 14 74 17 75 18 76
REMARK SMILES IDX 19 77 20 79 21 80 25 81 22 82 24 83 23 84
REMARK H PARENT 3 6 73 24 47 35 8 67 19 78
REMARK Flexibility Score: inf
ROOT
ATOM      1  C   UNL A   1      38.169  19.294  24.923  1.00  0.00     0.023 C 
ENDROOT
BRANCH   1   2
ATOM      2  C   UNL A   1      39.197  19.754  25.945  1.00  0.00     0.116 C 
BRANCH   2   3
ATOM      3  N   UNL A   1      40.488  19.094  25.806  1.00  0.00    -0.352 N 
ATOM      4  O   UNL A   1      42.750  18.985  25.836  1.00  0.00    -0.269 OA
ATOM      5  C   UNL A   1      41.733  19.613  26.079  1.00  0.00     0.251 C 
ATOM      6  H   UNL A   1      40.468  18.167  25.477  1.00  0.00     0.163 HD
BRANCH   5   7
ATOM      7  C   UNL A   1      41.801  20.977  26.634  1.00  0.00     0.039 A 
ATOM      8  C   UNL A   1      41.966  22.066  25.777  1.00  0.00     0.014 A 
ATOM      9  C   UNL A   1      41.805  21.145  28.021  1.00  0.00     0.014 A 
ATOM     10  C   UNL A   1      42.293  23.305  26.309  1.00  0.00     0.010 A 
ATOM     11  C   UNL A   1      42.052  22.411  28.553  1.00  0.00     0.010 A 
ATOM     12  C   UNL A   1      42.343  23.489  27.701  1.00  0.00    -0.014 A 
BRANCH  12  13
ATOM     13  C   UNL A   1      42.684  24.827  28.238  1.00  0.00     0.031 A 
ATOM     14  C   UNL A   1      44.113  25.216  28.499  1.00  0.00     0.074 A 
ATOM     15  C   UNL A   1      41.689  25.710  28.443  1.00  0.00     0.049 A 
ATOM     16  N   UNL A   1      44.587  26.355  28.940  1.00  0.00    -0.248 NA
ATOM     17  C   UNL A   1      45.142  24.198  28.242  1.00  0.00     0.031 C 
ATOM     18  C   UNL A   1      40.266  25.438  28.224  1.00  0.00     0.029 A 
ATOM     19  N   UNL A   1      41.720  27.016  28.852  1.00  0.00    -0.354 N 
ATOM     20  C   UNL A   1      45.961  26.179  29.045  1.00  0.00     0.074 A 
ATOM     21  C   UNL A   1      46.246  24.821  28.634  1.00  0.00     0.031 C 
ATOM     22  C   UNL A   1      39.567  26.561  28.443  1.00  0.00     0.029 A 
ATOM     23  C   UNL A   1      40.483  27.609  28.873  1.00  0.00     0.049 A 
ATOM     24  H   UNL A   1      42.549  27.484  29.104  1.00  0.00     0.167 HD
ATOM     25  C   UNL A   1      46.897  27.073  29.445  1.00  0.00     0.037 A 
ATOM     26  C   UNL A   1      40.124  28.861  29.210  1.00  0.00     0.037 A 
ATOM     27  C   UNL A   1      46.610  28.434  29.819  1.00  0.00     0.049 A 
ATOM     28  C   UNL A   1      41.183  29.832  29.640  1.00  0.00     0.074 A 
ATOM     29  C   UNL A   1      47.493  29.430  30.201  1.00  0.00     0.029 A 
ATOM     30  N   UNL A   1      45.341  28.993  29.851  1.00  0.00    -0.354 N 
ATOM     31  N   UNL A   1      42.479  29.656  29.719  1.00  0.00    -0.248 NA
ATOM     32  C   UNL A   1      40.727  31.170  30.033  1.00  0.00     0.031 C 
ATOM     33  C   UNL A   1      46.755  30.580  30.499  1.00  0.00     0.029 A 
ATOM     34  C   UNL A   1      45.415  30.314  30.263  1.00  0.00     0.049 A 
ATOM     35  H   UNL A   1      44.509  28.521  29.618  1.00  0.00     0.167 HD
ATOM     36  C   UNL A   1      42.998  30.867  30.151  1.00  0.00     0.074 A 
ATOM     37  C   UNL A   1      41.877  31.773  30.303  1.00  0.00     0.031 C 
ATOM     38  C   UNL A   1      44.288  31.200  30.402  1.00  0.00     0.037 A 
BRANCH  25  39
ATOM     39  C   UNL A   1      48.320  26.601  29.524  1.00  0.00     0.057 A 
ATOM     40  C   UNL A   1      49.224  26.779  28.468  1.00  0.00     0.134 A 
ATOM     41  C   UNL A   1      48.802  25.993  30.690  1.00  0.00     0.134 A 
ATOM     42  F   UNL A   1      48.822  27.344  27.319  1.00  0.00    -0.206 F 
ATOM     43  C   UNL A   1      50.549  26.350  28.563  1.00  0.00     0.040 A 
ATOM     44  C   UNL A   1      50.131  25.580  30.804  1.00  0.00     0.040 A 
ATOM     45  F   UNL A   1      47.991  25.797  31.741  1.00  0.00    -0.206 F 
ATOM     46  C   UNL A   1      51.007  25.754  29.736  1.00  0.00     0.006 A 
ENDBRANCH  25  39
BRANCH  26  47
ATOM     47  C   UNL A   1      38.699  29.261  29.132  1.00  0.00     0.057 A 
ATOM     48  C   UNL A   1      38.135  29.684  27.923  1.00  0.00     0.134 A 
ATOM     49  C   UNL A   1      37.863  29.203  30.252  1.00  0.00     0.134 A 
ATOM     50  F   UNL A   1      38.891  29.773  26.819  1.00  0.00    -0.206 F 
ATOM     51  C   UNL A   1      36.790  30.045  27.834  1.00  0.00     0.040 A 
ATOM     52  C   UNL A   1      36.510  29.536  30.172  1.00  0.00     0.040 A 
ATOM     53  F   UNL A   1      38.342  28.794  31.436  1.00  0.00    -0.206 F 
ATOM     54  C   UNL A   1      35.973  29.963  28.959  1.00  0.00     0.006 A 
ENDBRANCH  26  47
BRANCH  38  55
ATOM     55  C   UNL A   1      44.550  32.612  30.831  1.00  0.00     0.057 A 
ATOM     56  C   UNL A   1      44.581  32.979  32.183  1.00  0.00     0.134 A 
ATOM     57  C   UNL A   1      44.782  33.612  29.879  1.00  0.00     0.134 A 
ATOM     58  F   UNL A   1      44.349  32.069  33.140  1.00  0.00    -0.206 F 
ATOM     59  C   UNL A   1      44.810  34.299  32.572  1.00  0.00     0.040 A 
ATOM     60  C   UNL A   1      45.036  34.931  30.257  1.00  0.00     0.040 A 
ATOM     61  F   UNL A   1      44.770  33.322  28.570  1.00  0.00    -0.206 F 
ATOM     62  C   UNL A   1      45.043  35.279  31.606  1.00  0.00     0.006 A 
ENDBRANCH  38  55
ENDBRANCH  12  13
ENDBRANCH   5   7
ENDBRANCH   2   3
ENDBRANCH   1   2
BRANCH   1  63
ATOM     63  C   UNL A   1      36.975  20.237  24.756  1.00  0.00     0.023 C 
BRANCH  63  64
ATOM     64  C   UNL A   1      37.350  21.722  24.784  1.00  0.00     0.116 C 
BRANCH  64  65
ATOM     65  N   UNL A   1      36.648  22.432  23.741  1.00  0.00    -0.356 N 
ATOM     66  C   UNL A   1      35.342  22.771  23.588  1.00  0.00     0.223 C 
ATOM     67  H   UNL A   1      37.226  22.726  23.001  1.00  0.00     0.163 HD
ATOM     68  O   UNL A   1      35.046  23.157  22.454  1.00  0.00    -0.275 OA
BRANCH  66  69
ATOM     69  C   UNL A   1      34.327  22.818  24.758  1.00  0.00     0.091 C 
ATOM     70  C   UNL A   1      34.873  23.459  26.048  1.00  0.00     0.014 C 
ATOM     71  C   UNL A   1      33.781  21.376  24.997  1.00  0.00     0.091 C 
ATOM     72  C   UNL A   1      34.162  23.103  27.345  1.00  0.00     0.001 C 
ATOM     73  C   UNL A   1      33.278  21.008  26.407  1.00  0.00     0.014 C 
ATOM     74  C   UNL A   1      34.112  21.604  27.520  1.00  0.00     0.001 C 
BRANCH  71  75
ATOM     75  C   UNL A   1      32.731  20.899  23.981  1.00  0.00     0.230 C 
ATOM     76  O   UNL A   1      32.106  21.733  23.312  1.00  0.00    -0.274 OA
ATOM     77  N   UNL A   1      32.551  19.601  23.638  1.00  0.00    -0.294 N 
ATOM     78  H   UNL A   1      31.987  19.480  22.840  1.00  0.00     0.173 HD
BRANCH  77  79
ATOM     79  C   UNL A   1      32.996  18.412  24.179  1.00  0.00     0.229 A 
ATOM     80  N   UNL A   1      32.233  17.924  25.166  1.00  0.00    -0.221 NA
ATOM     81  N   UNL A   1      34.121  17.831  23.754  1.00  0.00    -0.221 NA
ATOM     82  C   UNL A   1      32.623  16.757  25.716  1.00  0.00     0.117 A 
ATOM     83  C   UNL A   1      34.510  16.705  24.381  1.00  0.00     0.117 A 
ATOM     84  C   UNL A   1      33.778  16.103  25.370  1.00  0.00     0.040 A 
ENDBRANCH  77  79
ENDBRANCH  71  75
ENDBRANCH  66  69
ENDBRANCH  64  65
ENDBRANCH  63  64
ENDBRANCH   1  63
TORSDOF 13
ENDMDL
