MODEL 1
REMARK VINA RESULT:     -11.1      0.000      0.000
REMARK SMILES O=C(CCC[NH2+][C@H]1CCOC2(CCOCC2)C1)NCCCCNC(=O)c1ccc(-c2c3nc(c(-c4c(F)cccc4F)c4ccc([nH]4)c(-c4c(F)cccc4F)c4nc(c(-c5c(F)cccc5F)c5ccc2[nH]5)C=C4)C=C3)cc1
REMARK SMILES IDX 19 1 18 2 1 3 2 4 3 6 4 7 5 8 6 9 7 12 8 13 17 14 9 15 11 16
REMARK SMILES IDX 10 17 12 18 16 19 13 20 15 21 14 22 20 23 21 24 22 25 23 26
REMARK SMILES IDX 24 27 25 29 26 30 27 31 79 32 28 33 78 34 29 35 30 36 31 37
REMARK SMILES IDX 72 38 32 39 77 40 71 41 73 42 33 43 76 44 70 45 69 46 34 48
REMARK SMILES IDX 60 49 43 50 59 51 44 52 47 53 58 54 74 55 45 56 46 57 57 59
REMARK SMILES IDX 75 60 48 61 35 62 36 63 41 64 37 65 38 66 40 67 42 68 39 69
REMARK SMILES IDX 61 70 62 71 67 72 63 73 64 74 66 75 68 76 65 77 49 78 50 79
REMARK SMILES IDX 55 80 51 81 52 82 54 83 56 84 53 85
REMARK H PARENT 18 5 6 10 6 11 23 28 73 47 47 58
REMARK Flexibility Score: inf
ROOT
ATOM      1  C   UNL A   1      37.122  21.922  25.637  1.00  0.00     0.116 C 
ENDROOT
BRANCH   1   2
ATOM      2  N   UNL A   1      35.881  21.881  26.388  1.00  0.00    -0.356 N 
ATOM      3  O   UNL A   1      35.225  24.002  25.794  1.00  0.00    -0.275 OA
ATOM      4  C   UNL A   1      35.004  22.946  26.377  1.00  0.00     0.220 C 
ATOM      5  H   UNL A   1      35.661  21.080  26.915  1.00  0.00     0.163 HD
BRANCH   4   6
ATOM      6  C   UNL A   1      33.701  22.696  27.111  1.00  0.00     0.106 C 
BRANCH   6   7
ATOM      7  C   UNL A   1      32.492  23.073  26.252  1.00  0.00     0.071 C 
BRANCH   7   8
ATOM      8  C   UNL A   1      31.786  21.892  25.576  1.00  0.00     0.261 C 
BRANCH   8   9
ATOM      9  N   UNL A   1      32.503  21.426  24.389  1.00  0.00    -0.344 N 
ATOM     10  H   UNL A   1      33.483  21.690  24.477  1.00  0.00     0.346 HD
ATOM     11  H   UNL A   1      32.062  21.859  23.578  1.00  0.00     0.346 HD
BRANCH   9  12
ATOM     12  C   UNL A   1      32.426  19.970  24.204  1.00  0.00     0.187 C 
ATOM     13  C   UNL A   1      32.283  19.611  22.723  1.00  0.00     0.093 C 
ATOM     14  C   UNL A   1      33.694  19.308  24.757  1.00  0.00     0.100 C 
ATOM     15  C   UNL A   1      32.367  18.109  22.508  1.00  0.00     0.167 C 
ATOM     16  C   UNL A   1      33.694  17.785  24.500  1.00  0.00     0.078 C 
ATOM     17  O   UNL A   1      33.536  17.555  23.089  1.00  0.00    -0.374 OA
ATOM     18  C   UNL A   1      32.609  17.053  25.320  1.00  0.00     0.064 C 
ATOM     19  C   UNL A   1      35.068  17.197  24.872  1.00  0.00     0.064 C 
ATOM     20  C   UNL A   1      32.744  15.541  25.180  1.00  0.00     0.163 C 
ATOM     21  C   UNL A   1      35.060  15.674  24.766  1.00  0.00     0.163 C 
ATOM     22  O   UNL A   1      34.040  15.129  25.602  1.00  0.00    -0.381 OA
ENDBRANCH   9  12
ENDBRANCH   8   9
ENDBRANCH   7   8
ENDBRANCH   6   7
ENDBRANCH   4   6
ENDBRANCH   1   2
BRANCH   1  23
ATOM     23  C   UNL A   1      37.224  20.835  24.567  1.00  0.00     0.023 C 
BRANCH  23  24
ATOM     24  C   UNL A   1      38.171  19.673  24.879  1.00  0.00     0.023 C 
BRANCH  24  25
ATOM     25  C   UNL A   1      39.203  19.928  25.976  1.00  0.00     0.116 C 
BRANCH  25  26
ATOM     26  N   UNL A   1      40.410  19.140  25.830  1.00  0.00    -0.352 N 
ATOM     27  C   UNL A   1      41.720  19.513  26.028  1.00  0.00     0.251 C 
ATOM     28  H   UNL A   1      40.274  18.207  25.550  1.00  0.00     0.163 HD
ATOM     29  O   UNL A   1      42.622  18.734  25.724  1.00  0.00    -0.269 OA
BRANCH  27  30
ATOM     30  C   UNL A   1      42.068  20.850  26.570  1.00  0.00     0.039 A 
ATOM     31  C   UNL A   1      42.414  21.864  25.671  1.00  0.00     0.014 A 
ATOM     32  C   UNL A   1      42.103  21.107  27.945  1.00  0.00     0.014 A 
ATOM     33  C   UNL A   1      42.740  23.143  26.141  1.00  0.00     0.010 A 
ATOM     34  C   UNL A   1      42.381  22.398  28.410  1.00  0.00     0.010 A 
ATOM     35  C   UNL A   1      42.698  23.432  27.514  1.00  0.00    -0.014 A 
BRANCH  35  36
ATOM     36  C   UNL A   1      42.977  24.807  28.015  1.00  0.00     0.031 A 
ATOM     37  C   UNL A   1      44.382  25.240  28.337  1.00  0.00     0.074 A 
ATOM     38  C   UNL A   1      41.960  25.666  28.220  1.00  0.00     0.049 A 
ATOM     39  N   UNL A   1      44.807  26.383  28.817  1.00  0.00    -0.248 NA
ATOM     40  C   UNL A   1      45.449  24.255  28.109  1.00  0.00     0.031 C 
ATOM     41  C   UNL A   1      40.545  25.373  27.985  1.00  0.00     0.029 A 
ATOM     42  N   UNL A   1      41.958  26.962  28.678  1.00  0.00    -0.354 N 
ATOM     43  C   UNL A   1      46.181  26.250  28.963  1.00  0.00     0.074 A 
ATOM     44  C   UNL A   1      46.516  24.901  28.557  1.00  0.00     0.031 C 
ATOM     45  C   UNL A   1      39.817  26.464  28.276  1.00  0.00     0.029 A 
ATOM     46  C   UNL A   1      40.705  27.521  28.750  1.00  0.00     0.049 A 
ATOM     47  H   UNL A   1      42.779  27.444  28.930  1.00  0.00     0.167 HD
ATOM     48  C   UNL A   1      47.087  27.171  29.377  1.00  0.00     0.037 A 
ATOM     49  C   UNL A   1      40.312  28.743  29.156  1.00  0.00     0.037 A 
ATOM     50  C   UNL A   1      46.769  28.525  29.749  1.00  0.00     0.049 A 
ATOM     51  C   UNL A   1      41.337  29.743  29.617  1.00  0.00     0.074 A 
ATOM     52  C   UNL A   1      47.634  29.544  30.113  1.00  0.00     0.029 A 
ATOM     53  N   UNL A   1      45.488  29.051  29.807  1.00  0.00    -0.354 N 
ATOM     54  N   UNL A   1      42.640  29.624  29.680  1.00  0.00    -0.248 NA
ATOM     55  C   UNL A   1      40.832  31.053  30.059  1.00  0.00     0.031 C 
ATOM     56  C   UNL A   1      46.874  30.675  30.428  1.00  0.00     0.029 A 
ATOM     57  C   UNL A   1      45.539  30.373  30.221  1.00  0.00     0.049 A 
ATOM     58  H   UNL A   1      44.665  28.559  29.588  1.00  0.00     0.167 HD
ATOM     59  C   UNL A   1      43.112  30.845  30.145  1.00  0.00     0.074 A 
ATOM     60  C   UNL A   1      41.958  31.698  30.332  1.00  0.00     0.031 C 
ATOM     61  C   UNL A   1      44.388  31.222  30.395  1.00  0.00     0.037 A 
BRANCH  48  62
ATOM     62  C   UNL A   1      48.524  26.744  29.450  1.00  0.00     0.057 A 
ATOM     63  C   UNL A   1      49.056  26.135  30.593  1.00  0.00     0.134 A 
ATOM     64  C   UNL A   1      49.371  26.899  28.345  1.00  0.00     0.134 A 
ATOM     65  F   UNL A   1      48.300  25.966  31.688  1.00  0.00    -0.206 F 
ATOM     66  C   UNL A   1      50.387  25.714  30.642  1.00  0.00     0.040 A 
ATOM     67  C   UNL A   1      50.696  26.459  28.375  1.00  0.00     0.040 A 
ATOM     68  F   UNL A   1      48.921  27.466  27.216  1.00  0.00    -0.206 F 
ATOM     69  C   UNL A   1      51.208  25.870  29.528  1.00  0.00     0.006 A 
ENDBRANCH  48  62
BRANCH  49  70
ATOM     70  C   UNL A   1      38.874  29.109  29.124  1.00  0.00     0.057 A 
ATOM     71  C   UNL A   1      38.077  28.994  30.268  1.00  0.00     0.134 A 
ATOM     72  C   UNL A   1      38.259  29.562  27.950  1.00  0.00     0.134 A 
ATOM     73  F   UNL A   1      38.606  28.543  31.416  1.00  0.00    -0.206 F 
ATOM     74  C   UNL A   1      36.716  29.298  30.245  1.00  0.00     0.040 A 
ATOM     75  C   UNL A   1      36.903  29.893  27.919  1.00  0.00     0.040 A 
ATOM     76  F   UNL A   1      38.969  29.698  26.821  1.00  0.00    -0.206 F 
ATOM     77  C   UNL A   1      36.126  29.754  29.068  1.00  0.00     0.006 A 
ENDBRANCH  49  70
BRANCH  61  78
ATOM     78  C   UNL A   1      44.614  32.631  30.862  1.00  0.00     0.057 A 
ATOM     79  C   UNL A   1      44.772  33.692  29.961  1.00  0.00     0.134 A 
ATOM     80  C   UNL A   1      44.638  32.933  32.229  1.00  0.00     0.134 A 
ATOM     81  F   UNL A   1      44.772  33.467  28.638  1.00  0.00    -0.206 F 
ATOM     82  C   UNL A   1      44.966  35.001  30.404  1.00  0.00     0.040 A 
ATOM     83  C   UNL A   1      44.808  34.243  32.683  1.00  0.00     0.040 A 
ATOM     84  F   UNL A   1      44.486  31.966  33.144  1.00  0.00    -0.206 F 
ATOM     85  C   UNL A   1      44.978  35.281  31.770  1.00  0.00     0.006 A 
ENDBRANCH  61  78
ENDBRANCH  35  36
ENDBRANCH  27  30
ENDBRANCH  25  26
ENDBRANCH  24  25
ENDBRANCH  23  24
ENDBRANCH   1  23
TORSDOF 15
ENDMDL
MODEL 2
REMARK VINA RESULT:     -10.7      2.043      7.423
REMARK SMILES O=C(CCC[NH2+][C@H]1CCOC2(CCOCC2)C1)NCCCCNC(=O)c1ccc(-c2c3nc(c(-c4c(F)cccc4F)c4ccc([nH]4)c(-c4c(F)cccc4F)c4nc(c(-c5c(F)cccc5F)c5ccc2[nH]5)C=C4)C=C3)cc1
REMARK SMILES IDX 19 1 18 2 1 3 2 4 3 6 4 7 5 8 6 9 7 12 8 13 17 14 9 15 11 16
REMARK SMILES IDX 10 17 12 18 16 19 13 20 15 21 14 22 20 23 21 24 22 25 23 26
REMARK SMILES IDX 24 27 25 29 26 30 27 31 79 32 28 33 78 34 29 35 30 36 31 37
REMARK SMILES IDX 72 38 32 39 77 40 71 41 73 42 33 43 76 44 70 45 69 46 34 48
REMARK SMILES IDX 60 49 43 50 59 51 44 52 47 53 58 54 74 55 45 56 46 57 57 59
REMARK SMILES IDX 75 60 48 61 35 62 36 63 41 64 37 65 38 66 40 67 42 68 39 69
REMARK SMILES IDX 61 70 62 71 67 72 63 73 64 74 66 75 68 76 65 77 49 78 50 79
REMARK SMILES IDX 55 80 51 81 52 82 54 83 56 84 53 85
REMARK H PARENT 18 5 6 10 6 11 23 28 73 47 47 58
REMARK Flexibility Score: inf
ROOT
ATOM      1  C   UNL A   1      36.567  21.791  25.818  1.00  0.00     0.116 C 
ENDROOT
BRANCH   1   2
ATOM      2  N   UNL A   1      35.333  22.111  26.512  1.00  0.00    -0.356 N 
ATOM      3  O   UNL A   1      34.568  23.551  24.894  1.00  0.00    -0.275 OA
ATOM      4  C   UNL A   1      34.404  22.967  25.960  1.00  0.00     0.220 C 
ATOM      5  H   UNL A   1      35.157  21.710  27.394  1.00  0.00     0.163 HD
BRANCH   4   6
ATOM      6  C   UNL A   1      33.119  23.099  26.755  1.00  0.00     0.106 C 
BRANCH   6   7
ATOM      7  C   UNL A   1      31.896  23.167  25.837  1.00  0.00     0.071 C 
BRANCH   7   8
ATOM      8  C   UNL A   1      30.544  23.141  26.560  1.00  0.00     0.261 C 
BRANCH   8   9
ATOM      9  N   UNL A   1      29.845  24.423  26.471  1.00  0.00    -0.344 N 
ATOM     10  H   UNL A   1      29.626  24.739  27.415  1.00  0.00     0.346 HD
ATOM     11  H   UNL A   1      29.004  24.273  25.913  1.00  0.00     0.346 HD
BRANCH   9  12
ATOM     12  C   UNL A   1      30.635  25.464  25.800  1.00  0.00     0.187 C 
ATOM     13  C   UNL A   1      29.885  26.031  24.593  1.00  0.00     0.093 C 
ATOM     14  C   UNL A   1      30.932  26.605  26.782  1.00  0.00     0.100 C 
ATOM     15  C   UNL A   1      30.619  27.218  23.992  1.00  0.00     0.167 C 
ATOM     16  C   UNL A   1      31.682  27.765  26.091  1.00  0.00     0.078 C 
ATOM     17  O   UNL A   1      30.907  28.209  24.964  1.00  0.00    -0.374 OA
ATOM     18  C   UNL A   1      33.116  27.367  25.674  1.00  0.00     0.064 C 
ATOM     19  C   UNL A   1      31.768  28.969  27.046  1.00  0.00     0.064 C 
ATOM     20  C   UNL A   1      33.888  28.573  25.153  1.00  0.00     0.163 C 
ATOM     21  C   UNL A   1      32.626  30.081  26.451  1.00  0.00     0.163 C 
ATOM     22  O   UNL A   1      33.932  29.588  26.151  1.00  0.00    -0.381 OA
ENDBRANCH   9  12
ENDBRANCH   8   9
ENDBRANCH   7   8
ENDBRANCH   6   7
ENDBRANCH   4   6
ENDBRANCH   1   2
BRANCH   1  23
ATOM     23  C   UNL A   1      36.473  20.530  24.956  1.00  0.00     0.023 C 
BRANCH  23  24
ATOM     24  C   UNL A   1      37.730  19.659  24.904  1.00  0.00     0.023 C 
BRANCH  24  25
ATOM     25  C   UNL A   1      38.930  20.169  25.699  1.00  0.00     0.116 C 
BRANCH  25  26
ATOM     26  N   UNL A   1      40.047  19.246  25.718  1.00  0.00    -0.352 N 
ATOM     27  C   UNL A   1      41.359  19.476  26.063  1.00  0.00     0.251 C 
ATOM     28  H   UNL A   1      39.837  18.324  25.446  1.00  0.00     0.163 HD
ATOM     29  O   UNL A   1      42.194  18.590  25.888  1.00  0.00    -0.269 OA
BRANCH  27  30
ATOM     30  C   UNL A   1      41.794  20.785  26.612  1.00  0.00     0.039 A 
ATOM     31  C   UNL A   1      42.246  21.764  25.721  1.00  0.00     0.014 A 
ATOM     32  C   UNL A   1      41.807  21.046  27.986  1.00  0.00     0.014 A 
ATOM     33  C   UNL A   1      42.656  23.015  26.197  1.00  0.00     0.010 A 
ATOM     34  C   UNL A   1      42.170  22.313  28.456  1.00  0.00     0.010 A 
ATOM     35  C   UNL A   1      42.595  23.315  27.567  1.00  0.00    -0.014 A 
BRANCH  35  36
ATOM     36  C   UNL A   1      42.965  24.666  28.072  1.00  0.00     0.031 A 
ATOM     37  C   UNL A   1      41.912  25.710  28.327  1.00  0.00     0.074 A 
ATOM     38  C   UNL A   1      44.261  24.976  28.270  1.00  0.00     0.049 A 
ATOM     39  N   UNL A   1      42.055  26.949  28.729  1.00  0.00    -0.248 NA
ATOM     40  C   UNL A   1      40.517  25.321  28.077  1.00  0.00     0.031 C 
ATOM     41  C   UNL A   1      45.393  24.077  28.034  1.00  0.00     0.029 A 
ATOM     42  N   UNL A   1      44.849  26.137  28.713  1.00  0.00    -0.354 N 
ATOM     43  C   UNL A   1      40.776  27.489  28.767  1.00  0.00     0.074 A 
ATOM     44  C   UNL A   1      39.872  26.455  28.308  1.00  0.00     0.031 C 
ATOM     45  C   UNL A   1      46.532  24.710  28.357  1.00  0.00     0.029 A 
ATOM     46  C   UNL A   1      46.219  26.069  28.789  1.00  0.00     0.049 A 
ATOM     47  H   UNL A   1      44.335  26.942  28.952  1.00  0.00     0.167 HD
ATOM     48  C   UNL A   1      40.385  28.725  29.165  1.00  0.00     0.037 A 
ATOM     49  C   UNL A   1      47.124  26.994  29.161  1.00  0.00     0.037 A 
ATOM     50  C   UNL A   1      41.271  29.748  29.657  1.00  0.00     0.049 A 
ATOM     51  C   UNL A   1      46.663  28.359  29.592  1.00  0.00     0.074 A 
ATOM     52  C   UNL A   1      40.949  31.003  30.147  1.00  0.00     0.029 A 
ATOM     53  N   UNL A   1      42.651  29.638  29.719  1.00  0.00    -0.354 N 
ATOM     54  N   UNL A   1      45.444  28.829  29.690  1.00  0.00    -0.248 NA
ATOM     55  C   UNL A   1      47.709  29.324  29.970  1.00  0.00     0.031 C 
ATOM     56  C   UNL A   1      42.137  31.666  30.471  1.00  0.00     0.029 A 
ATOM     57  C   UNL A   1      43.196  30.810  30.220  1.00  0.00     0.049 A 
ATOM     58  H   UNL A   1      43.167  28.846  29.447  1.00  0.00     0.167 HD
ATOM     59  C   UNL A   1      45.573  30.129  30.160  1.00  0.00     0.074 A 
ATOM     60  C   UNL A   1      46.988  30.371  30.346  1.00  0.00     0.031 C 
ATOM     61  C   UNL A   1      44.604  31.041  30.414  1.00  0.00     0.037 A 
BRANCH  48  62
ATOM     62  C   UNL A   1      38.920  29.045  29.089  1.00  0.00     0.057 A 
ATOM     63  C   UNL A   1      38.085  28.952  30.208  1.00  0.00     0.134 A 
ATOM     64  C   UNL A   1      38.350  29.500  27.892  1.00  0.00     0.134 A 
ATOM     65  F   UNL A   1      38.567  28.514  31.381  1.00  0.00    -0.206 F 
ATOM     66  C   UNL A   1      36.729  29.279  30.137  1.00  0.00     0.040 A 
ATOM     67  C   UNL A   1      37.002  29.853  27.815  1.00  0.00     0.040 A 
ATOM     68  F   UNL A   1      39.097  29.620  26.784  1.00  0.00    -0.206 F 
ATOM     69  C   UNL A   1      36.187  29.738  28.939  1.00  0.00     0.006 A 
ENDBRANCH  48  62
BRANCH  49  70
ATOM     70  C   UNL A   1      48.570  26.658  29.168  1.00  0.00     0.057 A 
ATOM     71  C   UNL A   1      49.160  26.048  30.281  1.00  0.00     0.134 A 
ATOM     72  C   UNL A   1      49.396  26.954  28.078  1.00  0.00     0.134 A 
ATOM     73  F   UNL A   1      48.423  25.762  31.364  1.00  0.00    -0.206 F 
ATOM     74  C   UNL A   1      50.525  25.758  30.317  1.00  0.00     0.040 A 
ATOM     75  C   UNL A   1      50.758  26.648  28.092  1.00  0.00     0.040 A 
ATOM     76  F   UNL A   1      48.890  27.534  26.980  1.00  0.00    -0.206 F 
ATOM     77  C   UNL A   1      51.328  26.055  29.218  1.00  0.00     0.006 A 
ENDBRANCH  49  70
BRANCH  61  78
ATOM     78  C   UNL A   1      45.033  32.373  30.957  1.00  0.00     0.057 A 
ATOM     79  C   UNL A   1      45.298  33.462  30.117  1.00  0.00     0.134 A 
ATOM     80  C   UNL A   1      45.149  32.577  32.337  1.00  0.00     0.134 A 
ATOM     81  F   UNL A   1      45.220  33.329  28.784  1.00  0.00    -0.206 F 
ATOM     82  C   UNL A   1      45.682  34.702  30.631  1.00  0.00     0.040 A 
ATOM     83  C   UNL A   1      45.509  33.819  32.864  1.00  0.00     0.040 A 
ATOM     84  F   UNL A   1      44.903  31.578  33.197  1.00  0.00    -0.206 F 
ATOM     85  C   UNL A   1      45.783  34.885  32.009  1.00  0.00     0.006 A 
ENDBRANCH  61  78
ENDBRANCH  35  36
ENDBRANCH  27  30
ENDBRANCH  25  26
ENDBRANCH  24  25
ENDBRANCH  23  24
ENDBRANCH   1  23
TORSDOF 15
ENDMDL
MODEL 3
REMARK VINA RESULT:     -10.6      1.584      6.296
REMARK SMILES O=C(CCC[NH2+][C@H]1CCOC2(CCOCC2)C1)NCCCCNC(=O)c1ccc(-c2c3nc(c(-c4c(F)cccc4F)c4ccc([nH]4)c(-c4c(F)cccc4F)c4nc(c(-c5c(F)cccc5F)c5ccc2[nH]5)C=C4)C=C3)cc1
REMARK SMILES IDX 19 1 18 2 1 3 2 4 3 6 4 7 5 8 6 9 7 12 8 13 17 14 9 15 11 16
REMARK SMILES IDX 10 17 12 18 16 19 13 20 15 21 14 22 20 23 21 24 22 25 23 26
REMARK SMILES IDX 24 27 25 29 26 30 27 31 79 32 28 33 78 34 29 35 30 36 31 37
REMARK SMILES IDX 72 38 32 39 77 40 71 41 73 42 33 43 76 44 70 45 69 46 34 48
REMARK SMILES IDX 60 49 43 50 59 51 44 52 47 53 58 54 74 55 45 56 46 57 57 59
REMARK SMILES IDX 75 60 48 61 35 62 36 63 41 64 37 65 38 66 40 67 42 68 39 69
REMARK SMILES IDX 61 70 62 71 67 72 63 73 64 74 66 75 68 76 65 77 49 78 50 79
REMARK SMILES IDX 55 80 51 81 52 82 54 83 56 84 53 85
REMARK H PARENT 18 5 6 10 6 11 23 28 73 47 47 58
REMARK Flexibility Score: inf
ROOT
ATOM      1  C   UNL A   1      36.875  21.854  24.641  1.00  0.00     0.116 C 
ENDROOT
BRANCH   1   2
ATOM      2  N   UNL A   1      35.537  22.261  24.256  1.00  0.00    -0.356 N 
ATOM      3  O   UNL A   1      35.710  24.370  25.153  1.00  0.00    -0.275 OA
ATOM      4  C   UNL A   1      35.069  23.530  24.530  1.00  0.00     0.220 C 
ATOM      5  H   UNL A   1      34.952  21.621  23.791  1.00  0.00     0.163 HD
BRANCH   4   6
ATOM      6  C   UNL A   1      33.700  23.834  23.954  1.00  0.00     0.106 C 
BRANCH   6   7
ATOM      7  C   UNL A   1      33.416  22.993  22.707  1.00  0.00     0.071 C 
BRANCH   7   8
ATOM      8  C   UNL A   1      32.249  22.008  22.845  1.00  0.00     0.261 C 
BRANCH   8   9
ATOM      9  N   UNL A   1      32.259  21.316  24.134  1.00  0.00    -0.344 N 
ATOM     10  H   UNL A   1      31.426  21.587  24.654  1.00  0.00     0.346 HD
ATOM     11  H   UNL A   1      33.116  21.585  24.616  1.00  0.00     0.346 HD
BRANCH   9  12
ATOM     12  C   UNL A   1      32.273  19.853  24.002  1.00  0.00     0.187 C 
ATOM     13  C   UNL A   1      32.184  19.432  22.534  1.00  0.00     0.093 C 
ATOM     14  C   UNL A   1      33.567  19.289  24.605  1.00  0.00     0.100 C 
ATOM     15  C   UNL A   1      32.362  17.930  22.378  1.00  0.00     0.167 C 
ATOM     16  C   UNL A   1      33.663  17.760  24.406  1.00  0.00     0.078 C 
ATOM     17  O   UNL A   1      33.550  17.470  23.002  1.00  0.00    -0.374 OA
ATOM     18  C   UNL A   1      32.606  16.995  25.232  1.00  0.00     0.064 C 
ATOM     19  C   UNL A   1      35.061  17.270  24.826  1.00  0.00     0.064 C 
ATOM     20  C   UNL A   1      32.834  15.490  25.152  1.00  0.00     0.163 C 
ATOM     21  C   UNL A   1      35.146  15.748  24.778  1.00  0.00     0.163 C 
ATOM     22  O   UNL A   1      34.143  15.172  25.615  1.00  0.00    -0.381 OA
ENDBRANCH   9  12
ENDBRANCH   8   9
ENDBRANCH   7   8
ENDBRANCH   6   7
ENDBRANCH   4   6
ENDBRANCH   1   2
BRANCH   1  23
ATOM     23  C   UNL A   1      36.986  20.367  24.984  1.00  0.00     0.023 C 
BRANCH  23  24
ATOM     24  C   UNL A   1      38.373  19.742  24.818  1.00  0.00     0.023 C 
BRANCH  24  25
ATOM     25  C   UNL A   1      39.327  19.907  26.000  1.00  0.00     0.116 C 
BRANCH  25  26
ATOM     26  N   UNL A   1      40.469  19.018  25.950  1.00  0.00    -0.352 N 
ATOM     27  C   UNL A   1      41.807  19.315  26.078  1.00  0.00     0.251 C 
ATOM     28  H   UNL A   1      40.259  18.068  25.804  1.00  0.00     0.163 HD
ATOM     29  O   UNL A   1      42.643  18.436  25.875  1.00  0.00    -0.269 OA
BRANCH  27  30
ATOM     30  C   UNL A   1      42.263  20.684  26.427  1.00  0.00     0.039 A 
ATOM     31  C   UNL A   1      42.566  21.570  25.387  1.00  0.00     0.014 A 
ATOM     32  C   UNL A   1      42.441  21.092  27.752  1.00  0.00     0.014 A 
ATOM     33  C   UNL A   1      42.990  22.873  25.672  1.00  0.00     0.010 A 
ATOM     34  C   UNL A   1      42.818  22.410  28.036  1.00  0.00     0.010 A 
ATOM     35  C   UNL A   1      43.093  23.318  27.000  1.00  0.00    -0.014 A 
BRANCH  35  36
ATOM     36  C   UNL A   1      43.479  24.723  27.308  1.00  0.00     0.031 A 
ATOM     37  C   UNL A   1      42.476  25.693  27.873  1.00  0.00     0.074 A 
ATOM     38  C   UNL A   1      44.729  25.149  27.044  1.00  0.00     0.049 A 
ATOM     39  N   UNL A   1      42.624  26.961  28.167  1.00  0.00    -0.248 NA
ATOM     40  C   UNL A   1      41.122  25.177  28.124  1.00  0.00     0.031 C 
ATOM     41  C   UNL A   1      45.797  24.331  26.465  1.00  0.00     0.029 A 
ATOM     42  N   UNL A   1      45.316  26.378  27.227  1.00  0.00    -0.354 N 
ATOM     43  C   UNL A   1      41.386  27.397  28.620  1.00  0.00     0.074 A 
ATOM     44  C   UNL A   1      40.486  26.267  28.527  1.00  0.00     0.031 C 
ATOM     45  C   UNL A   1      46.912  25.074  26.363  1.00  0.00     0.029 A 
ATOM     46  C   UNL A   1      46.632  26.426  26.835  1.00  0.00     0.049 A 
ATOM     47  H   UNL A   1      44.837  27.153  27.602  1.00  0.00     0.167 HD
ATOM     48  C   UNL A   1      41.033  28.619  29.090  1.00  0.00     0.037 A 
ATOM     49  C   UNL A   1      47.515  27.443  26.849  1.00  0.00     0.037 A 
ATOM     50  C   UNL A   1      41.930  29.738  29.220  1.00  0.00     0.049 A 
ATOM     51  C   UNL A   1      47.096  28.790  27.370  1.00  0.00     0.074 A 
ATOM     52  C   UNL A   1      41.671  30.991  29.753  1.00  0.00     0.029 A 
ATOM     53  N   UNL A   1      43.254  29.744  28.813  1.00  0.00    -0.354 N 
ATOM     54  N   UNL A   1      45.941  29.164  27.861  1.00  0.00    -0.248 NA
ATOM     55  C   UNL A   1      48.109  29.857  27.341  1.00  0.00     0.031 C 
ATOM     56  C   UNL A   1      42.829  31.767  29.634  1.00  0.00     0.029 A 
ATOM     57  C   UNL A   1      43.819  30.985  29.064  1.00  0.00     0.049 A 
ATOM     58  H   UNL A   1      43.723  28.982  28.406  1.00  0.00     0.167 HD
ATOM     59  C   UNL A   1      46.093  30.497  28.221  1.00  0.00     0.074 A 
ATOM     60  C   UNL A   1      47.458  30.864  27.908  1.00  0.00     0.031 C 
ATOM     61  C   UNL A   1      45.182  31.341  28.762  1.00  0.00     0.037 A 
BRANCH  48  62
ATOM     62  C   UNL A   1      39.604  28.814  29.506  1.00  0.00     0.057 A 
ATOM     63  C   UNL A   1      39.177  28.569  30.816  1.00  0.00     0.134 A 
ATOM     64  C   UNL A   1      38.656  29.300  28.596  1.00  0.00     0.134 A 
ATOM     65  F   UNL A   1      40.034  28.094  31.733  1.00  0.00    -0.206 F 
ATOM     66  C   UNL A   1      37.852  28.781  31.203  1.00  0.00     0.040 A 
ATOM     67  C   UNL A   1      37.335  29.539  28.978  1.00  0.00     0.040 A 
ATOM     68  F   UNL A   1      39.002  29.563  27.327  1.00  0.00    -0.206 F 
ATOM     69  C   UNL A   1      36.929  29.273  30.284  1.00  0.00     0.006 A 
ENDBRANCH  48  62
BRANCH  49  70
ATOM     70  C   UNL A   1      48.905  27.226  26.375  1.00  0.00     0.057 A 
ATOM     71  C   UNL A   1      49.222  27.313  25.015  1.00  0.00     0.134 A 
ATOM     72  C   UNL A   1      49.940  26.908  27.262  1.00  0.00     0.134 A 
ATOM     73  F   UNL A   1      48.267  27.591  24.116  1.00  0.00    -0.206 F 
ATOM     74  C   UNL A   1      50.516  27.076  24.549  1.00  0.00     0.040 A 
ATOM     75  C   UNL A   1      51.244  26.692  26.813  1.00  0.00     0.040 A 
ATOM     76  F   UNL A   1      49.701  26.814  28.578  1.00  0.00    -0.206 F 
ATOM     77  C   UNL A   1      51.533  26.768  25.451  1.00  0.00     0.006 A 
ENDBRANCH  49  70
BRANCH  61  78
ATOM     78  C   UNL A   1      45.637  32.734  29.086  1.00  0.00     0.057 A 
ATOM     79  C   UNL A   1      45.491  33.789  28.177  1.00  0.00     0.134 A 
ATOM     80  C   UNL A   1      46.196  33.029  30.336  1.00  0.00     0.134 A 
ATOM     81  F   UNL A   1      44.977  33.571  26.957  1.00  0.00    -0.206 F 
ATOM     82  C   UNL A   1      45.903  35.086  28.492  1.00  0.00     0.040 A 
ATOM     83  C   UNL A   1      46.590  34.326  30.671  1.00  0.00     0.040 A 
ATOM     84  F   UNL A   1      46.357  32.066  31.255  1.00  0.00    -0.206 F 
ATOM     85  C   UNL A   1      46.449  35.358  29.745  1.00  0.00     0.006 A 
ENDBRANCH  61  78
ENDBRANCH  35  36
ENDBRANCH  27  30
ENDBRANCH  25  26
ENDBRANCH  24  25
ENDBRANCH  23  24
ENDBRANCH   1  23
TORSDOF 15
ENDMDL
