MODEL 1
REMARK VINA RESULT:     -10.9      0.000      0.000
REMARK SMILES CC[C@@H](C)S(=O)(=O)c1cc(C(=O)NCCCCNC(=O)c2ccc(-c3c4nc(c(-c5c(F)cccc5F)c5ccc([nH]5)c(-c5c(F)cccc5F)c5nc(c(-c6c(F)cccc6F)c6ccc3[nH]6)C=C5)C=C4)cc2)c(C)cc1C
REMARK SMILES IDX 15 1 14 2 13 3 11 4 12 5 10 7 8 8 9 9 78 10 77 11 79 12
REMARK SMILES IDX 75 13 76 14 5 15 6 16 7 17 3 18 4 19 2 20 1 21 16 22 17 23
REMARK SMILES IDX 18 24 19 25 20 27 21 28 22 29 74 30 23 31 73 32 24 33 25 34
REMARK SMILES IDX 26 35 67 36 27 37 72 38 66 39 68 40 28 41 71 42 65 43 64 44
REMARK SMILES IDX 29 46 55 47 38 48 54 49 39 50 42 51 53 52 69 53 40 54 41 55
REMARK SMILES IDX 52 57 70 58 43 59 30 60 31 61 36 62 32 63 33 64 35 65 37 66
REMARK SMILES IDX 34 67 56 68 57 69 62 70 58 71 59 72 61 73 63 74 60 75 44 76
REMARK SMILES IDX 45 77 50 78 46 79 47 80 49 81 51 82 48 83
REMARK H PARENT 13 6 18 26 68 45 42 56
REMARK Flexibility Score: inf
ROOT
ATOM      1  C   UNL A   1      39.190  22.833  26.448  1.00  0.00     0.023 C 
ENDROOT
BRANCH   1   2
ATOM      2  C   UNL A   1      37.983  23.719  26.115  1.00  0.00     0.116 C 
BRANCH   2   3
ATOM      3  N   UNL A   1      37.586  23.481  24.750  1.00  0.00    -0.352 N 
ATOM      4  C   UNL A   1      36.387  23.483  24.095  1.00  0.00     0.251 C 
ATOM      5  O   UNL A   1      36.433  23.048  22.939  1.00  0.00    -0.269 OA
ATOM      6  H   UNL A   1      38.346  23.270  24.161  1.00  0.00     0.163 HD
BRANCH   4   7
ATOM      7  C   UNL A   1      35.074  24.027  24.594  1.00  0.00     0.044 A 
ATOM      8  C   UNL A   1      33.229  25.532  23.888  1.00  0.00     0.071 A 
ATOM      9  C   UNL A   1      34.500  24.958  23.694  1.00  0.00     0.034 A 
ATOM     10  C   UNL A   1      32.556  25.326  25.093  1.00  0.00    -0.032 A 
ATOM     11  C   UNL A   1      33.119  24.404  25.986  1.00  0.00     0.009 A 
ATOM     12  C   UNL A   1      31.246  25.915  25.530  1.00  0.00     0.046 C 
ATOM     13  C   UNL A   1      34.299  23.678  25.712  1.00  0.00    -0.038 A 
ATOM     14  C   UNL A   1      34.503  22.515  26.628  1.00  0.00     0.045 C 
BRANCH   8  15
ATOM     15  S   UNL A   1      32.546  26.443  22.503  1.00  0.00     0.181 S 
ATOM     16  O   UNL A   1      31.139  26.102  22.414  1.00  0.00    -0.223 OA
ATOM     17  O   UNL A   1      33.387  26.208  21.344  1.00  0.00    -0.223 OA
BRANCH  15  18
ATOM     18  C   UNL A   1      32.662  28.191  22.968  1.00  0.00     0.110 C 
ATOM     19  C   UNL A   1      33.797  28.463  23.951  1.00  0.00     0.025 C 
BRANCH  18  20
ATOM     20  C   UNL A   1      31.314  28.740  23.468  1.00  0.00     0.016 C 
ATOM     21  C   UNL A   1      31.423  29.516  24.776  1.00  0.00     0.005 C 
ENDBRANCH  18  20
ENDBRANCH  15  18
ENDBRANCH   8  15
ENDBRANCH   4   7
ENDBRANCH   2   3
ENDBRANCH   1   2
BRANCH   1  22
ATOM     22  C   UNL A   1      39.215  21.475  25.766  1.00  0.00     0.023 C 
BRANCH  22  23
ATOM     23  C   UNL A   1      39.722  20.352  26.649  1.00  0.00     0.116 C 
BRANCH  23  24
ATOM     24  N   UNL A   1      40.738  19.519  26.017  1.00  0.00    -0.352 N 
ATOM     25  C   UNL A   1      42.071  19.807  25.846  1.00  0.00     0.251 C 
ATOM     26  H   UNL A   1      40.433  18.648  25.673  1.00  0.00     0.163 HD
ATOM     27  O   UNL A   1      42.808  19.056  25.219  1.00  0.00    -0.269 OA
BRANCH  25  28
ATOM     28  C   UNL A   1      42.580  21.077  26.395  1.00  0.00     0.039 A 
ATOM     29  C   UNL A   1      42.930  22.102  25.517  1.00  0.00     0.014 A 
ATOM     30  C   UNL A   1      42.577  21.287  27.776  1.00  0.00     0.014 A 
ATOM     31  C   UNL A   1      43.203  23.370  26.027  1.00  0.00     0.010 A 
ATOM     32  C   UNL A   1      42.740  22.571  28.270  1.00  0.00     0.010 A 
ATOM     33  C   UNL A   1      43.064  23.625  27.403  1.00  0.00    -0.014 A 
BRANCH  33  34
ATOM     34  C   UNL A   1      43.267  24.984  27.960  1.00  0.00     0.031 A 
ATOM     35  C   UNL A   1      44.647  25.420  28.371  1.00  0.00     0.074 A 
ATOM     36  C   UNL A   1      42.210  25.796  28.153  1.00  0.00     0.049 A 
ATOM     37  N   UNL A   1      45.026  26.539  28.931  1.00  0.00    -0.248 NA
ATOM     38  C   UNL A   1      45.739  24.457  28.155  1.00  0.00     0.031 C 
ATOM     39  C   UNL A   1      40.817  25.465  27.847  1.00  0.00     0.029 A 
ATOM     40  N   UNL A   1      42.143  27.070  28.661  1.00  0.00    -0.354 N 
ATOM     41  C   UNL A   1      46.392  26.407  29.144  1.00  0.00     0.074 A 
ATOM     42  C   UNL A   1      46.764  25.076  28.721  1.00  0.00     0.031 C 
ATOM     43  C   UNL A   1      40.038  26.520  28.142  1.00  0.00     0.029 A 
ATOM     44  C   UNL A   1      40.868  27.583  28.697  1.00  0.00     0.049 A 
ATOM     45  H   UNL A   1      42.933  27.568  28.970  1.00  0.00     0.167 HD
ATOM     46  C   UNL A   1      47.266  27.324  29.619  1.00  0.00     0.037 A 
ATOM     47  C   UNL A   1      40.422  28.775  29.135  1.00  0.00     0.037 A 
ATOM     48  C   UNL A   1      46.896  28.656  30.018  1.00  0.00     0.049 A 
ATOM     49  C   UNL A   1      41.412  29.773  29.673  1.00  0.00     0.074 A 
ATOM     50  C   UNL A   1      47.712  29.680  30.459  1.00  0.00     0.029 A 
ATOM     51  N   UNL A   1      45.597  29.143  30.027  1.00  0.00    -0.354 N 
ATOM     52  N   UNL A   1      42.713  29.664  29.796  1.00  0.00    -0.248 NA
ATOM     53  C   UNL A   1      40.873  31.062  30.126  1.00  0.00     0.031 C 
ATOM     54  C   UNL A   1      46.902  30.771  30.789  1.00  0.00     0.029 A 
ATOM     55  C   UNL A   1      45.587  30.447  30.491  1.00  0.00     0.049 A 
ATOM     56  H   UNL A   1      44.802  28.637  29.745  1.00  0.00     0.167 HD
ATOM     57  C   UNL A   1      43.152  30.879  30.307  1.00  0.00     0.074 A 
ATOM     58  C   UNL A   1      41.979  31.714  30.458  1.00  0.00     0.031 C 
ATOM     59  C   UNL A   1      44.411  31.268  30.624  1.00  0.00     0.037 A 
BRANCH  46  60
ATOM     60  C   UNL A   1      48.708  26.917  29.728  1.00  0.00     0.057 A 
ATOM     61  C   UNL A   1      49.220  26.306  30.882  1.00  0.00     0.134 A 
ATOM     62  C   UNL A   1      49.588  27.111  28.657  1.00  0.00     0.134 A 
ATOM     63  F   UNL A   1      48.435  26.104  31.951  1.00  0.00    -0.206 F 
ATOM     64  C   UNL A   1      50.561  25.927  30.974  1.00  0.00     0.040 A 
ATOM     65  C   UNL A   1      50.923  26.707  28.726  1.00  0.00     0.040 A 
ATOM     66  F   UNL A   1      49.164  27.687  27.521  1.00  0.00    -0.206 F 
ATOM     67  C   UNL A   1      51.414  26.121  29.890  1.00  0.00     0.006 A 
ENDBRANCH  46  60
BRANCH  47  68
ATOM     68  C   UNL A   1      38.975  29.106  29.065  1.00  0.00     0.057 A 
ATOM     69  C   UNL A   1      38.148  28.984  30.189  1.00  0.00     0.134 A 
ATOM     70  C   UNL A   1      38.377  29.532  27.872  1.00  0.00     0.134 A 
ATOM     71  F   UNL A   1      38.656  28.564  31.357  1.00  0.00    -0.206 F 
ATOM     72  C   UNL A   1      36.778  29.245  30.123  1.00  0.00     0.040 A 
ATOM     73  C   UNL A   1      37.015  29.825  27.800  1.00  0.00     0.040 A 
ATOM     74  F   UNL A   1      39.114  29.680  26.761  1.00  0.00    -0.206 F 
ATOM     75  C   UNL A   1      36.209  29.672  28.926  1.00  0.00     0.006 A 
ENDBRANCH  47  68
BRANCH  59  76
ATOM     76  C   UNL A   1      44.595  32.674  31.117  1.00  0.00     0.057 A 
ATOM     77  C   UNL A   1      44.591  32.990  32.482  1.00  0.00     0.134 A 
ATOM     78  C   UNL A   1      44.826  33.718  30.213  1.00  0.00     0.134 A 
ATOM     79  F   UNL A   1      44.364  32.039  33.400  1.00  0.00    -0.206 F 
ATOM     80  C   UNL A   1      44.785  34.299  32.927  1.00  0.00     0.040 A 
ATOM     81  C   UNL A   1      45.053  35.024  30.647  1.00  0.00     0.040 A 
ATOM     82  F   UNL A   1      44.854  33.483  28.892  1.00  0.00    -0.206 F 
ATOM     83  C   UNL A   1      45.026  35.319  32.009  1.00  0.00     0.006 A 
ENDBRANCH  59  76
ENDBRANCH  33  34
ENDBRANCH  25  28
ENDBRANCH  23  24
ENDBRANCH  22  23
ENDBRANCH   1  22
TORSDOF 14
ENDMDL
MODEL 2
REMARK VINA RESULT:     -10.9      4.471      8.848
REMARK SMILES CC[C@@H](C)S(=O)(=O)c1cc(C(=O)NCCCCNC(=O)c2ccc(-c3c4nc(c(-c5c(F)cccc5F)c5ccc([nH]5)c(-c5c(F)cccc5F)c5nc(c(-c6c(F)cccc6F)c6ccc3[nH]6)C=C5)C=C4)cc2)c(C)cc1C
REMARK SMILES IDX 15 1 14 2 13 3 11 4 12 5 10 7 8 8 9 9 78 10 77 11 79 12
REMARK SMILES IDX 75 13 76 14 5 15 6 16 7 17 3 18 4 19 2 20 1 21 16 22 17 23
REMARK SMILES IDX 18 24 19 25 20 27 21 28 22 29 74 30 23 31 73 32 24 33 25 34
REMARK SMILES IDX 26 35 67 36 27 37 72 38 66 39 68 40 28 41 71 42 65 43 64 44
REMARK SMILES IDX 29 46 55 47 38 48 54 49 39 50 42 51 53 52 69 53 40 54 41 55
REMARK SMILES IDX 52 57 70 58 43 59 30 60 31 61 36 62 32 63 33 64 35 65 37 66
REMARK SMILES IDX 34 67 56 68 57 69 62 70 58 71 59 72 61 73 63 74 60 75 44 76
REMARK SMILES IDX 45 77 50 78 46 79 47 80 49 81 51 82 48 83
REMARK H PARENT 13 6 18 26 68 45 42 56
REMARK Flexibility Score: inf
ROOT
ATOM      1  C   UNL A   1      31.307  30.649  25.636  1.00  0.00     0.023 C 
ENDROOT
BRANCH   1   2
ATOM      2  C   UNL A   1      32.577  29.818  25.857  1.00  0.00     0.116 C 
BRANCH   2   3
ATOM      3  N   UNL A   1      33.288  29.703  24.608  1.00  0.00    -0.352 N 
ATOM      4  C   UNL A   1      33.421  28.711  23.678  1.00  0.00     0.251 C 
ATOM      5  O   UNL A   1      34.275  28.931  22.812  1.00  0.00    -0.269 OA
ATOM      6  H   UNL A   1      33.787  30.519  24.374  1.00  0.00     0.163 HD
BRANCH   4   7
ATOM      7  C   UNL A   1      32.597  27.455  23.557  1.00  0.00     0.044 A 
ATOM      8  C   UNL A   1      32.637  25.063  24.226  1.00  0.00     0.071 A 
ATOM      9  C   UNL A   1      33.243  26.331  24.127  1.00  0.00     0.034 A 
ATOM     10  C   UNL A   1      31.416  24.832  23.592  1.00  0.00    -0.032 A 
ATOM     11  C   UNL A   1      30.772  25.942  23.029  1.00  0.00     0.009 A 
ATOM     12  C   UNL A   1      30.653  23.542  23.501  1.00  0.00     0.046 C 
ATOM     13  C   UNL A   1      31.287  27.256  23.094  1.00  0.00    -0.038 A 
ATOM     14  C   UNL A   1      30.277  28.305  22.754  1.00  0.00     0.045 C 
BRANCH   8  15
ATOM     15  S   UNL A   1      33.482  23.853  25.244  1.00  0.00     0.181 S 
ATOM     16  O   UNL A   1      32.485  23.239  26.101  1.00  0.00    -0.223 OA
ATOM     17  O   UNL A   1      34.624  24.497  25.866  1.00  0.00    -0.223 OA
BRANCH  15  18
ATOM     18  C   UNL A   1      34.077  22.584  24.095  1.00  0.00     0.110 C 
ATOM     19  C   UNL A   1      33.270  21.291  24.178  1.00  0.00     0.025 C 
BRANCH  18  20
ATOM     20  C   UNL A   1      35.589  22.338  24.247  1.00  0.00     0.016 C 
ATOM     21  C   UNL A   1      36.419  22.953  23.126  1.00  0.00     0.005 C 
ENDBRANCH  18  20
ENDBRANCH  15  18
ENDBRANCH   8  15
ENDBRANCH   4   7
ENDBRANCH   2   3
ENDBRANCH   1   2
BRANCH   1  22
ATOM     22  C   UNL A   1      31.177  31.891  26.502  1.00  0.00     0.023 C 
BRANCH  22  23
ATOM     23  C   UNL A   1      32.495  32.579  26.794  1.00  0.00     0.116 C 
BRANCH  23  24
ATOM     24  N   UNL A   1      32.352  33.868  27.462  1.00  0.00    -0.352 N 
ATOM     25  C   UNL A   1      33.162  34.403  28.434  1.00  0.00     0.251 C 
ATOM     26  H   UNL A   1      31.584  34.419  27.183  1.00  0.00     0.163 HD
ATOM     27  O   UNL A   1      32.884  35.463  28.980  1.00  0.00    -0.269 OA
BRANCH  25  28
ATOM     28  C   UNL A   1      34.353  33.634  28.842  1.00  0.00     0.039 A 
ATOM     29  C   UNL A   1      35.612  34.218  28.715  1.00  0.00     0.014 A 
ATOM     30  C   UNL A   1      34.196  32.396  29.472  1.00  0.00     0.014 A 
ATOM     31  C   UNL A   1      36.714  33.589  29.294  1.00  0.00     0.010 A 
ATOM     32  C   UNL A   1      35.272  31.832  30.139  1.00  0.00     0.010 A 
ATOM     33  C   UNL A   1      36.543  32.417  30.050  1.00  0.00    -0.014 A 
BRANCH  33  34
ATOM     34  C   UNL A   1      37.686  31.775  30.746  1.00  0.00     0.031 A 
ATOM     35  C   UNL A   1      38.489  30.719  30.037  1.00  0.00     0.074 A 
ATOM     36  C   UNL A   1      37.958  32.094  32.025  1.00  0.00     0.049 A 
ATOM     37  N   UNL A   1      39.483  29.999  30.486  1.00  0.00    -0.248 NA
ATOM     38  C   UNL A   1      38.101  30.410  28.650  1.00  0.00     0.031 C 
ATOM     39  C   UNL A   1      37.216  33.061  32.837  1.00  0.00     0.029 A 
ATOM     40  N   UNL A   1      38.935  31.633  32.873  1.00  0.00    -0.354 N 
ATOM     41  C   UNL A   1      39.828  29.146  29.445  1.00  0.00     0.074 A 
ATOM     42  C   UNL A   1      38.893  29.387  28.369  1.00  0.00     0.031 C 
ATOM     43  C   UNL A   1      37.783  33.145  34.052  1.00  0.00     0.029 A 
ATOM     44  C   UNL A   1      38.899  32.208  34.121  1.00  0.00     0.049 A 
ATOM     45  H   UNL A   1      39.596  30.953  32.611  1.00  0.00     0.167 HD
ATOM     46  C   UNL A   1      40.851  28.263  29.379  1.00  0.00     0.037 A 
ATOM     47  C   UNL A   1      39.678  31.997  35.198  1.00  0.00     0.037 A 
ATOM     48  C   UNL A   1      41.792  28.043  30.444  1.00  0.00     0.049 A 
ATOM     49  C   UNL A   1      40.801  31.000  35.104  1.00  0.00     0.074 A 
ATOM     50  C   UNL A   1      42.898  27.214  30.458  1.00  0.00     0.029 A 
ATOM     51  N   UNL A   1      41.732  28.655  31.688  1.00  0.00    -0.354 N 
ATOM     52  N   UNL A   1      41.164  30.255  34.087  1.00  0.00    -0.248 NA
ATOM     53  C   UNL A   1      41.627  30.817  36.305  1.00  0.00     0.031 C 
ATOM     54  C   UNL A   1      43.477  27.281  31.728  1.00  0.00     0.029 A 
ATOM     55  C   UNL A   1      42.768  28.202  32.486  1.00  0.00     0.049 A 
ATOM     56  H   UNL A   1      41.054  29.314  31.961  1.00  0.00     0.167 HD
ATOM     57  C   UNL A   1      42.278  29.544  34.513  1.00  0.00     0.074 A 
ATOM     58  C   UNL A   1      42.539  29.956  35.877  1.00  0.00     0.031 C 
ATOM     59  C   UNL A   1      43.020  28.632  33.837  1.00  0.00     0.037 A 
BRANCH  46  60
ATOM     60  C   UNL A   1      41.006  27.475  28.110  1.00  0.00     0.057 A 
ATOM     61  C   UNL A   1      41.809  27.924  27.052  1.00  0.00     0.134 A 
ATOM     62  C   UNL A   1      40.368  26.238  27.954  1.00  0.00     0.134 A 
ATOM     63  F   UNL A   1      42.436  29.108  27.129  1.00  0.00    -0.206 F 
ATOM     64  C   UNL A   1      41.950  27.184  25.876  1.00  0.00     0.040 A 
ATOM     65  C   UNL A   1      40.527  25.475  26.797  1.00  0.00     0.040 A 
ATOM     66  F   UNL A   1      39.587  25.746  28.928  1.00  0.00    -0.206 F 
ATOM     67  C   UNL A   1      41.314  25.951  25.751  1.00  0.00     0.006 A 
ENDBRANCH  46  60
BRANCH  47  68
ATOM     68  C   UNL A   1      39.443  32.757  36.454  1.00  0.00     0.057 A 
ATOM     69  C   UNL A   1      38.495  32.332  37.392  1.00  0.00     0.134 A 
ATOM     70  C   UNL A   1      40.143  33.936  36.738  1.00  0.00     0.134 A 
ATOM     71  F   UNL A   1      37.778  31.219  37.170  1.00  0.00    -0.206 F 
ATOM     72  C   UNL A   1      38.231  33.064  38.551  1.00  0.00     0.040 A 
ATOM     73  C   UNL A   1      39.910  34.662  37.907  1.00  0.00     0.040 A 
ATOM     74  F   UNL A   1      41.072  34.395  35.887  1.00  0.00    -0.206 F 
ATOM     75  C   UNL A   1      38.944  34.231  38.813  1.00  0.00     0.006 A 
ENDBRANCH  47  68
BRANCH  59  76
ATOM     76  C   UNL A   1      44.212  28.053  34.542  1.00  0.00     0.057 A 
ATOM     77  C   UNL A   1      44.135  26.867  35.284  1.00  0.00     0.134 A 
ATOM     78  C   UNL A   1      45.466  28.669  34.437  1.00  0.00     0.134 A 
ATOM     79  F   UNL A   1      42.962  26.234  35.434  1.00  0.00    -0.206 F 
ATOM     80  C   UNL A   1      45.257  26.329  35.916  1.00  0.00     0.040 A 
ATOM     81  C   UNL A   1      46.600  28.123  35.037  1.00  0.00     0.040 A 
ATOM     82  F   UNL A   1      45.613  29.800  33.732  1.00  0.00    -0.206 F 
ATOM     83  C   UNL A   1      46.496  26.953  35.786  1.00  0.00     0.006 A 
ENDBRANCH  59  76
ENDBRANCH  33  34
ENDBRANCH  25  28
ENDBRANCH  23  24
ENDBRANCH  22  23
ENDBRANCH   1  22
TORSDOF 14
ENDMDL
MODEL 3
REMARK VINA RESULT:     -10.8      4.215      9.027
REMARK SMILES CC[C@@H](C)S(=O)(=O)c1cc(C(=O)NCCCCNC(=O)c2ccc(-c3c4nc(c(-c5c(F)cccc5F)c5ccc([nH]5)c(-c5c(F)cccc5F)c5nc(c(-c6c(F)cccc6F)c6ccc3[nH]6)C=C5)C=C4)cc2)c(C)cc1C
REMARK SMILES IDX 15 1 14 2 13 3 11 4 12 5 10 7 8 8 9 9 78 10 77 11 79 12
REMARK SMILES IDX 75 13 76 14 5 15 6 16 7 17 3 18 4 19 2 20 1 21 16 22 17 23
REMARK SMILES IDX 18 24 19 25 20 27 21 28 22 29 74 30 23 31 73 32 24 33 25 34
REMARK SMILES IDX 26 35 67 36 27 37 72 38 66 39 68 40 28 41 71 42 65 43 64 44
REMARK SMILES IDX 29 46 55 47 38 48 54 49 39 50 42 51 53 52 69 53 40 54 41 55
REMARK SMILES IDX 52 57 70 58 43 59 30 60 31 61 36 62 32 63 33 64 35 65 37 66
REMARK SMILES IDX 34 67 56 68 57 69 62 70 58 71 59 72 61 73 63 74 60 75 44 76
REMARK SMILES IDX 45 77 50 78 46 79 47 80 49 81 51 82 48 83
REMARK H PARENT 13 6 18 26 68 45 42 56
REMARK Flexibility Score: inf
ROOT
ATOM      1  C   UNL A   1      31.062  29.432  25.183  1.00  0.00     0.023 C 
ENDROOT
BRANCH   1   2
ATOM      2  C   UNL A   1      30.718  29.008  23.750  1.00  0.00     0.116 C 
BRANCH   2   3
ATOM      3  N   UNL A   1      31.926  28.979  22.965  1.00  0.00    -0.352 N 
ATOM      4  C   UNL A   1      33.129  28.344  23.094  1.00  0.00     0.251 C 
ATOM      5  O   UNL A   1      33.995  28.717  22.294  1.00  0.00    -0.269 OA
ATOM      6  H   UNL A   1      31.873  29.540  22.158  1.00  0.00     0.163 HD
BRANCH   4   7
ATOM      7  C   UNL A   1      33.469  27.210  24.026  1.00  0.00     0.044 A 
ATOM      8  C   UNL A   1      33.751  24.743  24.022  1.00  0.00     0.071 A 
ATOM      9  C   UNL A   1      33.387  25.948  23.390  1.00  0.00     0.034 A 
ATOM     10  C   UNL A   1      34.045  24.741  25.385  1.00  0.00    -0.032 A 
ATOM     11  C   UNL A   1      34.130  25.988  26.019  1.00  0.00     0.009 A 
ATOM     12  C   UNL A   1      34.365  23.562  26.258  1.00  0.00     0.046 C 
ATOM     13  C   UNL A   1      33.954  27.217  25.344  1.00  0.00    -0.038 A 
ATOM     14  C   UNL A   1      34.440  28.395  26.125  1.00  0.00     0.045 C 
BRANCH   8  15
ATOM     15  S   UNL A   1      33.871  23.295  22.970  1.00  0.00     0.181 S 
ATOM     16  O   UNL A   1      35.112  22.623  23.301  1.00  0.00    -0.223 OA
ATOM     17  O   UNL A   1      33.658  23.712  21.595  1.00  0.00    -0.223 OA
BRANCH  15  18
ATOM     18  C   UNL A   1      32.506  22.215  23.474  1.00  0.00     0.110 C 
ATOM     19  C   UNL A   1      32.103  21.230  22.380  1.00  0.00     0.025 C 
BRANCH  18  20
ATOM     20  C   UNL A   1      31.306  23.019  24.005  1.00  0.00     0.016 C 
ATOM     21  C   UNL A   1      30.907  22.642  25.427  1.00  0.00     0.005 C 
ENDBRANCH  18  20
ENDBRANCH  15  18
ENDBRANCH   8  15
ENDBRANCH   4   7
ENDBRANCH   2   3
ENDBRANCH   1   2
BRANCH   1  22
ATOM     22  C   UNL A   1      31.468  30.887  25.357  1.00  0.00     0.023 C 
BRANCH  22  23
ATOM     23  C   UNL A   1      31.977  31.223  26.744  1.00  0.00     0.116 C 
BRANCH  23  24
ATOM     24  N   UNL A   1      31.923  32.645  27.063  1.00  0.00    -0.352 N 
ATOM     25  C   UNL A   1      32.880  33.399  27.700  1.00  0.00     0.251 C 
ATOM     26  H   UNL A   1      31.105  33.121  26.790  1.00  0.00     0.163 HD
ATOM     27  O   UNL A   1      32.677  34.571  27.987  1.00  0.00    -0.269 OA
BRANCH  25  28
ATOM     28  C   UNL A   1      34.143  32.737  28.078  1.00  0.00     0.039 A 
ATOM     29  C   UNL A   1      35.291  33.510  28.239  1.00  0.00     0.014 A 
ATOM     30  C   UNL A   1      34.144  31.377  28.399  1.00  0.00     0.014 A 
ATOM     31  C   UNL A   1      36.427  32.930  28.802  1.00  0.00     0.010 A 
ATOM     32  C   UNL A   1      35.236  30.834  29.058  1.00  0.00     0.010 A 
ATOM     33  C   UNL A   1      36.392  31.601  29.258  1.00  0.00    -0.014 A 
BRANCH  33  34
ATOM     34  C   UNL A   1      37.560  30.987  29.936  1.00  0.00     0.031 A 
ATOM     35  C   UNL A   1      37.837  31.310  31.379  1.00  0.00     0.074 A 
ATOM     36  C   UNL A   1      38.401  30.198  29.240  1.00  0.00     0.049 A 
ATOM     37  N   UNL A   1      38.833  30.927  32.133  1.00  0.00    -0.248 NA
ATOM     38  C   UNL A   1      36.884  32.208  32.052  1.00  0.00     0.031 C 
ATOM     39  C   UNL A   1      38.271  29.858  27.822  1.00  0.00     0.029 A 
ATOM     40  N   UNL A   1      39.540  29.539  29.634  1.00  0.00    -0.354 N 
ATOM     41  C   UNL A   1      38.633  31.546  33.360  1.00  0.00     0.074 A 
ATOM     42  C   UNL A   1      37.464  32.385  33.229  1.00  0.00     0.031 C 
ATOM     43  C   UNL A   1      39.269  29.029  27.473  1.00  0.00     0.029 A 
ATOM     44  C   UNL A   1      40.133  28.814  28.629  1.00  0.00     0.049 A 
ATOM     45  H   UNL A   1      39.897  29.584  30.550  1.00  0.00     0.167 HD
ATOM     46  C   UNL A   1      39.342  31.405  34.504  1.00  0.00     0.037 A 
ATOM     47  C   UNL A   1      41.252  28.065  28.641  1.00  0.00     0.037 A 
ATOM     48  C   UNL A   1      40.492  30.551  34.636  1.00  0.00     0.049 A 
ATOM     49  C   UNL A   1      42.031  27.935  29.922  1.00  0.00     0.074 A 
ATOM     50  C   UNL A   1      41.246  30.292  35.765  1.00  0.00     0.029 A 
ATOM     51  N   UNL A   1      41.054  29.820  33.599  1.00  0.00    -0.354 N 
ATOM     52  N   UNL A   1      41.787  28.465  31.096  1.00  0.00    -0.248 NA
ATOM     53  C   UNL A   1      43.237  27.097  29.881  1.00  0.00     0.031 C 
ATOM     54  C   UNL A   1      42.300  29.449  35.401  1.00  0.00     0.029 A 
ATOM     55  C   UNL A   1      42.163  29.131  34.057  1.00  0.00     0.049 A 
ATOM     56  H   UNL A   1      40.715  29.797  32.676  1.00  0.00     0.167 HD
ATOM     57  C   UNL A   1      42.786  27.998  31.941  1.00  0.00     0.074 A 
ATOM     58  C   UNL A   1      43.631  27.132  31.146  1.00  0.00     0.031 C 
ATOM     59  C   UNL A   1      42.987  28.263  33.255  1.00  0.00     0.037 A 
BRANCH  46  60
ATOM     60  C   UNL A   1      38.887  32.188  35.703  1.00  0.00     0.057 A 
ATOM     61  C   UNL A   1      38.135  31.600  36.729  1.00  0.00     0.134 A 
ATOM     62  C   UNL A   1      39.231  33.537  35.847  1.00  0.00     0.134 A 
ATOM     63  F   UNL A   1      37.758  30.315  36.648  1.00  0.00    -0.206 F 
ATOM     64  C   UNL A   1      37.719  32.334  37.842  1.00  0.00     0.040 A 
ATOM     65  C   UNL A   1      38.848  34.272  36.970  1.00  0.00     0.040 A 
ATOM     66  F   UNL A   1      39.953  34.162  34.904  1.00  0.00    -0.206 F 
ATOM     67  C   UNL A   1      38.083  33.672  37.967  1.00  0.00     0.006 A 
ENDBRANCH  46  60
BRANCH  47  68
ATOM     68  C   UNL A   1      41.696  27.361  27.409  1.00  0.00     0.057 A 
ATOM     69  C   UNL A   1      42.462  28.015  26.437  1.00  0.00     0.134 A 
ATOM     70  C   UNL A   1      41.349  26.027  27.163  1.00  0.00     0.134 A 
ATOM     71  F   UNL A   1      42.813  29.299  26.605  1.00  0.00    -0.206 F 
ATOM     72  C   UNL A   1      42.843  27.379  25.254  1.00  0.00     0.040 A 
ATOM     73  C   UNL A   1      41.748  25.370  25.998  1.00  0.00     0.040 A 
ATOM     74  F   UNL A   1      40.624  25.340  28.057  1.00  0.00    -0.206 F 
ATOM     75  C   UNL A   1      42.490  26.050  25.035  1.00  0.00     0.006 A 
ENDBRANCH  47  68
BRANCH  59  76
ATOM     76  C   UNL A   1      44.135  27.570  33.931  1.00  0.00     0.057 A 
ATOM     77  C   UNL A   1      44.001  26.303  34.513  1.00  0.00     0.134 A 
ATOM     78  C   UNL A   1      45.403  28.164  33.958  1.00  0.00     0.134 A 
ATOM     79  F   UNL A   1      42.811  25.685  34.532  1.00  0.00    -0.206 F 
ATOM     80  C   UNL A   1      45.084  25.662  35.119  1.00  0.00     0.040 A 
ATOM     81  C   UNL A   1      46.499  27.519  34.532  1.00  0.00     0.040 A 
ATOM     82  F   UNL A   1      45.603  29.371  33.409  1.00  0.00    -0.206 F 
ATOM     83  C   UNL A   1      46.339  26.267  35.121  1.00  0.00     0.006 A 
ENDBRANCH  59  76
ENDBRANCH  33  34
ENDBRANCH  25  28
ENDBRANCH  23  24
ENDBRANCH  22  23
ENDBRANCH   1  22
TORSDOF 14
ENDMDL
