MODEL 1
REMARK VINA RESULT:     -12.6      0.000      0.000
REMARK SMILES O=C(NCCCCNC(=O)[C@@H]1CCCC[C@@H]1C(=O)Nc1cc(C(F)(F)F)cc(C(F)(F)F)c1)c1ccc(-c2c3nc(c(-c4c(F)cccc4F)c4ccc([nH]4)c(-c4c(F)cccc4F)c4nc(c(-c5c(F)cccc5F)c5ccc2[nH]5)C=C4)C=C3)cc1
REMARK SMILES IDX 6 1 5 2 4 3 3 4 1 5 2 6 34 8 35 9 87 10 36 11 86 12 37 13
REMARK SMILES IDX 38 14 39 15 80 16 40 17 85 18 79 19 81 20 41 21 84 22 78 23
REMARK SMILES IDX 77 24 42 26 68 27 51 28 67 29 52 30 55 31 66 32 82 33 53 34
REMARK SMILES IDX 54 35 65 37 83 38 56 39 43 40 44 41 49 42 45 43 46 44 48 45
REMARK SMILES IDX 50 46 47 47 69 48 70 49 75 50 71 51 72 52 74 53 76 54 73 55
REMARK SMILES IDX 57 56 58 57 63 58 59 59 60 60 62 61 64 62 61 63 7 64 8 65
REMARK SMILES IDX 9 66 10 68 11 69 12 70 16 71 13 72 15 73 14 74 17 75 18 76
REMARK SMILES IDX 19 77 20 79 21 80 33 81 22 82 28 83 27 84 23 85 24 86 25 87
REMARK SMILES IDX 26 88 29 89 30 90 31 91 32 92
REMARK H PARENT 3 7 81 25 55 36 8 67 19 78
REMARK Flexibility Score: inf
ROOT
ATOM      1  C   UNL A   1      36.108  19.961  25.008  1.00  0.00     0.023 C 
ENDROOT
BRANCH   1   2
ATOM      2  C   UNL A   1      37.587  19.908  24.613  1.00  0.00     0.023 C 
BRANCH   2   3
ATOM      3  C   UNL A   1      38.573  20.157  25.750  1.00  0.00     0.116 C 
BRANCH   3   4
ATOM      4  N   UNL A   1      39.671  19.203  25.753  1.00  0.00    -0.352 N 
ATOM      5  O   UNL A   1      41.817  18.519  25.826  1.00  0.00    -0.269 OA
ATOM      6  C   UNL A   1      40.998  19.411  26.026  1.00  0.00     0.251 C 
ATOM      7  H   UNL A   1      39.426  18.277  25.527  1.00  0.00     0.163 HD
BRANCH   6   8
ATOM      8  C   UNL A   1      41.446  20.721  26.543  1.00  0.00     0.039 A 
ATOM      9  C   UNL A   1      41.450  20.989  27.915  1.00  0.00     0.014 A 
ATOM     10  C   UNL A   1      41.884  21.687  25.634  1.00  0.00     0.014 A 
ATOM     11  C   UNL A   1      41.783  22.261  28.371  1.00  0.00     0.010 A 
ATOM     12  C   UNL A   1      42.287  22.940  26.099  1.00  0.00     0.010 A 
ATOM     13  C   UNL A   1      42.218  23.243  27.469  1.00  0.00    -0.014 A 
BRANCH  13  14
ATOM     14  C   UNL A   1      42.662  24.569  27.964  1.00  0.00     0.031 A 
ATOM     15  C   UNL A   1      41.665  25.645  28.279  1.00  0.00     0.074 A 
ATOM     16  C   UNL A   1      43.980  24.809  28.084  1.00  0.00     0.049 A 
ATOM     17  N   UNL A   1      41.877  26.889  28.628  1.00  0.00    -0.248 NA
ATOM     18  C   UNL A   1      40.245  25.281  28.176  1.00  0.00     0.031 C 
ATOM     19  C   UNL A   1      45.042  23.843  27.797  1.00  0.00     0.029 A 
ATOM     20  N   UNL A   1      44.653  25.944  28.459  1.00  0.00    -0.354 N 
ATOM     21  C   UNL A   1      40.619  27.462  28.764  1.00  0.00     0.074 A 
ATOM     22  C   UNL A   1      39.651  26.437  28.435  1.00  0.00     0.031 C 
ATOM     23  C   UNL A   1      46.231  24.424  28.005  1.00  0.00     0.029 A 
ATOM     24  C   UNL A   1      46.018  25.817  28.380  1.00  0.00     0.049 A 
ATOM     25  H   UNL A   1      44.202  26.768  28.756  1.00  0.00     0.167 HD
ATOM     26  C   UNL A   1      40.306  28.729  29.132  1.00  0.00     0.037 A 
ATOM     27  C   UNL A   1      46.993  26.730  28.547  1.00  0.00     0.037 A 
ATOM     28  C   UNL A   1      41.280  29.740  29.459  1.00  0.00     0.049 A 
ATOM     29  C   UNL A   1      46.624  28.138  28.915  1.00  0.00     0.074 A 
ATOM     30  C   UNL A   1      41.064  31.036  29.893  1.00  0.00     0.029 A 
ATOM     31  N   UNL A   1      42.654  29.572  29.371  1.00  0.00    -0.354 N 
ATOM     32  N   UNL A   1      45.433  28.657  29.089  1.00  0.00    -0.248 NA
ATOM     33  C   UNL A   1      47.730  29.084  29.111  1.00  0.00     0.031 C 
ATOM     34  C   UNL A   1      42.305  31.671  30.009  1.00  0.00     0.029 A 
ATOM     35  C   UNL A   1      43.298  30.751  29.708  1.00  0.00     0.049 A 
ATOM     36  H   UNL A   1      43.106  28.737  29.108  1.00  0.00     0.167 HD
ATOM     37  C   UNL A   1      45.644  29.984  29.438  1.00  0.00     0.074 A 
ATOM     38  C   UNL A   1      47.078  30.188  29.454  1.00  0.00     0.031 C 
ATOM     39  C   UNL A   1      44.729  30.942  29.724  1.00  0.00     0.037 A 
BRANCH  26  40
ATOM     40  C   UNL A   1      38.850  29.100  29.161  1.00  0.00     0.057 A 
ATOM     41  C   UNL A   1      38.078  29.004  30.327  1.00  0.00     0.134 A 
ATOM     42  C   UNL A   1      38.214  29.574  28.007  1.00  0.00     0.134 A 
ATOM     43  F   UNL A   1      38.621  28.551  31.468  1.00  0.00    -0.206 F 
ATOM     44  C   UNL A   1      36.719  29.328  30.333  1.00  0.00     0.040 A 
ATOM     45  C   UNL A   1      36.863  29.930  28.008  1.00  0.00     0.040 A 
ATOM     46  F   UNL A   1      38.894  29.703  26.858  1.00  0.00    -0.206 F 
ATOM     47  C   UNL A   1      36.109  29.796  29.171  1.00  0.00     0.006 A 
ENDBRANCH  26  40
BRANCH  27  48
ATOM     48  C   UNL A   1      48.404  26.323  28.344  1.00  0.00     0.057 A 
ATOM     49  C   UNL A   1      49.035  26.486  27.107  1.00  0.00     0.134 A 
ATOM     50  C   UNL A   1      49.171  25.818  29.402  1.00  0.00     0.134 A 
ATOM     51  F   UNL A   1      48.349  26.954  26.054  1.00  0.00    -0.206 F 
ATOM     52  C   UNL A   1      50.381  26.162  26.929  1.00  0.00     0.040 A 
ATOM     53  C   UNL A   1      50.523  25.515  29.245  1.00  0.00     0.040 A 
ATOM     54  F   UNL A   1      48.624  25.653  30.615  1.00  0.00    -0.206 F 
ATOM     55  C   UNL A   1      51.131  25.684  28.003  1.00  0.00     0.006 A 
ENDBRANCH  27  48
BRANCH  39  56
ATOM     56  C   UNL A   1      45.242  32.294  30.120  1.00  0.00     0.057 A 
ATOM     57  C   UNL A   1      45.408  33.326  29.189  1.00  0.00     0.134 A 
ATOM     58  C   UNL A   1      45.503  32.586  31.465  1.00  0.00     0.134 A 
ATOM     59  F   UNL A   1      45.189  33.107  27.884  1.00  0.00    -0.206 F 
ATOM     60  C   UNL A   1      45.819  34.601  29.581  1.00  0.00     0.040 A 
ATOM     61  C   UNL A   1      45.891  33.863  31.872  1.00  0.00     0.040 A 
ATOM     62  F   UNL A   1      45.360  31.643  32.408  1.00  0.00    -0.206 F 
ATOM     63  C   UNL A   1      46.051  34.875  30.928  1.00  0.00     0.006 A 
ENDBRANCH  39  56
ENDBRANCH  13  14
ENDBRANCH   6   8
ENDBRANCH   3   4
ENDBRANCH   2   3
ENDBRANCH   1   2
BRANCH   1  64
ATOM     64  C   UNL A   1      35.617  21.339  25.452  1.00  0.00     0.116 C 
BRANCH  64  65
ATOM     65  N   UNL A   1      35.985  22.361  24.488  1.00  0.00    -0.356 N 
ATOM     66  C   UNL A   1      35.226  23.125  23.655  1.00  0.00     0.223 C 
ATOM     67  H   UNL A   1      36.954  22.531  24.426  1.00  0.00     0.163 HD
ATOM     68  O   UNL A   1      35.827  23.702  22.751  1.00  0.00    -0.275 OA
BRANCH  66  69
ATOM     69  C   UNL A   1      33.722  23.240  23.883  1.00  0.00     0.091 C 
ATOM     70  C   UNL A   1      32.908  22.306  22.978  1.00  0.00     0.014 C 
ATOM     71  C   UNL A   1      33.190  24.703  23.868  1.00  0.00     0.091 C 
ATOM     72  C   UNL A   1      31.427  22.323  23.367  1.00  0.00     0.001 C 
ATOM     73  C   UNL A   1      31.735  24.614  24.382  1.00  0.00     0.014 C 
ATOM     74  C   UNL A   1      30.866  23.736  23.485  1.00  0.00     0.001 C 
BRANCH  71  75
ATOM     75  C   UNL A   1      33.291  25.397  22.491  1.00  0.00     0.228 C 
ATOM     76  O   UNL A   1      33.578  24.781  21.461  1.00  0.00    -0.274 OA
ATOM     77  N   UNL A   1      32.984  26.711  22.292  1.00  0.00    -0.326 N 
ATOM     78  H   UNL A   1      33.077  27.001  21.355  1.00  0.00     0.169 HD
BRANCH  77  79
ATOM     79  C   UNL A   1      32.565  27.726  23.152  1.00  0.00     0.042 A 
ATOM     80  C   UNL A   1      31.408  28.416  22.777  1.00  0.00     0.039 A 
ATOM     81  C   UNL A   1      33.194  28.033  24.355  1.00  0.00     0.039 A 
ATOM     82  C   UNL A   1      30.796  29.323  23.654  1.00  0.00     0.058 A 
ATOM     83  C   UNL A   1      32.613  28.949  25.246  1.00  0.00     0.058 A 
ATOM     84  C   UNL A   1      31.405  29.579  24.891  1.00  0.00     0.026 A 
BRANCH  82  85
ATOM     85  C   UNL A   1      29.471  29.939  23.277  1.00  0.00     0.416 C 
ATOM     86  F   UNL A   1      29.148  31.003  24.062  1.00  0.00    -0.166 F 
ATOM     87  F   UNL A   1      29.467  30.404  21.996  1.00  0.00    -0.166 F 
ATOM     88  F   UNL A   1      28.425  29.074  23.362  1.00  0.00    -0.166 F 
ENDBRANCH  82  85
BRANCH  83  89
ATOM     89  C   UNL A   1      33.236  29.222  26.594  1.00  0.00     0.416 C 
ATOM     90  F   UNL A   1      32.316  29.268  27.595  1.00  0.00    -0.166 F 
ATOM     91  F   UNL A   1      34.131  28.260  26.948  1.00  0.00    -0.166 F 
ATOM     92  F   UNL A   1      33.916  30.400  26.650  1.00  0.00    -0.166 F 
ENDBRANCH  83  89
ENDBRANCH  77  79
ENDBRANCH  71  75
ENDBRANCH  66  69
ENDBRANCH  64  65
ENDBRANCH   1  64
TORSDOF 15
ENDMDL
MODEL 2
REMARK VINA RESULT:     -12.6      5.006      9.702
REMARK SMILES O=C(NCCCCNC(=O)[C@@H]1CCCC[C@@H]1C(=O)Nc1cc(C(F)(F)F)cc(C(F)(F)F)c1)c1ccc(-c2c3nc(c(-c4c(F)cccc4F)c4ccc([nH]4)c(-c4c(F)cccc4F)c4nc(c(-c5c(F)cccc5F)c5ccc2[nH]5)C=C4)C=C3)cc1
REMARK SMILES IDX 6 1 5 2 4 3 3 4 1 5 2 6 34 8 35 9 87 10 36 11 86 12 37 13
REMARK SMILES IDX 38 14 39 15 80 16 40 17 85 18 79 19 81 20 41 21 84 22 78 23
REMARK SMILES IDX 77 24 42 26 68 27 51 28 67 29 52 30 55 31 66 32 82 33 53 34
REMARK SMILES IDX 54 35 65 37 83 38 56 39 43 40 44 41 49 42 45 43 46 44 48 45
REMARK SMILES IDX 50 46 47 47 69 48 70 49 75 50 71 51 72 52 74 53 76 54 73 55
REMARK SMILES IDX 57 56 58 57 63 58 59 59 60 60 62 61 64 62 61 63 7 64 8 65
REMARK SMILES IDX 9 66 10 68 11 69 12 70 16 71 13 72 15 73 14 74 17 75 18 76
REMARK SMILES IDX 19 77 20 79 21 80 33 81 22 82 28 83 27 84 23 85 24 86 25 87
REMARK SMILES IDX 26 88 29 89 30 90 31 91 32 92
REMARK H PARENT 3 7 81 25 55 36 8 67 19 78
REMARK Flexibility Score: inf
ROOT
ATOM      1  C   UNL A   1      31.054  30.866  25.402  1.00  0.00     0.023 C 
ENDROOT
BRANCH   1   2
ATOM      2  C   UNL A   1      31.266  31.586  26.738  1.00  0.00     0.023 C 
BRANCH   2   3
ATOM      3  C   UNL A   1      32.571  32.366  26.856  1.00  0.00     0.116 C 
BRANCH   3   4
ATOM      4  N   UNL A   1      32.366  33.725  27.329  1.00  0.00    -0.352 N 
ATOM      5  O   UNL A   1      32.625  35.504  28.689  1.00  0.00    -0.269 OA
ATOM      6  C   UNL A   1      33.037  34.412  28.308  1.00  0.00     0.251 C 
ATOM      7  H   UNL A   1      31.644  34.223  26.883  1.00  0.00     0.163 HD
BRANCH   6   8
ATOM      8  C   UNL A   1      34.246  33.825  28.922  1.00  0.00     0.039 A 
ATOM      9  C   UNL A   1      35.512  34.364  28.672  1.00  0.00     0.014 A 
ATOM     10  C   UNL A   1      34.103  32.728  29.774  1.00  0.00     0.014 A 
ATOM     11  C   UNL A   1      36.644  33.735  29.181  1.00  0.00     0.010 A 
ATOM     12  C   UNL A   1      35.235  32.142  30.342  1.00  0.00     0.010 A 
ATOM     13  C   UNL A   1      36.515  32.628  30.032  1.00  0.00    -0.014 A 
BRANCH  13  14
ATOM     14  C   UNL A   1      37.717  32.016  30.650  1.00  0.00     0.031 A 
ATOM     15  C   UNL A   1      38.467  30.920  29.952  1.00  0.00     0.074 A 
ATOM     16  C   UNL A   1      38.100  32.428  31.872  1.00  0.00     0.049 A 
ATOM     17  N   UNL A   1      39.476  30.206  30.383  1.00  0.00    -0.248 NA
ATOM     18  C   UNL A   1      38.016  30.571  28.597  1.00  0.00     0.031 C 
ATOM     19  C   UNL A   1      37.443  33.479  32.651  1.00  0.00     0.029 A 
ATOM     20  N   UNL A   1      39.122  32.001  32.681  1.00  0.00    -0.354 N 
ATOM     21  C   UNL A   1      39.767  29.309  29.364  1.00  0.00     0.074 A 
ATOM     22  C   UNL A   1      38.811  29.552  28.304  1.00  0.00     0.031 C 
ATOM     23  C   UNL A   1      38.074  33.614  33.825  1.00  0.00     0.029 A 
ATOM     24  C   UNL A   1      39.141  32.622  33.905  1.00  0.00     0.049 A 
ATOM     25  H   UNL A   1      39.777  31.317  32.412  1.00  0.00     0.167 HD
ATOM     26  C   UNL A   1      40.745  28.371  29.321  1.00  0.00     0.037 A 
ATOM     27  C   UNL A   1      39.901  32.393  34.992  1.00  0.00     0.037 A 
ATOM     28  C   UNL A   1      41.692  28.141  30.383  1.00  0.00     0.049 A 
ATOM     29  C   UNL A   1      40.952  31.323  34.939  1.00  0.00     0.074 A 
ATOM     30  C   UNL A   1      42.752  27.252  30.415  1.00  0.00     0.029 A 
ATOM     31  N   UNL A   1      41.681  28.795  31.607  1.00  0.00    -0.354 N 
ATOM     32  N   UNL A   1      41.252  30.513  33.953  1.00  0.00    -0.248 NA
ATOM     33  C   UNL A   1      41.771  31.135  36.143  1.00  0.00     0.031 C 
ATOM     34  C   UNL A   1      43.344  27.324  31.680  1.00  0.00     0.029 A 
ATOM     35  C   UNL A   1      42.694  28.303  32.415  1.00  0.00     0.049 A 
ATOM     36  H   UNL A   1      41.048  29.504  31.864  1.00  0.00     0.167 HD
ATOM     37  C   UNL A   1      42.307  29.735  34.406  1.00  0.00     0.074 A 
ATOM     38  C   UNL A   1      42.598  30.173  35.756  1.00  0.00     0.031 C 
ATOM     39  C   UNL A   1      42.976  28.750  33.757  1.00  0.00     0.037 A 
BRANCH  26  40
ATOM     40  C   UNL A   1      40.812  27.498  28.099  1.00  0.00     0.057 A 
ATOM     41  C   UNL A   1      40.123  26.282  28.012  1.00  0.00     0.134 A 
ATOM     42  C   UNL A   1      41.570  27.889  26.987  1.00  0.00     0.134 A 
ATOM     43  F   UNL A   1      39.383  25.842  29.042  1.00  0.00    -0.206 F 
ATOM     44  C   UNL A   1      40.214  25.468  26.880  1.00  0.00     0.040 A 
ATOM     45  C   UNL A   1      41.646  27.098  25.839  1.00  0.00     0.040 A 
ATOM     46  F   UNL A   1      42.247  29.046  26.997  1.00  0.00    -0.206 F 
ATOM     47  C   UNL A   1      40.976  25.878  25.788  1.00  0.00     0.006 A 
ENDBRANCH  26  40
BRANCH  27  48
ATOM     48  C   UNL A   1      39.666  33.193  36.218  1.00  0.00     0.057 A 
ATOM     49  C   UNL A   1      40.336  34.400  36.437  1.00  0.00     0.134 A 
ATOM     50  C   UNL A   1      38.716  32.797  37.169  1.00  0.00     0.134 A 
ATOM     51  F   UNL A   1      41.265  34.824  35.567  1.00  0.00    -0.206 F 
ATOM     52  C   UNL A   1      40.071  35.186  37.559  1.00  0.00     0.040 A 
ATOM     53  C   UNL A   1      38.422  33.586  38.281  1.00  0.00     0.040 A 
ATOM     54  F   UNL A   1      38.031  31.656  37.006  1.00  0.00    -0.206 F 
ATOM     55  C   UNL A   1      39.104  34.784  38.480  1.00  0.00     0.006 A 
ENDBRANCH  27  48
BRANCH  39  56
ATOM     56  C   UNL A   1      44.119  28.099  34.478  1.00  0.00     0.057 A 
ATOM     57  C   UNL A   1      43.958  26.914  35.205  1.00  0.00     0.134 A 
ATOM     58  C   UNL A   1      45.413  28.628  34.378  1.00  0.00     0.134 A 
ATOM     59  F   UNL A   1      42.743  26.365  35.352  1.00  0.00    -0.206 F 
ATOM     60  C   UNL A   1      45.043  26.280  35.813  1.00  0.00     0.040 A 
ATOM     61  C   UNL A   1      46.509  27.989  34.959  1.00  0.00     0.040 A 
ATOM     62  F   UNL A   1      45.635  29.758  33.691  1.00  0.00    -0.206 F 
ATOM     63  C   UNL A   1      46.325  26.812  35.681  1.00  0.00     0.006 A 
ENDBRANCH  39  56
ENDBRANCH  13  14
ENDBRANCH   6   8
ENDBRANCH   3   4
ENDBRANCH   2   3
ENDBRANCH   1   2
BRANCH   1  64
ATOM     64  C   UNL A   1      31.957  29.652  25.184  1.00  0.00     0.116 C 
BRANCH  64  65
ATOM     65  N   UNL A   1      31.960  28.786  26.349  1.00  0.00    -0.356 N 
ATOM     66  C   UNL A   1      31.595  27.483  26.502  1.00  0.00     0.223 C 
ATOM     67  H   UNL A   1      32.282  29.217  27.174  1.00  0.00     0.163 HD
ATOM     68  O   UNL A   1      31.436  27.096  27.657  1.00  0.00    -0.275 OA
BRANCH  66  69
ATOM     69  C   UNL A   1      31.423  26.591  25.276  1.00  0.00     0.091 C 
ATOM     70  C   UNL A   1      29.957  26.441  24.847  1.00  0.00     0.014 C 
ATOM     71  C   UNL A   1      32.159  25.222  25.382  1.00  0.00     0.091 C 
ATOM     72  C   UNL A   1      29.852  25.691  23.516  1.00  0.00     0.001 C 
ATOM     73  C   UNL A   1      32.089  24.610  23.964  1.00  0.00     0.014 C 
ATOM     74  C   UNL A   1      30.648  24.392  23.508  1.00  0.00     0.001 C 
BRANCH  71  75
ATOM     75  C   UNL A   1      31.586  24.280  26.464  1.00  0.00     0.228 C 
ATOM     76  O   UNL A   1      30.515  24.503  27.033  1.00  0.00    -0.274 OA
ATOM     77  N   UNL A   1      32.167  23.093  26.805  1.00  0.00    -0.326 N 
ATOM     78  H   UNL A   1      31.671  22.595  27.495  1.00  0.00     0.169 HD
BRANCH  77  79
ATOM     79  C   UNL A   1      33.323  22.446  26.371  1.00  0.00     0.042 A 
ATOM     80  C   UNL A   1      33.163  21.133  25.915  1.00  0.00     0.039 A 
ATOM     81  C   UNL A   1      34.577  23.048  26.318  1.00  0.00     0.039 A 
ATOM     82  C   UNL A   1      34.217  20.457  25.286  1.00  0.00     0.058 A 
ATOM     83  C   UNL A   1      35.656  22.388  25.708  1.00  0.00     0.058 A 
ATOM     84  C   UNL A   1      35.461  21.097  25.182  1.00  0.00     0.026 A 
BRANCH  82  85
ATOM     85  C   UNL A   1      33.968  19.099  24.677  1.00  0.00     0.416 C 
ATOM     86  F   UNL A   1      35.121  18.463  24.330  1.00  0.00    -0.166 F 
ATOM     87  F   UNL A   1      33.323  18.262  25.536  1.00  0.00    -0.166 F 
ATOM     88  F   UNL A   1      33.205  19.139  23.551  1.00  0.00    -0.166 F 
ENDBRANCH  82  85
BRANCH  83  89
ATOM     89  C   UNL A   1      36.996  23.067  25.561  1.00  0.00     0.416 C 
ATOM     90  F   UNL A   1      38.030  22.184  25.553  1.00  0.00    -0.166 F 
ATOM     91  F   UNL A   1      37.090  23.769  24.399  1.00  0.00    -0.166 F 
ATOM     92  F   UNL A   1      37.266  23.957  26.555  1.00  0.00    -0.166 F 
ENDBRANCH  83  89
ENDBRANCH  77  79
ENDBRANCH  71  75
ENDBRANCH  66  69
ENDBRANCH  64  65
ENDBRANCH   1  64
TORSDOF 15
ENDMDL
MODEL 3
REMARK VINA RESULT:     -12.4      2.554      7.255
REMARK SMILES O=C(NCCCCNC(=O)[C@@H]1CCCC[C@@H]1C(=O)Nc1cc(C(F)(F)F)cc(C(F)(F)F)c1)c1ccc(-c2c3nc(c(-c4c(F)cccc4F)c4ccc([nH]4)c(-c4c(F)cccc4F)c4nc(c(-c5c(F)cccc5F)c5ccc2[nH]5)C=C4)C=C3)cc1
REMARK SMILES IDX 6 1 5 2 4 3 3 4 1 5 2 6 34 8 35 9 87 10 36 11 86 12 37 13
REMARK SMILES IDX 38 14 39 15 80 16 40 17 85 18 79 19 81 20 41 21 84 22 78 23
REMARK SMILES IDX 77 24 42 26 68 27 51 28 67 29 52 30 55 31 66 32 82 33 53 34
REMARK SMILES IDX 54 35 65 37 83 38 56 39 43 40 44 41 49 42 45 43 46 44 48 45
REMARK SMILES IDX 50 46 47 47 69 48 70 49 75 50 71 51 72 52 74 53 76 54 73 55
REMARK SMILES IDX 57 56 58 57 63 58 59 59 60 60 62 61 64 62 61 63 7 64 8 65
REMARK SMILES IDX 9 66 10 68 11 69 12 70 16 71 13 72 15 73 14 74 17 75 18 76
REMARK SMILES IDX 19 77 20 79 21 80 33 81 22 82 28 83 27 84 23 85 24 86 25 87
REMARK SMILES IDX 26 88 29 89 30 90 31 91 32 92
REMARK H PARENT 3 7 81 25 55 36 8 67 19 78
REMARK Flexibility Score: inf
ROOT
ATOM      1  C   UNL A   1      35.057  24.081  23.362  1.00  0.00     0.023 C 
ENDROOT
BRANCH   1   2
ATOM      2  C   UNL A   1      36.180  23.137  23.805  1.00  0.00     0.023 C 
BRANCH   2   3
ATOM      3  C   UNL A   1      36.920  23.557  25.071  1.00  0.00     0.116 C 
BRANCH   3   4
ATOM      4  N   UNL A   1      37.780  22.504  25.587  1.00  0.00    -0.352 N 
ATOM      5  O   UNL A   1      39.635  21.611  26.505  1.00  0.00    -0.269 OA
ATOM      6  C   UNL A   1      38.957  22.610  26.284  1.00  0.00     0.251 C 
ATOM      7  H   UNL A   1      37.473  21.585  25.413  1.00  0.00     0.163 HD
BRANCH   6   8
ATOM      8  C   UNL A   1      39.420  23.934  26.748  1.00  0.00     0.039 A 
ATOM      9  C   UNL A   1      39.244  24.331  28.077  1.00  0.00     0.014 A 
ATOM     10  C   UNL A   1      40.055  24.781  25.837  1.00  0.00     0.014 A 
ATOM     11  C   UNL A   1      39.599  25.618  28.468  1.00  0.00     0.010 A 
ATOM     12  C   UNL A   1      40.476  26.046  26.250  1.00  0.00     0.010 A 
ATOM     13  C   UNL A   1      40.231  26.482  27.562  1.00  0.00    -0.014 A 
BRANCH  13  14
ATOM     14  C   UNL A   1      40.695  27.820  28.004  1.00  0.00     0.031 A 
ATOM     15  C   UNL A   1      42.158  28.150  28.051  1.00  0.00     0.074 A 
ATOM     16  C   UNL A   1      39.783  28.723  28.408  1.00  0.00     0.049 A 
ATOM     17  N   UNL A   1      42.746  29.229  28.501  1.00  0.00    -0.248 NA
ATOM     18  C   UNL A   1      43.082  27.128  27.538  1.00  0.00     0.031 C 
ATOM     19  C   UNL A   1      38.334  28.511  28.416  1.00  0.00     0.029 A 
ATOM     20  N   UNL A   1      39.939  29.990  28.908  1.00  0.00    -0.354 N 
ATOM     21  C   UNL A   1      44.109  29.009  28.347  1.00  0.00     0.074 A 
ATOM     22  C   UNL A   1      44.260  27.683  27.786  1.00  0.00     0.031 C 
ATOM     23  C   UNL A   1      37.734  29.608  28.898  1.00  0.00     0.029 A 
ATOM     24  C   UNL A   1      38.755  30.574  29.287  1.00  0.00     0.049 A 
ATOM     25  H   UNL A   1      40.812  30.438  28.988  1.00  0.00     0.167 HD
ATOM     26  C   UNL A   1      45.136  29.842  28.646  1.00  0.00     0.037 A 
ATOM     27  C   UNL A   1      38.515  31.738  29.918  1.00  0.00     0.037 A 
ATOM     28  C   UNL A   1      44.971  31.161  29.202  1.00  0.00     0.049 A 
ATOM     29  C   UNL A   1      39.669  32.629  30.277  1.00  0.00     0.074 A 
ATOM     30  C   UNL A   1      45.944  32.102  29.492  1.00  0.00     0.029 A 
ATOM     31  N   UNL A   1      43.755  31.719  29.568  1.00  0.00    -0.354 N 
ATOM     32  N   UNL A   1      40.950  32.433  30.083  1.00  0.00    -0.248 NA
ATOM     33  C   UNL A   1      39.346  33.898  30.940  1.00  0.00     0.031 C 
ATOM     34  C   UNL A   1      45.323  33.203  30.089  1.00  0.00     0.029 A 
ATOM     35  C   UNL A   1      43.955  32.976  30.114  1.00  0.00     0.049 A 
ATOM     36  H   UNL A   1      42.878  31.285  29.456  1.00  0.00     0.167 HD
ATOM     37  C   UNL A   1      41.587  33.562  30.577  1.00  0.00     0.074 A 
ATOM     38  C   UNL A   1      40.550  34.441  31.076  1.00  0.00     0.031 C 
ATOM     39  C   UNL A   1      42.913  33.844  30.606  1.00  0.00     0.037 A 
BRANCH  26  40
ATOM     40  C   UNL A   1      46.530  29.331  28.412  1.00  0.00     0.057 A 
ATOM     41  C   UNL A   1      47.200  29.518  27.196  1.00  0.00     0.134 A 
ATOM     42  C   UNL A   1      47.218  28.652  29.427  1.00  0.00     0.134 A 
ATOM     43  F   UNL A   1      46.599  30.153  26.178  1.00  0.00    -0.206 F 
ATOM     44  C   UNL A   1      48.486  29.015  26.984  1.00  0.00     0.040 A 
ATOM     45  C   UNL A   1      48.515  28.171  29.237  1.00  0.00     0.040 A 
ATOM     46  F   UNL A   1      46.642  28.448  30.621  1.00  0.00    -0.206 F 
ATOM     47  C   UNL A   1      49.148  28.342  28.009  1.00  0.00     0.006 A 
ENDBRANCH  26  40
BRANCH  27  48
ATOM     48  C   UNL A   1      37.118  32.099  30.258  1.00  0.00     0.057 A 
ATOM     49  C   UNL A   1      36.587  31.834  31.524  1.00  0.00     0.134 A 
ATOM     50  C   UNL A   1      36.302  32.776  29.341  1.00  0.00     0.134 A 
ATOM     51  F   UNL A   1      37.317  31.179  32.438  1.00  0.00    -0.206 F 
ATOM     52  C   UNL A   1      35.293  32.229  31.867  1.00  0.00     0.040 A 
ATOM     53  C   UNL A   1      35.017  33.199  29.680  1.00  0.00     0.040 A 
ATOM     54  F   UNL A   1      36.761  33.071  28.116  1.00  0.00    -0.206 F 
ATOM     55  C   UNL A   1      34.508  32.923  30.947  1.00  0.00     0.006 A 
ENDBRANCH  27  48
BRANCH  39  56
ATOM     56  C   UNL A   1      43.325  35.175  31.161  1.00  0.00     0.057 A 
ATOM     57  C   UNL A   1      43.550  35.370  32.529  1.00  0.00     0.134 A 
ATOM     58  C   UNL A   1      43.572  36.255  30.303  1.00  0.00     0.134 A 
ATOM     59  F   UNL A   1      43.318  34.381  33.405  1.00  0.00    -0.206 F 
ATOM     60  C   UNL A   1      44.001  36.595  33.024  1.00  0.00     0.040 A 
ATOM     61  C   UNL A   1      44.047  37.476  30.784  1.00  0.00     0.040 A 
ATOM     62  F   UNL A   1      43.380  36.132  28.981  1.00  0.00    -0.206 F 
ATOM     63  C   UNL A   1      44.262  37.648  32.150  1.00  0.00     0.006 A 
ENDBRANCH  39  56
ENDBRANCH  13  14
ENDBRANCH   6   8
ENDBRANCH   3   4
ENDBRANCH   2   3
ENDBRANCH   1   2
BRANCH   1  64
ATOM     64  C   UNL A   1      34.119  23.499  22.304  1.00  0.00     0.116 C 
BRANCH  64  65
ATOM     65  N   UNL A   1      32.728  23.701  22.671  1.00  0.00    -0.356 N 
ATOM     66  C   UNL A   1      32.020  23.301  23.763  1.00  0.00     0.223 C 
ATOM     67  H   UNL A   1      32.207  24.218  22.014  1.00  0.00     0.163 HD
ATOM     68  O   UNL A   1      30.797  23.372  23.671  1.00  0.00    -0.275 OA
BRANCH  66  69
ATOM     69  C   UNL A   1      32.751  22.818  25.011  1.00  0.00     0.091 C 
ATOM     70  C   UNL A   1      32.386  21.378  25.398  1.00  0.00     0.014 C 
ATOM     71  C   UNL A   1      32.666  23.802  26.215  1.00  0.00     0.091 C 
ATOM     72  C   UNL A   1      33.274  20.878  26.542  1.00  0.00     0.001 C 
ATOM     73  C   UNL A   1      33.678  23.266  27.254  1.00  0.00     0.014 C 
ATOM     74  C   UNL A   1      33.329  21.852  27.712  1.00  0.00     0.001 C 
BRANCH  71  75
ATOM     75  C   UNL A   1      31.245  23.962  26.800  1.00  0.00     0.228 C 
ATOM     76  O   UNL A   1      30.714  23.090  27.492  1.00  0.00    -0.274 OA
ATOM     77  N   UNL A   1      30.510  25.105  26.676  1.00  0.00    -0.326 N 
ATOM     78  H   UNL A   1      29.633  25.060  27.121  1.00  0.00     0.169 HD
BRANCH  77  79
ATOM     79  C   UNL A   1      30.754  26.323  26.043  1.00  0.00     0.042 A 
ATOM     80  C   UNL A   1      31.565  27.228  26.735  1.00  0.00     0.039 A 
ATOM     81  C   UNL A   1      30.288  26.644  24.770  1.00  0.00     0.039 A 
ATOM     82  C   UNL A   1      32.025  28.399  26.116  1.00  0.00     0.058 A 
ATOM     83  C   UNL A   1      30.720  27.818  24.133  1.00  0.00     0.058 A 
ATOM     84  C   UNL A   1      31.600  28.682  24.810  1.00  0.00     0.026 A 
BRANCH  82  85
ATOM     85  C   UNL A   1      33.016  29.278  26.839  1.00  0.00     0.416 C 
ATOM     86  F   UNL A   1      33.797  29.995  25.986  1.00  0.00    -0.166 F 
ATOM     87  F   UNL A   1      32.401  30.191  27.641  1.00  0.00    -0.166 F 
ATOM     88  F   UNL A   1      33.869  28.589  27.645  1.00  0.00    -0.166 F 
ENDBRANCH  82  85
BRANCH  83  89
ATOM     89  C   UNL A   1      30.297  28.132  22.718  1.00  0.00     0.416 C 
ATOM     90  F   UNL A   1      30.788  29.321  22.278  1.00  0.00    -0.166 F 
ATOM     91  F   UNL A   1      30.732  27.193  21.833  1.00  0.00    -0.166 F 
ATOM     92  F   UNL A   1      28.946  28.196  22.557  1.00  0.00    -0.166 F 
ENDBRANCH  83  89
ENDBRANCH  77  79
ENDBRANCH  71  75
ENDBRANCH  66  69
ENDBRANCH  64  65
ENDBRANCH   1  64
TORSDOF 15
ENDMDL
