MODEL 1
REMARK VINA RESULT:     -10.8      0.000      0.000
REMARK SMILES C[C@@](NC(=O)CCOC1CC[NH2+]CC1)(C(=O)NCCCCNC(=O)c1ccc(-c2c3nc(c(-c4c(F)cccc4F)c4ccc([nH]4)c(-c4c(F)cccc4F)c4nc(c(-c5c(F)cccc5F)c5ccc2[nH]5)C=C4)C=C3)cc1)C(F)(F)F
REMARK SMILES IDX 18 1 17 2 15 3 16 4 2 6 1 7 3 8 4 9 5 11 6 12 7 13 8 14 9 15
REMARK SMILES IDX 10 16 14 17 11 18 13 19 12 20 79 23 80 24 81 25 82 26 19 27
REMARK SMILES IDX 20 28 21 29 22 30 23 31 24 33 25 34 26 35 78 36 27 37 77 38
REMARK SMILES IDX 28 39 29 40 30 41 71 42 31 43 76 44 70 45 72 46 32 47 75 48
REMARK SMILES IDX 69 49 68 50 33 52 59 53 42 54 58 55 43 56 46 57 57 58 73 59
REMARK SMILES IDX 44 60 45 61 56 63 74 64 47 65 34 66 35 67 40 68 36 69 37 70
REMARK SMILES IDX 39 71 41 72 38 73 60 74 61 75 66 76 62 77 63 78 65 79 67 80
REMARK SMILES IDX 64 81 48 82 49 83 54 84 50 85 51 86 53 87 55 88 52 89
REMARK H PARENT 17 5 3 10 12 21 12 22 22 32 72 51 46 62
REMARK Flexibility Score: inf
ROOT
ATOM      1  C   UNL A   1      34.840  21.423  25.469  1.00  0.00     0.116 C 
ENDROOT
BRANCH   1   2
ATOM      2  N   UNL A   1      33.756  21.027  24.583  1.00  0.00    -0.354 N 
ATOM      3  C   UNL A   1      32.753  21.705  23.951  1.00  0.00     0.254 C 
ATOM      4  O   UNL A   1      32.252  21.066  23.015  1.00  0.00    -0.272 OA
ATOM      5  H   UNL A   1      33.743  20.060  24.399  1.00  0.00     0.163 HD
BRANCH   3   6
ATOM      6  C   UNL A   1      32.314  23.173  24.216  1.00  0.00     0.212 C 
ATOM      7  C   UNL A   1      30.984  23.512  23.515  1.00  0.00     0.056 C 
BRANCH   6   8
ATOM      8  N   UNL A   1      32.139  23.601  25.643  1.00  0.00    -0.334 N 
ATOM      9  C   UNL A   1      31.049  24.077  26.295  1.00  0.00     0.223 C 
ATOM     10  H   UNL A   1      32.950  23.523  26.197  1.00  0.00     0.164 HD
ATOM     11  O   UNL A   1      30.715  23.492  27.326  1.00  0.00    -0.275 OA
BRANCH   9  12
ATOM     12  C   UNL A   1      30.353  25.338  25.856  1.00  0.00     0.128 C 
BRANCH  12  13
ATOM     13  C   UNL A   1      31.118  26.645  26.038  1.00  0.00     0.170 C 
BRANCH  13  14
ATOM     14  O   UNL A   1      32.103  26.961  25.052  1.00  0.00    -0.377 OA
BRANCH  14  15
ATOM     15  C   UNL A   1      32.516  28.335  24.988  1.00  0.00     0.129 C 
ATOM     16  C   UNL A   1      31.325  29.191  24.574  1.00  0.00     0.093 C 
ATOM     17  C   UNL A   1      33.667  28.532  23.999  1.00  0.00     0.093 C 
ATOM     18  C   UNL A   1      30.950  28.922  23.123  1.00  0.00     0.263 C 
ATOM     19  C   UNL A   1      33.224  28.340  22.557  1.00  0.00     0.263 C 
ATOM     20  N   UNL A   1      32.081  29.193  22.232  1.00  0.00    -0.346 N 
ATOM     21  H   UNL A   1      32.356  30.170  22.331  1.00  0.00     0.346 HD
ATOM     22  H   UNL A   1      31.793  28.997  21.274  1.00  0.00     0.346 HD
ENDBRANCH  14  15
ENDBRANCH  13  14
ENDBRANCH  12  13
ENDBRANCH   9  12
ENDBRANCH   6   8
BRANCH   6  23
ATOM     23  C   UNL A   1      33.408  24.045  23.534  1.00  0.00     0.420 C 
ATOM     24  F   UNL A   1      34.144  23.334  22.650  1.00  0.00    -0.168 F 
ATOM     25  F   UNL A   1      32.815  25.044  22.822  1.00  0.00    -0.168 F 
ATOM     26  F   UNL A   1      34.243  24.646  24.405  1.00  0.00    -0.168 F 
ENDBRANCH   6  23
ENDBRANCH   3   6
ENDBRANCH   1   2
BRANCH   1  27
ATOM     27  C   UNL A   1      36.194  21.622  24.774  1.00  0.00     0.023 C 
BRANCH  27  28
ATOM     28  C   UNL A   1      37.248  20.514  24.915  1.00  0.00     0.023 C 
BRANCH  28  29
ATOM     29  C   UNL A   1      38.542  20.853  25.656  1.00  0.00     0.116 C 
BRANCH  29  30
ATOM     30  N   UNL A   1      39.555  19.810  25.600  1.00  0.00    -0.352 N 
ATOM     31  C   UNL A   1      40.869  19.794  26.009  1.00  0.00     0.251 C 
ATOM     32  H   UNL A   1      39.245  18.966  25.197  1.00  0.00     0.163 HD
ATOM     33  O   UNL A   1      41.542  18.783  25.819  1.00  0.00    -0.269 OA
BRANCH  31  34
ATOM     34  C   UNL A   1      41.512  20.985  26.615  1.00  0.00     0.039 A 
ATOM     35  C   UNL A   1      42.054  21.952  25.760  1.00  0.00     0.014 A 
ATOM     36  C   UNL A   1      41.602  21.162  27.997  1.00  0.00     0.014 A 
ATOM     37  C   UNL A   1      42.573  23.141  26.282  1.00  0.00     0.010 A 
ATOM     38  C   UNL A   1      42.062  22.376  28.516  1.00  0.00     0.010 A 
ATOM     39  C   UNL A   1      42.524  23.390  27.664  1.00  0.00    -0.014 A 
BRANCH  39  40
ATOM     40  C   UNL A   1      42.879  24.727  28.216  1.00  0.00     0.031 A 
ATOM     41  C   UNL A   1      41.830  25.781  28.436  1.00  0.00     0.074 A 
ATOM     42  C   UNL A   1      44.175  25.024  28.442  1.00  0.00     0.049 A 
ATOM     43  N   UNL A   1      41.976  27.025  28.824  1.00  0.00    -0.248 NA
ATOM     44  C   UNL A   1      40.438  25.395  28.165  1.00  0.00     0.031 C 
ATOM     45  C   UNL A   1      45.303  24.116  28.225  1.00  0.00     0.029 A 
ATOM     46  N   UNL A   1      44.766  26.180  28.892  1.00  0.00    -0.354 N 
ATOM     47  C   UNL A   1      40.700  27.573  28.829  1.00  0.00     0.074 A 
ATOM     48  C   UNL A   1      39.797  26.539  28.367  1.00  0.00     0.031 C 
ATOM     49  C   UNL A   1      46.443  24.741  28.553  1.00  0.00     0.029 A 
ATOM     50  C   UNL A   1      46.135  26.105  28.971  1.00  0.00     0.049 A 
ATOM     51  H   UNL A   1      44.256  26.987  29.135  1.00  0.00     0.167 HD
ATOM     52  C   UNL A   1      40.312  28.818  29.199  1.00  0.00     0.037 A 
ATOM     53  C   UNL A   1      47.047  27.030  29.329  1.00  0.00     0.037 A 
ATOM     54  C   UNL A   1      41.203  29.844  29.681  1.00  0.00     0.049 A 
ATOM     55  C   UNL A   1      46.592  28.402  29.740  1.00  0.00     0.074 A 
ATOM     56  C   UNL A   1      40.889  31.116  30.131  1.00  0.00     0.029 A 
ATOM     57  N   UNL A   1      42.580  29.718  29.773  1.00  0.00    -0.354 N 
ATOM     58  N   UNL A   1      45.375  28.884  29.795  1.00  0.00    -0.248 NA
ATOM     59  C   UNL A   1      47.636  29.355  30.140  1.00  0.00     0.031 C 
ATOM     60  C   UNL A   1      42.081  31.770  30.465  1.00  0.00     0.029 A 
ATOM     61  C   UNL A   1      43.132  30.892  30.258  1.00  0.00     0.049 A 
ATOM     62  H   UNL A   1      43.091  28.912  29.530  1.00  0.00     0.167 HD
ATOM     63  C   UNL A   1      45.504  30.186  30.262  1.00  0.00     0.074 A 
ATOM     64  C   UNL A   1      46.917  30.415  30.484  1.00  0.00     0.031 C 
ATOM     65  C   UNL A   1      44.537  31.108  30.484  1.00  0.00     0.037 A 
BRANCH  52  66
ATOM     66  C   UNL A   1      38.850  29.141  29.104  1.00  0.00     0.057 A 
ATOM     67  C   UNL A   1      38.002  29.040  30.215  1.00  0.00     0.134 A 
ATOM     68  C   UNL A   1      38.292  29.594  27.902  1.00  0.00     0.134 A 
ATOM     69  F   UNL A   1      38.473  28.604  31.393  1.00  0.00    -0.206 F 
ATOM     70  C   UNL A   1      36.645  29.354  30.126  1.00  0.00     0.040 A 
ATOM     71  C   UNL A   1      36.941  29.934  27.808  1.00  0.00     0.040 A 
ATOM     72  F   UNL A   1      39.051  29.723  26.804  1.00  0.00    -0.206 F 
ATOM     73  C   UNL A   1      36.112  29.807  28.921  1.00  0.00     0.006 A 
ENDBRANCH  52  66
BRANCH  53  74
ATOM     74  C   UNL A   1      48.490  26.685  29.335  1.00  0.00     0.057 A 
ATOM     75  C   UNL A   1      49.083  26.090  30.455  1.00  0.00     0.134 A 
ATOM     76  C   UNL A   1      49.310  26.946  28.232  1.00  0.00     0.134 A 
ATOM     77  F   UNL A   1      48.351  25.834  31.548  1.00  0.00    -0.206 F 
ATOM     78  C   UNL A   1      50.443  25.783  30.485  1.00  0.00     0.040 A 
ATOM     79  C   UNL A   1      50.669  26.624  28.240  1.00  0.00     0.040 A 
ATOM     80  F   UNL A   1      48.800  27.507  27.126  1.00  0.00    -0.206 F 
ATOM     81  C   UNL A   1      51.240  26.046  29.372  1.00  0.00     0.006 A 
ENDBRANCH  53  74
BRANCH  65  82
ATOM     82  C   UNL A   1      44.969  32.439  31.026  1.00  0.00     0.057 A 
ATOM     83  C   UNL A   1      45.278  33.514  30.183  1.00  0.00     0.134 A 
ATOM     84  C   UNL A   1      45.043  32.656  32.407  1.00  0.00     0.134 A 
ATOM     85  F   UNL A   1      45.241  33.366  28.850  1.00  0.00    -0.206 F 
ATOM     86  C   UNL A   1      45.664  34.755  30.696  1.00  0.00     0.040 A 
ATOM     87  C   UNL A   1      45.407  33.897  32.932  1.00  0.00     0.040 A 
ATOM     88  F   UNL A   1      44.756  31.669  33.269  1.00  0.00    -0.206 F 
ATOM     89  C   UNL A   1      45.722  34.949  32.075  1.00  0.00     0.006 A 
ENDBRANCH  65  82
ENDBRANCH  39  40
ENDBRANCH  31  34
ENDBRANCH  29  30
ENDBRANCH  28  29
ENDBRANCH  27  28
ENDBRANCH   1  27
TORSDOF 17
ENDMDL
MODEL 2
REMARK VINA RESULT:     -10.8      4.555      9.633
REMARK SMILES C[C@@](NC(=O)CCOC1CC[NH2+]CC1)(C(=O)NCCCCNC(=O)c1ccc(-c2c3nc(c(-c4c(F)cccc4F)c4ccc([nH]4)c(-c4c(F)cccc4F)c4nc(c(-c5c(F)cccc5F)c5ccc2[nH]5)C=C4)C=C3)cc1)C(F)(F)F
REMARK SMILES IDX 18 1 17 2 15 3 16 4 2 6 1 7 3 8 4 9 5 11 6 12 7 13 8 14 9 15
REMARK SMILES IDX 10 16 14 17 11 18 13 19 12 20 79 23 80 24 81 25 82 26 19 27
REMARK SMILES IDX 20 28 21 29 22 30 23 31 24 33 25 34 26 35 78 36 27 37 77 38
REMARK SMILES IDX 28 39 29 40 30 41 71 42 31 43 76 44 70 45 72 46 32 47 75 48
REMARK SMILES IDX 69 49 68 50 33 52 59 53 42 54 58 55 43 56 46 57 57 58 73 59
REMARK SMILES IDX 44 60 45 61 56 63 74 64 47 65 34 66 35 67 40 68 36 69 37 70
REMARK SMILES IDX 39 71 41 72 38 73 60 74 61 75 66 76 62 77 63 78 65 79 67 80
REMARK SMILES IDX 64 81 48 82 49 83 54 84 50 85 51 86 53 87 55 88 52 89
REMARK H PARENT 17 5 3 10 12 21 12 22 22 32 72 51 46 62
REMARK Flexibility Score: inf
ROOT
ATOM      1  C   UNL A   1      33.146  29.864  25.949  1.00  0.00     0.116 C 
ENDROOT
BRANCH   1   2
ATOM      2  N   UNL A   1      33.245  29.703  24.506  1.00  0.00    -0.354 N 
ATOM      3  C   UNL A   1      32.968  28.680  23.645  1.00  0.00     0.254 C 
ATOM      4  O   UNL A   1      32.855  29.054  22.470  1.00  0.00    -0.272 OA
ATOM      5  H   UNL A   1      33.585  30.507  24.052  1.00  0.00     0.163 HD
BRANCH   3   6
ATOM      6  C   UNL A   1      32.670  27.202  24.025  1.00  0.00     0.212 C 
ATOM      7  C   UNL A   1      32.741  26.266  22.803  1.00  0.00     0.056 C 
BRANCH   6   8
ATOM      8  N   UNL A   1      33.534  26.565  25.073  1.00  0.00    -0.334 N 
ATOM      9  C   UNL A   1      33.762  25.257  25.355  1.00  0.00     0.223 C 
ATOM     10  H   UNL A   1      34.016  27.200  25.651  1.00  0.00     0.164 HD
ATOM     11  O   UNL A   1      34.937  24.888  25.382  1.00  0.00    -0.275 OA
BRANCH   9  12
ATOM     12  C   UNL A   1      32.645  24.325  25.743  1.00  0.00     0.128 C 
BRANCH  12  13
ATOM     13  C   UNL A   1      32.319  23.199  24.766  1.00  0.00     0.170 C 
BRANCH  13  14
ATOM     14  O   UNL A   1      33.292  22.160  24.628  1.00  0.00    -0.377 OA
BRANCH  14  15
ATOM     15  C   UNL A   1      33.555  21.380  25.803  1.00  0.00     0.129 C 
ATOM     16  C   UNL A   1      35.043  21.453  26.124  1.00  0.00     0.093 C 
ATOM     17  C   UNL A   1      33.135  19.920  25.616  1.00  0.00     0.093 C 
ATOM     18  C   UNL A   1      35.855  20.703  25.077  1.00  0.00     0.263 C 
ATOM     19  C   UNL A   1      34.029  19.188  24.628  1.00  0.00     0.263 C 
ATOM     20  N   UNL A   1      35.440  19.300  25.001  1.00  0.00    -0.346 N 
ATOM     21  H   UNL A   1      35.579  18.862  25.910  1.00  0.00     0.346 HD
ATOM     22  H   UNL A   1      36.000  18.834  24.288  1.00  0.00     0.346 HD
ENDBRANCH  14  15
ENDBRANCH  13  14
ENDBRANCH  12  13
ENDBRANCH   9  12
ENDBRANCH   6   8
BRANCH   6  23
ATOM     23  C   UNL A   1      31.186  27.202  24.496  1.00  0.00     0.420 C 
ATOM     24  F   UNL A   1      31.084  27.235  25.844  1.00  0.00    -0.168 F 
ATOM     25  F   UNL A   1      30.564  28.325  24.038  1.00  0.00    -0.168 F 
ATOM     26  F   UNL A   1      30.471  26.158  24.035  1.00  0.00    -0.168 F 
ENDBRANCH   6  23
ENDBRANCH   3   6
ENDBRANCH   1   2
BRANCH   1  27
ATOM     27  C   UNL A   1      31.773  30.335  26.448  1.00  0.00     0.023 C 
BRANCH  27  28
ATOM     28  C   UNL A   1      31.568  31.837  26.690  1.00  0.00     0.023 C 
BRANCH  28  29
ATOM     29  C   UNL A   1      32.754  32.640  27.224  1.00  0.00     0.116 C 
BRANCH  29  30
ATOM     30  N   UNL A   1      32.422  33.994  27.641  1.00  0.00    -0.352 N 
ATOM     31  C   UNL A   1      33.026  34.844  28.539  1.00  0.00     0.251 C 
ATOM     32  H   UNL A   1      31.622  34.367  27.204  1.00  0.00     0.163 HD
ATOM     33  O   UNL A   1      32.525  35.948  28.747  1.00  0.00    -0.269 OA
BRANCH  31  34
ATOM     34  C   UNL A   1      34.228  34.441  29.309  1.00  0.00     0.039 A 
ATOM     35  C   UNL A   1      34.043  33.877  30.577  1.00  0.00     0.014 A 
ATOM     36  C   UNL A   1      35.522  34.614  28.817  1.00  0.00     0.014 A 
ATOM     37  C   UNL A   1      35.137  33.383  31.294  1.00  0.00     0.010 A 
ATOM     38  C   UNL A   1      36.609  34.064  29.503  1.00  0.00     0.010 A 
ATOM     39  C   UNL A   1      36.425  33.416  30.734  1.00  0.00    -0.014 A 
BRANCH  39  40
ATOM     40  C   UNL A   1      37.564  32.713  31.386  1.00  0.00     0.031 A 
ATOM     41  C   UNL A   1      38.252  31.556  30.716  1.00  0.00     0.074 A 
ATOM     42  C   UNL A   1      37.929  33.066  32.636  1.00  0.00     0.049 A 
ATOM     43  N   UNL A   1      39.198  30.776  31.177  1.00  0.00    -0.248 NA
ATOM     44  C   UNL A   1      37.803  31.218  29.357  1.00  0.00     0.031 C 
ATOM     45  C   UNL A   1      37.316  34.136  33.427  1.00  0.00     0.029 A 
ATOM     46  N   UNL A   1      38.895  32.554  33.468  1.00  0.00    -0.354 N 
ATOM     47  C   UNL A   1      39.447  29.847  30.176  1.00  0.00     0.074 A 
ATOM     48  C   UNL A   1      38.525  30.136  29.097  1.00  0.00     0.031 C 
ATOM     49  C   UNL A   1      37.928  34.209  34.618  1.00  0.00     0.029 A 
ATOM     50  C   UNL A   1      38.951  33.172  34.694  1.00  0.00     0.049 A 
ATOM     51  H   UNL A   1      39.491  31.814  33.211  1.00  0.00     0.167 HD
ATOM     52  C   UNL A   1      40.370  28.854  30.148  1.00  0.00     0.037 A 
ATOM     53  C   UNL A   1      39.730  32.928  35.766  1.00  0.00     0.037 A 
ATOM     54  C   UNL A   1      41.305  28.576  31.208  1.00  0.00     0.049 A 
ATOM     55  C   UNL A   1      40.748  31.825  35.709  1.00  0.00     0.074 A 
ATOM     56  C   UNL A   1      42.312  27.625  31.242  1.00  0.00     0.029 A 
ATOM     57  N   UNL A   1      41.348  29.244  32.422  1.00  0.00    -0.354 N 
ATOM     58  N   UNL A   1      41.011  30.995  34.730  1.00  0.00    -0.248 NA
ATOM     59  C   UNL A   1      41.580  31.628  36.905  1.00  0.00     0.031 C 
ATOM     60  C   UNL A   1      42.943  27.697  32.489  1.00  0.00     0.029 A 
ATOM     61  C   UNL A   1      42.353  28.718  33.217  1.00  0.00     0.049 A 
ATOM     62  H   UNL A   1      40.753  29.984  32.681  1.00  0.00     0.167 HD
ATOM     63  C   UNL A   1      42.054  30.196  35.180  1.00  0.00     0.074 A 
ATOM     64  C   UNL A   1      42.384  30.647  36.515  1.00  0.00     0.031 C 
ATOM     65  C   UNL A   1      42.680  29.178  34.541  1.00  0.00     0.037 A 
BRANCH  52  66
ATOM     66  C   UNL A   1      40.419  27.993  28.920  1.00  0.00     0.057 A 
ATOM     67  C   UNL A   1      41.223  28.324  27.822  1.00  0.00     0.134 A 
ATOM     68  C   UNL A   1      39.686  26.802  28.850  1.00  0.00     0.134 A 
ATOM     69  F   UNL A   1      41.943  29.457  27.823  1.00  0.00    -0.206 F 
ATOM     70  C   UNL A   1      41.276  27.514  26.686  1.00  0.00     0.040 A 
ATOM     71  C   UNL A   1      39.750  25.972  27.729  1.00  0.00     0.040 A 
ATOM     72  F   UNL A   1      38.904  26.421  29.871  1.00  0.00    -0.206 F 
ATOM     73  C   UNL A   1      40.542  26.331  26.640  1.00  0.00     0.006 A 
ENDBRANCH  52  66
BRANCH  53  74
ATOM     74  C   UNL A   1      39.592  33.761  36.986  1.00  0.00     0.057 A 
ATOM     75  C   UNL A   1      40.296  34.963  37.120  1.00  0.00     0.134 A 
ATOM     76  C   UNL A   1      38.765  33.375  38.047  1.00  0.00     0.134 A 
ATOM     77  F   UNL A   1      41.119  35.374  36.145  1.00  0.00    -0.206 F 
ATOM     78  C   UNL A   1      40.197  35.744  38.272  1.00  0.00     0.040 A 
ATOM     79  C   UNL A   1      38.638  34.157  39.196  1.00  0.00     0.040 A 
ATOM     80  F   UNL A   1      38.058  32.237  37.975  1.00  0.00    -0.206 F 
ATOM     81  C   UNL A   1      39.362  35.343  39.313  1.00  0.00     0.006 A 
ENDBRANCH  53  74
BRANCH  65  82
ATOM     82  C   UNL A   1      43.809  28.505  35.265  1.00  0.00     0.057 A 
ATOM     83  C   UNL A   1      45.119  28.996  35.208  1.00  0.00     0.134 A 
ATOM     84  C   UNL A   1      43.574  27.375  36.057  1.00  0.00     0.134 A 
ATOM     85  F   UNL A   1      45.413  30.067  34.454  1.00  0.00    -0.206 F 
ATOM     86  C   UNL A   1      46.161  28.372  35.898  1.00  0.00     0.040 A 
ATOM     87  C   UNL A   1      44.603  26.756  36.769  1.00  0.00     0.040 A 
ATOM     88  F   UNL A   1      42.340  26.858  36.158  1.00  0.00    -0.206 F 
ATOM     89  C   UNL A   1      45.902  27.253  36.686  1.00  0.00     0.006 A 
ENDBRANCH  65  82
ENDBRANCH  39  40
ENDBRANCH  31  34
ENDBRANCH  29  30
ENDBRANCH  28  29
ENDBRANCH  27  28
ENDBRANCH   1  27
TORSDOF 17
ENDMDL
MODEL 3
REMARK VINA RESULT:     -10.8      4.460      9.046
REMARK SMILES C[C@@](NC(=O)CCOC1CC[NH2+]CC1)(C(=O)NCCCCNC(=O)c1ccc(-c2c3nc(c(-c4c(F)cccc4F)c4ccc([nH]4)c(-c4c(F)cccc4F)c4nc(c(-c5c(F)cccc5F)c5ccc2[nH]5)C=C4)C=C3)cc1)C(F)(F)F
REMARK SMILES IDX 18 1 17 2 15 3 16 4 2 6 1 7 3 8 4 9 5 11 6 12 7 13 8 14 9 15
REMARK SMILES IDX 10 16 14 17 11 18 13 19 12 20 79 23 80 24 81 25 82 26 19 27
REMARK SMILES IDX 20 28 21 29 22 30 23 31 24 33 25 34 26 35 78 36 27 37 77 38
REMARK SMILES IDX 28 39 29 40 30 41 71 42 31 43 76 44 70 45 72 46 32 47 75 48
REMARK SMILES IDX 69 49 68 50 33 52 59 53 42 54 58 55 43 56 46 57 57 58 73 59
REMARK SMILES IDX 44 60 45 61 56 63 74 64 47 65 34 66 35 67 40 68 36 69 37 70
REMARK SMILES IDX 39 71 41 72 38 73 60 74 61 75 66 76 62 77 63 78 65 79 67 80
REMARK SMILES IDX 64 81 48 82 49 83 54 84 50 85 51 86 53 87 55 88 52 89
REMARK H PARENT 17 5 3 10 12 21 12 22 22 32 72 51 46 62
REMARK Flexibility Score: inf
ROOT
ATOM      1  C   UNL A   1      32.239  28.767  26.682  1.00  0.00     0.116 C 
ENDROOT
BRANCH   1   2
ATOM      2  N   UNL A   1      31.207  27.753  26.525  1.00  0.00    -0.354 N 
ATOM      3  C   UNL A   1      31.143  26.560  25.864  1.00  0.00     0.254 C 
ATOM      4  O   UNL A   1      30.220  25.836  26.261  1.00  0.00    -0.272 OA
ATOM      5  H   UNL A   1      30.374  27.976  26.999  1.00  0.00     0.163 HD
BRANCH   3   6
ATOM      6  C   UNL A   1      32.159  26.024  24.815  1.00  0.00     0.212 C 
ATOM      7  C   UNL A   1      31.652  24.744  24.124  1.00  0.00     0.056 C 
BRANCH   6   8
ATOM      8  N   UNL A   1      32.567  26.948  23.707  1.00  0.00    -0.334 N 
ATOM      9  C   UNL A   1      31.879  27.936  23.081  1.00  0.00     0.223 C 
ATOM     10  H   UNL A   1      33.487  26.816  23.379  1.00  0.00     0.164 HD
ATOM     11  O   UNL A   1      32.405  29.049  23.049  1.00  0.00    -0.275 OA
BRANCH   9  12
ATOM     12  C   UNL A   1      30.592  27.662  22.348  1.00  0.00     0.128 C 
BRANCH  12  13
ATOM     13  C   UNL A   1      29.299  28.032  23.069  1.00  0.00     0.170 C 
BRANCH  13  14
ATOM     14  O   UNL A   1      29.124  29.407  23.420  1.00  0.00    -0.377 OA
BRANCH  14  15
ATOM     15  C   UNL A   1      27.863  29.994  23.065  1.00  0.00     0.129 C 
ATOM     16  C   UNL A   1      27.787  30.124  21.548  1.00  0.00     0.093 C 
ATOM     17  C   UNL A   1      27.678  31.367  23.714  1.00  0.00     0.093 C 
ATOM     18  C   UNL A   1      28.762  31.182  21.052  1.00  0.00     0.263 C 
ATOM     19  C   UNL A   1      28.612  32.412  23.125  1.00  0.00     0.263 C 
ATOM     20  N   UNL A   1      28.482  32.481  21.668  1.00  0.00    -0.346 N 
ATOM     21  H   UNL A   1      27.532  32.764  21.432  1.00  0.00     0.346 HD
ATOM     22  H   UNL A   1      29.157  33.160  21.316  1.00  0.00     0.346 HD
ENDBRANCH  14  15
ENDBRANCH  13  14
ENDBRANCH  12  13
ENDBRANCH   9  12
ENDBRANCH   6   8
BRANCH   6  23
ATOM     23  C   UNL A   1      33.410  25.613  25.646  1.00  0.00     0.420 C 
ATOM     24  F   UNL A   1      33.073  24.922  26.758  1.00  0.00    -0.168 F 
ATOM     25  F   UNL A   1      34.195  24.783  24.903  1.00  0.00    -0.168 F 
ATOM     26  F   UNL A   1      34.189  26.652  26.003  1.00  0.00    -0.168 F 
ENDBRANCH   6  23
ENDBRANCH   3   6
ENDBRANCH   1   2
BRANCH   1  27
ATOM     27  C   UNL A   1      31.930  30.106  25.998  1.00  0.00     0.023 C 
BRANCH  27  28
ATOM     28  C   UNL A   1      31.732  31.343  26.887  1.00  0.00     0.023 C 
BRANCH  28  29
ATOM     29  C   UNL A   1      32.928  32.274  27.087  1.00  0.00     0.116 C 
BRANCH  29  30
ATOM     30  N   UNL A   1      32.577  33.607  27.550  1.00  0.00    -0.352 N 
ATOM     31  C   UNL A   1      33.169  34.434  28.477  1.00  0.00     0.251 C 
ATOM     32  H   UNL A   1      31.773  33.985  27.125  1.00  0.00     0.163 HD
ATOM     33  O   UNL A   1      32.653  35.524  28.722  1.00  0.00    -0.269 OA
BRANCH  31  34
ATOM     34  C   UNL A   1      34.375  34.021  29.235  1.00  0.00     0.039 A 
ATOM     35  C   UNL A   1      34.203  33.210  30.362  1.00  0.00     0.014 A 
ATOM     36  C   UNL A   1      35.661  34.421  28.866  1.00  0.00     0.014 A 
ATOM     37  C   UNL A   1      35.316  32.707  31.043  1.00  0.00     0.010 A 
ATOM     38  C   UNL A   1      36.774  33.868  29.506  1.00  0.00     0.010 A 
ATOM     39  C   UNL A   1      36.614  32.982  30.583  1.00  0.00    -0.014 A 
BRANCH  39  40
ATOM     40  C   UNL A   1      37.798  32.292  31.165  1.00  0.00     0.031 A 
ATOM     41  C   UNL A   1      38.500  31.190  30.422  1.00  0.00     0.074 A 
ATOM     42  C   UNL A   1      38.194  32.604  32.416  1.00  0.00     0.049 A 
ATOM     43  N   UNL A   1      39.488  30.424  30.817  1.00  0.00    -0.248 NA
ATOM     44  C   UNL A   1      38.016  30.894  29.066  1.00  0.00     0.031 C 
ATOM     45  C   UNL A   1      37.574  33.618  33.273  1.00  0.00     0.029 A 
ATOM     46  N   UNL A   1      39.205  32.091  33.193  1.00  0.00    -0.354 N 
ATOM     47  C   UNL A   1      39.733  29.548  29.768  1.00  0.00     0.074 A 
ATOM     48  C   UNL A   1      38.764  29.851  28.734  1.00  0.00     0.031 C 
ATOM     49  C   UNL A   1      38.223  33.662  34.445  1.00  0.00     0.029 A 
ATOM     50  C   UNL A   1      39.283  32.658  34.442  1.00  0.00     0.049 A 
ATOM     51  H   UNL A   1      39.816  31.384  32.883  1.00  0.00     0.167 HD
ATOM     52  C   UNL A   1      40.687  28.591  29.666  1.00  0.00     0.037 A 
ATOM     53  C   UNL A   1      40.107  32.397  35.476  1.00  0.00     0.037 A 
ATOM     54  C   UNL A   1      41.667  28.300  30.681  1.00  0.00     0.049 A 
ATOM     55  C   UNL A   1      41.159  31.333  35.336  1.00  0.00     0.074 A 
ATOM     56  C   UNL A   1      42.706  27.385  30.640  1.00  0.00     0.029 A 
ATOM     57  N   UNL A   1      41.730  28.917  31.921  1.00  0.00    -0.354 N 
ATOM     58  N   UNL A   1      41.414  30.555  34.313  1.00  0.00    -0.248 NA
ATOM     59  C   UNL A   1      42.038  31.114  36.494  1.00  0.00     0.031 C 
ATOM     60  C   UNL A   1      43.377  27.426  31.868  1.00  0.00     0.029 A 
ATOM     61  C   UNL A   1      42.779  28.393  32.659  1.00  0.00     0.049 A 
ATOM     62  H   UNL A   1      41.119  29.624  32.232  1.00  0.00     0.167 HD
ATOM     63  C   UNL A   1      42.499  29.775  34.693  1.00  0.00     0.074 A 
ATOM     64  C   UNL A   1      42.860  30.180  36.035  1.00  0.00     0.031 C 
ATOM     65  C   UNL A   1      43.136  28.808  33.990  1.00  0.00     0.037 A 
BRANCH  52  66
ATOM     66  C   UNL A   1      40.722  27.785  28.401  1.00  0.00     0.057 A 
ATOM     67  C   UNL A   1      41.457  28.202  27.284  1.00  0.00     0.134 A 
ATOM     68  C   UNL A   1      40.046  26.561  28.311  1.00  0.00     0.134 A 
ATOM     69  F   UNL A   1      42.120  29.369  27.304  1.00  0.00    -0.206 F 
ATOM     70  C   UNL A   1      41.498  27.444  26.113  1.00  0.00     0.040 A 
ATOM     71  C   UNL A   1      40.100  25.783  27.153  1.00  0.00     0.040 A 
ATOM     72  F   UNL A   1      39.332  26.099  29.348  1.00  0.00    -0.206 F 
ATOM     73  C   UNL A   1      40.822  26.227  26.047  1.00  0.00     0.006 A 
ENDBRANCH  52  66
BRANCH  53  74
ATOM     74  C   UNL A   1      39.983  33.171  36.735  1.00  0.00     0.057 A 
ATOM     75  C   UNL A   1      39.056  32.803  37.717  1.00  0.00     0.134 A 
ATOM     76  C   UNL A   1      40.775  34.297  36.984  1.00  0.00     0.134 A 
ATOM     77  F   UNL A   1      38.256  31.744  37.526  1.00  0.00    -0.206 F 
ATOM     78  C   UNL A   1      38.909  33.536  38.895  1.00  0.00     0.040 A 
ATOM     79  C   UNL A   1      40.655  35.027  38.167  1.00  0.00     0.040 A 
ATOM     80  F   UNL A   1      41.687  34.696  36.084  1.00  0.00    -0.206 F 
ATOM     81  C   UNL A   1      39.714  34.650  39.124  1.00  0.00     0.006 A 
ENDBRANCH  53  74
BRANCH  65  82
ATOM     82  C   UNL A   1      44.311  28.145  34.646  1.00  0.00     0.057 A 
ATOM     83  C   UNL A   1      44.173  26.964  35.388  1.00  0.00     0.134 A 
ATOM     84  C   UNL A   1      45.600  28.673  34.503  1.00  0.00     0.134 A 
ATOM     85  F   UNL A   1      42.963  26.416  35.574  1.00  0.00    -0.206 F 
ATOM     86  C   UNL A   1      45.275  26.344  35.981  1.00  0.00     0.040 A 
ATOM     87  C   UNL A   1      46.711  28.051  35.073  1.00  0.00     0.040 A 
ATOM     88  F   UNL A   1      45.801  29.799  33.800  1.00  0.00    -0.206 F 
ATOM     89  C   UNL A   1      46.549  26.885  35.818  1.00  0.00     0.006 A 
ENDBRANCH  65  82
ENDBRANCH  39  40
ENDBRANCH  31  34
ENDBRANCH  29  30
ENDBRANCH  28  29
ENDBRANCH  27  28
ENDBRANCH   1  27
TORSDOF 17
ENDMDL
