MODEL 1
REMARK VINA RESULT:     -11.2      0.000      0.000
REMARK SMILES Cc1c(Br)c(C(=O)NCCCCNC(=O)c2ccc(-c3c4nc(c(-c5c(F)cccc5F)c5ccc([nH]5)c(-c5c(F)cccc5F)c5nc(c(-c6c(F)cccc6F)c6ccc3[nH]6)C=C5)C=C4)cc2)nn1CC(F)(F)F
REMARK SMILES IDX 10 1 9 2 8 3 6 4 7 5 5 7 1 8 2 9 3 10 71 11 4 12 70 13 72 14
REMARK SMILES IDX 73 15 74 16 75 17 76 18 11 19 12 20 13 21 14 22 15 24 16 25
REMARK SMILES IDX 17 26 69 27 18 28 68 29 19 30 20 31 21 32 62 33 22 34 67 35
REMARK SMILES IDX 61 36 63 37 23 38 66 39 60 40 59 41 24 43 50 44 33 45 49 46
REMARK SMILES IDX 34 47 37 48 48 49 64 50 35 51 36 52 47 54 65 55 38 56 25 57
REMARK SMILES IDX 26 58 31 59 27 60 28 61 30 62 32 63 29 64 51 65 52 66 57 67
REMARK SMILES IDX 53 68 54 69 56 70 58 71 55 72 39 73 40 74 45 75 41 76 42 77
REMARK SMILES IDX 44 78 46 79 43 80
REMARK H PARENT 8 6 13 23 63 42 37 53
REMARK Flexibility Score: inf
ROOT
ATOM      1  C   UNL A   1      38.974  22.420  26.201  1.00  0.00     0.023 C 
ENDROOT
BRANCH   1   2
ATOM      2  C   UNL A   1      37.694  23.169  25.819  1.00  0.00     0.116 C 
BRANCH   2   3
ATOM      3  N   UNL A   1      37.452  23.188  24.383  1.00  0.00    -0.351 N 
ATOM      4  C   UNL A   1      36.336  22.881  23.624  1.00  0.00     0.272 C 
ATOM      5  O   UNL A   1      36.459  23.019  22.405  1.00  0.00    -0.267 OA
ATOM      6  H   UNL A   1      38.229  23.473  23.850  1.00  0.00     0.163 HD
BRANCH   4   7
ATOM      7  C   UNL A   1      35.078  22.406  24.239  1.00  0.00     0.164 A 
ATOM      8  C   UNL A   1      31.593  22.457  25.551  1.00  0.00     0.067 C 
ATOM      9  C   UNL A   1      32.979  22.245  25.062  1.00  0.00     0.051 A 
ATOM     10  C   UNL A   1      33.900  23.140  24.550  1.00  0.00     0.072 A 
ATOM     11  N   UNL A   1      33.626  21.039  25.028  1.00  0.00    -0.259 N 
ATOM     12  Br  UNL A   1      33.624  24.981  24.302  1.00  0.00    -0.046 Br
ATOM     13  N   UNL A   1      34.897  21.132  24.623  1.00  0.00    -0.166 NA
BRANCH  11  14
ATOM     14  C   UNL A   1      33.161  19.721  25.398  1.00  0.00     0.259 C 
BRANCH  14  15
ATOM     15  C   UNL A   1      32.837  18.893  24.179  1.00  0.00     0.408 C 
ATOM     16  F   UNL A   1      32.410  19.622  23.127  1.00  0.00    -0.169 F 
ATOM     17  F   UNL A   1      33.951  18.235  23.767  1.00  0.00    -0.169 F 
ATOM     18  F   UNL A   1      31.904  17.951  24.445  1.00  0.00    -0.169 F 
ENDBRANCH  14  15
ENDBRANCH  11  14
ENDBRANCH   4   7
ENDBRANCH   2   3
ENDBRANCH   1   2
BRANCH   1  19
ATOM     19  C   UNL A   1      39.213  21.090  25.469  1.00  0.00     0.023 C 
BRANCH  19  20
ATOM     20  C   UNL A   1      39.558  19.910  26.371  1.00  0.00     0.116 C 
BRANCH  20  21
ATOM     21  N   UNL A   1      40.761  19.184  25.961  1.00  0.00    -0.352 N 
ATOM     22  C   UNL A   1      42.036  19.692  25.759  1.00  0.00     0.251 C 
ATOM     23  H   UNL A   1      40.652  18.218  25.809  1.00  0.00     0.163 HD
ATOM     24  O   UNL A   1      42.852  19.109  25.068  1.00  0.00    -0.269 OA
BRANCH  22  25
ATOM     25  C   UNL A   1      42.393  20.961  26.422  1.00  0.00     0.039 A 
ATOM     26  C   UNL A   1      42.816  22.082  25.701  1.00  0.00     0.014 A 
ATOM     27  C   UNL A   1      42.249  21.013  27.802  1.00  0.00     0.014 A 
ATOM     28  C   UNL A   1      43.001  23.285  26.382  1.00  0.00     0.010 A 
ATOM     29  C   UNL A   1      42.261  22.225  28.437  1.00  0.00     0.010 A 
ATOM     30  C   UNL A   1      42.699  23.353  27.750  1.00  0.00    -0.014 A 
BRANCH  30  31
ATOM     31  C   UNL A   1      42.705  24.621  28.473  1.00  0.00     0.031 A 
ATOM     32  C   UNL A   1      41.548  25.504  28.160  1.00  0.00     0.074 A 
ATOM     33  C   UNL A   1      43.527  24.844  29.524  1.00  0.00     0.049 A 
ATOM     34  N   UNL A   1      41.559  26.639  27.545  1.00  0.00    -0.248 NA
ATOM     35  C   UNL A   1      40.191  24.992  28.424  1.00  0.00     0.031 C 
ATOM     36  C   UNL A   1      44.478  23.902  30.134  1.00  0.00     0.029 A 
ATOM     37  N   UNL A   1      43.607  25.920  30.357  1.00  0.00    -0.354 N 
ATOM     38  C   UNL A   1      40.240  27.097  27.563  1.00  0.00     0.074 A 
ATOM     39  C   UNL A   1      39.433  25.960  27.905  1.00  0.00     0.031 C 
ATOM     40  C   UNL A   1      44.843  24.345  31.355  1.00  0.00     0.029 A 
ATOM     41  C   UNL A   1      44.310  25.681  31.535  1.00  0.00     0.049 A 
ATOM     42  H   UNL A   1      43.203  26.792  30.144  1.00  0.00     0.167 HD
ATOM     43  C   UNL A   1      39.975  28.433  27.607  1.00  0.00     0.037 A 
ATOM     44  C   UNL A   1      44.442  26.521  32.590  1.00  0.00     0.037 A 
ATOM     45  C   UNL A   1      41.170  29.184  27.299  1.00  0.00     0.049 A 
ATOM     46  C   UNL A   1      44.129  27.880  32.101  1.00  0.00     0.074 A 
ATOM     47  C   UNL A   1      41.977  29.389  26.203  1.00  0.00     0.029 A 
ATOM     48  N   UNL A   1      41.887  29.562  28.404  1.00  0.00    -0.354 N 
ATOM     49  N   UNL A   1      44.872  28.532  31.253  1.00  0.00    -0.248 NA
ATOM     50  C   UNL A   1      42.777  28.390  32.270  1.00  0.00     0.031 C 
ATOM     51  C   UNL A   1      43.286  29.620  26.727  1.00  0.00     0.029 A 
ATOM     52  C   UNL A   1      43.221  29.602  28.120  1.00  0.00     0.049 A 
ATOM     53  H   UNL A   1      41.494  29.776  29.281  1.00  0.00     0.167 HD
ATOM     54  C   UNL A   1      43.970  29.230  30.471  1.00  0.00     0.074 A 
ATOM     55  C   UNL A   1      42.734  29.248  31.246  1.00  0.00     0.031 C 
ATOM     56  C   UNL A   1      44.228  29.440  29.147  1.00  0.00     0.037 A 
BRANCH  43  57
ATOM     57  C   UNL A   1      38.864  29.081  28.433  1.00  0.00     0.057 A 
ATOM     58  C   UNL A   1      38.793  28.772  29.810  1.00  0.00     0.134 A 
ATOM     59  C   UNL A   1      37.702  29.680  27.910  1.00  0.00     0.134 A 
ATOM     60  F   UNL A   1      39.838  28.223  30.449  1.00  0.00    -0.206 F 
ATOM     61  C   UNL A   1      37.619  28.917  30.560  1.00  0.00     0.040 A 
ATOM     62  C   UNL A   1      36.537  29.870  28.664  1.00  0.00     0.040 A 
ATOM     63  F   UNL A   1      37.579  30.038  26.629  1.00  0.00    -0.206 F 
ATOM     64  C   UNL A   1      36.477  29.449  29.981  1.00  0.00     0.006 A 
ENDBRANCH  43  57
BRANCH  44  65
ATOM     65  C   UNL A   1      44.598  26.225  34.030  1.00  0.00     0.057 A 
ATOM     66  C   UNL A   1      43.500  25.841  34.815  1.00  0.00     0.134 A 
ATOM     67  C   UNL A   1      45.866  26.018  34.598  1.00  0.00     0.134 A 
ATOM     68  F   UNL A   1      42.250  25.974  34.346  1.00  0.00    -0.206 F 
ATOM     69  C   UNL A   1      43.654  25.242  36.072  1.00  0.00     0.040 A 
ATOM     70  C   UNL A   1      46.034  25.424  35.855  1.00  0.00     0.040 A 
ATOM     71  F   UNL A   1      46.983  26.298  33.911  1.00  0.00    -0.206 F 
ATOM     72  C   UNL A   1      44.926  25.015  36.588  1.00  0.00     0.006 A 
ENDBRANCH  44  65
BRANCH  56  73
ATOM     73  C   UNL A   1      45.653  29.312  28.695  1.00  0.00     0.057 A 
ATOM     74  C   UNL A   1      46.219  28.151  28.152  1.00  0.00     0.134 A 
ATOM     75  C   UNL A   1      46.456  30.456  28.725  1.00  0.00     0.134 A 
ATOM     76  F   UNL A   1      45.504  27.029  28.009  1.00  0.00    -0.206 F 
ATOM     77  C   UNL A   1      47.541  28.122  27.696  1.00  0.00     0.040 A 
ATOM     78  C   UNL A   1      47.764  30.450  28.241  1.00  0.00     0.040 A 
ATOM     79  F   UNL A   1      45.963  31.615  29.191  1.00  0.00    -0.206 F 
ATOM     80  C   UNL A   1      48.315  29.277  27.734  1.00  0.00     0.006 A 
ENDBRANCH  56  73
ENDBRANCH  30  31
ENDBRANCH  22  25
ENDBRANCH  20  21
ENDBRANCH  19  20
ENDBRANCH   1  19
TORSDOF 13
ENDMDL
MODEL 2
REMARK VINA RESULT:     -11.0      5.093      9.872
REMARK SMILES Cc1c(Br)c(C(=O)NCCCCNC(=O)c2ccc(-c3c4nc(c(-c5c(F)cccc5F)c5ccc([nH]5)c(-c5c(F)cccc5F)c5nc(c(-c6c(F)cccc6F)c6ccc3[nH]6)C=C5)C=C4)cc2)nn1CC(F)(F)F
REMARK SMILES IDX 10 1 9 2 8 3 6 4 7 5 5 7 1 8 2 9 3 10 71 11 4 12 70 13 72 14
REMARK SMILES IDX 73 15 74 16 75 17 76 18 11 19 12 20 13 21 14 22 15 24 16 25
REMARK SMILES IDX 17 26 69 27 18 28 68 29 19 30 20 31 21 32 62 33 22 34 67 35
REMARK SMILES IDX 61 36 63 37 23 38 66 39 60 40 59 41 24 43 50 44 33 45 49 46
REMARK SMILES IDX 34 47 37 48 48 49 64 50 35 51 36 52 47 54 65 55 38 56 25 57
REMARK SMILES IDX 26 58 31 59 27 60 28 61 30 62 32 63 29 64 51 65 52 66 57 67
REMARK SMILES IDX 53 68 54 69 56 70 58 71 55 72 39 73 40 74 45 75 41 76 42 77
REMARK SMILES IDX 44 78 46 79 43 80
REMARK H PARENT 8 6 13 23 63 42 37 53
REMARK Flexibility Score: inf
ROOT
ATOM      1  C   UNL A   1      38.740  32.946  32.019  1.00  0.00     0.023 C 
ENDROOT
BRANCH   1   2
ATOM      2  C   UNL A   1      38.092  34.184  32.646  1.00  0.00     0.116 C 
BRANCH   2   3
ATOM      3  N   UNL A   1      37.094  33.855  33.654  1.00  0.00    -0.351 N 
ATOM      4  C   UNL A   1      35.711  33.806  33.611  1.00  0.00     0.272 C 
ATOM      5  O   UNL A   1      35.152  33.469  34.657  1.00  0.00    -0.267 OA
ATOM      6  H   UNL A   1      37.473  33.624  34.532  1.00  0.00     0.163 HD
BRANCH   4   7
ATOM      7  C   UNL A   1      34.953  34.147  32.388  1.00  0.00     0.164 A 
ATOM      8  C   UNL A   1      32.880  36.106  29.994  1.00  0.00     0.067 C 
ATOM      9  C   UNL A   1      33.722  35.192  30.807  1.00  0.00     0.051 A 
ATOM     10  C   UNL A   1      34.197  35.316  32.100  1.00  0.00     0.072 A 
ATOM     11  N   UNL A   1      34.210  33.985  30.383  1.00  0.00    -0.259 N 
ATOM     12  Br  UNL A   1      33.902  36.776  33.244  1.00  0.00    -0.046 Br
ATOM     13  N   UNL A   1      34.869  33.318  31.335  1.00  0.00    -0.166 NA
BRANCH  11  14
ATOM     14  C   UNL A   1      34.083  33.326  29.102  1.00  0.00     0.259 C 
BRANCH  14  15
ATOM     15  C   UNL A   1      35.181  33.750  28.158  1.00  0.00     0.408 C 
ATOM     16  F   UNL A   1      36.252  34.285  28.779  1.00  0.00    -0.169 F 
ATOM     17  F   UNL A   1      35.630  32.669  27.470  1.00  0.00    -0.169 F 
ATOM     18  F   UNL A   1      34.738  34.639  27.240  1.00  0.00    -0.169 F 
ENDBRANCH  14  15
ENDBRANCH  11  14
ENDBRANCH   4   7
ENDBRANCH   2   3
ENDBRANCH   1   2
BRANCH   1  19
ATOM     19  C   UNL A   1      37.896  32.213  30.964  1.00  0.00     0.023 C 
BRANCH  19  20
ATOM     20  C   UNL A   1      37.290  30.892  31.427  1.00  0.00     0.116 C 
BRANCH  20  21
ATOM     21  N   UNL A   1      36.229  30.390  30.552  1.00  0.00    -0.352 N 
ATOM     22  C   UNL A   1      36.360  29.817  29.295  1.00  0.00     0.251 C 
ATOM     23  H   UNL A   1      35.311  30.470  30.897  1.00  0.00     0.163 HD
ATOM     24  O   UNL A   1      35.431  29.790  28.507  1.00  0.00    -0.269 OA
BRANCH  22  25
ATOM     25  C   UNL A   1      37.660  29.220  28.935  1.00  0.00     0.039 A 
ATOM     26  C   UNL A   1      38.401  29.663  27.834  1.00  0.00     0.014 A 
ATOM     27  C   UNL A   1      38.145  28.218  29.765  1.00  0.00     0.014 A 
ATOM     28  C   UNL A   1      39.681  29.146  27.639  1.00  0.00     0.010 A 
ATOM     29  C   UNL A   1      39.458  27.843  29.675  1.00  0.00     0.010 A 
ATOM     30  C   UNL A   1      40.212  28.251  28.579  1.00  0.00    -0.014 A 
BRANCH  30  31
ATOM     31  C   UNL A   1      41.604  27.816  28.521  1.00  0.00     0.031 A 
ATOM     32  C   UNL A   1      41.815  26.557  27.754  1.00  0.00     0.074 A 
ATOM     33  C   UNL A   1      42.625  28.624  28.887  1.00  0.00     0.049 A 
ATOM     34  N   UNL A   1      42.189  25.406  28.204  1.00  0.00    -0.248 NA
ATOM     35  C   UNL A   1      41.412  26.531  26.336  1.00  0.00     0.031 C 
ATOM     36  C   UNL A   1      42.543  30.022  29.341  1.00  0.00     0.029 A 
ATOM     37  N   UNL A   1      43.970  28.418  28.819  1.00  0.00    -0.354 N 
ATOM     38  C   UNL A   1      42.303  24.577  27.087  1.00  0.00     0.074 A 
ATOM     39  C   UNL A   1      41.607  25.247  26.026  1.00  0.00     0.031 C 
ATOM     40  C   UNL A   1      43.760  30.600  29.267  1.00  0.00     0.029 A 
ATOM     41  C   UNL A   1      44.734  29.575  28.948  1.00  0.00     0.049 A 
ATOM     42  H   UNL A   1      44.368  27.527  28.690  1.00  0.00     0.167 HD
ATOM     43  C   UNL A   1      43.229  23.576  27.064  1.00  0.00     0.037 A 
ATOM     44  C   UNL A   1      46.077  29.686  28.798  1.00  0.00     0.037 A 
ATOM     45  C   UNL A   1      43.742  23.347  28.395  1.00  0.00     0.049 A 
ATOM     46  C   UNL A   1      46.641  28.328  28.945  1.00  0.00     0.074 A 
ATOM     47  C   UNL A   1      43.262  22.864  29.591  1.00  0.00     0.029 A 
ATOM     48  N   UNL A   1      44.891  24.040  28.672  1.00  0.00    -0.354 N 
ATOM     49  N   UNL A   1      46.636  27.660  30.064  1.00  0.00    -0.248 NA
ATOM     50  C   UNL A   1      46.891  27.541  27.747  1.00  0.00     0.031 C 
ATOM     51  C   UNL A   1      44.005  23.541  30.605  1.00  0.00     0.029 A 
ATOM     52  C   UNL A   1      44.945  24.371  29.995  1.00  0.00     0.049 A 
ATOM     53  H   UNL A   1      45.583  24.266  28.009  1.00  0.00     0.167 HD
ATOM     54  C   UNL A   1      46.435  26.348  29.680  1.00  0.00     0.074 A 
ATOM     55  C   UNL A   1      46.778  26.312  28.262  1.00  0.00     0.031 C 
ATOM     56  C   UNL A   1      45.709  25.504  30.470  1.00  0.00     0.037 A 
BRANCH  43  57
ATOM     57  C   UNL A   1      44.071  23.187  25.849  1.00  0.00     0.057 A 
ATOM     58  C   UNL A   1      44.209  21.814  25.550  1.00  0.00     0.134 A 
ATOM     59  C   UNL A   1      45.001  24.022  25.200  1.00  0.00     0.134 A 
ATOM     60  F   UNL A   1      43.374  20.905  26.075  1.00  0.00    -0.206 F 
ATOM     61  C   UNL A   1      45.268  21.308  24.784  1.00  0.00     0.040 A 
ATOM     62  C   UNL A   1      46.037  23.528  24.398  1.00  0.00     0.040 A 
ATOM     63  F   UNL A   1      45.031  25.347  25.364  1.00  0.00    -0.206 F 
ATOM     64  C   UNL A   1      46.201  22.166  24.222  1.00  0.00     0.006 A 
ENDBRANCH  43  57
BRANCH  44  65
ATOM     65  C   UNL A   1      46.891  30.823  28.319  1.00  0.00     0.057 A 
ATOM     66  C   UNL A   1      46.747  31.321  27.016  1.00  0.00     0.134 A 
ATOM     67  C   UNL A   1      47.605  31.636  29.215  1.00  0.00     0.134 A 
ATOM     68  F   UNL A   1      46.056  30.630  26.096  1.00  0.00    -0.206 F 
ATOM     69  C   UNL A   1      47.242  32.576  26.637  1.00  0.00     0.040 A 
ATOM     70  C   UNL A   1      48.109  32.889  28.849  1.00  0.00     0.040 A 
ATOM     71  F   UNL A   1      47.753  31.280  30.500  1.00  0.00    -0.206 F 
ATOM     72  C   UNL A   1      47.911  33.372  27.561  1.00  0.00     0.006 A 
ENDBRANCH  44  65
BRANCH  56  73
ATOM     73  C   UNL A   1      45.544  25.886  31.912  1.00  0.00     0.057 A 
ATOM     74  C   UNL A   1      46.525  25.727  32.900  1.00  0.00     0.134 A 
ATOM     75  C   UNL A   1      44.364  26.537  32.287  1.00  0.00     0.134 A 
ATOM     76  F   UNL A   1      47.716  25.188  32.616  1.00  0.00    -0.206 F 
ATOM     77  C   UNL A   1      46.323  26.163  34.213  1.00  0.00     0.040 A 
ATOM     78  C   UNL A   1      44.164  27.007  33.585  1.00  0.00     0.040 A 
ATOM     79  F   UNL A   1      43.400  26.762  31.381  1.00  0.00    -0.206 F 
ATOM     80  C   UNL A   1      45.141  26.811  34.556  1.00  0.00     0.006 A 
ENDBRANCH  56  73
ENDBRANCH  30  31
ENDBRANCH  22  25
ENDBRANCH  20  21
ENDBRANCH  19  20
ENDBRANCH   1  19
TORSDOF 13
ENDMDL
MODEL 3
REMARK VINA RESULT:     -11.0      4.366      8.358
REMARK SMILES Cc1c(Br)c(C(=O)NCCCCNC(=O)c2ccc(-c3c4nc(c(-c5c(F)cccc5F)c5ccc([nH]5)c(-c5c(F)cccc5F)c5nc(c(-c6c(F)cccc6F)c6ccc3[nH]6)C=C5)C=C4)cc2)nn1CC(F)(F)F
REMARK SMILES IDX 10 1 9 2 8 3 6 4 7 5 5 7 1 8 2 9 3 10 71 11 4 12 70 13 72 14
REMARK SMILES IDX 73 15 74 16 75 17 76 18 11 19 12 20 13 21 14 22 15 24 16 25
REMARK SMILES IDX 17 26 69 27 18 28 68 29 19 30 20 31 21 32 62 33 22 34 67 35
REMARK SMILES IDX 61 36 63 37 23 38 66 39 60 40 59 41 24 43 50 44 33 45 49 46
REMARK SMILES IDX 34 47 37 48 48 49 64 50 35 51 36 52 47 54 65 55 38 56 25 57
REMARK SMILES IDX 26 58 31 59 27 60 28 61 30 62 32 63 29 64 51 65 52 66 57 67
REMARK SMILES IDX 53 68 54 69 56 70 58 71 55 72 39 73 40 74 45 75 41 76 42 77
REMARK SMILES IDX 44 78 46 79 43 80
REMARK H PARENT 8 6 13 23 63 42 37 53
REMARK Flexibility Score: inf
ROOT
ATOM      1  C   UNL A   1      33.430  28.053  26.759  1.00  0.00     0.023 C 
ENDROOT
BRANCH   1   2
ATOM      2  C   UNL A   1      32.306  27.891  25.732  1.00  0.00     0.116 C 
BRANCH   2   3
ATOM      3  N   UNL A   1      32.795  27.588  24.394  1.00  0.00    -0.351 N 
ATOM      4  C   UNL A   1      32.244  27.774  23.138  1.00  0.00     0.272 C 
ATOM      5  O   UNL A   1      32.940  27.414  22.186  1.00  0.00    -0.267 OA
ATOM      6  H   UNL A   1      33.687  27.173  24.379  1.00  0.00     0.163 HD
BRANCH   4   7
ATOM      7  C   UNL A   1      30.898  28.357  22.952  1.00  0.00     0.164 A 
ATOM      8  C   UNL A   1      27.197  28.731  23.123  1.00  0.00     0.067 C 
ATOM      9  C   UNL A   1      28.675  28.761  22.978  1.00  0.00     0.051 A 
ATOM     10  C   UNL A   1      29.631  27.816  23.303  1.00  0.00     0.072 A 
ATOM     11  N   UNL A   1      29.394  29.808  22.467  1.00  0.00    -0.259 N 
ATOM     12  Br  UNL A   1      29.300  26.139  24.080  1.00  0.00    -0.046 Br
ATOM     13  N   UNL A   1      30.702  29.550  22.367  1.00  0.00    -0.166 NA
BRANCH  11  14
ATOM     14  C   UNL A   1      28.951  31.099  21.992  1.00  0.00     0.259 C 
BRANCH  14  15
ATOM     15  C   UNL A   1      28.664  32.035  23.140  1.00  0.00     0.408 C 
ATOM     16  F   UNL A   1      28.973  33.323  22.878  1.00  0.00    -0.169 F 
ATOM     17  F   UNL A   1      27.339  32.006  23.430  1.00  0.00    -0.169 F 
ATOM     18  F   UNL A   1      29.317  31.666  24.264  1.00  0.00    -0.169 F 
ENDBRANCH  14  15
ENDBRANCH  11  14
ENDBRANCH   4   7
ENDBRANCH   2   3
ENDBRANCH   1   2
BRANCH   1  19
ATOM     19  C   UNL A   1      34.002  29.472  26.904  1.00  0.00     0.023 C 
BRANCH  19  20
ATOM     20  C   UNL A   1      35.425  29.542  27.449  1.00  0.00     0.116 C 
BRANCH  20  21
ATOM     21  N   UNL A   1      35.507  30.028  28.827  1.00  0.00    -0.352 N 
ATOM     22  C   UNL A   1      36.431  29.679  29.802  1.00  0.00     0.251 C 
ATOM     23  H   UNL A   1      34.821  30.682  29.095  1.00  0.00     0.163 HD
ATOM     24  O   UNL A   1      36.195  29.831  30.987  1.00  0.00    -0.269 OA
BRANCH  22  25
ATOM     25  C   UNL A   1      37.728  29.129  29.365  1.00  0.00     0.039 A 
ATOM     26  C   UNL A   1      38.436  29.663  28.285  1.00  0.00     0.014 A 
ATOM     27  C   UNL A   1      38.245  28.072  30.104  1.00  0.00     0.014 A 
ATOM     28  C   UNL A   1      39.717  29.180  28.018  1.00  0.00     0.010 A 
ATOM     29  C   UNL A   1      39.559  27.723  29.953  1.00  0.00     0.010 A 
ATOM     30  C   UNL A   1      40.281  28.223  28.874  1.00  0.00    -0.014 A 
BRANCH  30  31
ATOM     31  C   UNL A   1      41.676  27.812  28.749  1.00  0.00     0.031 A 
ATOM     32  C   UNL A   1      41.873  26.567  27.956  1.00  0.00     0.074 A 
ATOM     33  C   UNL A   1      42.699  28.632  29.082  1.00  0.00     0.049 A 
ATOM     34  N   UNL A   1      42.285  25.417  28.374  1.00  0.00    -0.248 NA
ATOM     35  C   UNL A   1      41.409  26.553  26.557  1.00  0.00     0.031 C 
ATOM     36  C   UNL A   1      42.614  30.022  29.558  1.00  0.00     0.029 A 
ATOM     37  N   UNL A   1      44.043  28.449  28.952  1.00  0.00    -0.354 N 
ATOM     38  C   UNL A   1      42.364  24.605  27.241  1.00  0.00     0.074 A 
ATOM     39  C   UNL A   1      41.610  25.277  26.221  1.00  0.00     0.031 C 
ATOM     40  C   UNL A   1      43.818  30.622  29.438  1.00  0.00     0.029 A 
ATOM     41  C   UNL A   1      44.793  29.618  29.063  1.00  0.00     0.049 A 
ATOM     42  H   UNL A   1      44.449  27.567  28.793  1.00  0.00     0.167 HD
ATOM     43  C   UNL A   1      43.303  23.620  27.163  1.00  0.00     0.037 A 
ATOM     44  C   UNL A   1      46.126  29.753  28.855  1.00  0.00     0.037 A 
ATOM     45  C   UNL A   1      43.878  23.382  28.467  1.00  0.00     0.049 A 
ATOM     46  C   UNL A   1      46.718  28.403  28.958  1.00  0.00     0.074 A 
ATOM     47  C   UNL A   1      43.459  22.875  29.676  1.00  0.00     0.029 A 
ATOM     48  N   UNL A   1      45.027  24.090  28.703  1.00  0.00    -0.354 N 
ATOM     49  N   UNL A   1      46.773  27.720  30.067  1.00  0.00    -0.248 NA
ATOM     50  C   UNL A   1      46.928  27.636  27.740  1.00  0.00     0.031 C 
ATOM     51  C   UNL A   1      44.235  23.551  30.667  1.00  0.00     0.029 A 
ATOM     52  C   UNL A   1      45.134  24.405  30.027  1.00  0.00     0.049 A 
ATOM     53  H   UNL A   1      45.685  24.336  28.014  1.00  0.00     0.167 HD
ATOM     54  C   UNL A   1      46.576  26.410  29.674  1.00  0.00     0.074 A 
ATOM     55  C   UNL A   1      46.857  26.399  28.242  1.00  0.00     0.031 C 
ATOM     56  C   UNL A   1      45.900  25.544  30.484  1.00  0.00     0.037 A 
BRANCH  43  57
ATOM     57  C   UNL A   1      44.097  23.261  25.908  1.00  0.00     0.057 A 
ATOM     58  C   UNL A   1      44.216  21.896  25.565  1.00  0.00     0.134 A 
ATOM     59  C   UNL A   1      45.007  24.109  25.247  1.00  0.00     0.134 A 
ATOM     60  F   UNL A   1      43.396  20.976  26.096  1.00  0.00    -0.206 F 
ATOM     61  C   UNL A   1      45.243  21.406  24.747  1.00  0.00     0.040 A 
ATOM     62  C   UNL A   1      46.010  23.633  24.393  1.00  0.00     0.040 A 
ATOM     63  F   UNL A   1      45.051  25.429  25.447  1.00  0.00    -0.206 F 
ATOM     64  C   UNL A   1      46.159  22.276  24.173  1.00  0.00     0.006 A 
ENDBRANCH  43  57
BRANCH  44  65
ATOM     65  C   UNL A   1      46.900  30.910  28.357  1.00  0.00     0.057 A 
ATOM     66  C   UNL A   1      46.741  31.378  27.044  1.00  0.00     0.134 A 
ATOM     67  C   UNL A   1      47.582  31.764  29.239  1.00  0.00     0.134 A 
ATOM     68  F   UNL A   1      46.078  30.646  26.136  1.00  0.00    -0.206 F 
ATOM     69  C   UNL A   1      47.192  32.643  26.643  1.00  0.00     0.040 A 
ATOM     70  C   UNL A   1      48.041  33.028  28.851  1.00  0.00     0.040 A 
ATOM     71  F   UNL A   1      47.739  31.438  30.531  1.00  0.00    -0.206 F 
ATOM     72  C   UNL A   1      47.829  33.480  27.553  1.00  0.00     0.006 A 
ENDBRANCH  44  65
BRANCH  56  73
ATOM     73  C   UNL A   1      45.792  25.904  31.937  1.00  0.00     0.057 A 
ATOM     74  C   UNL A   1      46.818  25.749  32.878  1.00  0.00     0.134 A 
ATOM     75  C   UNL A   1      44.620  26.529  32.372  1.00  0.00     0.134 A 
ATOM     76  F   UNL A   1      48.005  25.234  32.535  1.00  0.00    -0.206 F 
ATOM     77  C   UNL A   1      46.667  26.164  34.205  1.00  0.00     0.040 A 
ATOM     78  C   UNL A   1      44.469  26.979  33.684  1.00  0.00     0.040 A 
ATOM     79  F   UNL A   1      43.613  26.750  31.513  1.00  0.00    -0.206 F 
ATOM     80  C   UNL A   1      45.491  26.787  34.609  1.00  0.00     0.006 A 
ENDBRANCH  56  73
ENDBRANCH  30  31
ENDBRANCH  22  25
ENDBRANCH  20  21
ENDBRANCH  19  20
ENDBRANCH   1  19
TORSDOF 13
ENDMDL
