MODEL 1
REMARK VINA RESULT:     -13.2      0.000      0.000
REMARK SMILES COc1ccccc1[C@@H]1C[N@@H+](Cc2cc3c(cc2C)OCO3)C[C@H]1C(=O)NCCCCNC(=O)c1ccc(-c2c3nc(c(-c4c(F)cccc4F)c4ccc([nH]4)c(-c4c(F)cccc4F)c4nc(c(-c5c(F)cccc5F)c5ccc2[nH]5)C=C4)C=C3)cc1
REMARK SMILES IDX 29 1 28 2 27 3 25 4 26 5 24 7 9 8 10 9 11 10 23 11 8 13 3 14
REMARK SMILES IDX 4 15 5 16 7 17 6 18 2 19 1 20 12 21 13 22 14 23 18 24 15 25
REMARK SMILES IDX 17 26 19 27 16 28 22 29 20 30 21 31 30 32 31 33 32 34 33 35
REMARK SMILES IDX 34 37 35 38 36 39 88 40 37 41 87 42 38 43 39 44 40 45 81 46
REMARK SMILES IDX 41 47 86 48 80 49 82 50 42 51 85 52 79 53 78 54 43 56 69 57
REMARK SMILES IDX 52 58 68 59 53 60 56 61 67 62 83 63 54 64 55 65 66 67 84 68
REMARK SMILES IDX 57 69 44 70 45 71 50 72 46 73 47 74 49 75 51 76 48 77 70 78
REMARK SMILES IDX 71 79 76 80 72 81 73 82 75 83 77 84 74 85 58 86 59 87 64 88
REMARK SMILES IDX 60 89 61 90 63 91 65 92 62 93
REMARK H PARENT 27 6 11 12 32 36 82 55 56 66
REMARK Flexibility Score: inf
ROOT
ATOM      1  C   UNL A   1      34.670  30.926  27.628  1.00  0.00     0.023 C 
ENDROOT
BRANCH   1   2
ATOM      2  C   UNL A   1      34.742  29.406  27.922  1.00  0.00     0.116 C 
BRANCH   2   3
ATOM      3  N   UNL A   1      33.568  28.566  27.444  1.00  0.00    -0.356 N 
ATOM      4  C   UNL A   1      32.983  27.683  26.600  1.00  0.00     0.229 C 
ATOM      5  O   UNL A   1      31.881  27.358  27.110  1.00  0.00    -0.275 OA
ATOM      6  H   UNL A   1      32.857  28.773  28.091  1.00  0.00     0.163 HD
BRANCH   4   7
ATOM      7  C   UNL A   1      33.234  26.979  25.199  1.00  0.00     0.146 C 
ATOM      8  C   UNL A   1      32.691  25.539  24.975  1.00  0.00     0.096 C 
ATOM      9  C   UNL A   1      32.819  25.296  23.455  1.00  0.00     0.272 C 
ATOM     10  N   UNL A   1      32.635  26.599  22.811  1.00  0.00    -0.330 N 
ATOM     11  C   UNL A   1      33.188  27.588  23.772  1.00  0.00     0.276 C 
ATOM     12  H   UNL A   1      33.158  26.739  21.945  1.00  0.00     0.348 HD
BRANCH   8  13
ATOM     13  C   UNL A   1      33.121  24.318  25.774  1.00  0.00     0.004 A 
ATOM     14  C   UNL A   1      32.364  23.665  26.763  1.00  0.00     0.122 A 
ATOM     15  C   UNL A   1      32.961  22.720  27.614  1.00  0.00     0.047 A 
ATOM     16  C   UNL A   1      34.316  22.411  27.504  1.00  0.00     0.004 A 
ATOM     17  C   UNL A   1      34.486  23.958  25.669  1.00  0.00     0.008 A 
ATOM     18  C   UNL A   1      35.081  23.034  26.530  1.00  0.00     0.001 A 
BRANCH  14  19
ATOM     19  O   UNL A   1      31.102  24.049  27.128  1.00  0.00    -0.496 OA
ATOM     20  C   UNL A   1      30.112  23.059  26.882  1.00  0.00     0.278 C 
ENDBRANCH  14  19
ENDBRANCH   8  13
BRANCH  10  21
ATOM     21  C   UNL A   1      31.299  26.774  22.174  1.00  0.00     0.299 C 
BRANCH  21  22
ATOM     22  C   UNL A   1      30.418  27.857  22.772  1.00  0.00     0.013 A 
ATOM     23  C   UNL A   1      30.492  29.234  22.441  1.00  0.00     0.060 A 
ATOM     24  C   UNL A   1      29.319  27.420  23.489  1.00  0.00    -0.038 A 
ATOM     25  C   UNL A   1      29.365  30.017  22.639  1.00  0.00     0.166 A 
ATOM     26  C   UNL A   1      28.146  28.089  23.199  1.00  0.00     0.054 A 
ATOM     27  C   UNL A   1      29.404  26.277  24.450  1.00  0.00     0.045 C 
ATOM     28  C   UNL A   1      28.180  29.413  22.907  1.00  0.00     0.166 A 
ATOM     29  O   UNL A   1      29.184  31.355  22.477  1.00  0.00    -0.454 OA
ATOM     30  O   UNL A   1      27.101  30.225  22.860  1.00  0.00    -0.454 OA
ATOM     31  C   UNL A   1      27.788  31.485  22.864  1.00  0.00     0.468 C 
ENDBRANCH  21  22
ENDBRANCH  10  21
ENDBRANCH   4   7
ENDBRANCH   2   3
ENDBRANCH   1   2
BRANCH   1  32
ATOM     32  C   UNL A   1      33.500  31.794  28.058  1.00  0.00     0.023 C 
BRANCH  32  33
ATOM     33  C   UNL A   1      33.248  32.954  27.100  1.00  0.00     0.116 C 
BRANCH  33  34
ATOM     34  N   UNL A   1      32.662  34.171  27.699  1.00  0.00    -0.352 N 
ATOM     35  C   UNL A   1      33.063  34.977  28.751  1.00  0.00     0.251 C 
ATOM     36  H   UNL A   1      31.828  34.464  27.267  1.00  0.00     0.163 HD
ATOM     37  O   UNL A   1      32.415  35.976  29.057  1.00  0.00    -0.269 OA
BRANCH  35  38
ATOM     38  C   UNL A   1      34.234  34.595  29.562  1.00  0.00     0.039 A 
ATOM     39  C   UNL A   1      34.079  33.964  30.799  1.00  0.00     0.014 A 
ATOM     40  C   UNL A   1      35.497  34.734  29.017  1.00  0.00     0.014 A 
ATOM     41  C   UNL A   1      35.179  33.329  31.387  1.00  0.00     0.010 A 
ATOM     42  C   UNL A   1      36.502  33.899  29.459  1.00  0.00     0.010 A 
ATOM     43  C   UNL A   1      36.384  33.218  30.676  1.00  0.00    -0.014 A 
BRANCH  43  44
ATOM     44  C   UNL A   1      37.573  32.474  31.176  1.00  0.00     0.031 A 
ATOM     45  C   UNL A   1      38.184  32.873  32.501  1.00  0.00     0.074 A 
ATOM     46  C   UNL A   1      38.186  31.549  30.410  1.00  0.00     0.049 A 
ATOM     47  N   UNL A   1      39.337  32.539  33.021  1.00  0.00    -0.248 NA
ATOM     48  C   UNL A   1      37.446  33.869  33.299  1.00  0.00     0.031 C 
ATOM     49  C   UNL A   1      37.780  31.137  29.064  1.00  0.00     0.029 A 
ATOM     50  N   UNL A   1      39.295  30.783  30.665  1.00  0.00    -0.354 N 
ATOM     51  C   UNL A   1      39.487  33.354  34.137  1.00  0.00     0.074 A 
ATOM     52  C   UNL A   1      38.377  34.275  34.145  1.00  0.00     0.031 C 
ATOM     53  C   UNL A   1      38.580  30.142  28.647  1.00  0.00     0.029 A 
ATOM     54  C   UNL A   1      39.578  29.873  29.676  1.00  0.00     0.049 A 
ATOM     55  H   UNL A   1      39.838  30.877  31.481  1.00  0.00     0.167 HD
ATOM     56  C   UNL A   1      40.419  33.298  35.118  1.00  0.00     0.037 A 
ATOM     57  C   UNL A   1      40.522  28.914  29.627  1.00  0.00     0.037 A 
ATOM     58  C   UNL A   1      41.421  32.273  35.189  1.00  0.00     0.049 A 
ATOM     59  C   UNL A   1      41.460  28.761  30.792  1.00  0.00     0.074 A 
ATOM     60  C   UNL A   1      42.336  32.022  36.193  1.00  0.00     0.029 A 
ATOM     61  N   UNL A   1      41.602  31.296  34.220  1.00  0.00    -0.354 N 
ATOM     62  N   UNL A   1      41.555  29.490  31.879  1.00  0.00    -0.248 NA
ATOM     63  C   UNL A   1      42.412  27.643  30.733  1.00  0.00     0.031 C 
ATOM     64  C   UNL A   1      43.078  30.893  35.827  1.00  0.00     0.029 A 
ATOM     65  C   UNL A   1      42.605  30.429  34.609  1.00  0.00     0.049 A 
ATOM     66  H   UNL A   1      41.091  31.231  33.381  1.00  0.00     0.167 HD
ATOM     67  C   UNL A   1      42.549  28.900  32.649  1.00  0.00     0.074 A 
ATOM     68  C   UNL A   1      43.021  27.749  31.906  1.00  0.00     0.031 C 
ATOM     69  C   UNL A   1      43.031  29.276  33.858  1.00  0.00     0.037 A 
BRANCH  56  70
ATOM     70  C   UNL A   1      40.339  34.336  36.203  1.00  0.00     0.057 A 
ATOM     71  C   UNL A   1      39.538  34.164  37.342  1.00  0.00     0.134 A 
ATOM     72  C   UNL A   1      41.033  35.546  36.086  1.00  0.00     0.134 A 
ATOM     73  F   UNL A   1      38.833  33.034  37.513  1.00  0.00    -0.206 F 
ATOM     74  C   UNL A   1      39.373  35.179  38.285  1.00  0.00     0.040 A 
ATOM     75  C   UNL A   1      40.909  36.556  37.045  1.00  0.00     0.040 A 
ATOM     76  F   UNL A   1      41.828  35.779  35.030  1.00  0.00    -0.206 F 
ATOM     77  C   UNL A   1      40.062  36.380  38.137  1.00  0.00     0.006 A 
ENDBRANCH  56  70
BRANCH  57  78
ATOM     78  C   UNL A   1      40.550  27.957  28.492  1.00  0.00     0.057 A 
ATOM     79  C   UNL A   1      39.809  26.771  28.548  1.00  0.00     0.134 A 
ATOM     80  C   UNL A   1      41.289  28.200  27.329  1.00  0.00     0.134 A 
ATOM     81  F   UNL A   1      39.089  26.476  29.641  1.00  0.00    -0.206 F 
ATOM     82  C   UNL A   1      39.814  25.851  27.498  1.00  0.00     0.040 A 
ATOM     83  C   UNL A   1      41.289  27.298  26.263  1.00  0.00     0.040 A 
ATOM     84  F   UNL A   1      42.009  29.325  27.207  1.00  0.00    -0.206 F 
ATOM     85  C   UNL A   1      40.554  26.116  26.348  1.00  0.00     0.006 A 
ENDBRANCH  57  78
BRANCH  69  86
ATOM     86  C   UNL A   1      44.083  28.407  34.475  1.00  0.00     0.057 A 
ATOM     87  C   UNL A   1      43.753  27.303  35.270  1.00  0.00     0.134 A 
ATOM     88  C   UNL A   1      45.439  28.646  34.221  1.00  0.00     0.134 A 
ATOM     89  F   UNL A   1      42.472  27.029  35.556  1.00  0.00    -0.206 F 
ATOM     90  C   UNL A   1      44.739  26.477  35.810  1.00  0.00     0.040 A 
ATOM     91  C   UNL A   1      46.433  27.814  34.736  1.00  0.00     0.040 A 
ATOM     92  F   UNL A   1      45.817  29.683  33.457  1.00  0.00    -0.206 F 
ATOM     93  C   UNL A   1      46.084  26.729  35.536  1.00  0.00     0.006 A 
ENDBRANCH  69  86
ENDBRANCH  43  44
ENDBRANCH  35  38
ENDBRANCH  33  34
ENDBRANCH  32  33
ENDBRANCH   1  32
TORSDOF 15
ENDMDL
MODEL 2
REMARK VINA RESULT:     -13.0      4.769      9.733
REMARK SMILES COc1ccccc1[C@@H]1C[N@@H+](Cc2cc3c(cc2C)OCO3)C[C@H]1C(=O)NCCCCNC(=O)c1ccc(-c2c3nc(c(-c4c(F)cccc4F)c4ccc([nH]4)c(-c4c(F)cccc4F)c4nc(c(-c5c(F)cccc5F)c5ccc2[nH]5)C=C4)C=C3)cc1
REMARK SMILES IDX 29 1 28 2 27 3 25 4 26 5 24 7 9 8 10 9 11 10 23 11 8 13 3 14
REMARK SMILES IDX 4 15 5 16 7 17 6 18 2 19 1 20 12 21 13 22 14 23 18 24 15 25
REMARK SMILES IDX 17 26 19 27 16 28 22 29 20 30 21 31 30 32 31 33 32 34 33 35
REMARK SMILES IDX 34 37 35 38 36 39 88 40 37 41 87 42 38 43 39 44 40 45 81 46
REMARK SMILES IDX 41 47 86 48 80 49 82 50 42 51 85 52 79 53 78 54 43 56 69 57
REMARK SMILES IDX 52 58 68 59 53 60 56 61 67 62 83 63 54 64 55 65 66 67 84 68
REMARK SMILES IDX 57 69 44 70 45 71 50 72 46 73 47 74 49 75 51 76 48 77 70 78
REMARK SMILES IDX 71 79 76 80 72 81 73 82 75 83 77 84 74 85 58 86 59 87 64 88
REMARK SMILES IDX 60 89 61 90 63 91 65 92 62 93
REMARK H PARENT 27 6 11 12 32 36 82 55 56 66
REMARK Flexibility Score: inf
ROOT
ATOM      1  C   UNL A   1      39.529  23.023  26.451  1.00  0.00     0.023 C 
ENDROOT
BRANCH   1   2
ATOM      2  C   UNL A   1      38.310  23.976  26.535  1.00  0.00     0.116 C 
BRANCH   2   3
ATOM      3  N   UNL A   1      37.167  23.703  25.570  1.00  0.00    -0.356 N 
ATOM      4  C   UNL A   1      35.854  23.644  25.244  1.00  0.00     0.229 C 
ATOM      5  O   UNL A   1      35.788  23.458  24.002  1.00  0.00    -0.275 OA
ATOM      6  H   UNL A   1      37.623  23.420  24.745  1.00  0.00     0.163 HD
BRANCH   4   7
ATOM      7  C   UNL A   1      34.420  23.703  25.924  1.00  0.00     0.146 C 
ATOM      8  C   UNL A   1      33.286  24.497  25.216  1.00  0.00     0.096 C 
ATOM      9  C   UNL A   1      31.992  24.088  25.953  1.00  0.00     0.272 C 
ATOM     10  N   UNL A   1      32.186  22.705  26.394  1.00  0.00    -0.330 N 
ATOM     11  C   UNL A   1      33.642  22.588  26.672  1.00  0.00     0.276 C 
ATOM     12  H   UNL A   1      31.722  22.452  27.267  1.00  0.00     0.348 HD
BRANCH   8  13
ATOM     13  C   UNL A   1      33.320  25.992  24.936  1.00  0.00     0.004 A 
ATOM     14  C   UNL A   1      33.523  26.597  23.683  1.00  0.00     0.122 A 
ATOM     15  C   UNL A   1      33.799  27.971  23.588  1.00  0.00     0.047 A 
ATOM     16  C   UNL A   1      33.884  28.766  24.729  1.00  0.00     0.004 A 
ATOM     17  C   UNL A   1      33.383  26.833  26.073  1.00  0.00     0.008 A 
ATOM     18  C   UNL A   1      33.678  28.195  25.976  1.00  0.00     0.001 A 
BRANCH  14  19
ATOM     19  O   UNL A   1      33.703  25.894  22.523  1.00  0.00    -0.496 OA
ATOM     20  C   UNL A   1      32.603  25.982  21.627  1.00  0.00     0.278 C 
ENDBRANCH  14  19
ENDBRANCH   8  13
BRANCH  10  21
ATOM     21  C   UNL A   1      31.453  21.700  25.573  1.00  0.00     0.299 C 
BRANCH  21  22
ATOM     22  C   UNL A   1      32.317  20.697  24.827  1.00  0.00     0.013 A 
ATOM     23  C   UNL A   1      32.882  19.531  25.403  1.00  0.00     0.060 A 
ATOM     24  C   UNL A   1      32.332  20.813  23.449  1.00  0.00    -0.038 A 
ATOM     25  C   UNL A   1      33.199  18.474  24.564  1.00  0.00     0.166 A 
ATOM     26  C   UNL A   1      32.195  19.616  22.774  1.00  0.00     0.054 A 
ATOM     27  C   UNL A   1      32.431  22.141  22.768  1.00  0.00     0.045 C 
ATOM     28  C   UNL A   1      32.748  18.488  23.284  1.00  0.00     0.166 A 
ATOM     29  O   UNL A   1      33.805  17.287  24.835  1.00  0.00    -0.454 OA
ATOM     30  O   UNL A   1      32.906  17.328  22.609  1.00  0.00    -0.454 OA
ATOM     31  C   UNL A   1      33.819  16.685  23.511  1.00  0.00     0.468 C 
ENDBRANCH  21  22
ENDBRANCH  10  21
ENDBRANCH   4   7
ENDBRANCH   2   3
ENDBRANCH   1   2
BRANCH   1  32
ATOM     32  C   UNL A   1      39.398  21.546  26.124  1.00  0.00     0.023 C 
BRANCH  32  33
ATOM     33  C   UNL A   1      40.403  20.686  26.886  1.00  0.00     0.116 C 
BRANCH  33  34
ATOM     34  N   UNL A   1      41.448  20.037  26.068  1.00  0.00    -0.352 N 
ATOM     35  C   UNL A   1      42.710  20.447  25.672  1.00  0.00     0.251 C 
ATOM     36  H   UNL A   1      41.200  19.141  25.744  1.00  0.00     0.163 HD
ATOM     37  O   UNL A   1      43.428  19.707  25.001  1.00  0.00    -0.269 OA
BRANCH  35  38
ATOM     38  C   UNL A   1      43.170  21.812  25.991  1.00  0.00     0.039 A 
ATOM     39  C   UNL A   1      43.028  22.853  25.070  1.00  0.00     0.014 A 
ATOM     40  C   UNL A   1      43.613  22.085  27.271  1.00  0.00     0.014 A 
ATOM     41  C   UNL A   1      43.167  24.176  25.505  1.00  0.00     0.010 A 
ATOM     42  C   UNL A   1      43.493  23.372  27.750  1.00  0.00     0.010 A 
ATOM     43  C   UNL A   1      43.317  24.449  26.874  1.00  0.00    -0.014 A 
BRANCH  43  44
ATOM     44  C   UNL A   1      43.370  25.825  27.441  1.00  0.00     0.031 A 
ATOM     45  C   UNL A   1      44.717  26.475  27.663  1.00  0.00     0.074 A 
ATOM     46  C   UNL A   1      42.252  26.439  27.879  1.00  0.00     0.049 A 
ATOM     47  N   UNL A   1      45.022  27.547  28.348  1.00  0.00    -0.248 NA
ATOM     48  C   UNL A   1      45.893  25.761  27.133  1.00  0.00     0.031 C 
ATOM     49  C   UNL A   1      40.894  25.892  27.835  1.00  0.00     0.029 A 
ATOM     50  N   UNL A   1      42.088  27.674  28.454  1.00  0.00    -0.354 N 
ATOM     51  C   UNL A   1      46.411  27.565  28.403  1.00  0.00     0.074 A 
ATOM     52  C   UNL A   1      46.878  26.343  27.797  1.00  0.00     0.031 C 
ATOM     53  C   UNL A   1      40.031  26.817  28.289  1.00  0.00     0.029 A 
ATOM     54  C   UNL A   1      40.776  28.004  28.691  1.00  0.00     0.049 A 
ATOM     55  H   UNL A   1      42.841  28.268  28.676  1.00  0.00     0.167 HD
ATOM     56  C   UNL A   1      47.237  28.543  28.847  1.00  0.00     0.037 A 
ATOM     57  C   UNL A   1      40.243  29.150  29.155  1.00  0.00     0.037 A 
ATOM     58  C   UNL A   1      46.766  29.822  29.295  1.00  0.00     0.049 A 
ATOM     59  C   UNL A   1      41.162  30.288  29.503  1.00  0.00     0.074 A 
ATOM     60  C   UNL A   1      47.497  30.943  29.640  1.00  0.00     0.029 A 
ATOM     61  N   UNL A   1      45.425  30.158  29.411  1.00  0.00    -0.354 N 
ATOM     62  N   UNL A   1      42.474  30.326  29.488  1.00  0.00    -0.248 NA
ATOM     63  C   UNL A   1      40.529  31.548  29.916  1.00  0.00     0.031 C 
ATOM     64  C   UNL A   1      46.594  31.959  29.974  1.00  0.00     0.029 A 
ATOM     65  C   UNL A   1      45.304  31.476  29.810  1.00  0.00     0.049 A 
ATOM     66  H   UNL A   1      44.672  29.549  29.235  1.00  0.00     0.167 HD
ATOM     67  C   UNL A   1      42.822  31.620  29.854  1.00  0.00     0.074 A 
ATOM     68  C   UNL A   1      41.582  32.336  30.077  1.00  0.00     0.031 C 
ATOM     69  C   UNL A   1      44.054  32.167  29.996  1.00  0.00     0.037 A 
BRANCH  56  70
ATOM     70  C   UNL A   1      48.715  28.269  28.800  1.00  0.00     0.057 A 
ATOM     71  C   UNL A   1      49.483  28.516  27.651  1.00  0.00     0.134 A 
ATOM     72  C   UNL A   1      49.372  27.704  29.899  1.00  0.00     0.134 A 
ATOM     73  F   UNL A   1      48.915  29.043  26.555  1.00  0.00    -0.206 F 
ATOM     74  C   UNL A   1      50.826  28.148  27.573  1.00  0.00     0.040 A 
ATOM     75  C   UNL A   1      50.727  27.368  29.848  1.00  0.00     0.040 A 
ATOM     76  F   UNL A   1      48.706  27.450  31.037  1.00  0.00    -0.206 F 
ATOM     77  C   UNL A   1      51.452  27.573  28.676  1.00  0.00     0.006 A 
ENDBRANCH  56  70
BRANCH  57  78
ATOM     78  C   UNL A   1      38.768  29.315  29.205  1.00  0.00     0.057 A 
ATOM     79  C   UNL A   1      38.045  29.574  28.035  1.00  0.00     0.134 A 
ATOM     80  C   UNL A   1      38.045  29.204  30.397  1.00  0.00     0.134 A 
ATOM     81  F   UNL A   1      38.683  29.703  26.862  1.00  0.00    -0.206 F 
ATOM     82  C   UNL A   1      36.658  29.736  28.049  1.00  0.00     0.040 A 
ATOM     83  C   UNL A   1      36.655  29.344  30.424  1.00  0.00     0.040 A 
ATOM     84  F   UNL A   1      38.677  28.943  31.551  1.00  0.00    -0.206 F 
ATOM     85  C   UNL A   1      35.958  29.616  29.246  1.00  0.00     0.006 A 
ENDBRANCH  57  78
BRANCH  69  86
ATOM     86  C   UNL A   1      44.120  33.618  30.358  1.00  0.00     0.057 A 
ATOM     87  C   UNL A   1      44.110  34.622  29.383  1.00  0.00     0.134 A 
ATOM     88  C   UNL A   1      44.135  34.014  31.701  1.00  0.00     0.134 A 
ATOM     89  F   UNL A   1      44.106  34.303  28.079  1.00  0.00    -0.206 F 
ATOM     90  C   UNL A   1      44.134  35.972  29.731  1.00  0.00     0.040 A 
ATOM     91  C   UNL A   1      44.135  35.361  32.062  1.00  0.00     0.040 A 
ATOM     92  F   UNL A   1      44.134  33.098  32.682  1.00  0.00    -0.206 F 
ATOM     93  C   UNL A   1      44.139  36.344  31.075  1.00  0.00     0.006 A 
ENDBRANCH  69  86
ENDBRANCH  43  44
ENDBRANCH  35  38
ENDBRANCH  33  34
ENDBRANCH  32  33
ENDBRANCH   1  32
TORSDOF 15
ENDMDL
MODEL 3
REMARK VINA RESULT:     -12.9      4.251      8.764
REMARK SMILES COc1ccccc1[C@@H]1C[N@@H+](Cc2cc3c(cc2C)OCO3)C[C@H]1C(=O)NCCCCNC(=O)c1ccc(-c2c3nc(c(-c4c(F)cccc4F)c4ccc([nH]4)c(-c4c(F)cccc4F)c4nc(c(-c5c(F)cccc5F)c5ccc2[nH]5)C=C4)C=C3)cc1
REMARK SMILES IDX 29 1 28 2 27 3 25 4 26 5 24 7 9 8 10 9 11 10 23 11 8 13 3 14
REMARK SMILES IDX 4 15 5 16 7 17 6 18 2 19 1 20 12 21 13 22 14 23 18 24 15 25
REMARK SMILES IDX 17 26 19 27 16 28 22 29 20 30 21 31 30 32 31 33 32 34 33 35
REMARK SMILES IDX 34 37 35 38 36 39 88 40 37 41 87 42 38 43 39 44 40 45 81 46
REMARK SMILES IDX 41 47 86 48 80 49 82 50 42 51 85 52 79 53 78 54 43 56 69 57
REMARK SMILES IDX 52 58 68 59 53 60 56 61 67 62 83 63 54 64 55 65 66 67 84 68
REMARK SMILES IDX 57 69 44 70 45 71 50 72 46 73 47 74 49 75 51 76 48 77 70 78
REMARK SMILES IDX 71 79 76 80 72 81 73 82 75 83 77 84 74 85 58 86 59 87 64 88
REMARK SMILES IDX 60 89 61 90 63 91 65 92 62 93
REMARK H PARENT 27 6 11 12 32 36 82 55 56 66
REMARK Flexibility Score: inf
ROOT
ATOM      1  C   UNL A   1      38.395  22.929  26.370  1.00  0.00     0.023 C 
ENDROOT
BRANCH   1   2
ATOM      2  C   UNL A   1      37.096  23.590  25.842  1.00  0.00     0.116 C 
BRANCH   2   3
ATOM      3  N   UNL A   1      36.715  23.283  24.403  1.00  0.00    -0.356 N 
ATOM      4  C   UNL A   1      35.850  23.280  23.361  1.00  0.00     0.229 C 
ATOM      5  O   UNL A   1      36.503  22.945  22.339  1.00  0.00    -0.275 OA
ATOM      6  H   UNL A   1      37.525  22.867  24.032  1.00  0.00     0.163 HD
BRANCH   4   7
ATOM      7  C   UNL A   1      34.314  23.528  23.043  1.00  0.00     0.146 C 
ATOM      8  C   UNL A   1      33.243  22.869  23.958  1.00  0.00     0.096 C 
ATOM      9  C   UNL A   1      31.914  23.558  23.577  1.00  0.00     0.272 C 
ATOM     10  N   UNL A   1      32.257  24.926  23.179  1.00  0.00    -0.330 N 
ATOM     11  C   UNL A   1      33.607  24.824  22.567  1.00  0.00     0.276 C 
ATOM     12  H   UNL A   1      31.662  25.336  22.458  1.00  0.00     0.348 HD
BRANCH   8  13
ATOM     13  C   UNL A   1      33.061  21.369  24.139  1.00  0.00     0.004 A 
ATOM     14  C   UNL A   1      33.781  20.547  25.023  1.00  0.00     0.122 A 
ATOM     15  C   UNL A   1      33.715  19.149  24.915  1.00  0.00     0.047 A 
ATOM     16  C   UNL A   1      32.943  18.541  23.927  1.00  0.00     0.004 A 
ATOM     17  C   UNL A   1      32.262  20.721  23.166  1.00  0.00     0.008 A 
ATOM     18  C   UNL A   1      32.216  19.330  23.047  1.00  0.00     0.001 A 
BRANCH  14  19
ATOM     19  O   UNL A   1      34.751  21.012  25.870  1.00  0.00    -0.496 OA
ATOM     20  C   UNL A   1      34.246  21.471  27.118  1.00  0.00     0.278 C 
ENDBRANCH  14  19
ENDBRANCH   8  13
BRANCH  10  21
ATOM     21  C   UNL A   1      31.927  25.954  24.207  1.00  0.00     0.299 C 
BRANCH  21  22
ATOM     22  C   UNL A   1      31.592  27.337  23.675  1.00  0.00     0.013 A 
ATOM     23  C   UNL A   1      30.703  27.597  22.601  1.00  0.00     0.060 A 
ATOM     24  C   UNL A   1      31.990  28.404  24.460  1.00  0.00    -0.038 A 
ATOM     25  C   UNL A   1      30.098  28.843  22.538  1.00  0.00     0.166 A 
ATOM     26  C   UNL A   1      31.027  29.380  24.627  1.00  0.00     0.054 A 
ATOM     27  C   UNL A   1      33.336  28.447  25.113  1.00  0.00     0.045 C 
ATOM     28  C   UNL A   1      30.181  29.672  23.608  1.00  0.00     0.166 A 
ATOM     29  O   UNL A   1      29.273  29.374  21.596  1.00  0.00    -0.454 OA
ATOM     30  O   UNL A   1      29.381  30.760  23.553  1.00  0.00    -0.454 OA
ATOM     31  C   UNL A   1      29.034  30.692  22.162  1.00  0.00     0.468 C 
ENDBRANCH  21  22
ENDBRANCH  10  21
ENDBRANCH   4   7
ENDBRANCH   2   3
ENDBRANCH   1   2
BRANCH   1  32
ATOM     32  C   UNL A   1      39.137  21.846  25.607  1.00  0.00     0.023 C 
BRANCH  32  33
ATOM     33  C   UNL A   1      39.204  20.529  26.375  1.00  0.00     0.116 C 
BRANCH  33  34
ATOM     34  N   UNL A   1      40.274  19.597  25.966  1.00  0.00    -0.352 N 
ATOM     35  C   UNL A   1      41.655  19.678  26.027  1.00  0.00     0.251 C 
ATOM     36  H   UNL A   1      39.942  18.757  25.575  1.00  0.00     0.163 HD
ATOM     37  O   UNL A   1      42.356  18.744  25.643  1.00  0.00    -0.269 OA
BRANCH  35  38
ATOM     38  C   UNL A   1      42.295  20.925  26.486  1.00  0.00     0.039 A 
ATOM     39  C   UNL A   1      42.674  21.917  25.578  1.00  0.00     0.014 A 
ATOM     40  C   UNL A   1      42.385  21.169  27.844  1.00  0.00     0.014 A 
ATOM     41  C   UNL A   1      42.972  23.201  26.050  1.00  0.00     0.010 A 
ATOM     42  C   UNL A   1      42.422  22.477  28.279  1.00  0.00     0.010 A 
ATOM     43  C   UNL A   1      42.764  23.514  27.402  1.00  0.00    -0.014 A 
BRANCH  43  44
ATOM     44  C   UNL A   1      42.954  24.876  27.974  1.00  0.00     0.031 A 
ATOM     45  C   UNL A   1      44.345  25.314  28.375  1.00  0.00     0.074 A 
ATOM     46  C   UNL A   1      41.898  25.663  28.259  1.00  0.00     0.049 A 
ATOM     47  N   UNL A   1      44.720  26.339  29.097  1.00  0.00    -0.248 NA
ATOM     48  C   UNL A   1      45.456  24.417  28.006  1.00  0.00     0.031 C 
ATOM     49  C   UNL A   1      40.489  25.332  28.034  1.00  0.00     0.029 A 
ATOM     50  N   UNL A   1      41.854  26.919  28.810  1.00  0.00    -0.354 N 
ATOM     51  C   UNL A   1      46.075  26.143  29.337  1.00  0.00     0.074 A 
ATOM     52  C   UNL A   1      46.422  24.852  28.797  1.00  0.00     0.031 C 
ATOM     53  C   UNL A   1      39.727  26.386  28.370  1.00  0.00     0.029 A 
ATOM     54  C   UNL A   1      40.589  27.452  28.870  1.00  0.00     0.049 A 
ATOM     55  H   UNL A   1      42.654  27.394  29.131  1.00  0.00     0.167 HD
ATOM     56  C   UNL A   1      46.977  26.990  29.889  1.00  0.00     0.037 A 
ATOM     57  C   UNL A   1      40.183  28.675  29.261  1.00  0.00     0.037 A 
ATOM     58  C   UNL A   1      46.655  28.335  30.273  1.00  0.00     0.049 A 
ATOM     59  C   UNL A   1      41.214  29.664  29.731  1.00  0.00     0.074 A 
ATOM     60  C   UNL A   1      47.499  29.336  30.715  1.00  0.00     0.029 A 
ATOM     61  N   UNL A   1      45.379  28.876  30.209  1.00  0.00    -0.354 N 
ATOM     62  N   UNL A   1      42.506  29.499  29.891  1.00  0.00    -0.248 NA
ATOM     63  C   UNL A   1      40.736  31.014  30.058  1.00  0.00     0.031 C 
ATOM     64  C   UNL A   1      46.729  30.485  30.927  1.00  0.00     0.029 A 
ATOM     65  C   UNL A   1      45.413  30.204  30.592  1.00  0.00     0.049 A 
ATOM     66  H   UNL A   1      44.571  28.387  29.933  1.00  0.00     0.167 HD
ATOM     67  C   UNL A   1      43.000  30.730  30.304  1.00  0.00     0.074 A 
ATOM     68  C   UNL A   1      41.868  31.633  30.360  1.00  0.00     0.031 C 
ATOM     69  C   UNL A   1      44.272  31.083  30.610  1.00  0.00     0.037 A 
BRANCH  56  70
ATOM     70  C   UNL A   1      48.387  26.490  30.040  1.00  0.00     0.057 A 
ATOM     71  C   UNL A   1      48.816  25.805  31.188  1.00  0.00     0.134 A 
ATOM     72  C   UNL A   1      49.343  26.739  29.049  1.00  0.00     0.134 A 
ATOM     73  F   UNL A   1      47.956  25.544  32.185  1.00  0.00    -0.206 F 
ATOM     74  C   UNL A   1      50.152  25.450  31.374  1.00  0.00     0.040 A 
ATOM     75  C   UNL A   1      50.677  26.353  29.206  1.00  0.00     0.040 A 
ATOM     76  F   UNL A   1      49.005  27.379  27.918  1.00  0.00    -0.206 F 
ATOM     77  C   UNL A   1      51.087  25.724  30.380  1.00  0.00     0.006 A 
ENDBRANCH  56  70
BRANCH  57  78
ATOM     78  C   UNL A   1      38.759  29.067  29.113  1.00  0.00     0.057 A 
ATOM     79  C   UNL A   1      38.266  29.493  27.874  1.00  0.00     0.134 A 
ATOM     80  C   UNL A   1      37.856  29.013  30.181  1.00  0.00     0.134 A 
ATOM     81  F   UNL A   1      39.086  29.577  26.815  1.00  0.00    -0.206 F 
ATOM     82  C   UNL A   1      36.933  29.869  27.703  1.00  0.00     0.040 A 
ATOM     83  C   UNL A   1      36.514  29.367  30.020  1.00  0.00     0.040 A 
ATOM     84  F   UNL A   1      38.261  28.600  31.391  1.00  0.00    -0.206 F 
ATOM     85  C   UNL A   1      36.051  29.802  28.779  1.00  0.00     0.006 A 
ENDBRANCH  57  78
BRANCH  69  86
ATOM     86  C   UNL A   1      44.514  32.513  30.980  1.00  0.00     0.057 A 
ATOM     87  C   UNL A   1      44.486  32.943  32.312  1.00  0.00     0.134 A 
ATOM     88  C   UNL A   1      44.836  33.456  29.997  1.00  0.00     0.134 A 
ATOM     89  F   UNL A   1      44.174  32.088  33.297  1.00  0.00    -0.206 F 
ATOM     90  C   UNL A   1      44.750  34.270  32.652  1.00  0.00     0.040 A 
ATOM     91  C   UNL A   1      45.126  34.780  30.326  1.00  0.00     0.040 A 
ATOM     92  F   UNL A   1      44.890  33.101  28.704  1.00  0.00    -0.206 F 
ATOM     93  C   UNL A   1      45.078  35.191  31.656  1.00  0.00     0.006 A 
ENDBRANCH  69  86
ENDBRANCH  43  44
ENDBRANCH  35  38
ENDBRANCH  33  34
ENDBRANCH  32  33
ENDBRANCH   1  32
TORSDOF 15
ENDMDL
