MODEL 1
REMARK VINA RESULT:     -13.2      0.000      0.000
REMARK SMILES CS(=O)(=O)c1ccc(C2=NN(c3ccc(C(=O)NCCCCNC(=O)c4ccc(-c5c6nc(c(-c7c(F)cccc7F)c7ccc([nH]7)c(-c7c(F)cccc7F)c7nc(c(-c8c(F)cccc8F)c8ccc5[nH]8)C=C7)C=C6)cc4)cc3)[C@H](c3ccc(F)cc3)C2)cc1
REMARK SMILES IDX 20 1 19 2 18 3 16 4 17 5 15 7 12 8 13 9 81 10 14 11 80 12
REMARK SMILES IDX 11 13 9 14 10 15 90 16 82 17 8 18 5 19 6 20 92 21 7 22 91 23
REMARK SMILES IDX 2 24 1 25 3 26 4 27 83 28 84 29 89 30 85 31 88 32 86 33
REMARK SMILES IDX 87 34 21 35 22 36 23 37 24 38 25 40 26 41 27 42 79 43 28 44
REMARK SMILES IDX 78 45 29 46 30 47 31 48 72 49 32 50 77 51 71 52 73 53 33 54
REMARK SMILES IDX 76 55 70 56 69 57 34 59 60 60 43 61 59 62 44 63 47 64 58 65
REMARK SMILES IDX 74 66 45 67 46 68 57 70 75 71 48 72 35 73 36 74 41 75 37 76
REMARK SMILES IDX 38 77 40 78 42 79 39 80 61 81 62 82 67 83 63 84 64 85 66 86
REMARK SMILES IDX 68 87 65 88 49 89 50 90 55 91 51 92 52 93 54 94 56 95 53 96
REMARK H PARENT 18 6 23 39 73 58 47 69
REMARK Flexibility Score: inf
ROOT
ATOM      1  C   UNL A   1      40.084  20.191  26.584  1.00  0.00     0.023 C 
ENDROOT
BRANCH   1   2
ATOM      2  C   UNL A   1      39.214  21.123  25.736  1.00  0.00     0.116 C 
BRANCH   2   3
ATOM      3  N   UNL A   1      39.508  22.513  26.033  1.00  0.00    -0.352 N 
ATOM      4  C   UNL A   1      38.688  23.616  26.065  1.00  0.00     0.251 C 
ATOM      5  O   UNL A   1      39.165  24.694  26.416  1.00  0.00    -0.269 OA
ATOM      6  H   UNL A   1      40.451  22.697  26.245  1.00  0.00     0.163 HD
BRANCH   4   7
ATOM      7  C   UNL A   1      37.236  23.519  25.765  1.00  0.00     0.039 A 
ATOM      8  C   UNL A   1      34.503  23.596  25.107  1.00  0.00     0.060 A 
ATOM      9  C   UNL A   1      35.474  23.699  24.107  1.00  0.00     0.029 A 
ATOM     10  C   UNL A   1      34.914  23.351  26.417  1.00  0.00     0.029 A 
ATOM     11  C   UNL A   1      36.834  23.659  24.430  1.00  0.00     0.016 A 
ATOM     12  C   UNL A   1      36.266  23.295  26.742  1.00  0.00     0.016 A 
BRANCH   8  13
ATOM     13  N   UNL A   1      33.157  23.737  24.837  1.00  0.00    -0.257 N 
ATOM     14  C   UNL A   1      31.424  24.873  24.423  1.00  0.00     0.071 C 
ATOM     15  N   UNL A   1      32.713  24.889  24.298  1.00  0.00    -0.176 NA
ATOM     16  C   UNL A   1      30.849  23.669  25.121  1.00  0.00     0.091 C 
ATOM     17  C   UNL A   1      32.113  22.793  25.238  1.00  0.00     0.144 C 
BRANCH  14  18
ATOM     18  C   UNL A   1      30.596  25.984  23.932  1.00  0.00    -0.002 A 
ATOM     19  C   UNL A   1      29.121  28.203  23.148  1.00  0.00     0.067 A 
ATOM     20  C   UNL A   1      30.515  28.250  23.080  1.00  0.00     0.021 A 
ATOM     21  C   UNL A   1      28.459  27.061  23.617  1.00  0.00     0.021 A 
ATOM     22  C   UNL A   1      31.251  27.137  23.479  1.00  0.00     0.011 A 
ATOM     23  C   UNL A   1      29.200  25.940  24.000  1.00  0.00     0.011 A 
BRANCH  19  24
ATOM     24  S   UNL A   1      28.184  29.647  22.703  1.00  0.00     0.175 S 
ATOM     25  C   UNL A   1      29.039  30.954  23.544  1.00  0.00     0.163 C 
ATOM     26  O   UNL A   1      26.867  29.512  23.303  1.00  0.00    -0.224 OA
ATOM     27  O   UNL A   1      28.339  29.849  21.279  1.00  0.00    -0.224 OA
ENDBRANCH  19  24
ENDBRANCH  14  18
BRANCH  17  28
ATOM     28  C   UNL A   1      32.191  21.515  24.398  1.00  0.00    -0.023 A 
ATOM     29  C   UNL A   1      32.033  21.475  23.002  1.00  0.00     0.009 A 
ATOM     30  C   UNL A   1      32.482  20.298  25.058  1.00  0.00     0.009 A 
ATOM     31  C   UNL A   1      32.152  20.268  22.300  1.00  0.00     0.039 A 
ATOM     32  C   UNL A   1      32.632  19.102  24.353  1.00  0.00     0.039 A 
ATOM     33  C   UNL A   1      32.459  19.097  22.979  1.00  0.00     0.123 A 
ATOM     34  F   UNL A   1      32.597  17.952  22.298  1.00  0.00    -0.207 F 
ENDBRANCH  17  28
ENDBRANCH   8  13
ENDBRANCH   4   7
ENDBRANCH   2   3
ENDBRANCH   1   2
BRANCH   1  35
ATOM     35  C   UNL A   1      41.094  19.378  25.780  1.00  0.00     0.023 C 
BRANCH  35  36
ATOM     36  C   UNL A   1      42.536  19.834  25.934  1.00  0.00     0.116 C 
BRANCH  36  37
ATOM     37  N   UNL A   1      43.470  19.094  25.097  1.00  0.00    -0.352 N 
ATOM     38  C   UNL A   1      44.593  19.575  24.466  1.00  0.00     0.251 C 
ATOM     39  H   UNL A   1      43.273  18.138  24.967  1.00  0.00     0.163 HD
ATOM     40  O   UNL A   1      45.244  18.874  23.700  1.00  0.00    -0.269 OA
BRANCH  38  41
ATOM     41  C   UNL A   1      44.973  20.980  24.704  1.00  0.00     0.039 A 
ATOM     42  C   UNL A   1      44.590  21.955  23.781  1.00  0.00     0.014 A 
ATOM     43  C   UNL A   1      45.601  21.331  25.901  1.00  0.00     0.014 A 
ATOM     44  C   UNL A   1      44.764  23.302  24.099  1.00  0.00     0.010 A 
ATOM     45  C   UNL A   1      45.699  22.669  26.248  1.00  0.00     0.010 A 
ATOM     46  C   UNL A   1      45.276  23.669  25.356  1.00  0.00    -0.014 A 
BRANCH  46  47
ATOM     47  C   UNL A   1      45.386  25.086  25.778  1.00  0.00     0.031 A 
ATOM     48  C   UNL A   1      46.725  25.765  25.741  1.00  0.00     0.074 A 
ATOM     49  C   UNL A   1      44.317  25.721  26.295  1.00  0.00     0.049 A 
ATOM     50  N   UNL A   1      47.078  26.929  26.218  1.00  0.00    -0.248 NA
ATOM     51  C   UNL A   1      47.825  25.013  25.113  1.00  0.00     0.031 C 
ATOM     52  C   UNL A   1      42.968  25.163  26.410  1.00  0.00     0.029 A 
ATOM     53  N   UNL A   1      44.204  26.974  26.845  1.00  0.00    -0.354 N 
ATOM     54  C   UNL A   1      48.441  27.036  25.977  1.00  0.00     0.074 A 
ATOM     55  C   UNL A   1      48.861  25.800  25.354  1.00  0.00     0.031 C 
ATOM     56  C   UNL A   1      42.161  26.075  26.977  1.00  0.00     0.029 A 
ATOM     57  C   UNL A   1      42.944  27.259  27.315  1.00  0.00     0.049 A 
ATOM     58  H   UNL A   1      44.955  27.608  26.900  1.00  0.00     0.167 HD
ATOM     59  C   UNL A   1      49.266  28.078  26.241  1.00  0.00     0.037 A 
ATOM     60  C   UNL A   1      42.479  28.345  27.963  1.00  0.00     0.037 A 
ATOM     61  C   UNL A   1      48.834  29.315  26.834  1.00  0.00     0.049 A 
ATOM     62  C   UNL A   1      43.422  29.476  28.270  1.00  0.00     0.074 A 
ATOM     63  C   UNL A   1      49.576  30.456  27.076  1.00  0.00     0.029 A 
ATOM     64  N   UNL A   1      47.547  29.569  27.282  1.00  0.00    -0.354 N 
ATOM     65  N   UNL A   1      44.697  29.592  27.984  1.00  0.00    -0.248 NA
ATOM     66  C   UNL A   1      42.865  30.627  28.995  1.00  0.00     0.031 C 
ATOM     67  C   UNL A   1      48.753  31.381  27.725  1.00  0.00     0.029 A 
ATOM     68  C   UNL A   1      47.481  30.839  27.828  1.00  0.00     0.049 A 
ATOM     69  H   UNL A   1      46.792  28.939  27.221  1.00  0.00     0.167 HD
ATOM     70  C   UNL A   1      45.081  30.842  28.453  1.00  0.00     0.074 A 
ATOM     71  C   UNL A   1      43.906  31.446  29.045  1.00  0.00     0.031 C 
ATOM     72  C   UNL A   1      46.297  31.438  28.391  1.00  0.00     0.037 A 
BRANCH  59  73
ATOM     73  C   UNL A   1      50.719  27.915  25.900  1.00  0.00     0.057 A 
ATOM     74  C   UNL A   1      51.206  28.108  24.601  1.00  0.00     0.134 A 
ATOM     75  C   UNL A   1      51.648  27.585  26.895  1.00  0.00     0.134 A 
ATOM     76  F   UNL A   1      50.368  28.413  23.598  1.00  0.00    -0.206 F 
ATOM     77  C   UNL A   1      52.559  27.947  24.297  1.00  0.00     0.040 A 
ATOM     78  C   UNL A   1      53.008  27.454  26.610  1.00  0.00     0.040 A 
ATOM     79  F   UNL A   1      51.252  27.393  28.162  1.00  0.00    -0.206 F 
ATOM     80  C   UNL A   1      53.466  27.626  25.305  1.00  0.00     0.006 A 
ENDBRANCH  59  73
BRANCH  60  81
ATOM     81  C   UNL A   1      41.047  28.430  28.348  1.00  0.00     0.057 A 
ATOM     82  C   UNL A   1      40.624  28.038  29.624  1.00  0.00     0.134 A 
ATOM     83  C   UNL A   1      40.067  28.888  27.459  1.00  0.00     0.134 A 
ATOM     84  F   UNL A   1      41.513  27.572  30.515  1.00  0.00    -0.206 F 
ATOM     85  C   UNL A   1      39.280  28.077  29.995  1.00  0.00     0.040 A 
ATOM     86  C   UNL A   1      38.722  28.958  27.826  1.00  0.00     0.040 A 
ATOM     87  F   UNL A   1      40.405  29.284  26.223  1.00  0.00    -0.206 F 
ATOM     88  C   UNL A   1      38.324  28.544  29.095  1.00  0.00     0.006 A 
ENDBRANCH  60  81
BRANCH  72  89
ATOM     89  C   UNL A   1      46.416  32.839  28.915  1.00  0.00     0.057 A 
ATOM     90  C   UNL A   1      46.755  33.110  30.246  1.00  0.00     0.134 A 
ATOM     91  C   UNL A   1      46.262  33.931  28.051  1.00  0.00     0.134 A 
ATOM     92  F   UNL A   1      46.905  32.110  31.128  1.00  0.00    -0.206 F 
ATOM     93  C   UNL A   1      46.929  34.419  30.701  1.00  0.00     0.040 A 
ATOM     94  C   UNL A   1      46.460  35.241  28.486  1.00  0.00     0.040 A 
ATOM     95  F   UNL A   1      45.945  33.739  26.761  1.00  0.00    -0.206 F 
ATOM     96  C   UNL A   1      46.793  35.487  29.816  1.00  0.00     0.006 A 
ENDBRANCH  72  89
ENDBRANCH  46  47
ENDBRANCH  38  41
ENDBRANCH  36  37
ENDBRANCH  35  36
ENDBRANCH   1  35
TORSDOF 15
ENDMDL
MODEL 2
REMARK VINA RESULT:     -12.7      6.716     11.902
REMARK SMILES CS(=O)(=O)c1ccc(C2=NN(c3ccc(C(=O)NCCCCNC(=O)c4ccc(-c5c6nc(c(-c7c(F)cccc7F)c7ccc([nH]7)c(-c7c(F)cccc7F)c7nc(c(-c8c(F)cccc8F)c8ccc5[nH]8)C=C7)C=C6)cc4)cc3)[C@H](c3ccc(F)cc3)C2)cc1
REMARK SMILES IDX 20 1 19 2 18 3 16 4 17 5 15 7 12 8 13 9 81 10 14 11 80 12
REMARK SMILES IDX 11 13 9 14 10 15 90 16 82 17 8 18 5 19 6 20 92 21 7 22 91 23
REMARK SMILES IDX 2 24 1 25 3 26 4 27 83 28 84 29 89 30 85 31 88 32 86 33
REMARK SMILES IDX 87 34 21 35 22 36 23 37 24 38 25 40 26 41 27 42 79 43 28 44
REMARK SMILES IDX 78 45 29 46 30 47 31 48 72 49 32 50 77 51 71 52 73 53 33 54
REMARK SMILES IDX 76 55 70 56 69 57 34 59 60 60 43 61 59 62 44 63 47 64 58 65
REMARK SMILES IDX 74 66 45 67 46 68 57 70 75 71 48 72 35 73 36 74 41 75 37 76
REMARK SMILES IDX 38 77 40 78 42 79 39 80 61 81 62 82 67 83 63 84 64 85 66 86
REMARK SMILES IDX 68 87 65 88 49 89 50 90 55 91 51 92 52 93 54 94 56 95 53 96
REMARK H PARENT 18 6 23 39 73 58 47 69
REMARK Flexibility Score: inf
ROOT
ATOM      1  C   UNL A   1      32.323  33.503  28.013  1.00  0.00     0.023 C 
ENDROOT
BRANCH   1   2
ATOM      2  C   UNL A   1      32.847  32.311  27.208  1.00  0.00     0.116 C 
BRANCH   2   3
ATOM      3  N   UNL A   1      33.901  31.624  27.932  1.00  0.00    -0.352 N 
ATOM      4  C   UNL A   1      34.358  30.331  27.836  1.00  0.00     0.251 C 
ATOM      5  O   UNL A   1      35.324  29.998  28.520  1.00  0.00    -0.269 OA
ATOM      6  H   UNL A   1      34.364  32.174  28.603  1.00  0.00     0.163 HD
BRANCH   4   7
ATOM      7  C   UNL A   1      33.768  29.362  26.877  1.00  0.00     0.039 A 
ATOM      8  C   UNL A   1      32.754  27.328  25.222  1.00  0.00     0.060 A 
ATOM      9  C   UNL A   1      32.287  27.472  26.531  1.00  0.00     0.029 A 
ATOM     10  C   UNL A   1      33.651  28.273  24.723  1.00  0.00     0.029 A 
ATOM     11  C   UNL A   1      32.788  28.484  27.357  1.00  0.00     0.016 A 
ATOM     12  C   UNL A   1      34.141  29.290  25.535  1.00  0.00     0.016 A 
BRANCH   8  13
ATOM     13  N   UNL A   1      32.361  26.279  24.416  1.00  0.00    -0.257 N 
ATOM     14  C   UNL A   1      32.451  24.277  23.746  1.00  0.00     0.071 C 
ATOM     15  N   UNL A   1      32.660  25.019  24.786  1.00  0.00    -0.176 NA
ATOM     16  C   UNL A   1      32.002  25.003  22.505  1.00  0.00     0.091 C 
ATOM     17  C   UNL A   1      31.775  26.414  23.082  1.00  0.00     0.144 C 
BRANCH  14  18
ATOM     18  C   UNL A   1      32.672  22.824  23.787  1.00  0.00    -0.002 A 
ATOM     19  C   UNL A   1      32.885  20.056  23.877  1.00  0.00     0.067 A 
ATOM     20  C   UNL A   1      32.168  20.654  22.838  1.00  0.00     0.021 A 
ATOM     21  C   UNL A   1      33.486  20.831  24.878  1.00  0.00     0.021 A 
ATOM     22  C   UNL A   1      32.059  22.042  22.800  1.00  0.00     0.011 A 
ATOM     23  C   UNL A   1      33.389  22.224  24.826  1.00  0.00     0.011 A 
BRANCH  19  24
ATOM     24  S   UNL A   1      32.967  18.282  23.963  1.00  0.00     0.175 S 
ATOM     25  C   UNL A   1      34.666  17.979  24.369  1.00  0.00     0.163 C 
ATOM     26  O   UNL A   1      32.724  17.770  22.625  1.00  0.00    -0.224 OA
ATOM     27  O   UNL A   1      32.153  17.861  25.083  1.00  0.00    -0.224 OA
ENDBRANCH  19  24
ENDBRANCH  14  18
BRANCH  17  28
ATOM     28  C   UNL A   1      30.338  26.937  23.175  1.00  0.00    -0.023 A 
ATOM     29  C   UNL A   1      29.286  26.250  23.804  1.00  0.00     0.009 A 
ATOM     30  C   UNL A   1      30.054  28.212  22.632  1.00  0.00     0.009 A 
ATOM     31  C   UNL A   1      28.004  26.811  23.877  1.00  0.00     0.039 A 
ATOM     32  C   UNL A   1      28.785  28.784  22.733  1.00  0.00     0.039 A 
ATOM     33  C   UNL A   1      27.768  28.074  23.350  1.00  0.00     0.123 A 
ATOM     34  F   UNL A   1      26.546  28.615  23.447  1.00  0.00    -0.207 F 
ENDBRANCH  17  28
ENDBRANCH   8  13
ENDBRANCH   4   7
ENDBRANCH   2   3
ENDBRANCH   1   2
BRANCH   1  35
ATOM     35  C   UNL A   1      33.229  34.730  27.971  1.00  0.00     0.023 C 
BRANCH  35  36
ATOM     36  C   UNL A   1      33.827  35.118  29.315  1.00  0.00     0.116 C 
BRANCH  36  37
ATOM     37  N   UNL A   1      32.880  35.782  30.200  1.00  0.00    -0.352 N 
ATOM     38  C   UNL A   1      32.849  35.745  31.574  1.00  0.00     0.251 C 
ATOM     39  H   UNL A   1      32.181  36.320  29.763  1.00  0.00     0.163 HD
ATOM     40  O   UNL A   1      31.936  36.264  32.205  1.00  0.00    -0.269 OA
BRANCH  38  41
ATOM     41  C   UNL A   1      33.929  35.024  32.272  1.00  0.00     0.039 A 
ATOM     42  C   UNL A   1      33.686  33.738  32.759  1.00  0.00     0.014 A 
ATOM     43  C   UNL A   1      35.208  35.584  32.329  1.00  0.00     0.014 A 
ATOM     44  C   UNL A   1      34.752  32.974  33.233  1.00  0.00     0.010 A 
ATOM     45  C   UNL A   1      36.276  34.794  32.725  1.00  0.00     0.010 A 
ATOM     46  C   UNL A   1      36.062  33.480  33.175  1.00  0.00    -0.014 A 
BRANCH  46  47
ATOM     47  C   UNL A   1      37.238  32.669  33.573  1.00  0.00     0.031 A 
ATOM     48  C   UNL A   1      37.952  32.986  34.856  1.00  0.00     0.074 A 
ATOM     49  C   UNL A   1      37.727  31.733  32.737  1.00  0.00     0.049 A 
ATOM     50  N   UNL A   1      39.087  32.523  35.309  1.00  0.00    -0.248 NA
ATOM     51  C   UNL A   1      37.319  33.989  35.729  1.00  0.00     0.031 C 
ATOM     52  C   UNL A   1      37.140  31.349  31.452  1.00  0.00     0.029 A 
ATOM     53  N   UNL A   1      38.848  30.947  32.836  1.00  0.00    -0.354 N 
ATOM     54  C   UNL A   1      39.319  33.198  36.500  1.00  0.00     0.074 A 
ATOM     55  C   UNL A   1      38.232  34.135  36.676  1.00  0.00     0.031 C 
ATOM     56  C   UNL A   1      37.896  30.391  30.891  1.00  0.00     0.029 A 
ATOM     57  C   UNL A   1      39.048  30.130  31.748  1.00  0.00     0.049 A 
ATOM     58  H   UNL A   1      39.453  30.967  33.612  1.00  0.00     0.167 HD
ATOM     59  C   UNL A   1      40.341  33.040  37.374  1.00  0.00     0.037 A 
ATOM     60  C   UNL A   1      40.055  29.281  31.468  1.00  0.00     0.037 A 
ATOM     61  C   UNL A   1      41.403  32.085  37.206  1.00  0.00     0.049 A 
ATOM     62  C   UNL A   1      41.194  29.146  32.442  1.00  0.00     0.074 A 
ATOM     63  C   UNL A   1      42.446  31.798  38.068  1.00  0.00     0.029 A 
ATOM     64  N   UNL A   1      41.561  31.267  36.097  1.00  0.00    -0.354 N 
ATOM     65  N   UNL A   1      41.373  29.745  33.594  1.00  0.00    -0.248 NA
ATOM     66  C   UNL A   1      42.276  28.220  32.075  1.00  0.00     0.031 C 
ATOM     67  C   UNL A   1      43.268  30.847  37.456  1.00  0.00     0.029 A 
ATOM     68  C   UNL A   1      42.701  30.496  36.241  1.00  0.00     0.049 A 
ATOM     69  H   UNL A   1      40.952  31.238  35.323  1.00  0.00     0.167 HD
ATOM     70  C   UNL A   1      42.559  29.237  34.109  1.00  0.00     0.074 A 
ATOM     71  C   UNL A   1      43.060  28.283  33.141  1.00  0.00     0.031 C 
ATOM     72  C   UNL A   1      43.174  29.530  35.280  1.00  0.00     0.037 A 
BRANCH  59  73
ATOM     73  C   UNL A   1      40.363  33.930  38.583  1.00  0.00     0.057 A 
ATOM     74  C   UNL A   1      39.679  33.604  39.761  1.00  0.00     0.134 A 
ATOM     75  C   UNL A   1      41.102  35.120  38.575  1.00  0.00     0.134 A 
ATOM     76  F   UNL A   1      38.941  32.485  39.833  1.00  0.00    -0.206 F 
ATOM     77  C   UNL A   1      39.703  34.444  40.876  1.00  0.00     0.040 A 
ATOM     78  C   UNL A   1      41.160  35.952  39.695  1.00  0.00     0.040 A 
ATOM     79  F   UNL A   1      41.787  35.491  37.482  1.00  0.00    -0.206 F 
ATOM     80  C   UNL A   1      40.452  35.618  40.847  1.00  0.00     0.006 A 
ENDBRANCH  59  73
BRANCH  60  81
ATOM     81  C   UNL A   1      40.029  28.475  30.220  1.00  0.00     0.057 A 
ATOM     82  C   UNL A   1      39.288  27.289  30.150  1.00  0.00     0.134 A 
ATOM     83  C   UNL A   1      40.744  28.855  29.079  1.00  0.00     0.134 A 
ATOM     84  F   UNL A   1      38.597  26.861  31.217  1.00  0.00    -0.206 F 
ATOM     85  C   UNL A   1      39.276  26.499  28.999  1.00  0.00     0.040 A 
ATOM     86  C   UNL A   1      40.720  28.089  27.911  1.00  0.00     0.040 A 
ATOM     87  F   UNL A   1      41.469  29.984  29.077  1.00  0.00    -0.206 F 
ATOM     88  C   UNL A   1      39.990  26.903  27.873  1.00  0.00     0.006 A 
ENDBRANCH  60  81
BRANCH  72  89
ATOM     89  C   UNL A   1      44.422  28.771  35.624  1.00  0.00     0.057 A 
ATOM     90  C   UNL A   1      45.692  29.206  35.228  1.00  0.00     0.134 A 
ATOM     91  C   UNL A   1      44.352  27.626  36.430  1.00  0.00     0.134 A 
ATOM     92  F   UNL A   1      45.828  30.286  34.445  1.00  0.00    -0.206 F 
ATOM     93  C   UNL A   1      46.848  28.524  35.614  1.00  0.00     0.040 A 
ATOM     94  C   UNL A   1      45.501  26.954  36.845  1.00  0.00     0.040 A 
ATOM     95  F   UNL A   1      43.165  27.162  36.850  1.00  0.00    -0.206 F 
ATOM     96  C   UNL A   1      46.753  27.402  36.435  1.00  0.00     0.006 A 
ENDBRANCH  72  89
ENDBRANCH  46  47
ENDBRANCH  38  41
ENDBRANCH  36  37
ENDBRANCH  35  36
ENDBRANCH   1  35
TORSDOF 15
ENDMDL
MODEL 3
REMARK VINA RESULT:     -12.6      4.648      6.839
REMARK SMILES CS(=O)(=O)c1ccc(C2=NN(c3ccc(C(=O)NCCCCNC(=O)c4ccc(-c5c6nc(c(-c7c(F)cccc7F)c7ccc([nH]7)c(-c7c(F)cccc7F)c7nc(c(-c8c(F)cccc8F)c8ccc5[nH]8)C=C7)C=C6)cc4)cc3)[C@H](c3ccc(F)cc3)C2)cc1
REMARK SMILES IDX 20 1 19 2 18 3 16 4 17 5 15 7 12 8 13 9 81 10 14 11 80 12
REMARK SMILES IDX 11 13 9 14 10 15 90 16 82 17 8 18 5 19 6 20 92 21 7 22 91 23
REMARK SMILES IDX 2 24 1 25 3 26 4 27 83 28 84 29 89 30 85 31 88 32 86 33
REMARK SMILES IDX 87 34 21 35 22 36 23 37 24 38 25 40 26 41 27 42 79 43 28 44
REMARK SMILES IDX 78 45 29 46 30 47 31 48 72 49 32 50 77 51 71 52 73 53 33 54
REMARK SMILES IDX 76 55 70 56 69 57 34 59 60 60 43 61 59 62 44 63 47 64 58 65
REMARK SMILES IDX 74 66 45 67 46 68 57 70 75 71 48 72 35 73 36 74 41 75 37 76
REMARK SMILES IDX 38 77 40 78 42 79 39 80 61 81 62 82 67 83 63 84 64 85 66 86
REMARK SMILES IDX 68 87 65 88 49 89 50 90 55 91 51 92 52 93 54 94 56 95 53 96
REMARK H PARENT 18 6 23 39 73 58 47 69
REMARK Flexibility Score: inf
ROOT
ATOM      1  C   UNL A   1      40.879  25.378  26.151  1.00  0.00     0.023 C 
ENDROOT
BRANCH   1   2
ATOM      2  C   UNL A   1      39.551  24.721  26.539  1.00  0.00     0.116 C 
BRANCH   2   3
ATOM      3  N   UNL A   1      39.580  23.297  26.263  1.00  0.00    -0.352 N 
ATOM      4  C   UNL A   1      38.598  22.451  25.806  1.00  0.00     0.251 C 
ATOM      5  O   UNL A   1      38.889  21.278  25.582  1.00  0.00    -0.269 OA
ATOM      6  H   UNL A   1      40.448  22.864  26.431  1.00  0.00     0.163 HD
BRANCH   4   7
ATOM      7  C   UNL A   1      37.226  22.937  25.506  1.00  0.00     0.039 A 
ATOM      8  C   UNL A   1      34.537  23.622  25.050  1.00  0.00     0.060 A 
ATOM      9  C   UNL A   1      35.021  23.487  26.354  1.00  0.00     0.029 A 
ATOM     10  C   UNL A   1      35.435  23.513  23.988  1.00  0.00     0.029 A 
ATOM     11  C   UNL A   1      36.358  23.150  26.585  1.00  0.00     0.016 A 
ATOM     12  C   UNL A   1      36.770  23.191  24.213  1.00  0.00     0.016 A 
BRANCH   8  13
ATOM     13  N   UNL A   1      33.203  23.851  24.784  1.00  0.00    -0.257 N 
ATOM     14  C   UNL A   1      31.531  25.101  24.458  1.00  0.00     0.071 C 
ATOM     15  N   UNL A   1      32.820  25.064  24.343  1.00  0.00    -0.176 NA
ATOM     16  C   UNL A   1      30.891  23.871  25.047  1.00  0.00     0.091 C 
ATOM     17  C   UNL A   1      32.110  22.928  25.097  1.00  0.00     0.144 C 
BRANCH  14  18
ATOM     18  C   UNL A   1      30.762  26.289  24.059  1.00  0.00    -0.002 A 
ATOM     19  C   UNL A   1      29.219  28.417  23.163  1.00  0.00     0.067 A 
ATOM     20  C   UNL A   1      28.587  27.274  23.656  1.00  0.00     0.021 A 
ATOM     21  C   UNL A   1      30.616  28.501  23.104  1.00  0.00     0.021 A 
ATOM     22  C   UNL A   1      29.364  26.207  24.099  1.00  0.00     0.011 A 
ATOM     23  C   UNL A   1      31.393  27.435  23.566  1.00  0.00     0.011 A 
BRANCH  19  24
ATOM     24  S   UNL A   1      28.226  29.752  22.534  1.00  0.00     0.175 S 
ATOM     25  C   UNL A   1      28.784  31.146  23.478  1.00  0.00     0.163 C 
ATOM     26  O   UNL A   1      26.847  29.480  22.904  1.00  0.00    -0.224 OA
ATOM     27  O   UNL A   1      28.600  29.962  21.152  1.00  0.00    -0.224 OA
ENDBRANCH  19  24
ENDBRANCH  14  18
BRANCH  17  28
ATOM     28  C   UNL A   1      32.135  21.724  24.151  1.00  0.00    -0.023 A 
ATOM     29  C   UNL A   1      31.870  21.795  22.773  1.00  0.00     0.009 A 
ATOM     30  C   UNL A   1      32.487  20.462  24.685  1.00  0.00     0.009 A 
ATOM     31  C   UNL A   1      31.946  20.651  21.967  1.00  0.00     0.039 A 
ATOM     32  C   UNL A   1      32.594  19.330  23.875  1.00  0.00     0.039 A 
ATOM     33  C   UNL A   1      32.315  19.433  22.523  1.00  0.00     0.123 A 
ATOM     34  F   UNL A   1      32.411  18.350  21.741  1.00  0.00    -0.207 F 
ENDBRANCH  17  28
ENDBRANCH   8  13
ENDBRANCH   4   7
ENDBRANCH   2   3
ENDBRANCH   1   2
BRANCH   1  35
ATOM     35  C   UNL A   1      41.963  24.389  25.732  1.00  0.00     0.023 C 
BRANCH  35  36
ATOM     36  C   UNL A   1      43.227  25.035  25.186  1.00  0.00     0.116 C 
BRANCH  36  37
ATOM     37  N   UNL A   1      44.426  24.236  25.405  1.00  0.00    -0.352 N 
ATOM     38  C   UNL A   1      45.282  24.287  26.480  1.00  0.00     0.251 C 
ATOM     39  H   UNL A   1      44.649  23.586  24.701  1.00  0.00     0.163 HD
ATOM     40  O   UNL A   1      46.319  23.635  26.501  1.00  0.00    -0.269 OA
BRANCH  38  41
ATOM     41  C   UNL A   1      44.938  25.185  27.598  1.00  0.00     0.039 A 
ATOM     42  C   UNL A   1      45.355  26.516  27.555  1.00  0.00     0.014 A 
ATOM     43  C   UNL A   1      44.102  24.726  28.619  1.00  0.00     0.014 A 
ATOM     44  C   UNL A   1      44.862  27.417  28.500  1.00  0.00     0.010 A 
ATOM     45  C   UNL A   1      43.552  25.638  29.507  1.00  0.00     0.010 A 
ATOM     46  C   UNL A   1      43.920  26.993  29.453  1.00  0.00    -0.014 A 
BRANCH  46  47
ATOM     47  C   UNL A   1      43.292  27.934  30.412  1.00  0.00     0.031 A 
ATOM     48  C   UNL A   1      43.896  28.107  31.777  1.00  0.00     0.074 A 
ATOM     49  C   UNL A   1      42.131  28.541  30.102  1.00  0.00     0.049 A 
ATOM     50  N   UNL A   1      43.423  28.739  32.819  1.00  0.00    -0.248 NA
ATOM     51  C   UNL A   1      45.191  27.446  32.010  1.00  0.00     0.031 C 
ATOM     52  C   UNL A   1      41.431  28.434  28.820  1.00  0.00     0.029 A 
ATOM     53  N   UNL A   1      41.319  29.353  30.855  1.00  0.00    -0.354 N 
ATOM     54  C   UNL A   1      44.343  28.527  33.836  1.00  0.00     0.074 A 
ATOM     55  C   UNL A   1      45.378  27.670  33.301  1.00  0.00     0.031 C 
ATOM     56  C   UNL A   1      40.306  29.166  28.871  1.00  0.00     0.029 A 
ATOM     57  C   UNL A   1      40.176  29.750  30.202  1.00  0.00     0.049 A 
ATOM     58  H   UNL A   1      41.535  29.624  31.776  1.00  0.00     0.167 HD
ATOM     59  C   UNL A   1      44.332  29.014  35.099  1.00  0.00     0.037 A 
ATOM     60  C   UNL A   1      39.134  30.485  30.637  1.00  0.00     0.037 A 
ATOM     61  C   UNL A   1      43.314  29.890  35.614  1.00  0.00     0.049 A 
ATOM     62  C   UNL A   1      39.132  30.990  32.054  1.00  0.00     0.074 A 
ATOM     63  C   UNL A   1      43.249  30.496  36.856  1.00  0.00     0.029 A 
ATOM     64  N   UNL A   1      42.180  30.280  34.917  1.00  0.00    -0.354 N 
ATOM     65  N   UNL A   1      40.036  30.833  32.990  1.00  0.00    -0.248 NA
ATOM     66  C   UNL A   1      37.960  31.770  32.479  1.00  0.00     0.031 C 
ATOM     67  C   UNL A   1      42.047  31.205  36.932  1.00  0.00     0.029 A 
ATOM     68  C   UNL A   1      41.395  31.094  35.714  1.00  0.00     0.049 A 
ATOM     69  H   UNL A   1      41.967  30.016  33.992  1.00  0.00     0.167 HD
ATOM     70  C   UNL A   1      39.567  31.531  34.096  1.00  0.00     0.074 A 
ATOM     71  C   UNL A   1      38.294  32.109  33.716  1.00  0.00     0.031 C 
ATOM     72  C   UNL A   1      40.142  31.684  35.313  1.00  0.00     0.037 A 
BRANCH  59  73
ATOM     73  C   UNL A   1      45.449  28.599  36.013  1.00  0.00     0.057 A 
ATOM     74  C   UNL A   1      46.640  29.330  36.114  1.00  0.00     0.134 A 
ATOM     75  C   UNL A   1      45.318  27.464  36.823  1.00  0.00     0.134 A 
ATOM     76  F   UNL A   1      46.836  30.421  35.357  1.00  0.00    -0.206 F 
ATOM     77  C   UNL A   1      47.673  28.929  36.963  1.00  0.00     0.040 A 
ATOM     78  C   UNL A   1      46.331  27.072  37.699  1.00  0.00     0.040 A 
ATOM     79  F   UNL A   1      44.202  26.721  36.782  1.00  0.00    -0.206 F 
ATOM     80  C   UNL A   1      47.516  27.800  37.765  1.00  0.00     0.006 A 
ENDBRANCH  59  73
BRANCH  60  81
ATOM     81  C   UNL A   1      38.013  30.808  29.717  1.00  0.00     0.057 A 
ATOM     82  C   UNL A   1      37.914  32.072  29.125  1.00  0.00     0.134 A 
ATOM     83  C   UNL A   1      37.011  29.877  29.418  1.00  0.00     0.134 A 
ATOM     84  F   UNL A   1      38.833  33.013  29.387  1.00  0.00    -0.206 F 
ATOM     85  C   UNL A   1      36.851  32.408  28.285  1.00  0.00     0.040 A 
ATOM     86  C   UNL A   1      35.955  30.190  28.558  1.00  0.00     0.040 A 
ATOM     87  F   UNL A   1      37.048  28.646  29.948  1.00  0.00    -0.206 F 
ATOM     88  C   UNL A   1      35.870  31.461  27.996  1.00  0.00     0.006 A 
ENDBRANCH  60  81
BRANCH  72  89
ATOM     89  C   UNL A   1      39.443  32.560  36.310  1.00  0.00     0.057 A 
ATOM     90  C   UNL A   1      38.406  32.085  37.122  1.00  0.00     0.134 A 
ATOM     91  C   UNL A   1      39.870  33.879  36.513  1.00  0.00     0.134 A 
ATOM     92  F   UNL A   1      37.941  30.836  36.971  1.00  0.00    -0.206 F 
ATOM     93  C   UNL A   1      37.812  32.894  38.093  1.00  0.00     0.040 A 
ATOM     94  C   UNL A   1      39.305  34.688  37.498  1.00  0.00     0.040 A 
ATOM     95  F   UNL A   1      40.866  34.393  35.773  1.00  0.00    -0.206 F 
ATOM     96  C   UNL A   1      38.271  34.196  38.290  1.00  0.00     0.006 A 
ENDBRANCH  72  89
ENDBRANCH  46  47
ENDBRANCH  38  41
ENDBRANCH  36  37
ENDBRANCH  35  36
ENDBRANCH   1  35
TORSDOF 15
ENDMDL
