MODEL 1
REMARK VINA RESULT:     -12.3      0.000      0.000
REMARK SMILES CS(=O)(=O)c1ccc(/C=C(/C(=O)NCCCCNC(=O)c2ccc(-c3c4nc(c(-c5c(F)cccc5F)c5ccc([nH]5)c(-c5c(F)cccc5F)c5nc(c(-c6c(F)cccc6F)c6ccc3[nH]6)C=C5)C=C4)cc2)c2ccc(F)cc2)cc1
REMARK SMILES IDX 15 1 14 2 13 3 11 4 12 5 10 7 9 8 8 9 5 10 6 11 83 12 7 13
REMARK SMILES IDX 82 14 2 15 1 16 3 17 4 18 75 19 76 20 81 21 77 22 80 23
REMARK SMILES IDX 78 24 79 25 16 26 17 27 18 28 19 29 20 31 21 32 22 33 74 34
REMARK SMILES IDX 23 35 73 36 24 37 25 38 26 39 67 40 27 41 72 42 66 43 68 44
REMARK SMILES IDX 28 45 71 46 65 47 64 48 29 50 55 51 38 52 54 53 39 54 42 55
REMARK SMILES IDX 53 56 69 57 40 58 41 59 52 61 70 62 43 63 30 64 31 65 36 66
REMARK SMILES IDX 32 67 33 68 35 69 37 70 34 71 56 72 57 73 62 74 58 75 59 76
REMARK SMILES IDX 61 77 63 78 60 79 44 80 45 81 50 82 46 83 47 84 49 85 51 86
REMARK SMILES IDX 48 87
REMARK H PARENT 13 6 18 30 68 49 42 60
REMARK Flexibility Score: inf
ROOT
ATOM      1  C   UNL A   1      32.466  26.817  25.821  1.00  0.00     0.023 C 
ENDROOT
BRANCH   1   2
ATOM      2  C   UNL A   1      31.583  26.681  24.576  1.00  0.00     0.116 C 
BRANCH   2   3
ATOM      3  N   UNL A   1      32.400  26.731  23.379  1.00  0.00    -0.352 N 
ATOM      4  C   UNL A   1      33.259  25.858  22.790  1.00  0.00     0.251 C 
ATOM      5  O   UNL A   1      33.838  26.273  21.781  1.00  0.00    -0.269 OA
ATOM      6  H   UNL A   1      32.312  27.579  22.887  1.00  0.00     0.163 HD
BRANCH   4   7
ATOM      7  C   UNL A   1      33.453  24.431  23.254  1.00  0.00     0.047 C 
ATOM      8  C   UNL A   1      32.430  23.546  23.283  1.00  0.00     0.022 C 
BRANCH   8   9
ATOM      9  C   UNL A   1      32.447  22.095  23.565  1.00  0.00    -0.025 A 
ATOM     10  C   UNL A   1      32.609  19.310  23.886  1.00  0.00     0.067 A 
ATOM     11  C   UNL A   1      32.824  20.153  24.979  1.00  0.00     0.021 A 
ATOM     12  C   UNL A   1      32.273  19.841  22.641  1.00  0.00     0.021 A 
ATOM     13  C   UNL A   1      32.721  21.540  24.820  1.00  0.00     0.009 A 
ATOM     14  C   UNL A   1      32.189  21.228  22.489  1.00  0.00     0.009 A 
BRANCH  10  15
ATOM     15  S   UNL A   1      32.805  17.555  24.079  1.00  0.00     0.175 S 
ATOM     16  C   UNL A   1      34.464  17.333  24.662  1.00  0.00     0.163 C 
ATOM     17  O   UNL A   1      32.738  16.963  22.754  1.00  0.00    -0.224 OA
ATOM     18  O   UNL A   1      31.895  17.148  25.129  1.00  0.00    -0.224 OA
ENDBRANCH  10  15
ENDBRANCH   8   9
BRANCH   7  19
ATOM     19  C   UNL A   1      34.776  24.091  23.840  1.00  0.00    -0.013 A 
ATOM     20  C   UNL A   1      35.040  24.474  25.169  1.00  0.00     0.012 A 
ATOM     21  C   UNL A   1      35.738  23.342  23.146  1.00  0.00     0.012 A 
ATOM     22  C   UNL A   1      36.225  24.101  25.800  1.00  0.00     0.040 A 
ATOM     23  C   UNL A   1      36.919  22.953  23.787  1.00  0.00     0.040 A 
ATOM     24  C   UNL A   1      37.148  23.332  25.106  1.00  0.00     0.123 A 
ATOM     25  F   UNL A   1      38.273  22.942  25.720  1.00  0.00    -0.207 F 
ENDBRANCH   7  19
ENDBRANCH   4   7
ENDBRANCH   2   3
ENDBRANCH   1   2
BRANCH   1  26
ATOM     26  C   UNL A   1      32.398  28.195  26.491  1.00  0.00     0.023 C 
BRANCH  26  27
ATOM     27  C   UNL A   1      33.641  28.594  27.279  1.00  0.00     0.116 C 
BRANCH  27  28
ATOM     28  N   UNL A   1      33.616  29.983  27.716  1.00  0.00    -0.352 N 
ATOM     29  C   UNL A   1      34.618  30.717  28.301  1.00  0.00     0.251 C 
ATOM     30  H   UNL A   1      32.767  30.460  27.571  1.00  0.00     0.163 HD
ATOM     31  O   UNL A   1      34.397  31.849  28.716  1.00  0.00    -0.269 OA
BRANCH  29  32
ATOM     32  C   UNL A   1      35.957  30.114  28.464  1.00  0.00     0.039 A 
ATOM     33  C   UNL A   1      36.858  30.179  27.399  1.00  0.00     0.014 A 
ATOM     34  C   UNL A   1      36.327  29.519  29.673  1.00  0.00     0.014 A 
ATOM     35  C   UNL A   1      38.162  29.710  27.572  1.00  0.00     0.010 A 
ATOM     36  C   UNL A   1      37.643  29.111  29.864  1.00  0.00     0.010 A 
ATOM     37  C   UNL A   1      38.574  29.209  28.817  1.00  0.00    -0.014 A 
BRANCH  37  38
ATOM     38  C   UNL A   1      39.978  28.792  29.053  1.00  0.00     0.031 A 
ATOM     39  C   UNL A   1      40.957  29.751  29.668  1.00  0.00     0.074 A 
ATOM     40  C   UNL A   1      40.388  27.575  28.645  1.00  0.00     0.049 A 
ATOM     41  N   UNL A   1      42.241  29.604  29.872  1.00  0.00    -0.248 NA
ATOM     42  C   UNL A   1      40.428  31.060  30.082  1.00  0.00     0.031 C 
ATOM     43  C   UNL A   1      39.544  26.571  27.993  1.00  0.00     0.029 A 
ATOM     44  N   UNL A   1      41.623  26.981  28.704  1.00  0.00    -0.354 N 
ATOM     45  C   UNL A   1      42.674  30.802  30.425  1.00  0.00     0.074 A 
ATOM     46  C   UNL A   1      41.529  31.683  30.476  1.00  0.00     0.031 C 
ATOM     47  C   UNL A   1      40.281  25.480  27.731  1.00  0.00     0.029 A 
ATOM     48  C   UNL A   1      41.655  25.720  28.159  1.00  0.00     0.049 A 
ATOM     49  H   UNL A   1      42.412  27.417  29.099  1.00  0.00     0.167 HD
ATOM     50  C   UNL A   1      43.910  31.129  30.871  1.00  0.00     0.037 A 
ATOM     51  C   UNL A   1      42.680  24.859  28.012  1.00  0.00     0.037 A 
ATOM     52  C   UNL A   1      45.043  30.241  30.840  1.00  0.00     0.049 A 
ATOM     53  C   UNL A   1      44.045  25.251  28.504  1.00  0.00     0.074 A 
ATOM     54  C   UNL A   1      46.321  30.459  31.321  1.00  0.00     0.029 A 
ATOM     55  N   UNL A   1      45.031  28.966  30.296  1.00  0.00    -0.354 N 
ATOM     56  N   UNL A   1      44.426  26.363  29.085  1.00  0.00    -0.248 NA
ATOM     57  C   UNL A   1      45.123  24.269  28.322  1.00  0.00     0.031 C 
ATOM     58  C   UNL A   1      47.096  29.331  31.031  1.00  0.00     0.029 A 
ATOM     59  C   UNL A   1      46.286  28.392  30.410  1.00  0.00     0.049 A 
ATOM     60  H   UNL A   1      44.246  28.533  29.888  1.00  0.00     0.167 HD
ATOM     61  C   UNL A   1      45.777  26.203  29.364  1.00  0.00     0.074 A 
ATOM     62  C   UNL A   1      46.146  24.882  28.898  1.00  0.00     0.031 C 
ATOM     63  C   UNL A   1      46.635  27.072  29.951  1.00  0.00     0.037 A 
BRANCH  50  64
ATOM     64  C   UNL A   1      44.098  32.506  31.437  1.00  0.00     0.057 A 
ATOM     65  C   UNL A   1      43.978  32.762  32.809  1.00  0.00     0.134 A 
ATOM     66  C   UNL A   1      44.438  33.582  30.607  1.00  0.00     0.134 A 
ATOM     67  F   UNL A   1      43.643  31.777  33.657  1.00  0.00    -0.206 F 
ATOM     68  C   UNL A   1      44.163  34.043  33.332  1.00  0.00     0.040 A 
ATOM     69  C   UNL A   1      44.651  34.862  31.122  1.00  0.00     0.040 A 
ATOM     70  F   UNL A   1      44.575  33.406  29.284  1.00  0.00    -0.206 F 
ATOM     71  C   UNL A   1      44.508  35.096  32.487  1.00  0.00     0.006 A 
ENDBRANCH  50  64
BRANCH  51  72
ATOM     72  C   UNL A   1      42.453  23.530  27.389  1.00  0.00     0.057 A 
ATOM     73  C   UNL A   1      42.084  22.425  28.164  1.00  0.00     0.134 A 
ATOM     74  C   UNL A   1      42.611  23.330  26.012  1.00  0.00     0.134 A 
ATOM     75  F   UNL A   1      41.936  22.551  29.491  1.00  0.00    -0.206 F 
ATOM     76  C   UNL A   1      41.900  21.164  27.597  1.00  0.00     0.040 A 
ATOM     77  C   UNL A   1      42.406  22.079  25.428  1.00  0.00     0.040 A 
ATOM     78  F   UNL A   1      42.956  24.351  25.214  1.00  0.00    -0.206 F 
ATOM     79  C   UNL A   1      42.057  20.988  26.223  1.00  0.00     0.006 A 
ENDBRANCH  51  72
BRANCH  63  80
ATOM     80  C   UNL A   1      48.047  26.611  30.157  1.00  0.00     0.057 A 
ATOM     81  C   UNL A   1      48.431  25.895  31.297  1.00  0.00     0.134 A 
ATOM     82  C   UNL A   1      49.022  26.845  29.179  1.00  0.00     0.134 A 
ATOM     83  F   UNL A   1      47.548  25.650  32.276  1.00  0.00    -0.206 F 
ATOM     84  C   UNL A   1      49.742  25.446  31.467  1.00  0.00     0.040 A 
ATOM     85  C   UNL A   1      50.329  26.380  29.326  1.00  0.00     0.040 A 
ATOM     86  F   UNL A   1      48.716  27.518  28.059  1.00  0.00    -0.206 F 
ATOM     87  C   UNL A   1      50.693  25.682  30.476  1.00  0.00     0.006 A 
ENDBRANCH  63  80
ENDBRANCH  37  38
ENDBRANCH  29  32
ENDBRANCH  27  28
ENDBRANCH  26  27
ENDBRANCH   1  26
TORSDOF 14
ENDMDL
MODEL 2
REMARK VINA RESULT:     -12.2      3.632      8.512
REMARK SMILES CS(=O)(=O)c1ccc(/C=C(/C(=O)NCCCCNC(=O)c2ccc(-c3c4nc(c(-c5c(F)cccc5F)c5ccc([nH]5)c(-c5c(F)cccc5F)c5nc(c(-c6c(F)cccc6F)c6ccc3[nH]6)C=C5)C=C4)cc2)c2ccc(F)cc2)cc1
REMARK SMILES IDX 15 1 14 2 13 3 11 4 12 5 10 7 9 8 8 9 5 10 6 11 83 12 7 13
REMARK SMILES IDX 82 14 2 15 1 16 3 17 4 18 75 19 76 20 81 21 77 22 80 23
REMARK SMILES IDX 78 24 79 25 16 26 17 27 18 28 19 29 20 31 21 32 22 33 74 34
REMARK SMILES IDX 23 35 73 36 24 37 25 38 26 39 67 40 27 41 72 42 66 43 68 44
REMARK SMILES IDX 28 45 71 46 65 47 64 48 29 50 55 51 38 52 54 53 39 54 42 55
REMARK SMILES IDX 53 56 69 57 40 58 41 59 52 61 70 62 43 63 30 64 31 65 36 66
REMARK SMILES IDX 32 67 33 68 35 69 37 70 34 71 56 72 57 73 62 74 58 75 59 76
REMARK SMILES IDX 61 77 63 78 60 79 44 80 45 81 50 82 46 83 47 84 49 85 51 86
REMARK SMILES IDX 48 87
REMARK H PARENT 13 6 18 30 68 49 42 60
REMARK Flexibility Score: inf
ROOT
ATOM      1  C   UNL A   1      34.850  23.585  24.166  1.00  0.00     0.023 C 
ENDROOT
BRANCH   1   2
ATOM      2  C   UNL A   1      33.472  22.917  24.132  1.00  0.00     0.116 C 
BRANCH   2   3
ATOM      3  N   UNL A   1      32.882  22.924  25.457  1.00  0.00    -0.352 N 
ATOM      4  C   UNL A   1      32.188  23.848  26.172  1.00  0.00     0.251 C 
ATOM      5  O   UNL A   1      31.884  23.519  27.323  1.00  0.00    -0.269 OA
ATOM      6  H   UNL A   1      33.013  22.077  25.942  1.00  0.00     0.163 HD
BRANCH   4   7
ATOM      7  C   UNL A   1      31.718  25.169  25.601  1.00  0.00     0.047 C 
ATOM      8  C   UNL A   1      30.984  25.233  24.467  1.00  0.00     0.022 C 
BRANCH   8   9
ATOM      9  C   UNL A   1      30.322  26.396  23.837  1.00  0.00    -0.025 A 
ATOM     10  C   UNL A   1      28.933  28.631  22.856  1.00  0.00     0.067 A 
ATOM     11  C   UNL A   1      30.308  28.512  22.639  1.00  0.00     0.021 A 
ATOM     12  C   UNL A   1      28.235  27.625  23.524  1.00  0.00     0.021 A 
ATOM     13  C   UNL A   1      30.992  27.386  23.110  1.00  0.00     0.009 A 
ATOM     14  C   UNL A   1      28.931  26.512  24.005  1.00  0.00     0.009 A 
BRANCH  10  15
ATOM     15  S   UNL A   1      28.081  30.092  22.313  1.00  0.00     0.175 S 
ATOM     16  C   UNL A   1      29.170  31.437  22.699  1.00  0.00     0.163 C 
ATOM     17  O   UNL A   1      26.904  30.244  23.151  1.00  0.00    -0.224 OA
ATOM     18  O   UNL A   1      27.968  29.996  20.872  1.00  0.00    -0.224 OA
ENDBRANCH  10  15
ENDBRANCH   8   9
BRANCH   7  19
ATOM     19  C   UNL A   1      32.242  26.401  26.246  1.00  0.00    -0.013 A 
ATOM     20  C   UNL A   1      33.567  26.790  25.972  1.00  0.00     0.012 A 
ATOM     21  C   UNL A   1      31.446  27.227  27.054  1.00  0.00     0.012 A 
ATOM     22  C   UNL A   1      34.081  27.985  26.473  1.00  0.00     0.040 A 
ATOM     23  C   UNL A   1      31.958  28.434  27.541  1.00  0.00     0.040 A 
ATOM     24  C   UNL A   1      33.265  28.803  27.242  1.00  0.00     0.123 A 
ATOM     25  F   UNL A   1      33.745  29.968  27.696  1.00  0.00    -0.207 F 
ENDBRANCH   7  19
ENDBRANCH   4   7
ENDBRANCH   2   3
ENDBRANCH   1   2
BRANCH   1  26
ATOM     26  C   UNL A   1      35.882  22.854  25.034  1.00  0.00     0.023 C 
BRANCH  26  27
ATOM     27  C   UNL A   1      37.164  23.632  25.311  1.00  0.00     0.116 C 
BRANCH  27  28
ATOM     28  N   UNL A   1      38.317  22.769  25.526  1.00  0.00    -0.352 N 
ATOM     29  C   UNL A   1      39.489  23.051  26.182  1.00  0.00     0.251 C 
ATOM     30  H   UNL A   1      38.246  21.861  25.150  1.00  0.00     0.163 HD
ATOM     31  O   UNL A   1      40.414  22.246  26.175  1.00  0.00    -0.269 OA
BRANCH  29  32
ATOM     32  C   UNL A   1      39.642  24.353  26.864  1.00  0.00     0.039 A 
ATOM     33  C   UNL A   1      39.135  24.499  28.157  1.00  0.00     0.014 A 
ATOM     34  C   UNL A   1      40.312  25.409  26.240  1.00  0.00     0.014 A 
ATOM     35  C   UNL A   1      39.364  25.686  28.855  1.00  0.00     0.010 A 
ATOM     36  C   UNL A   1      40.595  26.565  26.960  1.00  0.00     0.010 A 
ATOM     37  C   UNL A   1      40.128  26.711  28.276  1.00  0.00    -0.014 A 
BRANCH  37  38
ATOM     38  C   UNL A   1      40.465  27.942  29.033  1.00  0.00     0.031 A 
ATOM     39  C   UNL A   1      41.787  28.058  29.736  1.00  0.00     0.074 A 
ATOM     40  C   UNL A   1      39.549  28.924  29.147  1.00  0.00     0.049 A 
ATOM     41  N   UNL A   1      42.227  29.012  30.516  1.00  0.00    -0.248 NA
ATOM     42  C   UNL A   1      42.728  26.941  29.563  1.00  0.00     0.031 C 
ATOM     43  C   UNL A   1      38.212  28.909  28.548  1.00  0.00     0.029 A 
ATOM     44  N   UNL A   1      39.597  30.119  29.818  1.00  0.00    -0.354 N 
ATOM     45  C   UNL A   1      43.487  28.604  30.935  1.00  0.00     0.074 A 
ATOM     46  C   UNL A   1      43.719  27.295  30.366  1.00  0.00     0.031 C 
ATOM     47  C   UNL A   1      37.577  30.049  28.864  1.00  0.00     0.029 A 
ATOM     48  C   UNL A   1      38.442  30.856  29.716  1.00  0.00     0.049 A 
ATOM     49  H   UNL A   1      40.385  30.420  30.325  1.00  0.00     0.167 HD
ATOM     50  C   UNL A   1      44.378  29.272  31.705  1.00  0.00     0.037 A 
ATOM     51  C   UNL A   1      38.115  32.045  30.258  1.00  0.00     0.037 A 
ATOM     52  C   UNL A   1      44.153  30.585  32.251  1.00  0.00     0.049 A 
ATOM     53  C   UNL A   1      39.119  32.759  31.120  1.00  0.00     0.074 A 
ATOM     54  C   UNL A   1      45.017  31.369  32.994  1.00  0.00     0.029 A 
ATOM     55  N   UNL A   1      42.978  31.306  32.111  1.00  0.00    -0.354 N 
ATOM     56  N   UNL A   1      40.332  32.392  31.454  1.00  0.00    -0.248 NA
ATOM     57  C   UNL A   1      38.709  34.055  31.679  1.00  0.00     0.031 C 
ATOM     58  C   UNL A   1      44.350  32.548  33.341  1.00  0.00     0.029 A 
ATOM     59  C   UNL A   1      43.085  32.518  32.773  1.00  0.00     0.049 A 
ATOM     60  H   UNL A   1      42.183  31.001  31.615  1.00  0.00     0.167 HD
ATOM     61  C   UNL A   1      40.839  33.421  32.236  1.00  0.00     0.074 A 
ATOM     62  C   UNL A   1      39.807  34.433  32.317  1.00  0.00     0.031 C 
ATOM     63  C   UNL A   1      42.051  33.519  32.835  1.00  0.00     0.037 A 
BRANCH  50  64
ATOM     64  C   UNL A   1      45.684  28.592  31.999  1.00  0.00     0.057 A 
ATOM     65  C   UNL A   1      46.799  28.748  31.165  1.00  0.00     0.134 A 
ATOM     66  C   UNL A   1      45.839  27.801  33.144  1.00  0.00     0.134 A 
ATOM     67  F   UNL A   1      46.714  29.483  30.046  1.00  0.00    -0.206 F 
ATOM     68  C   UNL A   1      48.014  28.121  31.447  1.00  0.00     0.040 A 
ATOM     69  C   UNL A   1      47.056  27.190  33.450  1.00  0.00     0.040 A 
ATOM     70  F   UNL A   1      44.813  27.615  33.988  1.00  0.00    -0.206 F 
ATOM     71  C   UNL A   1      48.146  27.345  32.597  1.00  0.00     0.006 A 
ENDBRANCH  50  64
BRANCH  51  72
ATOM     72  C   UNL A   1      36.786  32.647  29.987  1.00  0.00     0.057 A 
ATOM     73  C   UNL A   1      35.684  32.355  30.799  1.00  0.00     0.134 A 
ATOM     74  C   UNL A   1      36.581  33.514  28.907  1.00  0.00     0.134 A 
ATOM     75  F   UNL A   1      35.814  31.516  31.837  1.00  0.00    -0.206 F 
ATOM     76  C   UNL A   1      34.422  32.888  30.537  1.00  0.00     0.040 A 
ATOM     77  C   UNL A   1      35.329  34.074  28.647  1.00  0.00     0.040 A 
ATOM     78  F   UNL A   1      37.599  33.839  28.096  1.00  0.00    -0.206 F 
ATOM     79  C   UNL A   1      34.242  33.754  29.460  1.00  0.00     0.006 A 
ENDBRANCH  51  72
BRANCH  63  80
ATOM     80  C   UNL A   1      42.341  34.777  33.599  1.00  0.00     0.057 A 
ATOM     81  C   UNL A   1      42.956  35.881  32.998  1.00  0.00     0.134 A 
ATOM     82  C   UNL A   1      41.956  34.899  34.940  1.00  0.00     0.134 A 
ATOM     83  F   UNL A   1      43.361  35.822  31.721  1.00  0.00    -0.206 F 
ATOM     84  C   UNL A   1      43.197  37.058  33.710  1.00  0.00     0.040 A 
ATOM     85  C   UNL A   1      42.168  36.079  35.655  1.00  0.00     0.040 A 
ATOM     86  F   UNL A   1      41.354  33.881  35.572  1.00  0.00    -0.206 F 
ATOM     87  C   UNL A   1      42.795  37.160  35.041  1.00  0.00     0.006 A 
ENDBRANCH  63  80
ENDBRANCH  37  38
ENDBRANCH  29  32
ENDBRANCH  27  28
ENDBRANCH  26  27
ENDBRANCH   1  26
TORSDOF 14
ENDMDL
MODEL 3
REMARK VINA RESULT:     -12.2      3.672      8.342
REMARK SMILES CS(=O)(=O)c1ccc(/C=C(/C(=O)NCCCCNC(=O)c2ccc(-c3c4nc(c(-c5c(F)cccc5F)c5ccc([nH]5)c(-c5c(F)cccc5F)c5nc(c(-c6c(F)cccc6F)c6ccc3[nH]6)C=C5)C=C4)cc2)c2ccc(F)cc2)cc1
REMARK SMILES IDX 15 1 14 2 13 3 11 4 12 5 10 7 9 8 8 9 5 10 6 11 83 12 7 13
REMARK SMILES IDX 82 14 2 15 1 16 3 17 4 18 75 19 76 20 81 21 77 22 80 23
REMARK SMILES IDX 78 24 79 25 16 26 17 27 18 28 19 29 20 31 21 32 22 33 74 34
REMARK SMILES IDX 23 35 73 36 24 37 25 38 26 39 67 40 27 41 72 42 66 43 68 44
REMARK SMILES IDX 28 45 71 46 65 47 64 48 29 50 55 51 38 52 54 53 39 54 42 55
REMARK SMILES IDX 53 56 69 57 40 58 41 59 52 61 70 62 43 63 30 64 31 65 36 66
REMARK SMILES IDX 32 67 33 68 35 69 37 70 34 71 56 72 57 73 62 74 58 75 59 76
REMARK SMILES IDX 61 77 63 78 60 79 44 80 45 81 50 82 46 83 47 84 49 85 51 86
REMARK SMILES IDX 48 87
REMARK H PARENT 13 6 18 30 68 49 42 60
REMARK Flexibility Score: inf
ROOT
ATOM      1  C   UNL A   1      35.034  24.177  24.991  1.00  0.00     0.023 C 
ENDROOT
BRANCH   1   2
ATOM      2  C   UNL A   1      33.797  23.325  24.690  1.00  0.00     0.116 C 
BRANCH   2   3
ATOM      3  N   UNL A   1      32.944  23.254  25.861  1.00  0.00    -0.352 N 
ATOM      4  C   UNL A   1      32.047  24.107  26.423  1.00  0.00     0.251 C 
ATOM      5  O   UNL A   1      31.535  23.726  27.480  1.00  0.00    -0.269 OA
ATOM      6  H   UNL A   1      33.034  22.406  26.353  1.00  0.00     0.163 HD
BRANCH   4   7
ATOM      7  C   UNL A   1      31.609  25.405  25.781  1.00  0.00     0.047 C 
ATOM      8  C   UNL A   1      30.886  25.426  24.638  1.00  0.00     0.022 C 
BRANCH   8   9
ATOM      9  C   UNL A   1      30.252  26.568  23.944  1.00  0.00    -0.025 A 
ATOM     10  C   UNL A   1      28.906  28.766  22.831  1.00  0.00     0.067 A 
ATOM     11  C   UNL A   1      30.292  28.653  22.695  1.00  0.00     0.021 A 
ATOM     12  C   UNL A   1      28.178  27.771  23.482  1.00  0.00     0.021 A 
ATOM     13  C   UNL A   1      30.956  27.545  23.232  1.00  0.00     0.009 A 
ATOM     14  C   UNL A   1      28.853  26.676  24.030  1.00  0.00     0.009 A 
BRANCH  10  15
ATOM     15  S   UNL A   1      28.077  30.207  22.204  1.00  0.00     0.175 S 
ATOM     16  C   UNL A   1      29.164  31.561  22.557  1.00  0.00     0.163 C 
ATOM     17  O   UNL A   1      26.881  30.402  23.007  1.00  0.00    -0.224 OA
ATOM     18  O   UNL A   1      27.997  30.048  20.767  1.00  0.00    -0.224 OA
ENDBRANCH  10  15
ENDBRANCH   8   9
BRANCH   7  19
ATOM     19  C   UNL A   1      32.153  26.659  26.365  1.00  0.00    -0.013 A 
ATOM     20  C   UNL A   1      33.467  27.039  26.033  1.00  0.00     0.012 A 
ATOM     21  C   UNL A   1      31.385  27.511  27.172  1.00  0.00     0.012 A 
ATOM     22  C   UNL A   1      33.997  28.250  26.475  1.00  0.00     0.040 A 
ATOM     23  C   UNL A   1      31.911  28.734  27.601  1.00  0.00     0.040 A 
ATOM     24  C   UNL A   1      33.208  29.092  27.245  1.00  0.00     0.123 A 
ATOM     25  F   UNL A   1      33.701  30.272  27.643  1.00  0.00    -0.207 F 
ENDBRANCH   7  19
ENDBRANCH   4   7
ENDBRANCH   2   3
ENDBRANCH   1   2
BRANCH   1  26
ATOM     26  C   UNL A   1      36.142  23.433  25.746  1.00  0.00     0.023 C 
BRANCH  26  27
ATOM     27  C   UNL A   1      37.415  23.178  24.945  1.00  0.00     0.116 C 
BRANCH  27  28
ATOM     28  N   UNL A   1      38.333  22.267  25.613  1.00  0.00    -0.352 N 
ATOM     29  C   UNL A   1      39.391  22.566  26.435  1.00  0.00     0.251 C 
ATOM     30  H   UNL A   1      38.174  21.308  25.454  1.00  0.00     0.163 HD
ATOM     31  O   UNL A   1      40.142  21.678  26.827  1.00  0.00    -0.269 OA
BRANCH  29  32
ATOM     32  C   UNL A   1      39.643  23.972  26.810  1.00  0.00     0.039 A 
ATOM     33  C   UNL A   1      39.203  24.425  28.055  1.00  0.00     0.014 A 
ATOM     34  C   UNL A   1      40.338  24.825  25.948  1.00  0.00     0.014 A 
ATOM     35  C   UNL A   1      39.526  25.719  28.470  1.00  0.00     0.010 A 
ATOM     36  C   UNL A   1      40.712  26.090  26.388  1.00  0.00     0.010 A 
ATOM     37  C   UNL A   1      40.315  26.546  27.655  1.00  0.00    -0.014 A 
BRANCH  37  38
ATOM     38  C   UNL A   1      40.749  27.889  28.113  1.00  0.00     0.031 A 
ATOM     39  C   UNL A   1      42.210  28.240  28.144  1.00  0.00     0.074 A 
ATOM     40  C   UNL A   1      39.832  28.764  28.570  1.00  0.00     0.049 A 
ATOM     41  N   UNL A   1      42.789  29.325  28.591  1.00  0.00    -0.248 NA
ATOM     42  C   UNL A   1      43.144  27.227  27.630  1.00  0.00     0.031 C 
ATOM     43  C   UNL A   1      38.389  28.523  28.634  1.00  0.00     0.029 A 
ATOM     44  N   UNL A   1      39.979  30.028  29.082  1.00  0.00    -0.354 N 
ATOM     45  C   UNL A   1      44.152  29.119  28.425  1.00  0.00     0.074 A 
ATOM     46  C   UNL A   1      44.317  27.787  27.885  1.00  0.00     0.031 C 
ATOM     47  C   UNL A   1      37.784  29.611  29.137  1.00  0.00     0.029 A 
ATOM     48  C   UNL A   1      38.795  30.609  29.467  1.00  0.00     0.049 A 
ATOM     49  H   UNL A   1      40.852  30.477  29.167  1.00  0.00     0.167 HD
ATOM     50  C   UNL A   1      45.173  29.972  28.678  1.00  0.00     0.037 A 
ATOM     51  C   UNL A   1      38.554  31.807  30.031  1.00  0.00     0.037 A 
ATOM     52  C   UNL A   1      45.004  31.306  29.194  1.00  0.00     0.049 A 
ATOM     53  C   UNL A   1      39.706  32.731  30.314  1.00  0.00     0.074 A 
ATOM     54  C   UNL A   1      45.970  32.267  29.429  1.00  0.00     0.029 A 
ATOM     55  N   UNL A   1      43.787  31.864  29.554  1.00  0.00    -0.354 N 
ATOM     56  N   UNL A   1      40.985  32.549  30.090  1.00  0.00    -0.248 NA
ATOM     57  C   UNL A   1      39.382  34.027  30.925  1.00  0.00     0.031 C 
ATOM     58  C   UNL A   1      45.344  33.394  29.971  1.00  0.00     0.029 A 
ATOM     59  C   UNL A   1      43.981  33.150  30.031  1.00  0.00     0.049 A 
ATOM     60  H   UNL A   1      42.915  31.412  29.483  1.00  0.00     0.167 HD
ATOM     61  C   UNL A   1      41.613  33.716  30.505  1.00  0.00     0.074 A 
ATOM     62  C   UNL A   1      40.574  34.604  30.983  1.00  0.00     0.031 C 
ATOM     63  C   UNL A   1      42.933  34.024  30.494  1.00  0.00     0.037 A 
BRANCH  50  64
ATOM     64  C   UNL A   1      46.565  29.488  28.394  1.00  0.00     0.057 A 
ATOM     65  C   UNL A   1      47.330  28.832  29.367  1.00  0.00     0.134 A 
ATOM     66  C   UNL A   1      47.133  29.648  27.124  1.00  0.00     0.134 A 
ATOM     67  F   UNL A   1      46.849  28.658  30.607  1.00  0.00    -0.206 F 
ATOM     68  C   UNL A   1      48.621  28.376  29.095  1.00  0.00     0.040 A 
ATOM     69  C   UNL A   1      48.413  29.172  26.832  1.00  0.00     0.040 A 
ATOM     70  F   UNL A   1      46.453  30.261  26.144  1.00  0.00    -0.206 F 
ATOM     71  C   UNL A   1      49.163  28.540  27.821  1.00  0.00     0.006 A 
ENDBRANCH  50  64
BRANCH  51  72
ATOM     72  C   UNL A   1      37.163  32.214  30.350  1.00  0.00     0.057 A 
ATOM     73  C   UNL A   1      36.614  31.974  31.615  1.00  0.00     0.134 A 
ATOM     74  C   UNL A   1      36.345  32.839  29.399  1.00  0.00     0.134 A 
ATOM     75  F   UNL A   1      37.341  31.363  32.561  1.00  0.00    -0.206 F 
ATOM     76  C   UNL A   1      35.297  32.322  31.918  1.00  0.00     0.040 A 
ATOM     77  C   UNL A   1      35.034  33.214  29.697  1.00  0.00     0.040 A 
ATOM     78  F   UNL A   1      36.815  33.103  28.172  1.00  0.00    -0.206 F 
ATOM     79  C   UNL A   1      34.504  32.948  30.958  1.00  0.00     0.006 A 
ENDBRANCH  51  72
BRANCH  63  80
ATOM     80  C   UNL A   1      43.325  35.389  30.977  1.00  0.00     0.057 A 
ATOM     81  C   UNL A   1      43.534  35.660  32.334  1.00  0.00     0.134 A 
ATOM     82  C   UNL A   1      43.540  36.431  30.067  1.00  0.00     0.134 A 
ATOM     83  F   UNL A   1      43.331  34.707  33.257  1.00  0.00    -0.206 F 
ATOM     84  C   UNL A   1      43.925  36.927  32.772  1.00  0.00     0.040 A 
ATOM     85  C   UNL A   1      43.955  37.695  30.490  1.00  0.00     0.040 A 
ATOM     86  F   UNL A   1      43.365  36.235  28.751  1.00  0.00    -0.206 F 
ATOM     87  C   UNL A   1      44.144  37.946  31.847  1.00  0.00     0.006 A 
ENDBRANCH  63  80
ENDBRANCH  37  38
ENDBRANCH  29  32
ENDBRANCH  27  28
ENDBRANCH  26  27
ENDBRANCH   1  26
TORSDOF 14
ENDMDL
