MODEL 1
REMARK VINA RESULT:     -11.2      0.000      0.000
REMARK SMILES COc1cc([N+](=O)[O-])cc([C@H]2[NH2+][C@H](C(=O)NCCCCNC(=O)c3ccc(-c4c5nc(c(-c6c(F)cccc6F)c6ccc([nH]6)c(-c6c(F)cccc6F)c6nc(c(-c7c(F)cccc7F)c7ccc4[nH]7)C=C6)C=C5)cc3)CS2)c1O
REMARK SMILES IDX 18 1 17 2 16 3 14 4 15 5 13 7 11 8 12 9 79 10 78 13 10 14
REMARK SMILES IDX 3 15 4 16 80 17 5 18 9 19 2 20 1 21 81 22 6 24 7 25 8 26
REMARK SMILES IDX 19 27 20 28 21 29 22 30 23 32 24 33 25 34 77 35 26 36 76 37
REMARK SMILES IDX 27 38 28 39 29 40 70 41 30 42 75 43 69 44 71 45 31 46 74 47
REMARK SMILES IDX 68 48 67 49 32 51 58 52 41 53 57 54 42 55 45 56 56 57 72 58
REMARK SMILES IDX 43 59 44 60 55 62 73 63 46 64 33 65 34 66 39 67 35 68 36 69
REMARK SMILES IDX 38 70 40 71 37 72 59 73 60 74 65 75 61 76 62 77 64 78 66 79
REMARK SMILES IDX 63 80 47 81 48 82 53 83 49 84 50 85 52 86 54 87 51 88
REMARK H PARENT 16 6 12 11 12 12 81 23 21 31 71 50 45 61
REMARK Flexibility Score: inf
ROOT
ATOM      1  C   UNL A   1      38.735  22.581  26.256  1.00  0.00     0.023 C 
ENDROOT
BRANCH   1   2
ATOM      2  C   UNL A   1      37.543  23.401  25.767  1.00  0.00     0.116 C 
BRANCH   2   3
ATOM      3  N   UNL A   1      37.318  23.241  24.347  1.00  0.00    -0.351 N 
ATOM      4  C   UNL A   1      36.163  23.189  23.628  1.00  0.00     0.279 C 
ATOM      5  O   UNL A   1      36.273  23.024  22.409  1.00  0.00    -0.268 OA
ATOM      6  H   UNL A   1      38.139  23.154  23.810  1.00  0.00     0.163 HD
BRANCH   4   7
ATOM      7  C   UNL A   1      34.769  23.357  24.260  1.00  0.00     0.283 C 
ATOM      8  C   UNL A   1      32.983  24.709  23.316  1.00  0.00     0.278 C 
ATOM      9  N   UNL A   1      34.239  24.736  24.070  1.00  0.00    -0.320 N 
ATOM     10  S   UNL A   1      32.206  23.126  23.683  1.00  0.00    -0.087 SA
ATOM     11  H   UNL A   1      34.070  25.159  24.983  1.00  0.00     0.348 HD
ATOM     12  H   UNL A   1      34.924  25.282  23.548  1.00  0.00     0.348 HD
ATOM     13  C   UNL A   1      33.781  22.266  23.873  1.00  0.00     0.151 C 
BRANCH   8  14
ATOM     14  C   UNL A   1      32.175  25.993  23.498  1.00  0.00     0.073 A 
ATOM     15  C   UNL A   1      30.891  27.964  22.771  1.00  0.00     0.167 A 
ATOM     16  C   UNL A   1      30.849  28.436  24.087  1.00  0.00     0.136 A 
ATOM     17  C   UNL A   1      31.564  26.758  22.478  1.00  0.00     0.168 A 
ATOM     18  C   UNL A   1      31.480  27.723  25.103  1.00  0.00     0.273 A 
ATOM     19  C   UNL A   1      32.132  26.519  24.816  1.00  0.00     0.100 A 
BRANCH  15  20
ATOM     20  O   UNL A   1      30.239  28.807  21.909  1.00  0.00    -0.493 OA
ATOM     21  C   UNL A   1      29.297  29.733  22.426  1.00  0.00     0.278 C 
ENDBRANCH  15  20
BRANCH  17  22
ATOM     22  O   UNL A   1      31.627  26.368  21.169  1.00  0.00    -0.504 OA
ATOM     23  H   UNL A   1      31.573  25.460  20.949  1.00  0.00     0.293 HD
ENDBRANCH  17  22
BRANCH  18  24
ATOM     24  N   UNL A   1      31.482  28.251  26.473  1.00  0.00     0.062 N 
ATOM     25  O   UNL A   1      31.221  27.468  27.396  1.00  0.00    -0.258 OA
ATOM     26  O   UNL A   1      31.738  29.454  26.623  1.00  0.00    -0.258 OA
ENDBRANCH  18  24
ENDBRANCH   8  14
ENDBRANCH   4   7
ENDBRANCH   2   3
ENDBRANCH   1   2
BRANCH   1  27
ATOM     27  C   UNL A   1      38.961  21.273  25.497  1.00  0.00     0.023 C 
BRANCH  27  28
ATOM     28  C   UNL A   1      39.282  20.066  26.371  1.00  0.00     0.116 C 
BRANCH  28  29
ATOM     29  N   UNL A   1      40.438  19.307  25.917  1.00  0.00    -0.352 N 
ATOM     30  C   UNL A   1      41.757  19.685  25.914  1.00  0.00     0.251 C 
ATOM     31  H   UNL A   1      40.249  18.406  25.568  1.00  0.00     0.163 HD
ATOM     32  O   UNL A   1      42.609  18.962  25.405  1.00  0.00    -0.269 OA
BRANCH  30  33
ATOM     33  C   UNL A   1      42.140  20.990  26.491  1.00  0.00     0.039 A 
ATOM     34  C   UNL A   1      42.504  22.025  25.627  1.00  0.00     0.014 A 
ATOM     35  C   UNL A   1      42.117  21.198  27.872  1.00  0.00     0.014 A 
ATOM     36  C   UNL A   1      42.787  23.289  26.147  1.00  0.00     0.010 A 
ATOM     37  C   UNL A   1      42.326  22.475  28.382  1.00  0.00     0.010 A 
ATOM     38  C   UNL A   1      42.671  23.532  27.526  1.00  0.00    -0.014 A 
BRANCH  38  39
ATOM     39  C   UNL A   1      42.924  24.881  28.086  1.00  0.00     0.031 A 
ATOM     40  C   UNL A   1      44.316  25.282  28.490  1.00  0.00     0.074 A 
ATOM     41  C   UNL A   1      41.894  25.730  28.270  1.00  0.00     0.049 A 
ATOM     42  N   UNL A   1      44.732  26.403  29.021  1.00  0.00    -0.248 NA
ATOM     43  C   UNL A   1      45.377  24.280  28.294  1.00  0.00     0.031 C 
ATOM     44  C   UNL A   1      40.491  25.440  27.967  1.00  0.00     0.029 A 
ATOM     45  N   UNL A   1      41.868  27.011  28.760  1.00  0.00    -0.354 N 
ATOM     46  C   UNL A   1      46.096  26.239  29.226  1.00  0.00     0.074 A 
ATOM     47  C   UNL A   1      46.427  24.890  28.823  1.00  0.00     0.031 C 
ATOM     48  C   UNL A   1      39.747  26.523  28.247  1.00  0.00     0.029 A 
ATOM     49  C   UNL A   1      40.613  27.571  28.778  1.00  0.00     0.049 A 
ATOM     50  H   UNL A   1      42.673  27.486  29.070  1.00  0.00     0.167 HD
ATOM     51  C   UNL A   1      46.997  27.141  29.680  1.00  0.00     0.037 A 
ATOM     52  C   UNL A   1      40.210  28.792  29.175  1.00  0.00     0.037 A 
ATOM     53  C   UNL A   1      46.671  28.491  30.057  1.00  0.00     0.049 A 
ATOM     54  C   UNL A   1      41.232  29.771  29.684  1.00  0.00     0.074 A 
ATOM     55  C   UNL A   1      47.520  29.497  30.484  1.00  0.00     0.029 A 
ATOM     56  N   UNL A   1      45.390  29.022  30.051  1.00  0.00    -0.354 N 
ATOM     57  N   UNL A   1      42.528  29.626  29.807  1.00  0.00    -0.248 NA
ATOM     58  C   UNL A   1      40.733  31.090  30.101  1.00  0.00     0.031 C 
ATOM     59  C   UNL A   1      46.747  30.627  30.771  1.00  0.00     0.029 A 
ATOM     60  C   UNL A   1      45.424  30.338  30.483  1.00  0.00     0.049 A 
ATOM     61  H   UNL A   1      44.578  28.536  29.780  1.00  0.00     0.167 HD
ATOM     62  C   UNL A   1      43.003  30.839  30.286  1.00  0.00     0.074 A 
ATOM     63  C   UNL A   1      41.858  31.715  30.416  1.00  0.00     0.031 C 
ATOM     64  C   UNL A   1      44.274  31.198  30.593  1.00  0.00     0.037 A 
BRANCH  51  65
ATOM     65  C   UNL A   1      48.429  26.700  29.777  1.00  0.00     0.057 A 
ATOM     66  C   UNL A   1      49.339  26.925  28.735  1.00  0.00     0.134 A 
ATOM     67  C   UNL A   1      48.912  26.076  30.933  1.00  0.00     0.134 A 
ATOM     68  F   UNL A   1      48.937  27.504  27.595  1.00  0.00    -0.206 F 
ATOM     69  C   UNL A   1      50.673  26.524  28.831  1.00  0.00     0.040 A 
ATOM     70  C   UNL A   1      50.250  25.696  31.052  1.00  0.00     0.040 A 
ATOM     71  F   UNL A   1      48.095  25.835  31.970  1.00  0.00    -0.206 F 
ATOM     72  C   UNL A   1      51.134  25.914  29.996  1.00  0.00     0.006 A 
ENDBRANCH  51  65
BRANCH  52  73
ATOM     73  C   UNL A   1      38.778  29.174  29.084  1.00  0.00     0.057 A 
ATOM     74  C   UNL A   1      37.941  29.105  30.204  1.00  0.00     0.134 A 
ATOM     75  C   UNL A   1      38.206  29.593  27.878  1.00  0.00     0.134 A 
ATOM     76  F   UNL A   1      38.427  28.692  31.384  1.00  0.00    -0.206 F 
ATOM     77  C   UNL A   1      36.582  29.412  30.123  1.00  0.00     0.040 A 
ATOM     78  C   UNL A   1      36.853  29.928  27.788  1.00  0.00     0.040 A 
ATOM     79  F   UNL A   1      38.955  29.689  26.769  1.00  0.00    -0.206 F 
ATOM     80  C   UNL A   1      36.035  29.828  28.911  1.00  0.00     0.006 A 
ENDBRANCH  52  73
BRANCH  64  81
ATOM     81  C   UNL A   1      44.495  32.605  31.062  1.00  0.00     0.057 A 
ATOM     82  C   UNL A   1      44.479  32.942  32.422  1.00  0.00     0.134 A 
ATOM     83  C   UNL A   1      44.764  33.628  30.144  1.00  0.00     0.134 A 
ATOM     84  F   UNL A   1      44.214  32.010  33.350  1.00  0.00    -0.206 F 
ATOM     85  C   UNL A   1      44.698  34.252  32.850  1.00  0.00     0.040 A 
ATOM     86  C   UNL A   1      45.012  34.936  30.562  1.00  0.00     0.040 A 
ATOM     87  F   UNL A   1      44.803  33.370  28.828  1.00  0.00    -0.206 F 
ATOM     88  C   UNL A   1      44.973  35.252  31.919  1.00  0.00     0.006 A 
ENDBRANCH  64  81
ENDBRANCH  38  39
ENDBRANCH  30  33
ENDBRANCH  28  29
ENDBRANCH  27  28
ENDBRANCH   1  27
TORSDOF 15
ENDMDL
MODEL 2
REMARK VINA RESULT:     -11.1      4.090      9.523
REMARK SMILES COc1cc([N+](=O)[O-])cc([C@H]2[NH2+][C@H](C(=O)NCCCCNC(=O)c3ccc(-c4c5nc(c(-c6c(F)cccc6F)c6ccc([nH]6)c(-c6c(F)cccc6F)c6nc(c(-c7c(F)cccc7F)c7ccc4[nH]7)C=C6)C=C5)cc3)CS2)c1O
REMARK SMILES IDX 18 1 17 2 16 3 14 4 15 5 13 7 11 8 12 9 79 10 78 13 10 14
REMARK SMILES IDX 3 15 4 16 80 17 5 18 9 19 2 20 1 21 81 22 6 24 7 25 8 26
REMARK SMILES IDX 19 27 20 28 21 29 22 30 23 32 24 33 25 34 77 35 26 36 76 37
REMARK SMILES IDX 27 38 28 39 29 40 70 41 30 42 75 43 69 44 71 45 31 46 74 47
REMARK SMILES IDX 68 48 67 49 32 51 58 52 41 53 57 54 42 55 45 56 56 57 72 58
REMARK SMILES IDX 43 59 44 60 55 62 73 63 46 64 33 65 34 66 39 67 35 68 36 69
REMARK SMILES IDX 38 70 40 71 37 72 59 73 60 74 65 75 61 76 62 77 64 78 66 79
REMARK SMILES IDX 63 80 47 81 48 82 53 83 49 84 50 85 52 86 54 87 51 88
REMARK H PARENT 16 6 12 11 12 12 81 23 21 31 71 50 45 61
REMARK Flexibility Score: inf
ROOT
ATOM      1  C   UNL A   1      31.653  30.443  25.821  1.00  0.00     0.023 C 
ENDROOT
BRANCH   1   2
ATOM      2  C   UNL A   1      32.312  29.389  26.709  1.00  0.00     0.116 C 
BRANCH   2   3
ATOM      3  N   UNL A   1      31.435  28.266  26.961  1.00  0.00    -0.351 N 
ATOM      4  C   UNL A   1      31.454  26.995  26.473  1.00  0.00     0.279 C 
ATOM      5  O   UNL A   1      30.554  26.239  26.856  1.00  0.00    -0.268 OA
ATOM      6  H   UNL A   1      30.702  28.453  27.592  1.00  0.00     0.163 HD
BRANCH   4   7
ATOM      7  C   UNL A   1      32.542  26.474  25.517  1.00  0.00     0.283 C 
ATOM      8  C   UNL A   1      32.721  24.172  24.758  1.00  0.00     0.278 C 
ATOM      9  N   UNL A   1      32.973  25.093  25.870  1.00  0.00    -0.320 N 
ATOM     10  S   UNL A   1      32.833  25.155  23.253  1.00  0.00    -0.087 SA
ATOM     11  H   UNL A   1      33.970  25.097  26.081  1.00  0.00     0.348 HD
ATOM     12  H   UNL A   1      32.440  24.781  26.681  1.00  0.00     0.348 HD
ATOM     13  C   UNL A   1      32.203  26.649  24.043  1.00  0.00     0.151 C 
BRANCH   8  14
ATOM     14  C   UNL A   1      33.549  22.893  24.872  1.00  0.00     0.073 A 
ATOM     15  C   UNL A   1      35.607  21.559  25.089  1.00  0.00     0.167 A 
ATOM     16  C   UNL A   1      34.876  20.381  24.899  1.00  0.00     0.136 A 
ATOM     17  C   UNL A   1      34.948  22.807  25.059  1.00  0.00     0.168 A 
ATOM     18  C   UNL A   1      33.505  20.442  24.669  1.00  0.00     0.273 A 
ATOM     19  C   UNL A   1      32.848  21.677  24.657  1.00  0.00     0.100 A 
BRANCH  15  20
ATOM     20  O   UNL A   1      36.941  21.304  25.276  1.00  0.00    -0.493 OA
ATOM     21  C   UNL A   1      37.481  20.071  24.823  1.00  0.00     0.278 C 
ENDBRANCH  15  20
BRANCH  17  22
ATOM     22  O   UNL A   1      35.714  23.932  25.193  1.00  0.00    -0.504 OA
ATOM     23  H   UNL A   1      36.070  24.348  24.435  1.00  0.00     0.293 HD
ENDBRANCH  17  22
BRANCH  18  24
ATOM     24  N   UNL A   1      32.752  19.207  24.414  1.00  0.00     0.062 N 
ATOM     25  O   UNL A   1      32.783  18.737  23.268  1.00  0.00    -0.258 OA
ATOM     26  O   UNL A   1      32.123  18.713  25.359  1.00  0.00    -0.258 OA
ENDBRANCH  18  24
ENDBRANCH   8  14
ENDBRANCH   4   7
ENDBRANCH   2   3
ENDBRANCH   1   2
BRANCH   1  27
ATOM     27  C   UNL A   1      31.407  31.787  26.507  1.00  0.00     0.023 C 
BRANCH  27  28
ATOM     28  C   UNL A   1      32.647  32.448  27.099  1.00  0.00     0.116 C 
BRANCH  28  29
ATOM     29  N   UNL A   1      32.426  33.817  27.540  1.00  0.00    -0.352 N 
ATOM     30  C   UNL A   1      33.122  34.531  28.484  1.00  0.00     0.251 C 
ATOM     31  H   UNL A   1      31.682  34.293  27.104  1.00  0.00     0.163 HD
ATOM     32  O   UNL A   1      32.749  35.653  28.813  1.00  0.00    -0.269 OA
BRANCH  30  33
ATOM     33  C   UNL A   1      34.302  33.921  29.131  1.00  0.00     0.039 A 
ATOM     34  C   UNL A   1      34.099  32.968  30.131  1.00  0.00     0.014 A 
ATOM     35  C   UNL A   1      35.596  34.269  28.738  1.00  0.00     0.014 A 
ATOM     36  C   UNL A   1      35.198  32.319  30.696  1.00  0.00     0.010 A 
ATOM     37  C   UNL A   1      36.685  33.569  29.247  1.00  0.00     0.010 A 
ATOM     38  C   UNL A   1      36.498  32.593  30.238  1.00  0.00    -0.014 A 
BRANCH  38  39
ATOM     39  C   UNL A   1      37.670  31.877  30.796  1.00  0.00     0.031 A 
ATOM     40  C   UNL A   1      38.159  32.196  32.182  1.00  0.00     0.074 A 
ATOM     41  C   UNL A   1      38.320  30.970  30.040  1.00  0.00     0.049 A 
ATOM     42  N   UNL A   1      39.179  31.700  32.833  1.00  0.00    -0.248 NA
ATOM     43  C   UNL A   1      37.418  33.229  32.924  1.00  0.00     0.031 C 
ATOM     44  C   UNL A   1      37.975  30.610  28.664  1.00  0.00     0.029 A 
ATOM     45  N   UNL A   1      39.409  30.187  30.324  1.00  0.00    -0.354 N 
ATOM     46  C   UNL A   1      39.205  32.361  34.055  1.00  0.00     0.074 A 
ATOM     47  C   UNL A   1      38.139  33.338  34.030  1.00  0.00     0.031 C 
ATOM     48  C   UNL A   1      38.815  29.654  28.235  1.00  0.00     0.029 A 
ATOM     49  C   UNL A   1      39.776  29.356  29.292  1.00  0.00     0.049 A 
ATOM     50  H   UNL A   1      39.884  30.215  31.186  1.00  0.00     0.167 HD
ATOM     51  C   UNL A   1      40.022  32.151  35.113  1.00  0.00     0.037 A 
ATOM     52  C   UNL A   1      40.773  28.455  29.212  1.00  0.00     0.037 A 
ATOM     53  C   UNL A   1      41.065  31.161  35.146  1.00  0.00     0.049 A 
ATOM     54  C   UNL A   1      41.672  28.249  30.400  1.00  0.00     0.074 A 
ATOM     55  C   UNL A   1      41.916  30.838  36.188  1.00  0.00     0.029 A 
ATOM     56  N   UNL A   1      41.398  30.333  34.084  1.00  0.00    -0.354 N 
ATOM     57  N   UNL A   1      41.640  28.833  31.573  1.00  0.00    -0.248 NA
ATOM     58  C   UNL A   1      42.741  27.251  30.255  1.00  0.00     0.031 C 
ATOM     59  C   UNL A   1      42.789  29.839  35.745  1.00  0.00     0.029 A 
ATOM     60  C   UNL A   1      42.453  29.511  34.442  1.00  0.00     0.049 A 
ATOM     61  H   UNL A   1      40.951  30.331  33.207  1.00  0.00     0.167 HD
ATOM     62  C   UNL A   1      42.662  28.254  32.314  1.00  0.00     0.074 A 
ATOM     63  C   UNL A   1      43.285  27.261  31.463  1.00  0.00     0.031 C 
ATOM     64  C   UNL A   1      43.052  28.519  33.585  1.00  0.00     0.037 A 
BRANCH  51  65
ATOM     65  C   UNL A   1      39.806  33.000  36.332  1.00  0.00     0.057 A 
ATOM     66  C   UNL A   1      40.541  34.174  36.550  1.00  0.00     0.134 A 
ATOM     67  C   UNL A   1      38.832  32.663  37.280  1.00  0.00     0.134 A 
ATOM     68  F   UNL A   1      41.499  34.545  35.688  1.00  0.00    -0.206 F 
ATOM     69  C   UNL A   1      40.331  34.968  37.678  1.00  0.00     0.040 A 
ATOM     70  C   UNL A   1      38.594  33.465  38.398  1.00  0.00     0.040 A 
ATOM     71  F   UNL A   1      38.090  31.556  37.130  1.00  0.00    -0.206 F 
ATOM     72  C   UNL A   1      39.349  34.618  38.602  1.00  0.00     0.006 A 
ENDBRANCH  51  65
BRANCH  52  73
ATOM     73  C   UNL A   1      40.962  27.656  27.975  1.00  0.00     0.057 A 
ATOM     74  C   UNL A   1      41.756  28.132  26.924  1.00  0.00     0.134 A 
ATOM     75  C   UNL A   1      40.340  26.415  27.801  1.00  0.00     0.134 A 
ATOM     76  F   UNL A   1      42.363  29.324  27.024  1.00  0.00    -0.206 F 
ATOM     77  C   UNL A   1      41.903  27.416  25.735  1.00  0.00     0.040 A 
ATOM     78  C   UNL A   1      40.499  25.676  26.627  1.00  0.00     0.040 A 
ATOM     79  F   UNL A   1      39.573  25.899  28.773  1.00  0.00    -0.206 F 
ATOM     80  C   UNL A   1      41.274  26.181  25.586  1.00  0.00     0.006 A 
ENDBRANCH  52  73
BRANCH  64  81
ATOM     81  C   UNL A   1      44.178  27.701  34.141  1.00  0.00     0.057 A 
ATOM     82  C   UNL A   1      45.505  28.148  34.103  1.00  0.00     0.134 A 
ATOM     83  C   UNL A   1      43.927  26.468  34.756  1.00  0.00     0.134 A 
ATOM     84  F   UNL A   1      45.813  29.315  33.517  1.00  0.00    -0.206 F 
ATOM     85  C   UNL A   1      46.546  27.385  34.636  1.00  0.00     0.040 A 
ATOM     86  C   UNL A   1      44.955  25.709  35.315  1.00  0.00     0.040 A 
ATOM     87  F   UNL A   1      42.676  25.987  34.834  1.00  0.00    -0.206 F 
ATOM     88  C   UNL A   1      46.271  26.165  35.250  1.00  0.00     0.006 A 
ENDBRANCH  64  81
ENDBRANCH  38  39
ENDBRANCH  30  33
ENDBRANCH  28  29
ENDBRANCH  27  28
ENDBRANCH   1  27
TORSDOF 15
ENDMDL
MODEL 3
REMARK VINA RESULT:     -10.9      4.225      9.246
REMARK SMILES COc1cc([N+](=O)[O-])cc([C@H]2[NH2+][C@H](C(=O)NCCCCNC(=O)c3ccc(-c4c5nc(c(-c6c(F)cccc6F)c6ccc([nH]6)c(-c6c(F)cccc6F)c6nc(c(-c7c(F)cccc7F)c7ccc4[nH]7)C=C6)C=C5)cc3)CS2)c1O
REMARK SMILES IDX 18 1 17 2 16 3 14 4 15 5 13 7 11 8 12 9 79 10 78 13 10 14
REMARK SMILES IDX 3 15 4 16 80 17 5 18 9 19 2 20 1 21 81 22 6 24 7 25 8 26
REMARK SMILES IDX 19 27 20 28 21 29 22 30 23 32 24 33 25 34 77 35 26 36 76 37
REMARK SMILES IDX 27 38 28 39 29 40 70 41 30 42 75 43 69 44 71 45 31 46 74 47
REMARK SMILES IDX 68 48 67 49 32 51 58 52 41 53 57 54 42 55 45 56 56 57 72 58
REMARK SMILES IDX 43 59 44 60 55 62 73 63 46 64 33 65 34 66 39 67 35 68 36 69
REMARK SMILES IDX 38 70 40 71 37 72 59 73 60 74 65 75 61 76 62 77 64 78 66 79
REMARK SMILES IDX 63 80 47 81 48 82 53 83 49 84 50 85 52 86 54 87 51 88
REMARK H PARENT 16 6 12 11 12 12 81 23 21 31 71 50 45 61
REMARK Flexibility Score: inf
ROOT
ATOM      1  C   UNL A   1      31.817  30.462  25.876  1.00  0.00     0.023 C 
ENDROOT
BRANCH   1   2
ATOM      2  C   UNL A   1      32.383  29.376  26.790  1.00  0.00     0.116 C 
BRANCH   2   3
ATOM      3  N   UNL A   1      31.442  28.298  27.000  1.00  0.00    -0.351 N 
ATOM      4  C   UNL A   1      31.417  27.028  26.507  1.00  0.00     0.279 C 
ATOM      5  O   UNL A   1      30.466  26.317  26.848  1.00  0.00    -0.268 OA
ATOM      6  H   UNL A   1      30.694  28.519  27.601  1.00  0.00     0.163 HD
BRANCH   4   7
ATOM      7  C   UNL A   1      32.516  26.457  25.593  1.00  0.00     0.283 C 
ATOM      8  C   UNL A   1      32.597  24.159  24.808  1.00  0.00     0.278 C 
ATOM      9  N   UNL A   1      32.850  25.049  25.944  1.00  0.00    -0.320 N 
ATOM     10  S   UNL A   1      32.835  25.152  23.324  1.00  0.00    -0.087 SA
ATOM     11  H   UNL A   1      33.835  24.991  26.200  1.00  0.00     0.348 HD
ATOM     12  H   UNL A   1      32.263  24.758  26.725  1.00  0.00     0.348 HD
ATOM     13  C   UNL A   1      32.257  26.671  24.109  1.00  0.00     0.151 C 
BRANCH   8  14
ATOM     14  C   UNL A   1      33.343  22.832  24.939  1.00  0.00     0.073 A 
ATOM     15  C   UNL A   1      35.283  21.375  25.359  1.00  0.00     0.167 A 
ATOM     16  C   UNL A   1      34.545  20.257  24.958  1.00  0.00     0.136 A 
ATOM     17  C   UNL A   1      34.689  22.656  25.333  1.00  0.00     0.168 A 
ATOM     18  C   UNL A   1      33.231  20.409  24.524  1.00  0.00     0.273 A 
ATOM     19  C   UNL A   1      32.636  21.675  24.515  1.00  0.00     0.100 A 
BRANCH  15  20
ATOM     20  O   UNL A   1      36.559  21.035  25.728  1.00  0.00    -0.493 OA
ATOM     21  C   UNL A   1      37.444  20.504  24.753  1.00  0.00     0.278 C 
ENDBRANCH  15  20
BRANCH  17  22
ATOM     22  O   UNL A   1      35.469  23.724  25.680  1.00  0.00    -0.504 OA
ATOM     23  H   UNL A   1      35.666  24.384  25.047  1.00  0.00     0.293 HD
ENDBRANCH  17  22
BRANCH  18  24
ATOM     24  N   UNL A   1      32.478  19.241  24.050  1.00  0.00     0.062 N 
ATOM     25  O   UNL A   1      32.249  19.154  22.836  1.00  0.00    -0.258 OA
ATOM     26  O   UNL A   1      32.111  18.414  24.896  1.00  0.00    -0.258 OA
ENDBRANCH  18  24
ENDBRANCH   8  14
ENDBRANCH   4   7
ENDBRANCH   2   3
ENDBRANCH   1   2
BRANCH   1  27
ATOM     27  C   UNL A   1      31.499  31.781  26.579  1.00  0.00     0.023 C 
BRANCH  27  28
ATOM     28  C   UNL A   1      32.688  32.458  27.252  1.00  0.00     0.116 C 
BRANCH  28  29
ATOM     29  N   UNL A   1      32.457  33.857  27.578  1.00  0.00    -0.352 N 
ATOM     30  C   UNL A   1      33.125  34.642  28.486  1.00  0.00     0.251 C 
ATOM     31  H   UNL A   1      31.729  34.299  27.083  1.00  0.00     0.163 HD
ATOM     32  O   UNL A   1      32.744  35.786  28.715  1.00  0.00    -0.269 OA
BRANCH  30  33
ATOM     33  C   UNL A   1      34.280  34.083  29.217  1.00  0.00     0.039 A 
ATOM     34  C   UNL A   1      34.042  33.215  30.285  1.00  0.00     0.014 A 
ATOM     35  C   UNL A   1      35.588  34.393  28.837  1.00  0.00     0.014 A 
ATOM     36  C   UNL A   1      35.119  32.612  30.935  1.00  0.00     0.010 A 
ATOM     37  C   UNL A   1      36.656  33.734  29.435  1.00  0.00     0.010 A 
ATOM     38  C   UNL A   1      36.434  32.843  30.496  1.00  0.00    -0.014 A 
BRANCH  38  39
ATOM     39  C   UNL A   1      37.585  32.171  31.147  1.00  0.00     0.031 A 
ATOM     40  C   UNL A   1      38.324  31.077  30.429  1.00  0.00     0.074 A 
ATOM     41  C   UNL A   1      37.937  32.518  32.400  1.00  0.00     0.049 A 
ATOM     42  N   UNL A   1      39.334  30.354  30.839  1.00  0.00    -0.248 NA
ATOM     43  C   UNL A   1      37.849  30.731  29.079  1.00  0.00     0.031 C 
ATOM     44  C   UNL A   1      37.267  33.528  33.221  1.00  0.00     0.029 A 
ATOM     45  N   UNL A   1      38.948  32.056  33.204  1.00  0.00    -0.354 N 
ATOM     46  C   UNL A   1      39.611  29.469  29.805  1.00  0.00     0.074 A 
ATOM     47  C   UNL A   1      38.623  29.700  28.775  1.00  0.00     0.031 C 
ATOM     48  C   UNL A   1      37.903  33.632  34.399  1.00  0.00     0.029 A 
ATOM     49  C   UNL A   1      39.006  32.676  34.430  1.00  0.00     0.049 A 
ATOM     50  H   UNL A   1      39.574  31.347  32.930  1.00  0.00     0.167 HD
ATOM     51  C   UNL A   1      40.615  28.567  29.709  1.00  0.00     0.037 A 
ATOM     52  C   UNL A   1      39.855  32.494  35.458  1.00  0.00     0.037 A 
ATOM     53  C   UNL A   1      41.612  28.356  30.724  1.00  0.00     0.049 A 
ATOM     54  C   UNL A   1      40.957  31.478  35.328  1.00  0.00     0.074 A 
ATOM     55  C   UNL A   1      42.699  27.499  30.702  1.00  0.00     0.029 A 
ATOM     56  N   UNL A   1      41.642  29.011  31.946  1.00  0.00    -0.354 N 
ATOM     57  N   UNL A   1      41.247  30.698  34.315  1.00  0.00    -0.248 NA
ATOM     58  C   UNL A   1      41.855  31.326  36.481  1.00  0.00     0.031 C 
ATOM     59  C   UNL A   1      43.367  27.610  31.926  1.00  0.00     0.029 A 
ATOM     60  C   UNL A   1      42.720  28.565  32.693  1.00  0.00     0.049 A 
ATOM     61  H   UNL A   1      40.994  29.691  32.239  1.00  0.00     0.167 HD
ATOM     62  C   UNL A   1      42.375  29.984  34.698  1.00  0.00     0.074 A 
ATOM     63  C   UNL A   1      42.726  30.436  36.028  1.00  0.00     0.031 C 
ATOM     64  C   UNL A   1      43.061  29.037  34.010  1.00  0.00     0.037 A 
BRANCH  51  65
ATOM     65  C   UNL A   1      40.694  27.751  28.451  1.00  0.00     0.057 A 
ATOM     66  C   UNL A   1      40.023  26.528  28.325  1.00  0.00     0.134 A 
ATOM     67  C   UNL A   1      41.418  28.208  27.343  1.00  0.00     0.134 A 
ATOM     68  F   UNL A   1      39.324  26.027  29.354  1.00  0.00    -0.206 F 
ATOM     69  C   UNL A   1      40.088  25.776  27.151  1.00  0.00     0.040 A 
ATOM     70  C   UNL A   1      41.468  27.478  26.153  1.00  0.00     0.040 A 
ATOM     71  F   UNL A   1      42.081  29.373  27.394  1.00  0.00    -0.206 F 
ATOM     72  C   UNL A   1      40.806  26.256  26.057  1.00  0.00     0.006 A 
ENDBRANCH  51  65
BRANCH  52  73
ATOM     73  C   UNL A   1      39.721  33.308  36.692  1.00  0.00     0.057 A 
ATOM     74  C   UNL A   1      38.850  32.923  37.719  1.00  0.00     0.134 A 
ATOM     75  C   UNL A   1      40.438  34.497  36.869  1.00  0.00     0.134 A 
ATOM     76  F   UNL A   1      38.122  31.802  37.599  1.00  0.00    -0.206 F 
ATOM     77  C   UNL A   1      38.675  33.703  38.862  1.00  0.00     0.040 A 
ATOM     78  C   UNL A   1      40.292  35.274  38.019  1.00  0.00     0.040 A 
ATOM     79  F   UNL A   1      41.295  34.918  35.926  1.00  0.00    -0.206 F 
ATOM     80  C   UNL A   1      39.401  34.882  39.016  1.00  0.00     0.006 A 
ENDBRANCH  52  73
BRANCH  64  81
ATOM     81  C   UNL A   1      44.276  28.457  34.670  1.00  0.00     0.057 A 
ATOM     82  C   UNL A   1      44.211  27.292  35.446  1.00  0.00     0.134 A 
ATOM     83  C   UNL A   1      45.533  29.050  34.494  1.00  0.00     0.134 A 
ATOM     84  F   UNL A   1      43.035  26.685  35.662  1.00  0.00    -0.206 F 
ATOM     85  C   UNL A   1      45.350  26.753  36.045  1.00  0.00     0.040 A 
ATOM     86  C   UNL A   1      46.683  28.504  35.066  1.00  0.00     0.040 A 
ATOM     87  F   UNL A   1      45.665  30.162  33.754  1.00  0.00    -0.206 F 
ATOM     88  C   UNL A   1      46.591  27.355  35.849  1.00  0.00     0.006 A 
ENDBRANCH  64  81
ENDBRANCH  38  39
ENDBRANCH  30  33
ENDBRANCH  28  29
ENDBRANCH  27  28
ENDBRANCH   1  27
TORSDOF 15
ENDMDL
