MODEL 1
REMARK VINA RESULT:     -12.5      0.000      0.000
REMARK SMILES O=C(NCCCCNC(=O)[C@@H]1CC=CC[C@@H]1C(=O)Nc1ccc(O)cc1)c1ccc(-c2c3nc(c(-c4c(F)cccc4F)c4ccc([nH]4)c(-c4c(F)cccc4F)c4nc(c(-c5c(F)cccc5F)c5ccc2[nH]5)C=C4)C=C3)cc1
REMARK SMILES IDX 6 1 5 2 4 3 3 4 1 5 2 6 27 8 28 9 80 10 29 11 79 12 30 13
REMARK SMILES IDX 31 14 32 15 73 16 33 17 78 18 72 19 74 20 34 21 77 22 71 23
REMARK SMILES IDX 70 24 35 26 61 27 44 28 60 29 45 30 48 31 59 32 75 33 46 34
REMARK SMILES IDX 47 35 58 37 76 38 49 39 36 40 37 41 42 42 38 43 39 44 41 45
REMARK SMILES IDX 43 46 40 47 62 48 63 49 68 50 64 51 65 52 67 53 69 54 66 55
REMARK SMILES IDX 50 56 51 57 56 58 52 59 53 60 55 61 57 62 54 63 7 64 8 65
REMARK SMILES IDX 9 66 10 68 11 69 12 70 16 71 13 72 15 73 14 74 17 75 18 76
REMARK SMILES IDX 19 77 20 79 21 80 26 81 22 82 25 83 23 84 24 85
REMARK H PARENT 3 7 74 25 48 36 8 67 19 78 24 86
REMARK Flexibility Score: inf
ROOT
ATOM      1  C   UNL A   1      31.515  30.706  26.302  1.00  0.00     0.023 C 
ENDROOT
BRANCH   1   2
ATOM      2  C   UNL A   1      31.403  32.211  26.508  1.00  0.00     0.023 C 
BRANCH   2   3
ATOM      3  C   UNL A   1      32.573  32.837  27.251  1.00  0.00     0.116 C 
BRANCH   3   4
ATOM      4  N   UNL A   1      32.320  34.216  27.637  1.00  0.00    -0.352 N 
ATOM      5  O   UNL A   1      32.525  36.085  28.884  1.00  0.00    -0.269 OA
ATOM      6  C   UNL A   1      32.965  34.989  28.574  1.00  0.00     0.251 C 
ATOM      7  H   UNL A   1      31.582  34.661  27.160  1.00  0.00     0.163 HD
BRANCH   6   8
ATOM      8  C   UNL A   1      34.184  34.464  29.222  1.00  0.00     0.039 A 
ATOM      9  C   UNL A   1      35.440  34.655  28.640  1.00  0.00     0.014 A 
ATOM     10  C   UNL A   1      34.058  33.760  30.421  1.00  0.00     0.014 A 
ATOM     11  C   UNL A   1      36.553  34.023  29.179  1.00  0.00     0.010 A 
ATOM     12  C   UNL A   1      35.191  33.197  31.008  1.00  0.00     0.010 A 
ATOM     13  C   UNL A   1      36.440  33.300  30.375  1.00  0.00    -0.014 A 
BRANCH  13  14
ATOM     14  C   UNL A   1      37.641  32.693  30.996  1.00  0.00     0.031 A 
ATOM     15  C   UNL A   1      38.309  31.503  30.372  1.00  0.00     0.074 A 
ATOM     16  C   UNL A   1      38.101  33.202  32.154  1.00  0.00     0.049 A 
ATOM     17  N   UNL A   1      39.293  30.773  30.831  1.00  0.00    -0.248 NA
ATOM     18  C   UNL A   1      37.793  31.068  29.065  1.00  0.00     0.031 C 
ATOM     19  C   UNL A   1      37.535  34.359  32.850  1.00  0.00     0.029 A 
ATOM     20  N   UNL A   1      39.136  32.801  32.958  1.00  0.00    -0.354 N 
ATOM     21  C   UNL A   1      39.499  29.777  29.887  1.00  0.00     0.074 A 
ATOM     22  C   UNL A   1      38.520  29.983  28.838  1.00  0.00     0.031 C 
ATOM     23  C   UNL A   1      38.230  34.576  33.974  1.00  0.00     0.029 A 
ATOM     24  C   UNL A   1      39.244  33.537  34.112  1.00  0.00     0.049 A 
ATOM     25  H   UNL A   1      39.741  32.058  32.731  1.00  0.00     0.167 HD
ATOM     26  C   UNL A   1      40.421  28.784  29.895  1.00  0.00     0.037 A 
ATOM     27  C   UNL A   1      40.038  33.370  35.184  1.00  0.00     0.037 A 
ATOM     28  C   UNL A   1      41.389  28.593  30.946  1.00  0.00     0.049 A 
ATOM     29  C   UNL A   1      41.019  32.236  35.196  1.00  0.00     0.074 A 
ATOM     30  C   UNL A   1      42.390  27.642  31.033  1.00  0.00     0.029 A 
ATOM     31  N   UNL A   1      41.466  29.362  32.100  1.00  0.00    -0.354 N 
ATOM     32  N   UNL A   1      41.228  31.317  34.286  1.00  0.00    -0.248 NA
ATOM     33  C   UNL A   1      41.875  32.112  36.384  1.00  0.00     0.031 C 
ATOM     34  C   UNL A   1      43.034  27.797  32.265  1.00  0.00     0.029 A 
ATOM     35  C   UNL A   1      42.478  28.887  32.918  1.00  0.00     0.049 A 
ATOM     36  H   UNL A   1      40.887  30.130  32.307  1.00  0.00     0.167 HD
ATOM     37  C   UNL A   1      42.259  30.525  34.772  1.00  0.00     0.074 A 
ATOM     38  C   UNL A   1      42.631  31.072  36.060  1.00  0.00     0.031 C 
ATOM     39  C   UNL A   1      42.847  29.448  34.195  1.00  0.00     0.037 A 
BRANCH  26  40
ATOM     40  C   UNL A   1      40.397  27.807  28.755  1.00  0.00     0.057 A 
ATOM     41  C   UNL A   1      39.635  26.631  28.792  1.00  0.00     0.134 A 
ATOM     42  C   UNL A   1      41.144  28.052  27.594  1.00  0.00     0.134 A 
ATOM     43  F   UNL A   1      38.903  26.330  29.876  1.00  0.00    -0.206 F 
ATOM     44  C   UNL A   1      39.647  25.718  27.736  1.00  0.00     0.040 A 
ATOM     45  C   UNL A   1      41.140  27.161  26.519  1.00  0.00     0.040 A 
ATOM     46  F   UNL A   1      41.888  29.162  27.483  1.00  0.00    -0.206 F 
ATOM     47  C   UNL A   1      40.399  25.984  26.593  1.00  0.00     0.006 A 
ENDBRANCH  26  40
BRANCH  27  48
ATOM     48  C   UNL A   1      39.914  34.304  36.328  1.00  0.00     0.057 A 
ATOM     49  C   UNL A   1      40.566  35.541  36.326  1.00  0.00     0.134 A 
ATOM     50  C   UNL A   1      39.090  34.008  37.422  1.00  0.00     0.134 A 
ATOM     51  F   UNL A   1      41.376  35.876  35.311  1.00  0.00    -0.206 F 
ATOM     52  C   UNL A   1      40.409  36.449  37.374  1.00  0.00     0.040 A 
ATOM     53  C   UNL A   1      38.904  34.917  38.464  1.00  0.00     0.040 A 
ATOM     54  F   UNL A   1      38.426  32.844  37.473  1.00  0.00    -0.206 F 
ATOM     55  C   UNL A   1      39.567  36.141  38.443  1.00  0.00     0.006 A 
ENDBRANCH  27  48
BRANCH  39  56
ATOM     56  C   UNL A   1      43.996  28.814  34.923  1.00  0.00     0.057 A 
ATOM     57  C   UNL A   1      43.815  27.751  35.816  1.00  0.00     0.134 A 
ATOM     58  C   UNL A   1      45.309  29.231  34.667  1.00  0.00     0.134 A 
ATOM     59  F   UNL A   1      42.583  27.315  36.116  1.00  0.00    -0.206 F 
ATOM     60  C   UNL A   1      44.901  27.129  36.435  1.00  0.00     0.040 A 
ATOM     61  C   UNL A   1      46.403  28.600  35.258  1.00  0.00     0.040 A 
ATOM     62  F   UNL A   1      45.549  30.240  33.817  1.00  0.00    -0.206 F 
ATOM     63  C   UNL A   1      46.201  27.547  36.147  1.00  0.00     0.006 A 
ENDBRANCH  39  56
ENDBRANCH  13  14
ENDBRANCH   6   8
ENDBRANCH   3   4
ENDBRANCH   2   3
ENDBRANCH   1   2
BRANCH   1  64
ATOM     64  C   UNL A   1      32.873  30.110  26.660  1.00  0.00     0.116 C 
BRANCH  64  65
ATOM     65  N   UNL A   1      33.659  29.695  25.505  1.00  0.00    -0.356 N 
ATOM     66  C   UNL A   1      33.547  28.541  24.764  1.00  0.00     0.224 C 
ATOM     67  H   UNL A   1      34.360  30.322  25.217  1.00  0.00     0.163 HD
ATOM     68  O   UNL A   1      34.037  28.516  23.638  1.00  0.00    -0.275 OA
BRANCH  66  69
ATOM     69  C   UNL A   1      32.770  27.391  25.379  1.00  0.00     0.095 C 
ATOM     70  C   UNL A   1      33.499  26.040  25.223  1.00  0.00     0.041 C 
ATOM     71  C   UNL A   1      31.263  27.247  25.032  1.00  0.00     0.095 C 
ATOM     72  C   UNL A   1      32.748  24.917  25.882  1.00  0.00    -0.030 C 
ATOM     73  C   UNL A   1      30.740  26.355  26.189  1.00  0.00     0.041 C 
ATOM     74  C   UNL A   1      31.504  25.072  26.355  1.00  0.00    -0.030 C 
BRANCH  71  75
ATOM     75  C   UNL A   1      31.058  26.727  23.589  1.00  0.00     0.228 C 
ATOM     76  O   UNL A   1      31.552  25.655  23.220  1.00  0.00    -0.274 OA
ATOM     77  N   UNL A   1      30.335  27.379  22.629  1.00  0.00    -0.326 N 
ATOM     78  H   UNL A   1      30.404  27.000  21.724  1.00  0.00     0.169 HD
BRANCH  77  79
ATOM     79  C   UNL A   1      29.516  28.501  22.739  1.00  0.00     0.041 A 
ATOM     80  C   UNL A   1      30.022  29.790  22.911  1.00  0.00     0.030 A 
ATOM     81  C   UNL A   1      28.136  28.273  22.763  1.00  0.00     0.030 A 
ATOM     82  C   UNL A   1      29.153  30.828  23.262  1.00  0.00     0.048 A 
ATOM     83  C   UNL A   1      27.274  29.305  23.126  1.00  0.00     0.048 A 
ATOM     84  C   UNL A   1      27.793  30.562  23.411  1.00  0.00     0.115 A 
BRANCH  84  85
ATOM     85  O   UNL A   1      26.929  31.508  23.876  1.00  0.00    -0.508 OA
ATOM     86  H   UNL A   1      26.612  32.176  23.300  1.00  0.00     0.293 HD
ENDBRANCH  84  85
ENDBRANCH  77  79
ENDBRANCH  71  75
ENDBRANCH  66  69
ENDBRANCH  64  65
ENDBRANCH   1  64
TORSDOF 14
ENDMDL
MODEL 2
REMARK VINA RESULT:     -12.5      5.772     10.693
REMARK SMILES O=C(NCCCCNC(=O)[C@@H]1CC=CC[C@@H]1C(=O)Nc1ccc(O)cc1)c1ccc(-c2c3nc(c(-c4c(F)cccc4F)c4ccc([nH]4)c(-c4c(F)cccc4F)c4nc(c(-c5c(F)cccc5F)c5ccc2[nH]5)C=C4)C=C3)cc1
REMARK SMILES IDX 6 1 5 2 4 3 3 4 1 5 2 6 27 8 28 9 80 10 29 11 79 12 30 13
REMARK SMILES IDX 31 14 32 15 73 16 33 17 78 18 72 19 74 20 34 21 77 22 71 23
REMARK SMILES IDX 70 24 35 26 61 27 44 28 60 29 45 30 48 31 59 32 75 33 46 34
REMARK SMILES IDX 47 35 58 37 76 38 49 39 36 40 37 41 42 42 38 43 39 44 41 45
REMARK SMILES IDX 43 46 40 47 62 48 63 49 68 50 64 51 65 52 67 53 69 54 66 55
REMARK SMILES IDX 50 56 51 57 56 58 52 59 53 60 55 61 57 62 54 63 7 64 8 65
REMARK SMILES IDX 9 66 10 68 11 69 12 70 16 71 13 72 15 73 14 74 17 75 18 76
REMARK SMILES IDX 19 77 20 79 21 80 26 81 22 82 25 83 23 84 24 85
REMARK H PARENT 3 7 74 25 48 36 8 67 19 78 24 86
REMARK Flexibility Score: inf
ROOT
ATOM      1  C   UNL A   1      37.068  20.841  24.574  1.00  0.00     0.023 C 
ENDROOT
BRANCH   1   2
ATOM      2  C   UNL A   1      37.974  19.701  25.020  1.00  0.00     0.023 C 
BRANCH   2   3
ATOM      3  C   UNL A   1      39.195  20.137  25.815  1.00  0.00     0.116 C 
BRANCH   3   4
ATOM      4  N   UNL A   1      40.240  19.125  25.840  1.00  0.00    -0.352 N 
ATOM      5  O   UNL A   1      42.352  18.335  25.913  1.00  0.00    -0.269 OA
ATOM      6  C   UNL A   1      41.585  19.270  26.083  1.00  0.00     0.251 C 
ATOM      7  H   UNL A   1      39.942  18.204  25.656  1.00  0.00     0.163 HD
BRANCH   6   8
ATOM      8  C   UNL A   1      42.097  20.583  26.526  1.00  0.00     0.039 A 
ATOM      9  C   UNL A   1      42.147  20.907  27.884  1.00  0.00     0.014 A 
ATOM     10  C   UNL A   1      42.517  21.501  25.562  1.00  0.00     0.014 A 
ATOM     11  C   UNL A   1      42.483  22.198  28.273  1.00  0.00     0.010 A 
ATOM     12  C   UNL A   1      42.936  22.770  25.960  1.00  0.00     0.010 A 
ATOM     13  C   UNL A   1      42.893  23.136  27.316  1.00  0.00    -0.014 A 
BRANCH  13  14
ATOM     14  C   UNL A   1      43.330  24.488  27.736  1.00  0.00     0.031 A 
ATOM     15  C   UNL A   1      42.325  25.531  28.127  1.00  0.00     0.074 A 
ATOM     16  C   UNL A   1      44.644  24.780  27.722  1.00  0.00     0.049 A 
ATOM     17  N   UNL A   1      42.515  26.795  28.409  1.00  0.00    -0.248 NA
ATOM     18  C   UNL A   1      40.921  25.101  28.198  1.00  0.00     0.031 C 
ATOM     19  C   UNL A   1      45.711  23.844  27.363  1.00  0.00     0.029 A 
ATOM     20  N   UNL A   1      45.303  25.950  27.997  1.00  0.00    -0.354 N 
ATOM     21  C   UNL A   1      41.255  27.319  28.664  1.00  0.00     0.074 A 
ATOM     22  C   UNL A   1      40.305  26.240  28.480  1.00  0.00     0.031 C 
ATOM     23  C   UNL A   1      46.890  24.474  27.443  1.00  0.00     0.029 A 
ATOM     24  C   UNL A   1      46.658  25.871  27.790  1.00  0.00     0.049 A 
ATOM     25  H   UNL A   1      44.849  26.765  28.311  1.00  0.00     0.167 HD
ATOM     26  C   UNL A   1      40.923  28.584  29.020  1.00  0.00     0.037 A 
ATOM     27  C   UNL A   1      47.605  26.825  27.832  1.00  0.00     0.037 A 
ATOM     28  C   UNL A   1      41.880  29.647  29.200  1.00  0.00     0.049 A 
ATOM     29  C   UNL A   1      47.212  28.230  28.180  1.00  0.00     0.074 A 
ATOM     30  C   UNL A   1      41.653  30.953  29.596  1.00  0.00     0.029 A 
ATOM     31  N   UNL A   1      43.246  29.527  28.982  1.00  0.00    -0.354 N 
ATOM     32  N   UNL A   1      46.023  28.710  28.450  1.00  0.00    -0.248 NA
ATOM     33  C   UNL A   1      48.289  29.227  28.230  1.00  0.00     0.031 C 
ATOM     34  C   UNL A   1      42.872  31.638  29.559  1.00  0.00     0.029 A 
ATOM     35  C   UNL A   1      43.870  30.743  29.205  1.00  0.00     0.049 A 
ATOM     36  H   UNL A   1      43.704  28.700  28.708  1.00  0.00     0.167 HD
ATOM     37  C   UNL A   1      46.209  30.056  28.733  1.00  0.00     0.074 A 
ATOM     38  C   UNL A   1      47.628  30.316  28.600  1.00  0.00     0.031 C 
ATOM     39  C   UNL A   1      45.286  30.987  29.080  1.00  0.00     0.037 A 
BRANCH  26  40
ATOM     40  C   UNL A   1      39.464  28.894  29.197  1.00  0.00     0.057 A 
ATOM     41  C   UNL A   1      38.817  28.768  30.433  1.00  0.00     0.134 A 
ATOM     42  C   UNL A   1      38.695  29.334  28.111  1.00  0.00     0.134 A 
ATOM     43  F   UNL A   1      39.491  28.344  31.514  1.00  0.00    -0.206 F 
ATOM     44  C   UNL A   1      37.453  29.031  30.575  1.00  0.00     0.040 A 
ATOM     45  C   UNL A   1      37.337  29.629  28.247  1.00  0.00     0.040 A 
ATOM     46  F   UNL A   1      39.250  29.488  26.900  1.00  0.00    -0.206 F 
ATOM     47  C   UNL A   1      36.709  29.466  29.480  1.00  0.00     0.006 A 
ENDBRANCH  26  40
BRANCH  27  48
ATOM     48  C   UNL A   1      49.008  26.464  27.521  1.00  0.00     0.057 A 
ATOM     49  C   UNL A   1      49.885  26.040  28.523  1.00  0.00     0.134 A 
ATOM     50  C   UNL A   1      49.487  26.476  26.204  1.00  0.00     0.134 A 
ATOM     51  F   UNL A   1      49.487  26.017  29.803  1.00  0.00    -0.206 F 
ATOM     52  C   UNL A   1      51.191  25.645  28.229  1.00  0.00     0.040 A 
ATOM     53  C   UNL A   1      50.781  26.060  25.893  1.00  0.00     0.040 A 
ATOM     54  F   UNL A   1      48.688  26.859  25.197  1.00  0.00    -0.206 F 
ATOM     55  C   UNL A   1      51.639  25.645  26.909  1.00  0.00     0.006 A 
ENDBRANCH  27  48
BRANCH  39  56
ATOM     56  C   UNL A   1      45.782  32.367  29.396  1.00  0.00     0.057 A 
ATOM     57  C   UNL A   1      46.223  32.725  30.676  1.00  0.00     0.134 A 
ATOM     58  C   UNL A   1      45.885  33.329  28.382  1.00  0.00     0.134 A 
ATOM     59  F   UNL A   1      46.137  31.857  31.694  1.00  0.00    -0.206 F 
ATOM     60  C   UNL A   1      46.743  33.995  30.937  1.00  0.00     0.040 A 
ATOM     61  C   UNL A   1      46.427  34.590  28.624  1.00  0.00     0.040 A 
ATOM     62  F   UNL A   1      45.485  33.046  27.133  1.00  0.00    -0.206 F 
ATOM     63  C   UNL A   1      46.856  34.927  29.906  1.00  0.00     0.006 A 
ENDBRANCH  39  56
ENDBRANCH  13  14
ENDBRANCH   6   8
ENDBRANCH   3   4
ENDBRANCH   2   3
ENDBRANCH   1   2
BRANCH   1  64
ATOM     64  C   UNL A   1      37.278  22.154  25.320  1.00  0.00     0.116 C 
BRANCH  64  65
ATOM     65  N   UNL A   1      36.398  22.328  26.469  1.00  0.00    -0.356 N 
ATOM     66  C   UNL A   1      35.107  22.806  26.495  1.00  0.00     0.224 C 
ATOM     67  H   UNL A   1      36.775  22.069  27.340  1.00  0.00     0.163 HD
ATOM     68  O   UNL A   1      34.408  22.555  27.472  1.00  0.00    -0.275 OA
BRANCH  66  69
ATOM     69  C   UNL A   1      34.623  23.568  25.275  1.00  0.00     0.095 C 
ATOM     70  C   UNL A   1      33.805  24.820  25.652  1.00  0.00     0.041 C 
ATOM     71  C   UNL A   1      33.924  22.774  24.137  1.00  0.00     0.095 C 
ATOM     72  C   UNL A   1      33.375  25.596  24.438  1.00  0.00    -0.030 C 
ATOM     73  C   UNL A   1      34.059  23.739  22.929  1.00  0.00     0.041 C 
ATOM     74  C   UNL A   1      33.525  25.118  23.195  1.00  0.00    -0.030 C 
BRANCH  71  75
ATOM     75  C   UNL A   1      32.494  22.340  24.540  1.00  0.00     0.228 C 
ATOM     76  O   UNL A   1      31.656  23.170  24.914  1.00  0.00    -0.274 OA
ATOM     77  N   UNL A   1      32.045  21.049  24.516  1.00  0.00    -0.326 N 
ATOM     78  H   UNL A   1      31.162  20.907  24.927  1.00  0.00     0.169 HD
BRANCH  77  79
ATOM     79  C   UNL A   1      32.647  19.905  23.999  1.00  0.00     0.041 A 
ATOM     80  C   UNL A   1      32.168  19.249  22.863  1.00  0.00     0.030 A 
ATOM     81  C   UNL A   1      33.718  19.373  24.724  1.00  0.00     0.030 A 
ATOM     82  C   UNL A   1      32.661  17.980  22.544  1.00  0.00     0.048 A 
ATOM     83  C   UNL A   1      34.197  18.103  24.413  1.00  0.00     0.048 A 
ATOM     84  C   UNL A   1      33.638  17.401  23.352  1.00  0.00     0.115 A 
BRANCH  84  85
ATOM     85  O   UNL A   1      34.055  16.118  23.157  1.00  0.00    -0.508 OA
ATOM     86  H   UNL A   1      33.565  15.407  23.520  1.00  0.00     0.293 HD
ENDBRANCH  84  85
ENDBRANCH  77  79
ENDBRANCH  71  75
ENDBRANCH  66  69
ENDBRANCH  64  65
ENDBRANCH   1  64
TORSDOF 14
ENDMDL
MODEL 3
REMARK VINA RESULT:     -12.3      0.500      6.358
REMARK SMILES O=C(NCCCCNC(=O)[C@@H]1CC=CC[C@@H]1C(=O)Nc1ccc(O)cc1)c1ccc(-c2c3nc(c(-c4c(F)cccc4F)c4ccc([nH]4)c(-c4c(F)cccc4F)c4nc(c(-c5c(F)cccc5F)c5ccc2[nH]5)C=C4)C=C3)cc1
REMARK SMILES IDX 6 1 5 2 4 3 3 4 1 5 2 6 27 8 28 9 80 10 29 11 79 12 30 13
REMARK SMILES IDX 31 14 32 15 73 16 33 17 78 18 72 19 74 20 34 21 77 22 71 23
REMARK SMILES IDX 70 24 35 26 61 27 44 28 60 29 45 30 48 31 59 32 75 33 46 34
REMARK SMILES IDX 47 35 58 37 76 38 49 39 36 40 37 41 42 42 38 43 39 44 41 45
REMARK SMILES IDX 43 46 40 47 62 48 63 49 68 50 64 51 65 52 67 53 69 54 66 55
REMARK SMILES IDX 50 56 51 57 56 58 52 59 53 60 55 61 57 62 54 63 7 64 8 65
REMARK SMILES IDX 9 66 10 68 11 69 12 70 16 71 13 72 15 73 14 74 17 75 18 76
REMARK SMILES IDX 19 77 20 79 21 80 26 81 22 82 25 83 23 84 24 85
REMARK H PARENT 3 7 74 25 48 36 8 67 19 78 24 86
REMARK Flexibility Score: inf
ROOT
ATOM      1  C   UNL A   1      31.494  30.765  26.289  1.00  0.00     0.023 C 
ENDROOT
BRANCH   1   2
ATOM      2  C   UNL A   1      31.382  32.256  26.576  1.00  0.00     0.023 C 
BRANCH   2   3
ATOM      3  C   UNL A   1      32.630  32.878  27.184  1.00  0.00     0.116 C 
BRANCH   3   4
ATOM      4  N   UNL A   1      32.406  34.234  27.663  1.00  0.00    -0.352 N 
ATOM      5  O   UNL A   1      32.623  35.998  29.051  1.00  0.00    -0.269 OA
ATOM      6  C   UNL A   1      33.040  34.913  28.675  1.00  0.00     0.251 C 
ATOM      7  H   UNL A   1      31.699  34.736  27.195  1.00  0.00     0.163 HD
BRANCH   6   8
ATOM      8  C   UNL A   1      34.218  34.302  29.324  1.00  0.00     0.039 A 
ATOM      9  C   UNL A   1      35.503  34.521  28.820  1.00  0.00     0.014 A 
ATOM     10  C   UNL A   1      34.023  33.488  30.441  1.00  0.00     0.014 A 
ATOM     11  C   UNL A   1      36.578  33.816  29.345  1.00  0.00     0.010 A 
ATOM     12  C   UNL A   1      35.117  32.847  31.021  1.00  0.00     0.010 A 
ATOM     13  C   UNL A   1      36.397  32.983  30.458  1.00  0.00    -0.014 A 
BRANCH  13  14
ATOM     14  C   UNL A   1      37.557  32.293  31.070  1.00  0.00     0.031 A 
ATOM     15  C   UNL A   1      38.194  32.827  32.320  1.00  0.00     0.074 A 
ATOM     16  C   UNL A   1      38.059  31.202  30.463  1.00  0.00     0.049 A 
ATOM     17  N   UNL A   1      39.280  32.425  32.929  1.00  0.00    -0.248 NA
ATOM     18  C   UNL A   1      37.529  33.970  32.962  1.00  0.00     0.031 C 
ATOM     19  C   UNL A   1      37.520  30.591  29.247  1.00  0.00     0.029 A 
ATOM     20  N   UNL A   1      39.144  30.425  30.775  1.00  0.00    -0.354 N 
ATOM     21  C   UNL A   1      39.446  33.280  34.010  1.00  0.00     0.074 A 
ATOM     22  C   UNL A   1      38.361  34.239  33.959  1.00  0.00     0.031 C 
ATOM     23  C   UNL A   1      38.273  29.534  28.917  1.00  0.00     0.029 A 
ATOM     24  C   UNL A   1      39.383  29.433  29.857  1.00  0.00     0.049 A 
ATOM     25  H   UNL A   1      39.696  30.564  31.578  1.00  0.00     0.167 HD
ATOM     26  C   UNL A   1      40.416  33.265  34.956  1.00  0.00     0.037 A 
ATOM     27  C   UNL A   1      40.406  28.566  29.754  1.00  0.00     0.037 A 
ATOM     28  C   UNL A   1      41.489  32.304  34.994  1.00  0.00     0.049 A 
ATOM     29  C   UNL A   1      41.496  28.596  30.784  1.00  0.00     0.074 A 
ATOM     30  C   UNL A   1      42.501  32.177  35.930  1.00  0.00     0.029 A 
ATOM     31  N   UNL A   1      41.698  31.313  34.044  1.00  0.00    -0.354 N 
ATOM     32  N   UNL A   1      41.629  29.388  31.819  1.00  0.00    -0.248 NA
ATOM     33  C   UNL A   1      42.578  27.615  30.633  1.00  0.00     0.031 C 
ATOM     34  C   UNL A   1      43.354  31.149  35.514  1.00  0.00     0.029 A 
ATOM     35  C   UNL A   1      42.838  30.591  34.355  1.00  0.00     0.049 A 
ATOM     36  H   UNL A   1      41.121  31.148  33.264  1.00  0.00     0.167 HD
ATOM     37  C   UNL A   1      42.790  28.983  32.463  1.00  0.00     0.074 A 
ATOM     38  C   UNL A   1      43.324  27.874  31.699  1.00  0.00     0.031 C 
ATOM     39  C   UNL A   1      43.354  29.481  33.591  1.00  0.00     0.037 A 
BRANCH  26  40
ATOM     40  C   UNL A   1      40.380  34.343  36.002  1.00  0.00     0.057 A 
ATOM     41  C   UNL A   1      41.054  35.561  35.844  1.00  0.00     0.134 A 
ATOM     42  C   UNL A   1      39.651  34.161  37.185  1.00  0.00     0.134 A 
ATOM     43  F   UNL A   1      41.778  35.800  34.739  1.00  0.00    -0.206 F 
ATOM     44  C   UNL A   1      41.036  36.542  36.838  1.00  0.00     0.040 A 
ATOM     45  C   UNL A   1      39.601  35.146  38.173  1.00  0.00     0.040 A 
ATOM     46  F   UNL A   1      38.973  33.024  37.401  1.00  0.00    -0.206 F 
ATOM     47  C   UNL A   1      40.304  36.336  38.007  1.00  0.00     0.006 A 
ENDBRANCH  26  40
BRANCH  27  48
ATOM     48  C   UNL A   1      40.434  27.614  28.618  1.00  0.00     0.057 A 
ATOM     49  C   UNL A   1      39.707  26.421  28.657  1.00  0.00     0.134 A 
ATOM     50  C   UNL A   1      41.142  27.904  27.444  1.00  0.00     0.134 A 
ATOM     51  F   UNL A   1      39.019  26.084  29.758  1.00  0.00    -0.206 F 
ATOM     52  C   UNL A   1      39.684  25.546  27.570  1.00  0.00     0.040 A 
ATOM     53  C   UNL A   1      41.106  27.051  26.341  1.00  0.00     0.040 A 
ATOM     54  F   UNL A   1      41.846  29.040  27.341  1.00  0.00    -0.206 F 
ATOM     55  C   UNL A   1      40.377  25.866  26.403  1.00  0.00     0.006 A 
ENDBRANCH  27  48
BRANCH  39  56
ATOM     56  C   UNL A   1      44.588  28.801  34.106  1.00  0.00     0.057 A 
ATOM     57  C   UNL A   1      45.875  29.244  33.777  1.00  0.00     0.134 A 
ATOM     58  C   UNL A   1      44.481  27.731  35.005  1.00  0.00     0.134 A 
ATOM     59  F   UNL A   1      46.046  30.253  32.910  1.00  0.00    -0.206 F 
ATOM     60  C   UNL A   1      47.012  28.640  34.317  1.00  0.00     0.040 A 
ATOM     61  C   UNL A   1      45.608  27.138  35.572  1.00  0.00     0.040 A 
ATOM     62  F   UNL A   1      43.276  27.263  35.365  1.00  0.00    -0.206 F 
ATOM     63  C   UNL A   1      46.879  27.591  35.227  1.00  0.00     0.006 A 
ENDBRANCH  39  56
ENDBRANCH  13  14
ENDBRANCH   6   8
ENDBRANCH   3   4
ENDBRANCH   2   3
ENDBRANCH   1   2
BRANCH   1  64
ATOM     64  C   UNL A   1      32.834  30.139  26.661  1.00  0.00     0.116 C 
BRANCH  64  65
ATOM     65  N   UNL A   1      33.632  29.727  25.513  1.00  0.00    -0.356 N 
ATOM     66  C   UNL A   1      33.534  28.570  24.773  1.00  0.00     0.224 C 
ATOM     67  H   UNL A   1      34.331  30.358  25.229  1.00  0.00     0.163 HD
ATOM     68  O   UNL A   1      34.033  28.547  23.652  1.00  0.00    -0.275 OA
BRANCH  66  69
ATOM     69  C   UNL A   1      32.761  27.416  25.385  1.00  0.00     0.095 C 
ATOM     70  C   UNL A   1      33.503  26.071  25.241  1.00  0.00     0.041 C 
ATOM     71  C   UNL A   1      31.259  27.259  25.023  1.00  0.00     0.095 C 
ATOM     72  C   UNL A   1      32.755  24.945  25.896  1.00  0.00    -0.030 C 
ATOM     73  C   UNL A   1      30.732  26.367  26.179  1.00  0.00     0.041 C 
ATOM     74  C   UNL A   1      31.505  25.090  26.356  1.00  0.00    -0.030 C 
BRANCH  71  75
ATOM     75  C   UNL A   1      31.073  26.731  23.580  1.00  0.00     0.228 C 
ATOM     76  O   UNL A   1      31.577  25.661  23.221  1.00  0.00    -0.274 OA
ATOM     77  N   UNL A   1      30.358  27.377  22.610  1.00  0.00    -0.326 N 
ATOM     78  H   UNL A   1      30.439  26.994  21.707  1.00  0.00     0.169 HD
BRANCH  77  79
ATOM     79  C   UNL A   1      29.532  28.494  22.706  1.00  0.00     0.041 A 
ATOM     80  C   UNL A   1      30.030  29.798  22.761  1.00  0.00     0.030 A 
ATOM     81  C   UNL A   1      28.160  28.255  22.840  1.00  0.00     0.030 A 
ATOM     82  C   UNL A   1      29.172  30.847  23.105  1.00  0.00     0.048 A 
ATOM     83  C   UNL A   1      27.311  29.299  23.197  1.00  0.00     0.048 A 
ATOM     84  C   UNL A   1      27.830  30.577  23.366  1.00  0.00     0.115 A 
BRANCH  84  85
ATOM     85  O   UNL A   1      26.986  31.542  23.829  1.00  0.00    -0.508 OA
ATOM     86  H   UNL A   1      27.313  32.221  24.386  1.00  0.00     0.293 HD
ENDBRANCH  84  85
ENDBRANCH  77  79
ENDBRANCH  71  75
ENDBRANCH  66  69
ENDBRANCH  64  65
ENDBRANCH   1  64
TORSDOF 14
ENDMDL
